# generated using pymatgen
data_SmY2Co8P6W
_symmetry_space_group_name_H-M   'P 1'
_cell_length_a   3.74728800
_cell_length_b   10.61374100
_cell_length_c   12.30890300
_cell_angle_alpha   90.00000000
_cell_angle_beta   90.00000000
_cell_angle_gamma   90.00000000
_symmetry_Int_Tables_number   1
_chemical_formula_structural   SmY2Co8P6W
_chemical_formula_sum   'Sm2 Y4 Co16 P12 W2'
_cell_volume   489.55885144
_cell_formula_units_Z   2
loop_
 _symmetry_equiv_pos_site_id
 _symmetry_equiv_pos_as_xyz
  1  'x, y, z'
loop_
 _atom_site_type_symbol
 _atom_site_label
 _atom_site_symmetry_multiplicity
 _atom_site_fract_x
 _atom_site_fract_y
 _atom_site_fract_z
 _atom_site_occupancy
  Sm  Sm0  1  0.000000  0.500000  0.524513  1
  Sm  Sm1  1  0.500000  0.000000  0.475487  1
  Y  Y2  1  0.500000  0.819029  0.204402  1
  Y  Y3  1  0.500000  0.180971  0.204402  1
  Y  Y4  1  0.000000  0.680971  0.795598  1
  Y  Y5  1  0.000000  0.319029  0.795598  1
  Co  Co6  1  0.500000  0.500000  0.702871  1
  Co  Co7  1  0.000000  0.000000  0.297129  1
  Co  Co8  1  0.000000  0.500000  0.987357  1
  Co  Co9  1  0.500000  0.000000  0.012643  1
  Co  Co10  1  0.500000  0.332625  0.990515  1
  Co  Co11  1  0.500000  0.667375  0.990515  1
  Co  Co12  1  0.000000  0.167375  0.009485  1
  Co  Co13  1  0.000000  0.832625  0.009485  1
  Co  Co14  1  0.500000  0.295434  0.430632  1
  Co  Co15  1  0.500000  0.704566  0.430632  1
  Co  Co16  1  0.000000  0.204566  0.569368  1
  Co  Co17  1  0.000000  0.795434  0.569368  1
  Co  Co18  1  0.500000  0.878805  0.708859  1
  Co  Co19  1  0.500000  0.121195  0.708859  1
  Co  Co20  1  0.000000  0.621195  0.291141  1
  Co  Co21  1  0.000000  0.378805  0.291141  1
  P  P22  1  0.500000  0.500000  0.881599  1
  P  P23  1  0.000000  0.000000  0.118401  1
  P  P24  1  0.500000  0.500000  0.347620  1
  P  P25  1  0.000000  0.000000  0.652380  1
  P  P26  1  0.500000  0.309234  0.616404  1
  P  P27  1  0.500000  0.690766  0.616404  1
  P  P28  1  0.000000  0.190766  0.383596  1
  P  P29  1  0.000000  0.809234  0.383596  1
  P  P30  1  0.500000  0.844560  0.893416  1
  P  P31  1  0.500000  0.155440  0.893416  1
  P  P32  1  0.000000  0.655440  0.106584  1
  P  P33  1  0.000000  0.344560  0.106584  1
  W  W34  1  0.500000  0.500000  0.155082  1
  W  W35  1  0.000000  0.000000  0.844918  1
