# generated using pymatgen
data_CsTi6I11
_symmetry_space_group_name_H-M   'P 1'
_cell_length_a   11.39643208
_cell_length_b   11.39643218
_cell_length_c   12.16545236
_cell_angle_alpha   91.13143749
_cell_angle_beta   88.86856434
_cell_angle_gamma   120.43277181
_symmetry_Int_Tables_number   1
_chemical_formula_structural   CsTi6I11
_chemical_formula_sum   'Cs2 Ti12 I22'
_cell_volume   1361.98963412
_cell_formula_units_Z   2
loop_
 _symmetry_equiv_pos_site_id
 _symmetry_equiv_pos_as_xyz
  1  'x, y, z'
loop_
 _atom_site_type_symbol
 _atom_site_label
 _atom_site_symmetry_multiplicity
 _atom_site_fract_x
 _atom_site_fract_y
 _atom_site_fract_z
 _atom_site_occupancy
  Cs  Cs0  1  0.000962  0.000779  0.250001  1
  Cs  Cs1  1  0.000779  0.000962  0.749999  1
  Ti  Ti2  1  0.330406  0.521913  0.152311  1
  Ti  Ti3  1  0.177195  0.667806  0.144697  1
  Ti  Ti4  1  0.476960  0.807014  0.154125  1
  Ti  Ti5  1  0.189903  0.521949  0.346966  1
  Ti  Ti6  1  0.330714  0.808180  0.347222  1
  Ti  Ti7  1  0.490625  0.670211  0.354671  1
  Ti  Ti8  1  0.670211  0.490625  0.645329  1
  Ti  Ti9  1  0.808180  0.330715  0.652777  1
  Ti  Ti10  1  0.521948  0.189902  0.653034  1
  Ti  Ti11  1  0.807014  0.476960  0.845874  1
  Ti  Ti12  1  0.667806  0.177195  0.855303  1
  Ti  Ti13  1  0.521913  0.330406  0.847688  1
  I  I14  1  0.702303  0.997113  0.002680  1
  I  I15  1  0.299265  0.299265  0.000000  1
  I  I16  1  0.997113  0.702304  0.997320  1
  I  I17  1  0.664858  0.334127  0.038353  1
  I  I18  1  0.623567  0.661556  0.157778  1
  I  I19  1  0.036775  0.375392  0.159176  1
  I  I20  1  0.339434  0.960451  0.161087  1
  I  I21  1  0.037257  0.660683  0.342325  1
  I  I22  1  0.623576  0.962408  0.340642  1
  I  I23  1  0.338086  0.377730  0.338771  1
  I  I24  1  0.668122  0.332445  0.461738  1
  I  I25  1  0.999804  0.300523  0.499115  1
  I  I26  1  0.709909  0.709909  0.500000  1
  I  I27  1  0.300522  0.999804  0.500886  1
  I  I28  1  0.332446  0.668122  0.538261  1
  I  I29  1  0.377731  0.338088  0.661228  1
  I  I30  1  0.962408  0.623575  0.659358  1
  I  I31  1  0.660684  0.037258  0.657675  1
  I  I32  1  0.960453  0.339435  0.838913  1
  I  I33  1  0.375393  0.036776  0.840823  1
  I  I34  1  0.661555  0.623567  0.842221  1
  I  I35  1  0.334127  0.664858  0.961646  1
