# generated using pymatgen
data_Y2Er4ReTcB14
_symmetry_space_group_name_H-M   'P 1'
_cell_length_a   8.03520211
_cell_length_b   8.03520222
_cell_length_c   9.32592200
_cell_angle_alpha   90.00000000
_cell_angle_beta   90.00000000
_cell_angle_gamma   154.67526841
_symmetry_Int_Tables_number   1
_chemical_formula_structural   Y2Er4ReTcB14
_chemical_formula_sum   'Y2 Er4 Re1 Tc1 B14'
_cell_volume   257.55705601
_cell_formula_units_Z   1
loop_
 _symmetry_equiv_pos_site_id
 _symmetry_equiv_pos_as_xyz
  1  'x, y, z'
loop_
 _atom_site_type_symbol
 _atom_site_label
 _atom_site_symmetry_multiplicity
 _atom_site_fract_x
 _atom_site_fract_y
 _atom_site_fract_z
 _atom_site_occupancy
  Y  Y0  1  0.242734  0.757266  0.250000  1
  Y  Y1  1  0.756856  0.243144  0.750000  1
  Er  Er2  1  0.895059  0.104941  0.439894  1
  Er  Er3  1  0.105186  0.894814  0.559056  1
  Er  Er4  1  0.895059  0.104941  0.060106  1
  Er  Er5  1  0.105186  0.894814  0.940944  1
  Re  Re6  1  0.947926  0.052074  0.750000  1
  Tc  Tc7  1  0.052306  0.947694  0.250000  1
  B  B8  1  0.727186  0.272814  0.466702  1
  B  B9  1  0.272734  0.727266  0.533372  1
  B  B10  1  0.727186  0.272814  0.033298  1
  B  B11  1  0.272734  0.727266  0.966628  1
  B  B12  1  0.631569  0.368431  0.150555  1
  B  B13  1  0.368169  0.631831  0.849631  1
  B  B14  1  0.631569  0.368431  0.349445  1
  B  B15  1  0.368169  0.631831  0.650369  1
  B  B16  1  0.520402  0.479598  0.095170  1
  B  B17  1  0.479675  0.520325  0.905218  1
  B  B18  1  0.520402  0.479598  0.404830  1
  B  B19  1  0.479675  0.520325  0.594782  1
  B  B20  1  0.456075  0.543925  0.250000  1
  B  B21  1  0.544140  0.455860  0.750000  1
