# generated using pymatgen
data_Pr3Pa(Al3Ir)6
_symmetry_space_group_name_H-M   'P 1'
_cell_length_a   7.63786800
_cell_length_b   7.62616460
_cell_length_c   9.54427700
_cell_angle_alpha   90.00000000
_cell_angle_beta   90.00000000
_cell_angle_gamma   119.58555044
_symmetry_Int_Tables_number   1
_chemical_formula_structural   Pr3Pa(Al3Ir)6
_chemical_formula_sum   'Pr3 Pa1 Al18 Ir6'
_cell_volume   483.44894141
_cell_formula_units_Z   1
loop_
 _symmetry_equiv_pos_site_id
 _symmetry_equiv_pos_as_xyz
  1  'x, y, z'
loop_
 _atom_site_type_symbol
 _atom_site_label
 _atom_site_symmetry_multiplicity
 _atom_site_fract_x
 _atom_site_fract_y
 _atom_site_fract_z
 _atom_site_occupancy
  Pr  Pr0  1  0.004919  0.330060  0.750000  1
  Pr  Pr1  1  0.670964  0.994953  0.250000  1
  Pr  Pr2  1  0.330259  0.004511  0.750000  1
  Pa  Pa3  1  0.996357  0.671214  0.250000  1
  Al  Al4  1  0.132555  0.129756  0.250000  1
  Al  Al5  1  0.870463  0.870689  0.750000  1
  Al  Al6  1  0.002522  0.334201  0.074937  1
  Al  Al7  1  0.997213  0.665048  0.926485  1
  Al  Al8  1  0.997213  0.665048  0.573515  1
  Al  Al9  1  0.336141  0.003545  0.425053  1
  Al  Al10  1  0.002522  0.334201  0.425063  1
  Al  Al11  1  0.665364  0.997598  0.573252  1
  Al  Al12  1  0.665364  0.997598  0.926748  1
  Al  Al13  1  0.336141  0.003545  0.074947  1
  Al  Al14  1  0.334283  0.334299  0.548720  1
  Al  Al15  1  0.663931  0.664826  0.449782  1
  Al  Al16  1  0.663931  0.664826  0.050218  1
  Al  Al17  1  0.334283  0.334299  0.951280  1
  Al  Al18  1  0.336929  0.544498  0.250000  1
  Al  Al19  1  0.660144  0.453606  0.750000  1
  Al  Al20  1  0.547109  0.344097  0.250000  1
  Al  Al21  1  0.453852  0.660390  0.750000  1
  Ir  Ir22  1  0.673472  0.331592  0.003399  1
  Ir  Ir23  1  0.326408  0.671023  0.003519  1
  Ir  Ir24  1  0.326408  0.671023  0.496481  1
  Ir  Ir25  1  0.673472  0.331592  0.496601  1
  Ir  Ir26  1  0.998891  0.995982  0.004445  1
  Ir  Ir27  1  0.998891  0.995982  0.495555  1
