# generated using pymatgen
data_Sm2DySi4(PPd10)2
_symmetry_space_group_name_H-M   'P 1'
_cell_length_a   8.73642075
_cell_length_b   8.73642999
_cell_length_c   8.72991000
_cell_angle_alpha   60.02459347
_cell_angle_beta   60.02470992
_cell_angle_gamma   59.95075895
_symmetry_Int_Tables_number   1
_chemical_formula_structural   Sm2DySi4(PPd10)2
_chemical_formula_sum   'Sm2 Dy1 Si4 P2 Pd20'
_cell_volume   471.15308012
_cell_formula_units_Z   1
loop_
 _symmetry_equiv_pos_site_id
 _symmetry_equiv_pos_as_xyz
  1  'x, y, z'
loop_
 _atom_site_type_symbol
 _atom_site_label
 _atom_site_symmetry_multiplicity
 _atom_site_fract_x
 _atom_site_fract_y
 _atom_site_fract_z
 _atom_site_occupancy
  Sm  Sm0  1  0.250000  0.250001  0.249999  1
  Sm  Sm1  1  0.750000  0.749999  0.750001  1
  Dy  Dy2  1  0.000000  0.000000  0.000000  1
  Si  Si3  1  0.734564  0.265436  0.265434  1
  Si  Si4  1  0.265436  0.734564  0.734566  1
  Si  Si5  1  0.265436  0.734564  0.265434  1
  Si  Si6  1  0.734564  0.265436  0.734566  1
  P  P7  1  0.264670  0.264670  0.735330  1
  P  P8  1  0.735330  0.735330  0.264670  1
  Pd  Pd9  1  0.384499  0.384500  0.386472  1
  Pd  Pd10  1  0.615501  0.615500  0.613528  1
  Pd  Pd11  1  0.384500  0.384499  0.844529  1
  Pd  Pd12  1  0.386472  0.844529  0.384499  1
  Pd  Pd13  1  0.615500  0.615501  0.155471  1
  Pd  Pd14  1  0.613528  0.155471  0.615501  1
  Pd  Pd15  1  0.844529  0.386472  0.384499  1
  Pd  Pd16  1  0.155471  0.613528  0.615501  1
  Pd  Pd17  1  0.345404  0.001495  0.998505  1
  Pd  Pd18  1  0.654596  0.998505  0.001495  1
  Pd  Pd19  1  0.001495  0.345404  0.654596  1
  Pd  Pd20  1  0.998505  0.654596  0.345404  1
  Pd  Pd21  1  0.001495  0.345405  0.998505  1
  Pd  Pd22  1  0.654595  0.998505  0.345405  1
  Pd  Pd23  1  0.998505  0.654595  0.001495  1
  Pd  Pd24  1  0.345405  0.001495  0.654595  1
  Pd  Pd25  1  0.000000  0.000000  0.346602  1
  Pd  Pd26  1  0.000000  0.000000  0.653398  1
  Pd  Pd27  1  0.653400  0.346600  0.000000  1
  Pd  Pd28  1  0.346600  0.653400  0.000000  1
