# generated using pymatgen
data_Hf6C2N3
_symmetry_space_group_name_H-M   'P 1'
_cell_length_a   5.62110064
_cell_length_b   5.62110167
_cell_length_c   5.59501900
_cell_angle_alpha   99.65186484
_cell_angle_beta   99.65186942
_cell_angle_gamma   119.90388397
_symmetry_Int_Tables_number   1
_chemical_formula_structural   Hf6C2N3
_chemical_formula_sum   'Hf6 C2 N3'
_cell_volume   144.40196591
_cell_formula_units_Z   1
loop_
 _symmetry_equiv_pos_site_id
 _symmetry_equiv_pos_as_xyz
  1  'x, y, z'
loop_
 _atom_site_type_symbol
 _atom_site_label
 _atom_site_symmetry_multiplicity
 _atom_site_fract_x
 _atom_site_fract_y
 _atom_site_fract_z
 _atom_site_occupancy
  Hf  Hf0  1  0.430495  0.083452  0.252154  1
  Hf  Hf1  1  0.083452  0.430495  0.252154  1
  Hf  Hf2  1  0.739980  0.739980  0.263367  1
  Hf  Hf3  1  0.260021  0.260021  0.736633  1
  Hf  Hf4  1  0.916548  0.569505  0.747844  1
  Hf  Hf5  1  0.569505  0.916548  0.747844  1
  C  C6  1  0.832917  0.167082  0.500000  1
  C  C7  1  0.167082  0.832917  0.500000  1
  N  N8  1  0.666900  0.333099  0.000000  1
  N  N9  1  0.333099  0.666900  0.000000  1
  N  N10  1  0.499999  0.499999  0.500000  1
