# generated using pymatgen
data_Dy3Ho3Si24Os3Ru5
_symmetry_space_group_name_H-M   'P 1'
_cell_length_a   10.11427405
_cell_length_b   10.11415335
_cell_length_c   8.14189202
_cell_angle_alpha   89.99354716
_cell_angle_beta   90.00789475
_cell_angle_gamma   132.52687566
_symmetry_Int_Tables_number   1
_chemical_formula_structural   Dy3Ho3Si24Os3Ru5
_chemical_formula_sum   'Dy3 Ho3 Si24 Os3 Ru5'
_cell_volume   613.80965029
_cell_formula_units_Z   1
loop_
 _symmetry_equiv_pos_site_id
 _symmetry_equiv_pos_as_xyz
  1  'x, y, z'
loop_
 _atom_site_type_symbol
 _atom_site_label
 _atom_site_symmetry_multiplicity
 _atom_site_fract_x
 _atom_site_fract_y
 _atom_site_fract_z
 _atom_site_occupancy
  Dy  Dy0  1  0.997626  0.497691  0.249796  1
  Dy  Dy1  1  0.497778  0.997544  0.249655  1
  Dy  Dy2  1  0.002448  0.502213  0.750342  1
  Ho  Ho3  1  0.500008  0.499983  0.500018  1
  Ho  Ho4  1  0.999974  0.000040  0.999995  1
  Ho  Ho5  1  0.502260  0.002342  0.750208  1
  Si  Si6  1  0.795857  0.203919  0.500118  1
  Si  Si7  1  0.295970  0.704222  0.999893  1
  Si  Si8  1  0.204221  0.795981  0.500108  1
  Si  Si9  1  0.704626  0.295138  0.999872  1
  Si  Si10  1  0.332456  0.332217  0.833534  1
  Si  Si11  1  0.667783  0.667549  0.166473  1
  Si  Si12  1  0.166652  0.166796  0.332482  1
  Si  Si13  1  0.833205  0.833354  0.667512  1
  Si  Si14  1  0.121602  0.888417  0.728350  1
  Si  Si15  1  0.111612  0.878447  0.271606  1
  Si  Si16  1  0.612466  0.378689  0.227357  1
  Si  Si17  1  0.621295  0.387503  0.772688  1
  Si  Si18  1  0.877963  0.111570  0.270560  1
  Si  Si19  1  0.888395  0.122025  0.729401  1
  Si  Si20  1  0.388374  0.622068  0.772282  1
  Si  Si21  1  0.377976  0.611651  0.227757  1
  Si  Si22  1  0.344819  0.111674  0.505640  1
  Si  Si23  1  0.888265  0.655143  0.494432  1
  Si  Si24  1  0.388450  0.155564  0.004419  1
  Si  Si25  1  0.844473  0.611589  0.995517  1
  Si  Si26  1  0.655409  0.888484  0.494267  1
  Si  Si27  1  0.111556  0.344630  0.505792  1
  Si  Si28  1  0.612938  0.846218  0.994664  1
  Si  Si29  1  0.153763  0.387010  0.005266  1
  Os  Os30  1  0.669602  0.330030  0.500179  1
  Os  Os31  1  0.169956  0.830403  0.999858  1
  Os  Os32  1  0.330400  0.669982  0.500139  1
  Ru  Ru33  1  0.829923  0.169722  0.999834  1
  Ru  Ru34  1  0.127971  0.127824  0.626881  1
  Ru  Ru35  1  0.872192  0.872045  0.373091  1
  Ru  Ru36  1  0.373531  0.373821  0.128163  1
  Ru  Ru37  1  0.626206  0.626499  0.871852  1
