# generated using pymatgen
data_Dy9Ho(SiBi)4
_symmetry_space_group_name_H-M   'P 1'
_cell_length_a   8.65842405
_cell_length_b   8.65842407
_cell_length_c   7.92568500
_cell_angle_alpha   90.00015647
_cell_angle_beta   90.00015891
_cell_angle_gamma   125.63834521
_symmetry_Int_Tables_number   1
_chemical_formula_structural   Dy9Ho(SiBi)4
_chemical_formula_sum   'Dy9 Ho1 Si4 Bi4'
_cell_volume   482.89270689
_cell_formula_units_Z   1
loop_
 _symmetry_equiv_pos_site_id
 _symmetry_equiv_pos_as_xyz
  1  'x, y, z'
loop_
 _atom_site_type_symbol
 _atom_site_label
 _atom_site_symmetry_multiplicity
 _atom_site_fract_x
 _atom_site_fract_y
 _atom_site_fract_z
 _atom_site_occupancy
  Dy  Dy0  1  0.043575  0.287076  0.335131  1
  Dy  Dy1  1  0.956425  0.712924  0.664869  1
  Dy  Dy2  1  0.456470  0.212972  0.835097  1
  Dy  Dy3  1  0.787028  0.543530  0.164903  1
  Dy  Dy4  1  0.543530  0.787028  0.164903  1
  Dy  Dy5  1  0.212972  0.456470  0.835097  1
  Dy  Dy6  1  0.712924  0.956425  0.664869  1
  Dy  Dy7  1  0.287076  0.043575  0.335131  1
  Dy  Dy8  1  0.000000  0.000000  0.000000  1
  Ho  Ho9  1  0.500000  0.500000  0.500000  1
  Si  Si10  1  0.366425  0.366425  0.132541  1
  Si  Si11  1  0.633575  0.633575  0.867459  1
  Si  Si12  1  0.133656  0.133656  0.632446  1
  Si  Si13  1  0.866344  0.866344  0.367554  1
  Bi  Bi14  1  0.792384  0.207616  0.000000  1
  Bi  Bi15  1  0.207616  0.792384  0.000000  1
  Bi  Bi16  1  0.707560  0.292440  0.500000  1
  Bi  Bi17  1  0.292440  0.707560  0.500000  1
