# generated using pymatgen
data_LaNd3(ScIr)4
_symmetry_space_group_name_H-M   'P 1'
_cell_length_a   7.24921613
_cell_length_b   4.34485800
_cell_length_c   8.95228055
_cell_angle_alpha   90.00000000
_cell_angle_beta   91.83736373
_cell_angle_gamma   90.00000000
_symmetry_Int_Tables_number   1
_chemical_formula_structural   LaNd3(ScIr)4
_chemical_formula_sum   'La1 Nd3 Sc4 Ir4'
_cell_volume   281.82335137
_cell_formula_units_Z   1
loop_
 _symmetry_equiv_pos_site_id
 _symmetry_equiv_pos_as_xyz
  1  'x, y, z'
loop_
 _atom_site_type_symbol
 _atom_site_label
 _atom_site_symmetry_multiplicity
 _atom_site_fract_x
 _atom_site_fract_y
 _atom_site_fract_z
 _atom_site_occupancy
  La  La0  1  0.514869  0.750000  0.682200  1
  Nd  Nd1  1  0.984969  0.250000  0.178030  1
  Nd  Nd2  1  0.484867  0.250000  0.318161  1
  Nd  Nd3  1  0.011659  0.750000  0.823650  1
  Sc  Sc4  1  0.869582  0.250000  0.561363  1
  Sc  Sc5  1  0.357195  0.250000  0.937740  1
  Sc  Sc6  1  0.135950  0.750000  0.435881  1
  Sc  Sc7  1  0.639095  0.750000  0.066204  1
  Ir  Ir8  1  0.732202  0.250000  0.900196  1
  Ir  Ir9  1  0.239847  0.250000  0.596099  1
  Ir  Ir10  1  0.265223  0.750000  0.100048  1
  Ir  Ir11  1  0.764543  0.750000  0.400428  1
