# generated using pymatgen
data_Y3Pa3Al7Pt16
_symmetry_space_group_name_H-M   'P 1'
_cell_length_a   9.00023469
_cell_length_b   9.00023430
_cell_length_c   8.98787100
_cell_angle_alpha   59.95448882
_cell_angle_beta   59.95449026
_cell_angle_gamma   60.00000111
_symmetry_Int_Tables_number   1
_chemical_formula_structural   Y3Pa3Al7Pt16
_chemical_formula_sum   'Y3 Pa3 Al7 Pt16'
_cell_volume   514.45855771
_cell_formula_units_Z   1
loop_
 _symmetry_equiv_pos_site_id
 _symmetry_equiv_pos_as_xyz
  1  'x, y, z'
loop_
 _atom_site_type_symbol
 _atom_site_label
 _atom_site_symmetry_multiplicity
 _atom_site_fract_x
 _atom_site_fract_y
 _atom_site_fract_z
 _atom_site_occupancy
  Y  Y0  1  0.292556  0.292556  0.711244  1
  Y  Y1  1  0.703644  0.292556  0.711244  1
  Y  Y2  1  0.292556  0.703644  0.711244  1
  Pa  Pa3  1  0.710938  0.710938  0.292363  1
  Pa  Pa4  1  0.285762  0.710938  0.292363  1
  Pa  Pa5  1  0.710938  0.285762  0.292363  1
  Al  Al6  1  0.002993  0.002993  0.991020  1
  Al  Al7  1  0.001861  0.001861  0.507593  1
  Al  Al8  1  0.488683  0.001861  0.507593  1
  Al  Al9  1  0.001861  0.488683  0.507593  1
  Al  Al10  1  0.501853  0.501853  0.990234  1
  Al  Al11  1  0.006060  0.501853  0.990234  1
  Al  Al12  1  0.501853  0.006060  0.990234  1
  Pt  Pt13  1  0.883359  0.883359  0.349925  1
  Pt  Pt14  1  0.878187  0.357776  0.885852  1
  Pt  Pt15  1  0.357776  0.878187  0.885852  1
  Pt  Pt16  1  0.878187  0.878187  0.885852  1
  Pt  Pt17  1  0.121042  0.121042  0.636873  1
  Pt  Pt18  1  0.115355  0.646720  0.122568  1
  Pt  Pt19  1  0.646720  0.115355  0.122568  1
  Pt  Pt20  1  0.115355  0.115355  0.122568  1
  Pt  Pt21  1  0.657282  0.657282  0.028154  1
  Pt  Pt22  1  0.665510  0.014069  0.654911  1
  Pt  Pt23  1  0.014069  0.665510  0.654911  1
  Pt  Pt24  1  0.665510  0.665510  0.654911  1
  Pt  Pt25  1  0.334366  0.334366  0.996902  1
  Pt  Pt26  1  0.343797  0.978127  0.334278  1
  Pt  Pt27  1  0.978127  0.343797  0.334278  1
  Pt  Pt28  1  0.343797  0.343797  0.334278  1
