# generated using pymatgen
data_Ba3NiPtO6
_symmetry_space_group_name_H-M   'P 1'
_cell_length_a   7.05717323
_cell_length_b   7.05719163
_cell_length_c   7.05718446
_cell_angle_alpha   92.88164850
_cell_angle_beta   92.88152190
_cell_angle_gamma   92.88126023
_symmetry_Int_Tables_number   1
_chemical_formula_structural   Ba3NiPtO6
_chemical_formula_sum   'Ba6 Ni2 Pt2 O12'
_cell_volume   350.09510736
_cell_formula_units_Z   2
loop_
 _symmetry_equiv_pos_site_id
 _symmetry_equiv_pos_as_xyz
  1  'x, y, z'
loop_
 _atom_site_type_symbol
 _atom_site_label
 _atom_site_symmetry_multiplicity
 _atom_site_fract_x
 _atom_site_fract_y
 _atom_site_fract_z
 _atom_site_occupancy
  Ba  Ba0  1  0.387400  0.750001  0.112601  1
  Ba  Ba1  1  0.887400  0.612600  0.250000  1
  Ba  Ba2  1  0.749999  0.112600  0.387400  1
  Ba  Ba3  1  0.250000  0.887399  0.612600  1
  Ba  Ba4  1  0.112600  0.387399  0.750000  1
  Ba  Ba5  1  0.612600  0.249999  0.887399  1
  Ni  Ni6  1  0.250000  0.249999  0.249997  1
  Ni  Ni7  1  0.750000  0.750001  0.750003  1
  Pt  Pt8  1  0.000000  0.000000  0.000000  1
  Pt  Pt9  1  0.500000  0.500000  0.500000  1
  O  O10  1  0.721053  0.904510  0.026982  1
  O  O11  1  0.973020  0.278948  0.095492  1
  O  O12  1  0.526980  0.404509  0.221050  1
  O  O13  1  0.095493  0.973021  0.278951  1
  O  O14  1  0.221052  0.526980  0.404509  1
  O  O15  1  0.595490  0.778949  0.473019  1
  O  O16  1  0.404510  0.221052  0.526980  1
  O  O17  1  0.778949  0.473020  0.595491  1
  O  O18  1  0.904508  0.026980  0.721049  1
  O  O19  1  0.473020  0.595491  0.778950  1
  O  O20  1  0.026980  0.721052  0.904509  1
  O  O21  1  0.278948  0.095490  0.973019  1
