# generated using pymatgen
data_Dy6Ho4(InBi)3
_symmetry_space_group_name_H-M   'P 1'
_cell_length_a   9.06139100
_cell_length_b   9.06139006
_cell_length_c   6.56125200
_cell_angle_alpha   90.00000000
_cell_angle_beta   90.00000000
_cell_angle_gamma   119.99999979
_symmetry_Int_Tables_number   1
_chemical_formula_structural   Dy6Ho4(InBi)3
_chemical_formula_sum   'Dy6 Ho4 In3 Bi3'
_cell_volume   466.55951079
_cell_formula_units_Z   1
loop_
 _symmetry_equiv_pos_site_id
 _symmetry_equiv_pos_as_xyz
  1  'x, y, z'
loop_
 _atom_site_type_symbol
 _atom_site_label
 _atom_site_symmetry_multiplicity
 _atom_site_fract_x
 _atom_site_fract_y
 _atom_site_fract_z
 _atom_site_occupancy
  Dy  Dy0  1  0.763031  0.763031  0.750000  1
  Dy  Dy1  1  0.236969  0.000000  0.750000  1
  Dy  Dy2  1  0.000000  0.236969  0.750000  1
  Dy  Dy3  1  0.238044  0.238044  0.250000  1
  Dy  Dy4  1  0.761956  0.000000  0.250000  1
  Dy  Dy5  1  0.000000  0.761956  0.250000  1
  Ho  Ho6  1  0.666667  0.333333  0.006626  1
  Ho  Ho7  1  0.333333  0.666667  0.006626  1
  Ho  Ho8  1  0.333333  0.666667  0.493374  1
  Ho  Ho9  1  0.666667  0.333333  0.493374  1
  In  In10  1  0.606315  0.606315  0.250000  1
  In  In11  1  0.393685  0.000000  0.250000  1
  In  In12  1  0.000000  0.393685  0.250000  1
  Bi  Bi13  1  0.395999  0.395999  0.750000  1
  Bi  Bi14  1  0.604001  0.000000  0.750000  1
  Bi  Bi15  1  0.000000  0.604001  0.750000  1
