# generated using pymatgen
data_TbHo11Tc3Pt
_symmetry_space_group_name_H-M   'P 1'
_cell_length_a   6.28556836
_cell_length_b   7.39566102
_cell_length_c   9.15914900
_cell_angle_alpha   90.00000000
_cell_angle_beta   90.00000000
_cell_angle_gamma   89.97694611
_symmetry_Int_Tables_number   1
_chemical_formula_structural   TbHo11Tc3Pt
_chemical_formula_sum   'Tb1 Ho11 Tc3 Pt1'
_cell_volume   425.77155138
_cell_formula_units_Z   1
loop_
 _symmetry_equiv_pos_site_id
 _symmetry_equiv_pos_as_xyz
  1  'x, y, z'
loop_
 _atom_site_type_symbol
 _atom_site_label
 _atom_site_symmetry_multiplicity
 _atom_site_fract_x
 _atom_site_fract_y
 _atom_site_fract_z
 _atom_site_occupancy
  Tb  Tb0  1  0.127798  0.455659  0.750000  1
  Ho  Ho1  1  0.329665  0.676481  0.066854  1
  Ho  Ho2  1  0.164748  0.177560  0.436155  1
  Ho  Ho3  1  0.667208  0.318169  0.558457  1
  Ho  Ho4  1  0.837180  0.826964  0.940182  1
  Ho  Ho5  1  0.667208  0.318169  0.941543  1
  Ho  Ho6  1  0.837180  0.826964  0.559818  1
  Ho  Ho7  1  0.329665  0.676481  0.433146  1
  Ho  Ho8  1  0.164748  0.177560  0.063845  1
  Ho  Ho9  1  0.872975  0.542563  0.250000  1
  Ho  Ho10  1  0.623082  0.038292  0.250000  1
  Ho  Ho11  1  0.371503  0.965101  0.750000  1
  Tc  Tc12  1  0.038187  0.886037  0.250000  1
  Tc  Tc13  1  0.464239  0.387039  0.250000  1
  Tc  Tc14  1  0.957603  0.113294  0.750000  1
  Pt  Pt15  1  0.547011  0.613663  0.750000  1
