# generated using pymatgen
data_NdTm(Co3Si2)2
_symmetry_space_group_name_H-M   'P 1'
_cell_length_a   6.29306875
_cell_length_b   6.29306760
_cell_length_c   6.29306826
_cell_angle_alpha   130.50397569
_cell_angle_beta   113.53910985
_cell_angle_gamma   87.19851632
_symmetry_Int_Tables_number   1
_chemical_formula_structural   NdTm(Co3Si2)2
_chemical_formula_sum   'Nd1 Tm1 Co6 Si4'
_cell_volume   165.61876393
_cell_formula_units_Z   1
loop_
 _symmetry_equiv_pos_site_id
 _symmetry_equiv_pos_as_xyz
  1  'x, y, z'
loop_
 _atom_site_type_symbol
 _atom_site_label
 _atom_site_symmetry_multiplicity
 _atom_site_fract_x
 _atom_site_fract_y
 _atom_site_fract_z
 _atom_site_occupancy
  Nd  Nd0  1  0.750000  0.471274  0.721274  1
  Tm  Tm1  1  0.250000  0.535716  0.285716  1
  Co  Co2  1  0.999953  0.998079  0.498033  1
  Co  Co3  1  0.500047  0.998079  0.998126  1
  Co  Co4  1  0.721077  0.996293  0.721272  1
  Co  Co5  1  0.224980  0.500196  0.721272  1
  Co  Co6  1  0.275020  0.996293  0.275216  1
  Co  Co7  1  0.778923  0.500196  0.275216  1
  Si  Si8  1  0.083321  0.878480  0.795159  1
  Si  Si9  1  0.922412  0.129190  0.206778  1
  Si  Si10  1  0.577588  0.784367  0.206778  1
  Si  Si11  1  0.416679  0.211837  0.795159  1
