# generated using pymatgen
data_Tm3Sc2In4IrRh
_symmetry_space_group_name_H-M   'P 1'
_cell_length_a   3.51073800
_cell_length_b   7.86299407
_cell_length_c   17.90663671
_cell_angle_alpha   89.91689500
_cell_angle_beta   90.00000000
_cell_angle_gamma   90.00000000
_symmetry_Int_Tables_number   1
_chemical_formula_structural   Tm3Sc2In4IrRh
_chemical_formula_sum   'Tm6 Sc4 In8 Ir2 Rh2'
_cell_volume   494.31061181
_cell_formula_units_Z   2
loop_
 _symmetry_equiv_pos_site_id
 _symmetry_equiv_pos_as_xyz
  1  'x, y, z'
loop_
 _atom_site_type_symbol
 _atom_site_label
 _atom_site_symmetry_multiplicity
 _atom_site_fract_x
 _atom_site_fract_y
 _atom_site_fract_z
 _atom_site_occupancy
  Tm  Tm0  1  0.000000  0.000000  0.000000  1
  Tm  Tm1  1  0.000000  0.500000  0.500000  1
  Tm  Tm2  1  0.000000  0.749226  0.780990  1
  Tm  Tm3  1  0.000000  0.250774  0.219010  1
  Tm  Tm4  1  0.000000  0.247408  0.718549  1
  Tm  Tm5  1  0.000000  0.752592  0.281451  1
  Sc  Sc6  1  0.000000  0.877918  0.588162  1
  Sc  Sc7  1  0.000000  0.122082  0.411838  1
  Sc  Sc8  1  0.000000  0.377842  0.911597  1
  Sc  Sc9  1  0.000000  0.622158  0.088403  1
  In  In10  1  0.500000  0.806711  0.437659  1
  In  In11  1  0.500000  0.193289  0.562341  1
  In  In12  1  0.500000  0.307149  0.062377  1
  In  In13  1  0.500000  0.692851  0.937623  1
  In  In14  1  0.500000  0.926256  0.149101  1
  In  In15  1  0.500000  0.073744  0.850899  1
  In  In16  1  0.500000  0.426553  0.350751  1
  In  In17  1  0.500000  0.573447  0.649249  1
  Ir  Ir18  1  0.500000  0.963755  0.693494  1
  Ir  Ir19  1  0.500000  0.036245  0.306506  1
  Rh  Rh20  1  0.500000  0.463457  0.807138  1
  Rh  Rh21  1  0.500000  0.536543  0.192862  1
