# generated using pymatgen
data_Dy3Tm5(ScIn3)2
_symmetry_space_group_name_H-M   'P 1'
_cell_length_a   9.05229129
_cell_length_b   9.05229229
_cell_length_c   9.05049500
_cell_angle_alpha   96.47989182
_cell_angle_beta   96.47264976
_cell_angle_gamma   140.75622864
_symmetry_Int_Tables_number   1
_chemical_formula_structural   Dy3Tm5(ScIn3)2
_chemical_formula_sum   'Dy3 Tm5 Sc2 In6'
_cell_volume   441.91671323
_cell_formula_units_Z   1
loop_
 _symmetry_equiv_pos_site_id
 _symmetry_equiv_pos_as_xyz
  1  'x, y, z'
loop_
 _atom_site_type_symbol
 _atom_site_label
 _atom_site_symmetry_multiplicity
 _atom_site_fract_x
 _atom_site_fract_y
 _atom_site_fract_z
 _atom_site_occupancy
  Dy  Dy0  1  0.781253  0.917988  0.699242  1
  Dy  Dy1  1  0.417534  0.281448  0.698983  1
  Dy  Dy2  1  0.082893  0.781427  0.864320  1
  Tm  Tm3  1  0.718043  0.418227  0.136271  1
  Tm  Tm4  1  0.282111  0.582428  0.864539  1
  Tm  Tm5  1  0.582432  0.717908  0.300338  1
  Tm  Tm6  1  0.217882  0.082574  0.300454  1
  Tm  Tm7  1  0.917768  0.218001  0.135770  1
  Sc  Sc8  1  0.749790  0.249539  0.499412  1
  Sc  Sc9  1  0.249873  0.749621  0.499412  1
  In  In10  1  0.842852  0.656098  0.498949  1
  In  In11  1  0.343359  0.843257  0.186617  1
  In  In12  1  0.750324  0.750791  0.001191  1
  In  In13  1  0.657112  0.156749  0.813862  1
  In  In14  1  0.156377  0.343079  0.499456  1
  In  In15  1  0.250398  0.250866  0.001191  1
