# generated using pymatgen
data_SmY(SbSe)2
_symmetry_space_group_name_H-M   'P 1'
_cell_length_a   4.17984800
_cell_length_b   4.17984800
_cell_length_c   8.97703500
_cell_angle_alpha   90.00000000
_cell_angle_beta   90.00000000
_cell_angle_gamma   90.00000000
_symmetry_Int_Tables_number   1
_chemical_formula_structural   SmY(SbSe)2
_chemical_formula_sum   'Sm1 Y1 Sb2 Se2'
_cell_volume   156.83893924
_cell_formula_units_Z   1
loop_
 _symmetry_equiv_pos_site_id
 _symmetry_equiv_pos_as_xyz
  1  'x, y, z'
loop_
 _atom_site_type_symbol
 _atom_site_label
 _atom_site_symmetry_multiplicity
 _atom_site_fract_x
 _atom_site_fract_y
 _atom_site_fract_z
 _atom_site_occupancy
  Sm  Sm0  1  0.500000  0.000000  0.296060  1
  Y  Y1  1  0.000000  0.500000  0.702839  1
  Sb  Sb2  1  0.000000  0.000000  0.997992  1
  Sb  Sb3  1  0.500000  0.500000  0.997992  1
  Se  Se4  1  0.000000  0.500000  0.376900  1
  Se  Se5  1  0.500000  0.000000  0.628218  1
