# generated using pymatgen
data_DyCu2Pt2Au
_symmetry_space_group_name_H-M   'P 1'
_cell_length_a   5.05991858
_cell_length_b   5.18438997
_cell_length_c   5.18438996
_cell_angle_alpha   63.87120199
_cell_angle_beta   60.79107684
_cell_angle_gamma   60.79106888
_symmetry_Int_Tables_number   1
_chemical_formula_structural   DyCu2Pt2Au
_chemical_formula_sum   'Dy1 Cu2 Pt2 Au1'
_cell_volume   99.89526547
_cell_formula_units_Z   1
loop_
 _symmetry_equiv_pos_site_id
 _symmetry_equiv_pos_as_xyz
  1  'x, y, z'
loop_
 _atom_site_type_symbol
 _atom_site_label
 _atom_site_symmetry_multiplicity
 _atom_site_fract_x
 _atom_site_fract_y
 _atom_site_fract_z
 _atom_site_occupancy
  Dy  Dy0  1  0.995418  0.004582  0.004582  1
  Cu  Cu1  1  0.129298  0.619598  0.619598  1
  Cu  Cu2  1  0.631506  0.619598  0.619598  1
  Pt  Pt3  1  0.626915  0.623750  0.122419  1
  Pt  Pt4  1  0.626915  0.122419  0.623750  1
  Au  Au5  1  0.239946  0.260054  0.260054  1
