# generated using pymatgen
data_YUInIr2
_symmetry_space_group_name_H-M   'P 1'
_cell_length_a   7.70809434
_cell_length_b   7.70809434
_cell_length_c   3.58491500
_cell_angle_alpha   90.00000000
_cell_angle_beta   90.00000000
_cell_angle_gamma   85.27224604
_symmetry_Int_Tables_number   1
_chemical_formula_structural   YUInIr2
_chemical_formula_sum   'Y2 U2 In2 Ir4'
_cell_volume   212.27201036
_cell_formula_units_Z   2
loop_
 _symmetry_equiv_pos_site_id
 _symmetry_equiv_pos_as_xyz
  1  'x, y, z'
loop_
 _atom_site_type_symbol
 _atom_site_label
 _atom_site_symmetry_multiplicity
 _atom_site_fract_x
 _atom_site_fract_y
 _atom_site_fract_z
 _atom_site_occupancy
  Y  Y0  1  0.670160  0.170160  0.500000  1
  Y  Y1  1  0.329840  0.829840  0.500000  1
  U  U2  1  0.167155  0.332845  0.500000  1
  U  U3  1  0.832845  0.667155  0.500000  1
  In  In4  1  0.500000  0.500000  0.000000  1
  In  In5  1  0.000000  0.000000  0.000000  1
  Ir  Ir6  1  0.122938  0.622938  0.000000  1
  Ir  Ir7  1  0.877062  0.377062  0.000000  1
  Ir  Ir8  1  0.647730  0.852270  0.000000  1
  Ir  Ir9  1  0.352270  0.147730  0.000000  1
