# generated using pymatgen
data_K4CeNpI12
_symmetry_space_group_name_H-M   'P 1'
_cell_length_a   8.69521406
_cell_length_b   8.23785308
_cell_length_c   14.25995582
_cell_angle_alpha   55.02846178
_cell_angle_beta   89.94011140
_cell_angle_gamma   89.91019583
_symmetry_Int_Tables_number   1
_chemical_formula_structural   K4CeNpI12
_chemical_formula_sum   'K4 Ce1 Np1 I12'
_cell_volume   837.00385799
_cell_formula_units_Z   1
loop_
 _symmetry_equiv_pos_site_id
 _symmetry_equiv_pos_as_xyz
  1  'x, y, z'
loop_
 _atom_site_type_symbol
 _atom_site_label
 _atom_site_symmetry_multiplicity
 _atom_site_fract_x
 _atom_site_fract_y
 _atom_site_fract_z
 _atom_site_occupancy
  K  K0  1  0.582353  0.725008  0.252543  1
  K  K1  1  0.082319  0.273371  0.248730  1
  K  K2  1  0.417647  0.274992  0.747457  1
  K  K3  1  0.917681  0.726629  0.751270  1
  Ce  Ce4  1  0.000000  0.000000  0.000000  1
  Np  Np5  1  0.500000  0.000000  0.500000  1
  I  I6  1  0.981443  0.845349  0.250320  1
  I  I7  1  0.481731  0.150955  0.252608  1
  I  I8  1  0.018557  0.154651  0.749680  1
  I  I9  1  0.518269  0.849045  0.747392  1
  I  I10  1  0.685929  0.646638  0.553704  1
  I  I11  1  0.187707  0.356638  0.946258  1
  I  I12  1  0.314071  0.353362  0.446296  1
  I  I13  1  0.812293  0.643362  0.053742  1
  I  I14  1  0.701902  0.230037  0.952657  1
  I  I15  1  0.206198  0.771700  0.547138  1
  I  I16  1  0.298098  0.769963  0.047343  1
  I  I17  1  0.793802  0.228300  0.452862  1
