# generated using pymatgen
data_PrNd3(LuAu)4
_symmetry_space_group_name_H-M   'P 1'
_cell_length_a   4.95400900
_cell_length_b   7.35549257
_cell_length_c   8.91881003
_cell_angle_alpha   90.01788072
_cell_angle_beta   90.00000000
_cell_angle_gamma   90.00000000
_symmetry_Int_Tables_number   1
_chemical_formula_structural   PrNd3(LuAu)4
_chemical_formula_sum   'Pr1 Nd3 Lu4 Au4'
_cell_volume   324.99407614
_cell_formula_units_Z   1
loop_
 _symmetry_equiv_pos_site_id
 _symmetry_equiv_pos_as_xyz
  1  'x, y, z'
loop_
 _atom_site_type_symbol
 _atom_site_label
 _atom_site_symmetry_multiplicity
 _atom_site_fract_x
 _atom_site_fract_y
 _atom_site_fract_z
 _atom_site_occupancy
  Pr  Pr0  1  0.250000  0.018213  0.323321  1
  Nd  Nd1  1  0.250000  0.518632  0.176403  1
  Nd  Nd2  1  0.750000  0.981399  0.676947  1
  Nd  Nd3  1  0.750000  0.481448  0.823037  1
  Lu  Lu4  1  0.250000  0.146293  0.921181  1
  Lu  Lu5  1  0.250000  0.646091  0.579092  1
  Lu  Lu6  1  0.750000  0.853767  0.077844  1
  Lu  Lu7  1  0.750000  0.353874  0.421433  1
  Au  Au8  1  0.250000  0.260347  0.602977  1
  Au  Au9  1  0.250000  0.760243  0.897631  1
  Au  Au10  1  0.750000  0.738944  0.398202  1
  Au  Au11  1  0.750000  0.240749  0.101930  1
