# generated using pymatgen
data_Dy10Si6N
_symmetry_space_group_name_H-M   'P 1'
_cell_length_a   8.41392100
_cell_length_b   8.41392046
_cell_length_c   6.35714900
_cell_angle_alpha   90.00000000
_cell_angle_beta   90.00000000
_cell_angle_gamma   119.99999818
_symmetry_Int_Tables_number   1
_chemical_formula_structural   Dy10Si6N
_chemical_formula_sum   'Dy10 Si6 N1'
_cell_volume   389.75335529
_cell_formula_units_Z   1
loop_
 _symmetry_equiv_pos_site_id
 _symmetry_equiv_pos_as_xyz
  1  'x, y, z'
loop_
 _atom_site_type_symbol
 _atom_site_label
 _atom_site_symmetry_multiplicity
 _atom_site_fract_x
 _atom_site_fract_y
 _atom_site_fract_z
 _atom_site_occupancy
  Dy  Dy0  1  0.333333  0.666667  0.500000  1
  Dy  Dy1  1  0.666667  0.333333  0.500000  1
  Dy  Dy2  1  0.666667  0.333333  0.000000  1
  Dy  Dy3  1  0.333333  0.666667  0.000000  1
  Dy  Dy4  1  0.000000  0.767335  0.266835  1
  Dy  Dy5  1  0.232665  0.232665  0.266835  1
  Dy  Dy6  1  0.767335  0.000000  0.266835  1
  Dy  Dy7  1  0.000000  0.232665  0.733165  1
  Dy  Dy8  1  0.767335  0.767335  0.733165  1
  Dy  Dy9  1  0.232665  0.000000  0.733165  1
  Si  Si10  1  0.000000  0.399431  0.251562  1
  Si  Si11  1  0.600569  0.600569  0.251562  1
  Si  Si12  1  0.399431  0.000000  0.251562  1
  Si  Si13  1  0.000000  0.600569  0.748438  1
  Si  Si14  1  0.399431  0.399431  0.748438  1
  Si  Si15  1  0.600569  0.000000  0.748438  1
  N  N16  1  0.000000  0.000000  0.500000  1
