# generated using pymatgen
data_Lu(ThPt)2
_symmetry_space_group_name_H-M   'P 1'
_cell_length_a   8.00241100
_cell_length_b   8.00241100
_cell_length_c   3.89605100
_cell_angle_alpha   90.00000000
_cell_angle_beta   90.00000000
_cell_angle_gamma   90.00000000
_symmetry_Int_Tables_number   1
_chemical_formula_structural   Lu(ThPt)2
_chemical_formula_sum   'Lu2 Th4 Pt4'
_cell_volume   249.49758071
_cell_formula_units_Z   2
loop_
 _symmetry_equiv_pos_site_id
 _symmetry_equiv_pos_as_xyz
  1  'x, y, z'
loop_
 _atom_site_type_symbol
 _atom_site_label
 _atom_site_symmetry_multiplicity
 _atom_site_fract_x
 _atom_site_fract_y
 _atom_site_fract_z
 _atom_site_occupancy
  Lu  Lu0  1  0.000000  0.000000  0.000000  1
  Lu  Lu1  1  0.500000  0.500000  0.000000  1
  Th  Th2  1  0.671944  0.171944  0.500000  1
  Th  Th3  1  0.171944  0.328056  0.500000  1
  Th  Th4  1  0.328056  0.828056  0.500000  1
  Th  Th5  1  0.828056  0.671944  0.500000  1
  Pt  Pt6  1  0.868538  0.368538  0.000000  1
  Pt  Pt7  1  0.631462  0.868538  0.000000  1
  Pt  Pt8  1  0.131462  0.631462  0.000000  1
  Pt  Pt9  1  0.368538  0.131462  0.000000  1
