# generated using pymatgen
data_CaPrNp2F12
_symmetry_space_group_name_H-M   'P 1'
_cell_length_a   4.51792400
_cell_length_b   6.67978282
_cell_length_c   7.10843000
_cell_angle_alpha   90.00000000
_cell_angle_beta   90.00000000
_cell_angle_gamma   90.25435776
_symmetry_Int_Tables_number   1
_chemical_formula_structural   CaPrNp2F12
_chemical_formula_sum   'Ca1 Pr1 Np2 F12'
_cell_volume   214.52142597
_cell_formula_units_Z   1
loop_
 _symmetry_equiv_pos_site_id
 _symmetry_equiv_pos_as_xyz
  1  'x, y, z'
loop_
 _atom_site_type_symbol
 _atom_site_label
 _atom_site_symmetry_multiplicity
 _atom_site_fract_x
 _atom_site_fract_y
 _atom_site_fract_z
 _atom_site_occupancy
  Ca  Ca0  1  0.949727  0.634135  0.750000  1
  Pr  Pr1  1  0.056987  0.370947  0.250000  1
  Np  Np2  1  0.446272  0.861973  0.250000  1
  Np  Np3  1  0.559321  0.136637  0.750000  1
  F  F4  1  0.086702  0.990495  0.750000  1
  F  F5  1  0.571289  0.520230  0.250000  1
  F  F6  1  0.409179  0.460683  0.750000  1
  F  F7  1  0.920277  0.015779  0.250000  1
  F  F8  1  0.390127  0.161120  0.067705  1
  F  F9  1  0.880890  0.331661  0.937257  1
  F  F10  1  0.113623  0.672120  0.433214  1
  F  F11  1  0.615482  0.839659  0.563263  1
  F  F12  1  0.615482  0.839659  0.936737  1
  F  F13  1  0.113623  0.672120  0.066786  1
  F  F14  1  0.880890  0.331661  0.562743  1
  F  F15  1  0.390127  0.161120  0.432295  1
