# generated using pymatgen
data_Nd20(AlSi3)3
_symmetry_space_group_name_H-M   'P 1'
_cell_length_a   7.80054100
_cell_length_b   7.80054100
_cell_length_c   14.57878700
_cell_angle_alpha   90.00000000
_cell_angle_beta   90.00000000
_cell_angle_gamma   90.00000000
_symmetry_Int_Tables_number   1
_chemical_formula_structural   Nd20(AlSi3)3
_chemical_formula_sum   'Nd20 Al3 Si9'
_cell_volume   887.09644448
_cell_formula_units_Z   1
loop_
 _symmetry_equiv_pos_site_id
 _symmetry_equiv_pos_as_xyz
  1  'x, y, z'
loop_
 _atom_site_type_symbol
 _atom_site_label
 _atom_site_symmetry_multiplicity
 _atom_site_fract_x
 _atom_site_fract_y
 _atom_site_fract_z
 _atom_site_occupancy
  Nd  Nd0  1  0.819532  0.821561  0.607608  1
  Nd  Nd1  1  0.185743  0.827150  0.111444  1
  Nd  Nd2  1  0.167930  0.809415  0.392174  1
  Nd  Nd3  1  0.000000  0.500000  0.734540  1
  Nd  Nd4  1  0.832070  0.190585  0.392174  1
  Nd  Nd5  1  0.690585  0.667930  0.392174  1
  Nd  Nd6  1  0.678439  0.319532  0.607608  1
  Nd  Nd7  1  0.321561  0.680468  0.607608  1
  Nd  Nd8  1  0.000000  0.500000  0.230236  1
  Nd  Nd9  1  0.672850  0.685743  0.111444  1
  Nd  Nd10  1  0.684797  0.326452  0.888624  1
  Nd  Nd11  1  0.826452  0.815203  0.888624  1
  Nd  Nd12  1  0.309415  0.332070  0.392174  1
  Nd  Nd13  1  0.180468  0.178439  0.607608  1
  Nd  Nd14  1  0.814257  0.172850  0.111444  1
  Nd  Nd15  1  0.315203  0.673548  0.888624  1
  Nd  Nd16  1  0.327150  0.314257  0.111444  1
  Nd  Nd17  1  0.500000  0.000000  0.270300  1
  Nd  Nd18  1  0.173548  0.184797  0.888624  1
  Nd  Nd19  1  0.500000  0.000000  0.764300  1
  Al  Al20  1  0.500000  0.000000  0.494381  1
  Al  Al21  1  0.500000  0.000000  0.993149  1
  Al  Al22  1  0.000000  0.500000  0.005471  1
  Si  Si23  1  0.613263  0.385827  0.251944  1
  Si  Si24  1  0.114282  0.887021  0.747672  1
  Si  Si25  1  0.387021  0.385718  0.747672  1
  Si  Si26  1  0.386737  0.614173  0.251944  1
  Si  Si27  1  0.885827  0.886737  0.251944  1
  Si  Si28  1  0.612979  0.614282  0.747672  1
  Si  Si29  1  0.000000  0.500000  0.509760  1
  Si  Si30  1  0.885718  0.112979  0.747672  1
  Si  Si31  1  0.114173  0.113263  0.251944  1
