# generated using pymatgen
data_Ba3Sr(TiH5)4
_symmetry_space_group_name_H-M   'P 1'
_cell_length_a   12.84401869
_cell_length_b   5.42629000
_cell_length_c   4.72626114
_cell_angle_alpha   90.00069977
_cell_angle_beta   90.10850289
_cell_angle_gamma   90.00050736
_symmetry_Int_Tables_number   1
_chemical_formula_structural   Ba3Sr(TiH5)4
_chemical_formula_sum   'Ba3 Sr1 Ti4 H20'
_cell_volume   329.39792930
_cell_formula_units_Z   1
loop_
 _symmetry_equiv_pos_site_id
 _symmetry_equiv_pos_as_xyz
  1  'x, y, z'
loop_
 _atom_site_type_symbol
 _atom_site_label
 _atom_site_symmetry_multiplicity
 _atom_site_fract_x
 _atom_site_fract_y
 _atom_site_fract_z
 _atom_site_occupancy
  Ba  Ba0  1  0.901508  0.000025  0.013290  1
  Ba  Ba1  1  0.100708  0.500026  0.488465  1
  Ba  Ba2  1  0.594321  0.999967  0.513542  1
  Sr  Sr3  1  0.398096  0.499967  0.989512  1
  Ti  Ti4  1  0.205572  0.000024  0.998900  1
  Ti  Ti5  1  0.799398  0.500019  0.498062  1
  Ti  Ti6  1  0.302557  0.999980  0.500616  1
  Ti  Ti7  1  0.694259  0.499980  0.998518  1
  H  H8  1  0.579195  0.718698  0.006642  1
  H  H9  1  0.579222  0.281169  0.006672  1
  H  H10  1  0.840744  0.500034  0.096993  1
  H  H11  1  0.262557  0.243755  0.234136  1
  H  H12  1  0.739203  0.259449  0.261033  1
  H  H13  1  0.262525  0.756240  0.234117  1
  H  H14  1  0.739186  0.740545  0.261021  1
  H  H15  1  0.159048  0.000051  0.406050  1
  H  H16  1  0.411539  0.764850  0.494782  1
  H  H17  1  0.411568  0.235018  0.494861  1
  H  H18  1  0.911795  0.275225  0.509078  1
  H  H19  1  0.911774  0.724890  0.509096  1
  H  H20  1  0.655245  0.499968  0.592724  1
  H  H21  1  0.246844  0.755465  0.739805  1
  H  H22  1  0.756013  0.739573  0.763551  1
  H  H23  1  0.246876  0.244552  0.739805  1
  H  H24  1  0.756032  0.260434  0.763531  1
  H  H25  1  0.349727  0.999948  0.904293  1
  H  H26  1  0.092260  0.223091  0.990443  1
  H  H27  1  0.092231  0.777050  0.990464  1
