# generated using pymatgen
data_Rb8TbY3F20
_symmetry_space_group_name_H-M   'P 1'
_cell_length_a   6.94306692
_cell_length_b   7.48736800
_cell_length_c   11.49184315
_cell_angle_alpha   90.00000000
_cell_angle_beta   90.01567211
_cell_angle_gamma   90.00000000
_symmetry_Int_Tables_number   1
_chemical_formula_structural   Rb8TbY3F20
_chemical_formula_sum   'Rb8 Tb1 Y3 F20'
_cell_volume   597.40685835
_cell_formula_units_Z   1
loop_
 _symmetry_equiv_pos_site_id
 _symmetry_equiv_pos_as_xyz
  1  'x, y, z'
loop_
 _atom_site_type_symbol
 _atom_site_label
 _atom_site_symmetry_multiplicity
 _atom_site_fract_x
 _atom_site_fract_y
 _atom_site_fract_z
 _atom_site_occupancy
  Rb  Rb0  1  0.964928  0.502465  0.670784  1
  Rb  Rb1  1  0.035000  0.002411  0.329194  1
  Rb  Rb2  1  0.535279  0.502809  0.171204  1
  Rb  Rb3  1  0.465288  0.002535  0.828710  1
  Rb  Rb4  1  0.964928  0.997535  0.670784  1
  Rb  Rb5  1  0.035000  0.497589  0.329194  1
  Rb  Rb6  1  0.535279  0.997191  0.171204  1
  Rb  Rb7  1  0.465288  0.497465  0.828710  1
  Tb  Tb8  1  0.939614  0.250000  0.998812  1
  Y  Y9  1  0.060101  0.750000  0.001188  1
  Y  Y10  1  0.559859  0.250000  0.498574  1
  Y  Y11  1  0.440309  0.750000  0.501313  1
  F  F12  1  0.858986  0.534248  0.928743  1
  F  F13  1  0.140532  0.033661  0.071671  1
  F  F14  1  0.641560  0.534387  0.429147  1
  F  F15  1  0.358749  0.034249  0.570766  1
  F  F16  1  0.858986  0.965752  0.928743  1
  F  F17  1  0.140532  0.466339  0.071671  1
  F  F18  1  0.641560  0.965613  0.429147  1
  F  F19  1  0.358749  0.465751  0.570766  1
  F  F20  1  0.621484  0.750000  0.659737  1
  F  F21  1  0.379009  0.250000  0.340111  1
  F  F22  1  0.878704  0.750000  0.159508  1
  F  F23  1  0.121238  0.250000  0.839613  1
  F  F24  1  0.122920  0.750000  0.514894  1
  F  F25  1  0.877176  0.250000  0.485035  1
  F  F26  1  0.377501  0.750000  0.014491  1
  F  F27  1  0.621325  0.250000  0.985509  1
  F  F28  1  0.153773  0.750000  0.816359  1
  F  F29  1  0.846181  0.250000  0.184520  1
  F  F30  1  0.346826  0.750000  0.316428  1
  F  F31  1  0.653336  0.250000  0.683466  1
