# generated using pymatgen
data_LaYb3(Pr4Ir3)4
_symmetry_space_group_name_H-M   'P 1'
_cell_length_a   11.30964300
_cell_length_b   11.32347665
_cell_length_c   6.55535816
_cell_angle_alpha   90.02263048
_cell_angle_beta   89.90931937
_cell_angle_gamma   90.05758042
_symmetry_Int_Tables_number   1
_chemical_formula_structural   LaYb3(Pr4Ir3)4
_chemical_formula_sum   'La1 Yb3 Pr16 Ir12'
_cell_volume   839.50698350
_cell_formula_units_Z   1
loop_
 _symmetry_equiv_pos_site_id
 _symmetry_equiv_pos_as_xyz
  1  'x, y, z'
loop_
 _atom_site_type_symbol
 _atom_site_label
 _atom_site_symmetry_multiplicity
 _atom_site_fract_x
 _atom_site_fract_y
 _atom_site_fract_z
 _atom_site_occupancy
  La  La0  1  0.286731  0.089251  0.387771  1
  Yb  Yb1  1  0.999366  0.999672  0.500472  1
  Yb  Yb2  1  0.999952  0.000090  0.000083  1
  Yb  Yb3  1  0.500033  0.499991  0.999815  1
  Pr  Pr4  1  0.287854  0.911754  0.885175  1
  Pr  Pr5  1  0.711916  0.087652  0.885043  1
  Pr  Pr6  1  0.713187  0.911208  0.385541  1
  Pr  Pr7  1  0.588524  0.788659  0.884510  1
  Pr  Pr8  1  0.590681  0.208480  0.384149  1
  Pr  Pr9  1  0.410593  0.791035  0.383821  1
  Pr  Pr10  1  0.411882  0.211978  0.884530  1
  Pr  Pr11  1  0.208120  0.411078  0.615596  1
  Pr  Pr12  1  0.211639  0.588358  0.115604  1
  Pr  Pr13  1  0.788639  0.411567  0.115670  1
  Pr  Pr14  1  0.791635  0.589642  0.615606  1
  Pr  Pr15  1  0.912157  0.712385  0.115440  1
  Pr  Pr16  1  0.910985  0.287099  0.614543  1
  Pr  Pr17  1  0.088611  0.712968  0.615343  1
  Pr  Pr18  1  0.087462  0.287831  0.114522  1
  Pr  Pr19  1  0.500376  0.499833  0.499907  1
  Ir  Ir20  1  0.845920  0.154823  0.248569  1
  Ir  Ir21  1  0.845459  0.845921  0.751612  1
  Ir  Ir22  1  0.155425  0.153522  0.748260  1
  Ir  Ir23  1  0.154046  0.845239  0.249040  1
  Ir  Ir24  1  0.654620  0.345813  0.748732  1
  Ir  Ir25  1  0.653778  0.654637  0.250936  1
  Ir  Ir26  1  0.345723  0.345192  0.251672  1
  Ir  Ir27  1  0.345409  0.653839  0.748006  1
  Ir  Ir28  1  0.499142  0.000450  0.114860  1
  Ir  Ir29  1  0.500070  0.999898  0.615914  1
  Ir  Ir30  1  0.000149  0.499949  0.886050  1
  Ir  Ir31  1  0.999916  0.500186  0.383208  1
