# generated using pymatgen
data_Er8Zr11Si16Ru
_symmetry_space_group_name_H-M   'P 1'
_cell_length_a   7.28741993
_cell_length_b   7.28741965
_cell_length_c   13.33333534
_cell_angle_alpha   90.07588179
_cell_angle_beta   89.92411632
_cell_angle_gamma   89.94087546
_symmetry_Int_Tables_number   1
_chemical_formula_structural   Er8Zr11Si16Ru
_chemical_formula_sum   'Er8 Zr11 Si16 Ru1'
_cell_volume   708.08498228
_cell_formula_units_Z   1
loop_
 _symmetry_equiv_pos_site_id
 _symmetry_equiv_pos_as_xyz
  1  'x, y, z'
loop_
 _atom_site_type_symbol
 _atom_site_label
 _atom_site_symmetry_multiplicity
 _atom_site_fract_x
 _atom_site_fract_y
 _atom_site_fract_z
 _atom_site_occupancy
  Er  Er0  1  0.345981  0.004523  0.464093  1
  Er  Er1  1  0.495606  0.846603  0.716660  1
  Er  Er2  1  0.500625  0.154937  0.210592  1
  Er  Er3  1  0.846603  0.495606  0.283340  1
  Er  Er4  1  0.154937  0.500625  0.789408  1
  Er  Er5  1  0.651788  0.998648  0.966019  1
  Er  Er6  1  0.004523  0.345981  0.535907  1
  Er  Er7  1  0.998648  0.651788  0.033981  1
  Zr  Zr8  1  0.175916  0.824477  0.247659  1
  Zr  Zr9  1  0.824477  0.175916  0.752341  1
  Zr  Zr10  1  0.676036  0.676036  0.500000  1
  Zr  Zr11  1  0.145999  0.001475  0.875475  1
  Zr  Zr12  1  0.494935  0.646099  0.121854  1
  Zr  Zr13  1  0.502133  0.355605  0.627872  1
  Zr  Zr14  1  0.646099  0.494935  0.878146  1
  Zr  Zr15  1  0.355605  0.502133  0.372128  1
  Zr  Zr16  1  0.854617  0.998472  0.373858  1
  Zr  Zr17  1  0.001475  0.145999  0.124525  1
  Zr  Zr18  1  0.998472  0.854617  0.626142  1
  Si  Si19  1  0.207232  0.142070  0.684102  1
  Si  Si20  1  0.361605  0.706290  0.931623  1
  Si  Si21  1  0.640360  0.292894  0.433092  1
  Si  Si22  1  0.706290  0.361605  0.068377  1
  Si  Si23  1  0.292894  0.640360  0.566908  1
  Si  Si24  1  0.793001  0.857855  0.181280  1
  Si  Si25  1  0.142070  0.207232  0.315898  1
  Si  Si26  1  0.857855  0.793001  0.818720  1
  Si  Si27  1  0.294696  0.953030  0.062265  1
  Si  Si28  1  0.550611  0.798222  0.312844  1
  Si  Si29  1  0.443070  0.205791  0.819800  1
  Si  Si30  1  0.798222  0.550611  0.687156  1
  Si  Si31  1  0.205791  0.443070  0.180200  1
  Si  Si32  1  0.701808  0.051836  0.564137  1
  Si  Si33  1  0.953030  0.294696  0.937735  1
  Si  Si34  1  0.051836  0.701808  0.435863  1
  Ru  Ru35  1  0.325154  0.325154  0.000000  1
