# generated using pymatgen
data_Y12Tm3ThCd3InPt4
_symmetry_space_group_name_H-M   'P 1'
_cell_length_a   9.69905955
_cell_length_b   9.69905995
_cell_length_c   9.69906000
_cell_angle_alpha   60.35251756
_cell_angle_beta   60.35252983
_cell_angle_gamma   60.35252534
_symmetry_Int_Tables_number   1
_chemical_formula_structural   Y12Tm3ThCd3InPt4
_chemical_formula_sum   'Y12 Tm3 Th1 Cd3 In1 Pt4'
_cell_volume   650.31463275
_cell_formula_units_Z   1
loop_
 _symmetry_equiv_pos_site_id
 _symmetry_equiv_pos_as_xyz
  1  'x, y, z'
loop_
 _atom_site_type_symbol
 _atom_site_label
 _atom_site_symmetry_multiplicity
 _atom_site_fract_x
 _atom_site_fract_y
 _atom_site_fract_z
 _atom_site_occupancy
  Y  Y0  1  0.812199  0.189360  0.189360  1
  Y  Y1  1  0.192092  0.809609  0.809609  1
  Y  Y2  1  0.189360  0.812199  0.189360  1
  Y  Y3  1  0.809609  0.192092  0.809609  1
  Y  Y4  1  0.189360  0.189360  0.812199  1
  Y  Y5  1  0.809609  0.809609  0.192092  1
  Y  Y6  1  0.936736  0.565465  0.565465  1
  Y  Y7  1  0.563302  0.937959  0.937959  1
  Y  Y8  1  0.565465  0.936736  0.565465  1
  Y  Y9  1  0.937959  0.563302  0.937959  1
  Y  Y10  1  0.565465  0.565465  0.936736  1
  Y  Y11  1  0.937959  0.937959  0.563302  1
  Tm  Tm12  1  0.353033  0.353033  0.941241  1
  Tm  Tm13  1  0.353033  0.941241  0.353033  1
  Tm  Tm14  1  0.941241  0.353033  0.353033  1
  Th  Th15  1  0.348850  0.348850  0.348850  1
  Cd  Cd16  1  0.582630  0.582630  0.253084  1
  Cd  Cd17  1  0.582630  0.253084  0.582630  1
  Cd  Cd18  1  0.253084  0.582630  0.582630  1
  In  In19  1  0.581811  0.581811  0.581811  1
  Pt  Pt20  1  0.145680  0.145680  0.145680  1
  Pt  Pt21  1  0.140735  0.140735  0.567420  1
  Pt  Pt22  1  0.140735  0.567420  0.140735  1
  Pt  Pt23  1  0.567420  0.140735  0.140735  1
