# generated using pymatgen
data_UTeF12
_symmetry_space_group_name_H-M   'P 1'
_cell_length_a   5.45346100
_cell_length_b   9.35696800
_cell_length_c   10.44058600
_cell_angle_alpha   90.00000000
_cell_angle_beta   90.00000000
_cell_angle_gamma   90.00000000
_symmetry_Int_Tables_number   1
_chemical_formula_structural   UTeF12
_chemical_formula_sum   'U2 Te2 F24'
_cell_volume   532.76076142
_cell_formula_units_Z   2
loop_
 _symmetry_equiv_pos_site_id
 _symmetry_equiv_pos_as_xyz
  1  'x, y, z'
loop_
 _atom_site_type_symbol
 _atom_site_label
 _atom_site_symmetry_multiplicity
 _atom_site_fract_x
 _atom_site_fract_y
 _atom_site_fract_z
 _atom_site_occupancy
  U  U0  1  0.597374  0.750000  0.627771  1
  U  U1  1  0.097374  0.250000  0.872229  1
  Te  Te2  1  0.403013  0.250000  0.372320  1
  Te  Te3  1  0.903013  0.750000  0.127680  1
  F  F4  1  0.549928  0.390806  0.272010  1
  F  F5  1  0.049928  0.609194  0.227990  1
  F  F6  1  0.437350  0.902793  0.736519  1
  F  F7  1  0.937350  0.097207  0.763481  1
  F  F8  1  0.173579  0.750000  0.018644  1
  F  F9  1  0.673579  0.250000  0.481356  1
  F  F10  1  0.802963  0.250000  0.990669  1
  F  F11  1  0.302963  0.750000  0.509331  1
  F  F12  1  0.631468  0.750000  0.236565  1
  F  F13  1  0.131468  0.250000  0.263435  1
  F  F14  1  0.392062  0.250000  0.754129  1
  F  F15  1  0.892062  0.750000  0.745871  1
  F  F16  1  0.754919  0.890858  0.027735  1
  F  F17  1  0.254919  0.109142  0.472265  1
  F  F18  1  0.257575  0.402840  0.980777  1
  F  F19  1  0.757575  0.597160  0.519223  1
  F  F20  1  0.257575  0.097160  0.980777  1
  F  F21  1  0.757575  0.902840  0.519223  1
  F  F22  1  0.754919  0.609142  0.027735  1
  F  F23  1  0.254919  0.390858  0.472265  1
  F  F24  1  0.049928  0.890806  0.227990  1
  F  F25  1  0.549928  0.109194  0.272010  1
  F  F26  1  0.937350  0.402793  0.763481  1
  F  F27  1  0.437350  0.597207  0.736519  1
