# generated using pymatgen
data_Tb4Co17Re3(SiP5)2
_symmetry_space_group_name_H-M   'P 1'
_cell_length_a   3.70660500
_cell_length_b   10.35860172
_cell_length_c   11.78420523
_cell_angle_alpha   89.93699095
_cell_angle_beta   90.00000000
_cell_angle_gamma   90.00000000
_symmetry_Int_Tables_number   1
_chemical_formula_structural   Tb4Co17Re3(SiP5)2
_chemical_formula_sum   'Tb4 Co17 Re3 Si2 P10'
_cell_volume   452.45717227
_cell_formula_units_Z   1
loop_
 _symmetry_equiv_pos_site_id
 _symmetry_equiv_pos_as_xyz
  1  'x, y, z'
loop_
 _atom_site_type_symbol
 _atom_site_label
 _atom_site_symmetry_multiplicity
 _atom_site_fract_x
 _atom_site_fract_y
 _atom_site_fract_z
 _atom_site_occupancy
  Tb  Tb0  1  0.250000  0.581526  0.699182  1
  Tb  Tb1  1  0.250000  0.915273  0.205099  1
  Tb  Tb2  1  0.750000  0.414333  0.299905  1
  Tb  Tb3  1  0.750000  0.084033  0.794229  1
  Co  Co4  1  0.750000  0.214548  0.510601  1
  Co  Co5  1  0.250000  0.405419  0.489192  1
  Co  Co6  1  0.250000  0.093708  0.988329  1
  Co  Co7  1  0.750000  0.593877  0.509978  1
  Co  Co8  1  0.750000  0.906319  0.011710  1
  Co  Co9  1  0.250000  0.213480  0.177903  1
  Co  Co10  1  0.250000  0.278034  0.676241  1
  Co  Co11  1  0.750000  0.785346  0.821803  1
  Co  Co12  1  0.750000  0.722177  0.323878  1
  Co  Co13  1  0.250000  0.888079  0.699633  1
  Co  Co14  1  0.250000  0.616942  0.202067  1
  Co  Co15  1  0.750000  0.114619  0.302859  1
  Co  Co16  1  0.750000  0.382730  0.798030  1
  Co  Co17  1  0.250000  0.465174  0.931859  1
  Co  Co18  1  0.250000  0.034387  0.432735  1
  Co  Co19  1  0.750000  0.535010  0.068598  1
  Co  Co20  1  0.750000  0.967098  0.567462  1
  Re  Re21  1  0.250000  0.708253  0.988074  1
  Re  Re22  1  0.250000  0.790311  0.488880  1
  Re  Re23  1  0.750000  0.291826  0.011707  1
  Si  Si24  1  0.250000  0.416965  0.116153  1
  Si  Si25  1  0.750000  0.582138  0.883903  1
  P  P26  1  0.250000  0.083126  0.611426  1
  P  P27  1  0.750000  0.920497  0.387069  1
  P  P28  1  0.250000  0.270404  0.865253  1
  P  P29  1  0.250000  0.228560  0.369033  1
  P  P30  1  0.750000  0.729494  0.134366  1
  P  P31  1  0.750000  0.771798  0.633296  1
  P  P32  1  0.250000  0.595782  0.391544  1
  P  P33  1  0.250000  0.903743  0.890521  1
  P  P34  1  0.750000  0.397441  0.606776  1
  P  P35  1  0.750000  0.097550  0.110708  1
