# generated using pymatgen
data_CaTb(OsO4)2
_symmetry_space_group_name_H-M   'P 1'
_cell_length_a   5.36939200
_cell_length_b   7.89733214
_cell_length_c   7.54130863
_cell_angle_alpha   76.87240525
_cell_angle_beta   90.00000000
_cell_angle_gamma   90.00000000
_symmetry_Int_Tables_number   1
_chemical_formula_structural   CaTb(OsO4)2
_chemical_formula_sum   'Ca2 Tb2 Os4 O16'
_cell_volume   311.42375997
_cell_formula_units_Z   2
loop_
 _symmetry_equiv_pos_site_id
 _symmetry_equiv_pos_as_xyz
  1  'x, y, z'
loop_
 _atom_site_type_symbol
 _atom_site_label
 _atom_site_symmetry_multiplicity
 _atom_site_fract_x
 _atom_site_fract_y
 _atom_site_fract_z
 _atom_site_occupancy
  Ca  Ca0  1  0.286941  0.633438  0.596214  1
  Ca  Ca1  1  0.213059  0.633438  0.096214  1
  Tb  Tb2  1  0.786340  0.383054  0.895543  1
  Tb  Tb3  1  0.713660  0.383054  0.395543  1
  Os  Os4  1  0.756771  0.830831  0.796373  1
  Os  Os5  1  0.743229  0.830831  0.296373  1
  Os  Os6  1  0.256655  0.165298  0.705843  1
  Os  Os7  1  0.243345  0.165298  0.205843  1
  O  O8  1  0.021530  0.985778  0.718734  1
  O  O9  1  0.478470  0.985778  0.218734  1
  O  O10  1  0.640321  0.824628  0.548147  1
  O  O11  1  0.859679  0.824628  0.048147  1
  O  O12  1  0.521208  0.650792  0.878779  1
  O  O13  1  0.989594  0.633655  0.811601  1
  O  O14  1  0.978792  0.650792  0.378779  1
  O  O15  1  0.510406  0.633655  0.311601  1
  O  O16  1  0.490413  0.364928  0.685567  1
  O  O17  1  0.993973  0.331537  0.627477  1
  O  O18  1  0.009587  0.364928  0.185567  1
  O  O19  1  0.506027  0.331537  0.127477  1
  O  O20  1  0.133944  0.187077  0.950648  1
  O  O21  1  0.366056  0.187077  0.450648  1
  O  O22  1  0.518070  0.008984  0.785073  1
  O  O23  1  0.981930  0.008984  0.285073  1
