# generated using pymatgen
data_SrSi6(As3Pt2)2
_symmetry_space_group_name_H-M   'P 1'
_cell_length_a   7.41646088
_cell_length_b   7.43469557
_cell_length_c   7.41646200
_cell_angle_alpha   109.44122593
_cell_angle_beta   109.48434300
_cell_angle_gamma   109.38878687
_symmetry_Int_Tables_number   1
_chemical_formula_structural   SrSi6(As3Pt2)2
_chemical_formula_sum   'Sr1 Si6 As6 Pt4'
_cell_volume   315.18509924
_cell_formula_units_Z   1
loop_
 _symmetry_equiv_pos_site_id
 _symmetry_equiv_pos_as_xyz
  1  'x, y, z'
loop_
 _atom_site_type_symbol
 _atom_site_label
 _atom_site_symmetry_multiplicity
 _atom_site_fract_x
 _atom_site_fract_y
 _atom_site_fract_z
 _atom_site_occupancy
  Sr  Sr0  1  0.005664  0.994409  0.988743  1
  Si  Si1  1  0.142505  0.346935  0.496618  1
  Si  Si2  1  0.513761  0.158719  0.362940  1
  Si  Si3  1  0.850317  0.346935  0.204430  1
  Si  Si4  1  0.636011  0.483398  0.847387  1
  Si  Si5  1  0.358655  0.212632  0.853976  1
  Si  Si6  1  0.795779  0.158719  0.644958  1
  As  As7  1  0.849970  0.636697  0.492450  1
  As  As8  1  0.348527  0.490852  0.142324  1
  As  As9  1  0.214363  0.865571  0.355596  1
  As  As10  1  0.144246  0.636697  0.786727  1
  As  As11  1  0.648473  0.791390  0.142919  1
  As  As12  1  0.509974  0.865571  0.651207  1
  Pt  Pt13  1  0.005317  0.012616  0.516190  1
  Pt  Pt14  1  0.493861  0.493123  0.506972  1
  Pt  Pt15  1  0.986151  0.493123  0.999262  1
  Pt  Pt16  1  0.496427  0.012616  0.007298  1
