# generated using pymatgen
data_CaNdAl20IrOs3
_symmetry_space_group_name_H-M   'P 1'
_cell_length_a   6.88409749
_cell_length_b   6.88103009
_cell_length_c   9.18696237
_cell_angle_alpha   90.21605534
_cell_angle_beta   90.03993211
_cell_angle_gamma   96.45965882
_symmetry_Int_Tables_number   1
_chemical_formula_structural   CaNdAl20IrOs3
_chemical_formula_sum   'Ca1 Nd1 Al20 Ir1 Os3'
_cell_volume   432.41729269
_cell_formula_units_Z   1
loop_
 _symmetry_equiv_pos_site_id
 _symmetry_equiv_pos_as_xyz
  1  'x, y, z'
loop_
 _atom_site_type_symbol
 _atom_site_label
 _atom_site_symmetry_multiplicity
 _atom_site_fract_x
 _atom_site_fract_y
 _atom_site_fract_z
 _atom_site_occupancy
  Ca  Ca0  1  0.872132  0.125411  0.750256  1
  Nd  Nd1  1  0.126601  0.875683  0.250120  1
  Al  Al2  1  0.620896  0.375960  0.549362  1
  Al  Al3  1  0.380192  0.622842  0.448461  1
  Al  Al4  1  0.377928  0.622288  0.049853  1
  Al  Al5  1  0.623472  0.376092  0.951868  1
  Al  Al6  1  0.224574  0.224832  0.500092  1
  Al  Al7  1  0.773983  0.777340  0.501932  1
  Al  Al8  1  0.774453  0.776840  0.998849  1
  Al  Al9  1  0.223554  0.225037  0.999336  1
  Al  Al10  1  0.841658  0.159119  0.100218  1
  Al  Al11  1  0.159787  0.839022  0.898483  1
  Al  Al12  1  0.161042  0.840819  0.603218  1
  Al  Al13  1  0.840006  0.157837  0.397769  1
  Al  Al14  1  0.855117  0.585571  0.751016  1
  Al  Al15  1  0.143620  0.412545  0.249108  1
  Al  Al16  1  0.414808  0.144026  0.750366  1
  Al  Al17  1  0.587807  0.857346  0.249644  1
  Al  Al18  1  0.219093  0.479667  0.752218  1
  Al  Al19  1  0.779307  0.516512  0.247791  1
  Al  Al20  1  0.520222  0.782309  0.749311  1
  Al  Al21  1  0.483801  0.219913  0.250593  1
  Ir  Ir22  1  0.999341  0.501253  0.500008  1
  Os  Os23  1  0.999547  0.501281  0.000096  1
  Os  Os24  1  0.498377  0.000195  0.000014  1
  Os  Os25  1  0.498680  0.000258  0.500017  1
