# generated using pymatgen
data_EuP12Ru3Pt
_symmetry_space_group_name_H-M   'P 1'
_cell_length_a   7.04186081
_cell_length_b   7.04186070
_cell_length_c   7.05749800
_cell_angle_alpha   109.51620736
_cell_angle_beta   109.51620705
_cell_angle_gamma   109.42620116
_symmetry_Int_Tables_number   1
_chemical_formula_structural   EuP12Ru3Pt
_chemical_formula_sum   'Eu1 P12 Ru3 Pt1'
_cell_volume   269.25408205
_cell_formula_units_Z   1
loop_
 _symmetry_equiv_pos_site_id
 _symmetry_equiv_pos_as_xyz
  1  'x, y, z'
loop_
 _atom_site_type_symbol
 _atom_site_label
 _atom_site_symmetry_multiplicity
 _atom_site_fract_x
 _atom_site_fract_y
 _atom_site_fract_z
 _atom_site_occupancy
  Eu  Eu0  1  0.000000  0.000000  0.000000  1
  P  P1  1  0.364251  0.217785  0.865453  1
  P  P2  1  0.635749  0.782215  0.134547  1
  P  P3  1  0.643969  0.501023  0.856305  1
  P  P4  1  0.356031  0.498977  0.143695  1
  P  P5  1  0.217785  0.853534  0.352332  1
  P  P6  1  0.782215  0.146466  0.647668  1
  P  P7  1  0.501023  0.857053  0.644718  1
  P  P8  1  0.498977  0.142947  0.355282  1
  P  P9  1  0.857053  0.356031  0.212336  1
  P  P10  1  0.142947  0.643969  0.787664  1
  P  P11  1  0.853534  0.635749  0.501203  1
  P  P12  1  0.146466  0.364251  0.498797  1
  Ru  Ru13  1  0.500000  0.000000  0.000000  1
  Ru  Ru14  1  0.000000  0.500000  0.000000  1
  Ru  Ru15  1  0.500000  0.500000  0.500000  1
  Pt  Pt16  1  0.000000  0.000000  0.500000  1
