# generated using pymatgen
data_Yb6Al24CoIr7
_symmetry_space_group_name_H-M   'P 1'
_cell_length_a   8.82809900
_cell_length_b   8.82809838
_cell_length_c   9.51498500
_cell_angle_alpha   90.00000000
_cell_angle_beta   90.00000000
_cell_angle_gamma   120.00000606
_symmetry_Int_Tables_number   1
_chemical_formula_structural   Yb6Al24CoIr7
_chemical_formula_sum   'Yb6 Al24 Co1 Ir7'
_cell_volume   642.20409774
_cell_formula_units_Z   1
loop_
 _symmetry_equiv_pos_site_id
 _symmetry_equiv_pos_as_xyz
  1  'x, y, z'
loop_
 _atom_site_type_symbol
 _atom_site_label
 _atom_site_symmetry_multiplicity
 _atom_site_fract_x
 _atom_site_fract_y
 _atom_site_fract_z
 _atom_site_occupancy
  Yb  Yb0  1  0.807149  0.192851  0.749775  1
  Yb  Yb1  1  0.192851  0.807149  0.250225  1
  Yb  Yb2  1  0.385702  0.192851  0.749775  1
  Yb  Yb3  1  0.614298  0.807149  0.250225  1
  Yb  Yb4  1  0.807149  0.614298  0.749775  1
  Yb  Yb5  1  0.192851  0.385702  0.250225  1
  Al  Al6  1  0.666667  0.333333  0.997933  1
  Al  Al7  1  0.333333  0.666667  0.002067  1
  Al  Al8  1  0.333333  0.666667  0.497366  1
  Al  Al9  1  0.666667  0.333333  0.502634  1
  Al  Al10  1  0.838562  0.161438  0.420199  1
  Al  Al11  1  0.161438  0.838562  0.579801  1
  Al  Al12  1  0.322876  0.161438  0.420199  1
  Al  Al13  1  0.158688  0.841312  0.921751  1
  Al  Al14  1  0.677124  0.838562  0.579801  1
  Al  Al15  1  0.841312  0.158688  0.078249  1
  Al  Al16  1  0.838562  0.677124  0.420199  1
  Al  Al17  1  0.682624  0.841312  0.921751  1
  Al  Al18  1  0.161438  0.322876  0.579801  1
  Al  Al19  1  0.317376  0.158688  0.078249  1
  Al  Al20  1  0.158688  0.317376  0.921751  1
  Al  Al21  1  0.841312  0.682624  0.078249  1
  Al  Al22  1  0.438059  0.561941  0.750584  1
  Al  Al23  1  0.561941  0.438059  0.249416  1
  Al  Al24  1  0.123882  0.561941  0.750584  1
  Al  Al25  1  0.876118  0.438059  0.249416  1
  Al  Al26  1  0.438059  0.876118  0.750584  1
  Al  Al27  1  0.561941  0.123882  0.249416  1
  Al  Al28  1  0.000000  0.000000  0.758079  1
  Al  Al29  1  0.000000  0.000000  0.241921  1
  Co  Co30  1  0.000000  0.000000  0.000000  1
  Ir  Ir31  1  0.500000  0.500000  0.000000  1
  Ir  Ir32  1  0.000000  0.500000  0.000000  1
  Ir  Ir33  1  0.500000  0.500000  0.500000  1
  Ir  Ir34  1  0.500000  0.000000  0.000000  1
  Ir  Ir35  1  0.000000  0.500000  0.500000  1
  Ir  Ir36  1  0.500000  0.000000  0.500000  1
  Ir  Ir37  1  0.000000  0.000000  0.500000  1
