# generated using pymatgen
data_TbAlGa2Ag
_symmetry_space_group_name_H-M   'P 1'
_cell_length_a   4.16936403
_cell_length_b   4.16211017
_cell_length_c   6.33224816
_cell_angle_alpha   70.81352088
_cell_angle_beta   70.77876374
_cell_angle_gamma   89.99999180
_symmetry_Int_Tables_number   1
_chemical_formula_structural   TbAlGa2Ag
_chemical_formula_sum   'Tb1 Al1 Ga2 Ag1'
_cell_volume   97.27275427
_cell_formula_units_Z   1
loop_
 _symmetry_equiv_pos_site_id
 _symmetry_equiv_pos_as_xyz
  1  'x, y, z'
loop_
 _atom_site_type_symbol
 _atom_site_label
 _atom_site_symmetry_multiplicity
 _atom_site_fract_x
 _atom_site_fract_y
 _atom_site_fract_z
 _atom_site_occupancy
  Tb  Tb0  1  0.000137  0.000137  0.999727  1
  Al  Al1  1  0.249505  0.749505  0.500989  1
  Ga  Ga2  1  0.607892  0.607892  0.784216  1
  Ga  Ga3  1  0.392015  0.392015  0.215969  1
  Ag  Ag4  1  0.750451  0.250451  0.499099  1
