# generated using pymatgen
data_Lu4AlTcRu6
_symmetry_space_group_name_H-M   'P 1'
_cell_length_a   5.14246506
_cell_length_b   5.32546184
_cell_length_c   8.80282500
_cell_angle_alpha   90.00000000
_cell_angle_beta   90.00000000
_cell_angle_gamma   119.00641972
_symmetry_Int_Tables_number   1
_chemical_formula_structural   Lu4AlTcRu6
_chemical_formula_sum   'Lu4 Al1 Tc1 Ru6'
_cell_volume   210.83513062
_cell_formula_units_Z   1
loop_
 _symmetry_equiv_pos_site_id
 _symmetry_equiv_pos_as_xyz
  1  'x, y, z'
loop_
 _atom_site_type_symbol
 _atom_site_label
 _atom_site_symmetry_multiplicity
 _atom_site_fract_x
 _atom_site_fract_y
 _atom_site_fract_z
 _atom_site_occupancy
  Lu  Lu0  1  0.335477  0.671450  0.438349  1
  Lu  Lu1  1  0.663031  0.328380  0.566551  1
  Lu  Lu2  1  0.663031  0.328380  0.933449  1
  Lu  Lu3  1  0.335477  0.671450  0.061651  1
  Al  Al4  1  0.839261  0.168023  0.250000  1
  Tc  Tc5  1  0.650388  0.827699  0.750000  1
  Ru  Ru6  1  0.996390  0.990717  0.499148  1
  Ru  Ru7  1  0.996390  0.990717  0.000852  1
  Ru  Ru8  1  0.826304  0.654258  0.250000  1
  Ru  Ru9  1  0.353436  0.181166  0.250000  1
  Ru  Ru10  1  0.163672  0.837152  0.750000  1
  Ru  Ru11  1  0.177143  0.350609  0.750000  1
