# generated using pymatgen
data_Ca2Er2As6Ir7
_symmetry_space_group_name_H-M   'P 1'
_cell_length_a   7.27873103
_cell_length_b   7.28785337
_cell_length_c   7.28785307
_cell_angle_alpha   109.48712547
_cell_angle_beta   109.48864071
_cell_angle_gamma   109.48865185
_symmetry_Int_Tables_number   1
_chemical_formula_structural   Ca2Er2As6Ir7
_chemical_formula_sum   'Ca2 Er2 As6 Ir7'
_cell_volume   297.41349796
_cell_formula_units_Z   1
loop_
 _symmetry_equiv_pos_site_id
 _symmetry_equiv_pos_as_xyz
  1  'x, y, z'
loop_
 _atom_site_type_symbol
 _atom_site_label
 _atom_site_symmetry_multiplicity
 _atom_site_fract_x
 _atom_site_fract_y
 _atom_site_fract_z
 _atom_site_occupancy
  Ca  Ca0  1  0.500000  0.000000  0.000000  1
  Ca  Ca1  1  0.500000  0.500000  0.500000  1
  Er  Er2  1  0.000000  0.000000  0.500000  1
  Er  Er3  1  0.000000  0.500000  0.000000  1
  As  As4  1  0.678568  0.680565  0.998004  1
  As  As5  1  0.321432  0.319435  0.001996  1
  As  As6  1  0.000000  0.680156  0.680156  1
  As  As7  1  0.000000  0.319844  0.319844  1
  As  As8  1  0.678568  0.998004  0.680565  1
  As  As9  1  0.321432  0.001996  0.319435  1
  Ir  Ir10  1  0.000000  0.000000  0.000000  1
  Ir  Ir11  1  0.245663  0.495413  0.750250  1
  Ir  Ir12  1  0.754337  0.249750  0.504587  1
  Ir  Ir13  1  0.500000  0.250000  0.750000  1
  Ir  Ir14  1  0.500000  0.750000  0.250000  1
  Ir  Ir15  1  0.754337  0.504587  0.249750  1
  Ir  Ir16  1  0.245663  0.750250  0.495413  1
