# generated using pymatgen
data_Pa6C5
_symmetry_space_group_name_H-M   'P 1'
_cell_length_a   6.16444920
_cell_length_b   6.16444922
_cell_length_c   6.14271448
_cell_angle_alpha   80.36375751
_cell_angle_beta   80.36375257
_cell_angle_gamma   120.13327634
_symmetry_Int_Tables_number   1
_chemical_formula_structural   Pa6C5
_chemical_formula_sum   'Pa6 C5'
_cell_volume   190.18250336
_cell_formula_units_Z   1
loop_
 _symmetry_equiv_pos_site_id
 _symmetry_equiv_pos_as_xyz
  1  'x, y, z'
loop_
 _atom_site_type_symbol
 _atom_site_label
 _atom_site_symmetry_multiplicity
 _atom_site_fract_x
 _atom_site_fract_y
 _atom_site_fract_z
 _atom_site_occupancy
  Pa  Pa0  1  0.750457  0.750457  0.749714  1
  Pa  Pa1  1  0.249543  0.249543  0.250286  1
  Pa  Pa2  1  0.082574  0.414607  0.750837  1
  Pa  Pa3  1  0.585393  0.917426  0.249163  1
  Pa  Pa4  1  0.917426  0.585393  0.249163  1
  Pa  Pa5  1  0.414607  0.082574  0.750837  1
  C  C6  1  0.500000  0.500000  0.500000  1
  C  C7  1  0.665814  0.334186  0.000000  1
  C  C8  1  0.334186  0.665814  0.000000  1
  C  C9  1  0.826800  0.173200  0.500000  1
  C  C10  1  0.173200  0.826800  0.500000  1
