# generated using pymatgen
data_Dy6ReTcB14
_symmetry_space_group_name_H-M   'P 1'
_cell_length_a   8.08320612
_cell_length_b   8.08320571
_cell_length_c   9.34991900
_cell_angle_alpha   90.00000000
_cell_angle_beta   90.00000000
_cell_angle_gamma   154.73001829
_symmetry_Int_Tables_number   1
_chemical_formula_structural   Dy6ReTcB14
_chemical_formula_sum   'Dy6 Re1 Tc1 B14'
_cell_volume   260.78652828
_cell_formula_units_Z   1
loop_
 _symmetry_equiv_pos_site_id
 _symmetry_equiv_pos_as_xyz
  1  'x, y, z'
loop_
 _atom_site_type_symbol
 _atom_site_label
 _atom_site_symmetry_multiplicity
 _atom_site_fract_x
 _atom_site_fract_y
 _atom_site_fract_z
 _atom_site_occupancy
  Dy  Dy0  1  0.894957  0.105043  0.439336  1
  Dy  Dy1  1  0.105277  0.894723  0.559610  1
  Dy  Dy2  1  0.894957  0.105043  0.060664  1
  Dy  Dy3  1  0.105277  0.894723  0.940390  1
  Dy  Dy4  1  0.241990  0.758010  0.250000  1
  Dy  Dy5  1  0.757643  0.242357  0.750000  1
  Re  Re6  1  0.947303  0.052697  0.750000  1
  Tc  Tc7  1  0.052934  0.947066  0.250000  1
  B  B8  1  0.727031  0.272969  0.466737  1
  B  B9  1  0.272909  0.727091  0.533317  1
  B  B10  1  0.727031  0.272969  0.033263  1
  B  B11  1  0.272909  0.727091  0.966683  1
  B  B12  1  0.631717  0.368283  0.151142  1
  B  B13  1  0.368053  0.631947  0.849068  1
  B  B14  1  0.631717  0.368283  0.348858  1
  B  B15  1  0.368053  0.631947  0.650932  1
  B  B16  1  0.520916  0.479084  0.095765  1
  B  B17  1  0.479128  0.520872  0.904558  1
  B  B18  1  0.520916  0.479084  0.404235  1
  B  B19  1  0.479128  0.520872  0.595442  1
  B  B20  1  0.457616  0.542384  0.250000  1
  B  B21  1  0.542536  0.457464  0.750000  1
