# generated using pymatgen
data_Dy3ErCCl6
_symmetry_space_group_name_H-M   'P 1'
_cell_length_a   3.75262600
_cell_length_b   12.48414741
_cell_length_c   12.92894100
_cell_angle_alpha   89.81032551
_cell_angle_beta   90.00000000
_cell_angle_gamma   90.00000000
_symmetry_Int_Tables_number   1
_chemical_formula_structural   Dy3ErCCl6
_chemical_formula_sum   'Dy6 Er2 C2 Cl12'
_cell_volume   605.69605506
_cell_formula_units_Z   2
loop_
 _symmetry_equiv_pos_site_id
 _symmetry_equiv_pos_as_xyz
  1  'x, y, z'
loop_
 _atom_site_type_symbol
 _atom_site_label
 _atom_site_symmetry_multiplicity
 _atom_site_fract_x
 _atom_site_fract_y
 _atom_site_fract_z
 _atom_site_occupancy
  Dy  Dy0  1  0.000000  0.103708  0.082294  1
  Dy  Dy1  1  0.000000  0.896292  0.917706  1
  Dy  Dy2  1  0.500000  0.124946  0.853237  1
  Dy  Dy3  1  0.500000  0.875054  0.146763  1
  Dy  Dy4  1  0.500000  0.624486  0.646321  1
  Dy  Dy5  1  0.500000  0.375514  0.353679  1
  Er  Er6  1  0.000000  0.602345  0.418657  1
  Er  Er7  1  0.000000  0.397655  0.581343  1
  C  C8  1  0.500000  0.000000  0.000000  1
  C  C9  1  0.500000  0.500000  0.500000  1
  Cl  Cl10  1  0.500000  0.270226  0.680717  1
  Cl  Cl11  1  0.500000  0.729774  0.319283  1
  Cl  Cl12  1  0.500000  0.767144  0.817123  1
  Cl  Cl13  1  0.500000  0.232856  0.182877  1
  Cl  Cl14  1  0.000000  0.259467  0.930808  1
  Cl  Cl15  1  0.000000  0.740533  0.069192  1
  Cl  Cl16  1  0.000000  0.482212  0.242187  1
  Cl  Cl17  1  0.000000  0.517788  0.757813  1
  Cl  Cl18  1  0.000000  0.979818  0.259251  1
  Cl  Cl19  1  0.000000  0.020182  0.740749  1
  Cl  Cl20  1  0.000000  0.241732  0.433368  1
  Cl  Cl21  1  0.000000  0.758268  0.566632  1
