# generated using pymatgen
data_Er2UAlGa2Ru3
_symmetry_space_group_name_H-M   'P 1'
_cell_length_a   6.87388757
_cell_length_b   6.87388572
_cell_length_c   3.98611500
_cell_angle_alpha   90.00000000
_cell_angle_beta   90.00000000
_cell_angle_gamma   117.00754265
_symmetry_Int_Tables_number   1
_chemical_formula_structural   Er2UAlGa2Ru3
_chemical_formula_sum   'Er2 U1 Al1 Ga2 Ru3'
_cell_volume   167.80554383
_cell_formula_units_Z   1
loop_
 _symmetry_equiv_pos_site_id
 _symmetry_equiv_pos_as_xyz
  1  'x, y, z'
loop_
 _atom_site_type_symbol
 _atom_site_label
 _atom_site_symmetry_multiplicity
 _atom_site_fract_x
 _atom_site_fract_y
 _atom_site_fract_z
 _atom_site_occupancy
  Er  Er0  1  0.416640  0.006448  0.500000  1
  Er  Er1  1  0.006448  0.416640  0.500000  1
  U  U2  1  0.612188  0.612188  0.500000  1
  Al  Al3  1  0.207651  0.207651  0.000000  1
  Ga  Ga4  1  0.747723  0.034067  0.000000  1
  Ga  Ga5  1  0.034067  0.747723  0.000000  1
  Ru  Ru6  1  0.377947  0.634196  0.000000  1
  Ru  Ru7  1  0.634196  0.377947  0.000000  1
  Ru  Ru8  1  0.963139  0.963139  0.500000  1
