# generated using pymatgen
data_CsNa3RuO5
_symmetry_space_group_name_H-M   'P 1'
_cell_length_a   6.01933845
_cell_length_b   6.01929713
_cell_length_c   9.35570655
_cell_angle_alpha   79.80802136
_cell_angle_beta   79.81036341
_cell_angle_gamma   82.08325301
_symmetry_Int_Tables_number   1
_chemical_formula_structural   CsNa3RuO5
_chemical_formula_sum   'Cs2 Na6 Ru2 O10'
_cell_volume   326.37870003
_cell_formula_units_Z   2
loop_
 _symmetry_equiv_pos_site_id
 _symmetry_equiv_pos_as_xyz
  1  'x, y, z'
loop_
 _atom_site_type_symbol
 _atom_site_label
 _atom_site_symmetry_multiplicity
 _atom_site_fract_x
 _atom_site_fract_y
 _atom_site_fract_z
 _atom_site_occupancy
  Cs  Cs0  1  0.252162  0.747852  0.500000  1
  Cs  Cs1  1  0.747838  0.252148  0.500000  1
  Na  Na2  1  0.353599  0.840667  0.111930  1
  Na  Na3  1  0.159361  0.646398  0.888066  1
  Na  Na4  1  0.646401  0.159333  0.888070  1
  Na  Na5  1  0.815988  0.816001  0.262368  1
  Na  Na6  1  0.840639  0.353602  0.111934  1
  Na  Na7  1  0.184012  0.183999  0.737632  1
  Ru  Ru8  1  0.311549  0.311505  0.245316  1
  Ru  Ru9  1  0.688451  0.688495  0.754684  1
  O  O10  1  0.740728  0.740689  0.554964  1
  O  O11  1  0.259272  0.259311  0.445036  1
  O  O12  1  0.546849  0.124633  0.153810  1
  O  O13  1  0.902880  0.902837  0.768752  1
  O  O14  1  0.529993  0.530013  0.242388  1
  O  O15  1  0.124601  0.546856  0.153824  1
  O  O16  1  0.875399  0.453144  0.846176  1
  O  O17  1  0.470007  0.469987  0.757612  1
  O  O18  1  0.097120  0.097163  0.231248  1
  O  O19  1  0.453151  0.875367  0.846190  1
