# generated using pymatgen
data_NdGdYRuO7
_symmetry_space_group_name_H-M   'P 1'
_cell_length_a   6.49718807
_cell_length_b   6.49800581
_cell_length_c   7.54956900
_cell_angle_alpha   90.00000000
_cell_angle_beta   90.00000000
_cell_angle_gamma   110.42353196
_symmetry_Int_Tables_number   1
_chemical_formula_structural   NdGdYRuO7
_chemical_formula_sum   'Nd2 Gd2 Y2 Ru2 O14'
_cell_volume   298.69750006
_cell_formula_units_Z   2
loop_
 _symmetry_equiv_pos_site_id
 _symmetry_equiv_pos_as_xyz
  1  'x, y, z'
loop_
 _atom_site_type_symbol
 _atom_site_label
 _atom_site_symmetry_multiplicity
 _atom_site_fract_x
 _atom_site_fract_y
 _atom_site_fract_z
 _atom_site_occupancy
  Nd  Nd0  1  0.000000  0.000000  0.500000  1
  Nd  Nd1  1  0.000000  0.000000  0.000000  1
  Gd  Gd2  1  0.926949  0.479186  0.750000  1
  Gd  Gd3  1  0.073051  0.520814  0.250000  1
  Y  Y4  1  0.480726  0.928864  0.750000  1
  Y  Y5  1  0.519274  0.071136  0.250000  1
  Ru  Ru6  1  0.500000  0.500000  0.500000  1
  Ru  Ru7  1  0.500000  0.500000  0.000000  1
  O  O8  1  0.584221  0.588893  0.750000  1
  O  O9  1  0.415779  0.411107  0.250000  1
  O  O10  1  0.838453  0.111441  0.750000  1
  O  O11  1  0.161547  0.888559  0.250000  1
  O  O12  1  0.116732  0.839676  0.750000  1
  O  O13  1  0.883268  0.160324  0.250000  1
  O  O14  1  0.441772  0.183090  0.963484  1
  O  O15  1  0.558228  0.816910  0.463484  1
  O  O16  1  0.182621  0.436325  0.962529  1
  O  O17  1  0.817379  0.563675  0.462529  1
  O  O18  1  0.441772  0.183090  0.536516  1
  O  O19  1  0.558228  0.816910  0.036516  1
  O  O20  1  0.817379  0.563675  0.037471  1
  O  O21  1  0.182621  0.436325  0.537471  1
