# generated using pymatgen
data_SrPr(SbPt)2
_symmetry_space_group_name_H-M   'P 1'
_cell_length_a   4.55667000
_cell_length_b   4.55667911
_cell_length_c   8.82511600
_cell_angle_alpha   90.00002057
_cell_angle_beta   90.00000649
_cell_angle_gamma   119.99954394
_symmetry_Int_Tables_number   1
_chemical_formula_structural   SrPr(SbPt)2
_chemical_formula_sum   'Sr1 Pr1 Sb2 Pt2'
_cell_volume   158.68982213
_cell_formula_units_Z   1
loop_
 _symmetry_equiv_pos_site_id
 _symmetry_equiv_pos_as_xyz
  1  'x, y, z'
loop_
 _atom_site_type_symbol
 _atom_site_label
 _atom_site_symmetry_multiplicity
 _atom_site_fract_x
 _atom_site_fract_y
 _atom_site_fract_z
 _atom_site_occupancy
  Sr  Sr0  1  0.000000  0.000000  0.753440  1
  Pr  Pr1  1  0.999999  0.999998  0.251790  1
  Sb  Sb2  1  0.666667  0.333335  0.001476  1
  Sb  Sb3  1  0.333334  0.666666  0.491100  1
  Pt  Pt4  1  0.666665  0.333334  0.502297  1
  Pt  Pt5  1  0.333336  0.666667  0.047897  1
