# generated using pymatgen
data_Pr16Cd4Co3Rh
_symmetry_space_group_name_H-M   'P 1'
_cell_length_a   9.94497836
_cell_length_b   9.92670419
_cell_length_c   9.92670400
_cell_angle_alpha   60.00000063
_cell_angle_beta   60.06076694
_cell_angle_gamma   60.06076344
_symmetry_Int_Tables_number   1
_chemical_formula_structural   Pr16Cd4Co3Rh
_chemical_formula_sum   'Pr16 Cd4 Co3 Rh1'
_cell_volume   693.58113700
_cell_formula_units_Z   1
loop_
 _symmetry_equiv_pos_site_id
 _symmetry_equiv_pos_as_xyz
  1  'x, y, z'
loop_
 _atom_site_type_symbol
 _atom_site_label
 _atom_site_symmetry_multiplicity
 _atom_site_fract_x
 _atom_site_fract_y
 _atom_site_fract_z
 _atom_site_occupancy
  Pr  Pr0  1  0.341297  0.349136  0.349136  1
  Pr  Pr1  1  0.341297  0.349136  0.960429  1
  Pr  Pr2  1  0.341297  0.960429  0.349136  1
  Pr  Pr3  1  0.963106  0.345631  0.345631  1
  Pr  Pr4  1  0.816222  0.189345  0.189345  1
  Pr  Pr5  1  0.189939  0.811075  0.811075  1
  Pr  Pr6  1  0.189939  0.811075  0.187910  1
  Pr  Pr7  1  0.816222  0.189345  0.805088  1
  Pr  Pr8  1  0.189939  0.187910  0.811075  1
  Pr  Pr9  1  0.816222  0.805088  0.189345  1
  Pr  Pr10  1  0.937555  0.562205  0.562205  1
  Pr  Pr11  1  0.561891  0.938646  0.938646  1
  Pr  Pr12  1  0.561891  0.938646  0.560818  1
  Pr  Pr13  1  0.937555  0.562205  0.938037  1
  Pr  Pr14  1  0.561891  0.560818  0.938646  1
  Pr  Pr15  1  0.937555  0.938037  0.562205  1
  Cd  Cd16  1  0.579268  0.579151  0.579151  1
  Cd  Cd17  1  0.579268  0.579151  0.262429  1
  Cd  Cd18  1  0.579268  0.262429  0.579151  1
  Cd  Cd19  1  0.261617  0.579461  0.579461  1
  Co  Co20  1  0.139794  0.141429  0.141429  1
  Co  Co21  1  0.139794  0.141429  0.577349  1
  Co  Co22  1  0.139794  0.577349  0.141429  1
  Rh  Rh23  1  0.577384  0.140872  0.140872  1
