# generated using pymatgen
data_Cs4Mn2Se5
_symmetry_space_group_name_H-M   'P 1'
_cell_length_a   8.10019589
_cell_length_b   9.45000125
_cell_length_c   11.46584327
_cell_angle_alpha   75.08219448
_cell_angle_beta   86.45793695
_cell_angle_gamma   81.18901591
_symmetry_Int_Tables_number   1
_chemical_formula_structural   Cs4Mn2Se5
_chemical_formula_sum   'Cs8 Mn4 Se10'
_cell_volume   837.85539682
_cell_formula_units_Z   2
loop_
 _symmetry_equiv_pos_site_id
 _symmetry_equiv_pos_as_xyz
  1  'x, y, z'
loop_
 _atom_site_type_symbol
 _atom_site_label
 _atom_site_symmetry_multiplicity
 _atom_site_fract_x
 _atom_site_fract_y
 _atom_site_fract_z
 _atom_site_occupancy
  Cs  Cs0  1  0.421352  0.320566  0.091789  1
  Cs  Cs1  1  0.578648  0.679434  0.908211  1
  Cs  Cs2  1  0.199368  0.078215  0.866214  1
  Cs  Cs3  1  0.056403  0.610533  0.747560  1
  Cs  Cs4  1  0.800632  0.921785  0.133786  1
  Cs  Cs5  1  0.943597  0.389467  0.252440  1
  Cs  Cs6  1  0.574773  0.716200  0.498510  1
  Cs  Cs7  1  0.425227  0.283800  0.501490  1
  Mn  Mn8  1  0.908845  0.085068  0.595247  1
  Mn  Mn9  1  0.091155  0.914932  0.404753  1
  Mn  Mn10  1  0.270796  0.723221  0.214308  1
  Mn  Mn11  1  0.729204  0.276779  0.785692  1
  Se  Se12  1  0.898758  0.345822  0.602669  1
  Se  Se13  1  0.201926  0.957099  0.589108  1
  Se  Se14  1  0.458171  0.410886  0.767720  1
  Se  Se15  1  0.158989  0.685922  0.040921  1
  Se  Se16  1  0.841011  0.314078  0.959079  1
  Se  Se17  1  0.541829  0.589114  0.232280  1
  Se  Se18  1  0.101242  0.654178  0.397331  1
  Se  Se19  1  0.263194  0.979739  0.217247  1
  Se  Se20  1  0.736806  0.020261  0.782753  1
  Se  Se21  1  0.798074  0.042901  0.410892  1
