# generated using pymatgen
data_Lu4Al24PdPt8
_symmetry_space_group_name_H-M   'P 1'
_cell_length_a   7.49550668
_cell_length_b   7.52221966
_cell_length_c   13.11942000
_cell_angle_alpha   84.69438403
_cell_angle_beta   79.15693909
_cell_angle_gamma   59.90529462
_symmetry_Int_Tables_number   1
_chemical_formula_structural   Lu4Al24PdPt8
_chemical_formula_sum   'Lu4 Al24 Pd1 Pt8'
_cell_volume   628.56776434
_cell_formula_units_Z   1
loop_
 _symmetry_equiv_pos_site_id
 _symmetry_equiv_pos_as_xyz
  1  'x, y, z'
loop_
 _atom_site_type_symbol
 _atom_site_label
 _atom_site_symmetry_multiplicity
 _atom_site_fract_x
 _atom_site_fract_y
 _atom_site_fract_z
 _atom_site_occupancy
  Lu  Lu0  1  0.393702  0.168819  0.807335  1
  Lu  Lu1  1  0.606298  0.831181  0.192665  1
  Lu  Lu2  1  0.734324  0.498746  0.807283  1
  Lu  Lu3  1  0.265676  0.501254  0.192717  1
  Al  Al4  1  0.683908  0.833964  0.943694  1
  Al  Al5  1  0.316092  0.166036  0.056306  1
  Al  Al6  1  0.146510  0.832247  0.561791  1
  Al  Al7  1  0.853490  0.167753  0.438209  1
  Al  Al8  1  0.479819  0.166703  0.558706  1
  Al  Al9  1  0.520181  0.833297  0.441294  1
  Al  Al10  1  0.217839  0.165377  0.327665  1
  Al  Al11  1  0.782161  0.834623  0.672335  1
  Al  Al12  1  0.436927  0.506405  0.672416  1
  Al  Al13  1  0.563073  0.493595  0.327584  1
  Al  Al14  1  0.109190  0.160223  0.671052  1
  Al  Al15  1  0.890810  0.839777  0.328948  1
  Al  Al16  1  0.353764  0.498811  0.943764  1
  Al  Al17  1  0.646236  0.501189  0.056236  1
  Al  Al18  1  0.016112  0.168282  0.951776  1
  Al  Al19  1  0.983888  0.831718  0.048224  1
  Al  Al20  1  0.186725  0.499222  0.441116  1
  Al  Al21  1  0.813275  0.500778  0.558884  1
  Al  Al22  1  0.733797  0.164091  0.182879  1
  Al  Al23  1  0.266203  0.835909  0.817121  1
  Al  Al24  1  0.061313  0.629657  0.816189  1
  Al  Al25  1  0.938687  0.370343  0.183811  1
  Al  Al26  1  0.854772  0.042214  0.816608  1
  Al  Al27  1  0.145228  0.957786  0.183392  1
  Pd  Pd28  1  0.000000  0.500000  0.000000  1
  Pt  Pt29  1  0.119991  0.490654  0.639665  1
  Pt  Pt30  1  0.880009  0.509346  0.360335  1
  Pt  Pt31  1  0.655909  0.172269  0.999958  1
  Pt  Pt32  1  0.344091  0.827731  0.000042  1
  Pt  Pt33  1  0.537126  0.166878  0.359916  1
  Pt  Pt34  1  0.462874  0.833122  0.640084  1
  Pt  Pt35  1  0.777646  0.175918  0.638321  1
  Pt  Pt36  1  0.222354  0.824082  0.361679  1
