# generated using pymatgen
data_Y4Ho4Cd2IrPt
_symmetry_space_group_name_H-M   'P 1'
_cell_length_a   9.65154798
_cell_length_b   9.65154739
_cell_length_c   9.64215900
_cell_angle_alpha   60.03217600
_cell_angle_beta   60.03217803
_cell_angle_gamma   60.25137124
_symmetry_Int_Tables_number   1
_chemical_formula_structural   Y4Ho4Cd2IrPt
_chemical_formula_sum   'Y8 Ho8 Cd4 Ir2 Pt2'
_cell_volume   636.62446936
_cell_formula_units_Z   2
loop_
 _symmetry_equiv_pos_site_id
 _symmetry_equiv_pos_as_xyz
  1  'x, y, z'
loop_
 _atom_site_type_symbol
 _atom_site_label
 _atom_site_symmetry_multiplicity
 _atom_site_fract_x
 _atom_site_fract_y
 _atom_site_fract_z
 _atom_site_occupancy
  Y  Y0  1  0.191575  0.191575  0.808425  1
  Y  Y1  1  0.811088  0.811088  0.188912  1
  Y  Y2  1  0.937803  0.564244  0.561509  1
  Y  Y3  1  0.564244  0.937803  0.936444  1
  Y  Y4  1  0.564244  0.937803  0.561509  1
  Y  Y5  1  0.937803  0.564244  0.936444  1
  Y  Y6  1  0.563104  0.563104  0.936896  1
  Y  Y7  1  0.937496  0.937496  0.562504  1
  Ho  Ho8  1  0.350622  0.350622  0.345839  1
  Ho  Ho9  1  0.350622  0.350622  0.952917  1
  Ho  Ho10  1  0.355630  0.944800  0.349784  1
  Ho  Ho11  1  0.944800  0.355630  0.349784  1
  Ho  Ho12  1  0.806565  0.190269  0.190755  1
  Ho  Ho13  1  0.190269  0.806565  0.812411  1
  Ho  Ho14  1  0.190269  0.806565  0.190755  1
  Ho  Ho15  1  0.806565  0.190269  0.812411  1
  Cd  Cd16  1  0.580981  0.580981  0.581635  1
  Cd  Cd17  1  0.580981  0.580981  0.256405  1
  Cd  Cd18  1  0.580671  0.256125  0.581603  1
  Cd  Cd19  1  0.256125  0.580671  0.581603  1
  Ir  Ir20  1  0.142175  0.572943  0.142441  1
  Ir  Ir21  1  0.572943  0.142175  0.142441  1
  Pt  Pt22  1  0.141713  0.141713  0.145934  1
  Pt  Pt23  1  0.141713  0.141713  0.570641  1
