# generated using pymatgen
data_Tb4DySn4
_symmetry_space_group_name_H-M   'P 1'
_cell_length_a   8.05508100
_cell_length_b   8.21094300
_cell_length_c   15.50237500
_cell_angle_alpha   90.00000000
_cell_angle_beta   90.00000000
_cell_angle_gamma   90.00000000
_symmetry_Int_Tables_number   1
_chemical_formula_structural   Tb4DySn4
_chemical_formula_sum   'Tb16 Dy4 Sn16'
_cell_volume   1025.32415180
_cell_formula_units_Z   4
loop_
 _symmetry_equiv_pos_site_id
 _symmetry_equiv_pos_as_xyz
  1  'x, y, z'
loop_
 _atom_site_type_symbol
 _atom_site_label
 _atom_site_symmetry_multiplicity
 _atom_site_fract_x
 _atom_site_fract_y
 _atom_site_fract_z
 _atom_site_occupancy
  Tb  Tb0  1  0.367561  0.836289  0.878147  1
  Tb  Tb1  1  0.867561  0.663711  0.621853  1
  Tb  Tb2  1  0.632439  0.163711  0.378147  1
  Tb  Tb3  1  0.132439  0.336289  0.121853  1
  Tb  Tb4  1  0.632439  0.163711  0.121853  1
  Tb  Tb5  1  0.132439  0.336289  0.378147  1
  Tb  Tb6  1  0.367561  0.836289  0.621853  1
  Tb  Tb7  1  0.867561  0.663711  0.878147  1
  Tb  Tb8  1  0.520572  0.320419  0.902015  1
  Tb  Tb9  1  0.020572  0.179581  0.597985  1
  Tb  Tb10  1  0.479428  0.679581  0.402015  1
  Tb  Tb11  1  0.979428  0.820419  0.097985  1
  Tb  Tb12  1  0.479428  0.679581  0.097985  1
  Tb  Tb13  1  0.979428  0.820419  0.402015  1
  Tb  Tb14  1  0.520572  0.320419  0.597985  1
  Tb  Tb15  1  0.020572  0.179581  0.902015  1
  Dy  Dy16  1  0.199275  0.502171  0.750000  1
  Dy  Dy17  1  0.699275  0.997829  0.750000  1
  Dy  Dy18  1  0.800725  0.497829  0.250000  1
  Dy  Dy19  1  0.300725  0.002171  0.250000  1
  Sn  Sn20  1  0.292384  0.035397  0.042082  1
  Sn  Sn21  1  0.792384  0.464603  0.457918  1
  Sn  Sn22  1  0.707616  0.964603  0.542082  1
  Sn  Sn23  1  0.207616  0.535397  0.957918  1
  Sn  Sn24  1  0.707616  0.964603  0.957918  1
  Sn  Sn25  1  0.207616  0.535397  0.542082  1
  Sn  Sn26  1  0.292384  0.035397  0.457918  1
  Sn  Sn27  1  0.792384  0.464603  0.042082  1
  Sn  Sn28  1  0.565520  0.618390  0.750000  1
  Sn  Sn29  1  0.065520  0.881610  0.750000  1
  Sn  Sn30  1  0.434480  0.381610  0.250000  1
  Sn  Sn31  1  0.934480  0.118390  0.250000  1
  Sn  Sn32  1  0.328933  0.146796  0.750000  1
  Sn  Sn33  1  0.828933  0.353204  0.750000  1
  Sn  Sn34  1  0.671067  0.853204  0.250000  1
  Sn  Sn35  1  0.171067  0.646796  0.250000  1
