# generated using pymatgen
data_BiI9
_symmetry_space_group_name_H-M   'P 1'
_cell_length_a   10.51396507
_cell_length_b   10.54580091
_cell_length_c   10.49782385
_cell_angle_alpha   88.75268047
_cell_angle_beta   88.85201222
_cell_angle_gamma   88.62698247
_symmetry_Int_Tables_number   1
_chemical_formula_structural   BiI9
_chemical_formula_sum   'Bi2 I18'
_cell_volume   1163.14796247
_cell_formula_units_Z   2
loop_
 _symmetry_equiv_pos_site_id
 _symmetry_equiv_pos_as_xyz
  1  'x, y, z'
loop_
 _atom_site_type_symbol
 _atom_site_label
 _atom_site_symmetry_multiplicity
 _atom_site_fract_x
 _atom_site_fract_y
 _atom_site_fract_z
 _atom_site_occupancy
  Bi  Bi0  1  0.500000  0.500000  0.500000  1
  Bi  Bi1  1  0.000000  0.000000  0.000000  1
  I  I2  1  0.796126  0.464702  0.502670  1
  I  I3  1  0.501238  0.795052  0.463795  1
  I  I4  1  0.464962  0.502629  0.796457  1
  I  I5  1  0.203874  0.535298  0.497330  1
  I  I6  1  0.498762  0.204948  0.536205  1
  I  I7  1  0.535038  0.497371  0.203543  1
  I  I8  1  0.897042  0.378536  0.749105  1
  I  I9  1  0.747079  0.895485  0.378710  1
  I  I10  1  0.378986  0.747983  0.896996  1
  I  I11  1  0.102958  0.621464  0.250895  1
  I  I12  1  0.252921  0.104515  0.621290  1
  I  I13  1  0.621014  0.252017  0.103004  1
  I  I14  1  0.016716  0.979480  0.702141  1
  I  I15  1  0.702774  0.016413  0.977280  1
  I  I16  1  0.977499  0.703709  0.014012  1
  I  I17  1  0.983284  0.020520  0.297859  1
  I  I18  1  0.297226  0.983587  0.022720  1
  I  I19  1  0.022501  0.296291  0.985988  1
