# generated using pymatgen
data_Ho12Er5Lu3Sn16
_symmetry_space_group_name_H-M   'P 1'
_cell_length_a   7.98277604
_cell_length_b   8.12353364
_cell_length_c   15.37904500
_cell_angle_alpha   89.99080986
_cell_angle_beta   90.00576347
_cell_angle_gamma   90.03523802
_symmetry_Int_Tables_number   1
_chemical_formula_structural   Ho12Er5Lu3Sn16
_chemical_formula_sum   'Ho12 Er5 Lu3 Sn16'
_cell_volume   997.30548190
_cell_formula_units_Z   1
loop_
 _symmetry_equiv_pos_site_id
 _symmetry_equiv_pos_as_xyz
  1  'x, y, z'
loop_
 _atom_site_type_symbol
 _atom_site_label
 _atom_site_symmetry_multiplicity
 _atom_site_fract_x
 _atom_site_fract_y
 _atom_site_fract_z
 _atom_site_occupancy
  Ho  Ho0  1  0.633967  0.162316  0.122609  1
  Ho  Ho1  1  0.133997  0.337679  0.377040  1
  Ho  Ho2  1  0.366236  0.837897  0.622731  1
  Ho  Ho3  1  0.865740  0.662650  0.877148  1
  Ho  Ho4  1  0.519815  0.320692  0.903780  1
  Ho  Ho5  1  0.019925  0.178731  0.596304  1
  Ho  Ho6  1  0.480141  0.679223  0.403749  1
  Ho  Ho7  1  0.980024  0.821070  0.096235  1
  Ho  Ho8  1  0.481190  0.679052  0.096206  1
  Ho  Ho9  1  0.981130  0.821029  0.404016  1
  Ho  Ho10  1  0.518905  0.320863  0.596226  1
  Ho  Ho11  1  0.018736  0.178522  0.903861  1
  Er  Er12  1  0.364968  0.838320  0.876805  1
  Er  Er13  1  0.864543  0.662078  0.623309  1
  Er  Er14  1  0.635496  0.161839  0.377177  1
  Er  Er15  1  0.135273  0.338095  0.123197  1
  Er  Er16  1  0.196138  0.503275  0.750386  1
  Lu  Lu17  1  0.696617  0.996050  0.749510  1
  Lu  Lu18  1  0.803551  0.496204  0.250551  1
  Lu  Lu19  1  0.303542  0.003953  0.249479  1
  Sn  Sn20  1  0.293189  0.037097  0.041627  1
  Sn  Sn21  1  0.793648  0.463208  0.458340  1
  Sn  Sn22  1  0.706651  0.962558  0.541831  1
  Sn  Sn23  1  0.205864  0.537362  0.958559  1
  Sn  Sn24  1  0.704877  0.962358  0.957787  1
  Sn  Sn25  1  0.204684  0.537937  0.541801  1
  Sn  Sn26  1  0.295364  0.037765  0.457671  1
  Sn  Sn27  1  0.795452  0.462776  0.042349  1
  Sn  Sn28  1  0.562157  0.617788  0.750310  1
  Sn  Sn29  1  0.061665  0.882464  0.749516  1
  Sn  Sn30  1  0.438608  0.382793  0.250096  1
  Sn  Sn31  1  0.937980  0.117188  0.249704  1
  Sn  Sn32  1  0.330466  0.149622  0.749997  1
  Sn  Sn33  1  0.829893  0.349128  0.750060  1
  Sn  Sn34  1  0.669818  0.849700  0.249971  1
  Sn  Sn35  1  0.169752  0.650718  0.250061  1
