# generated using pymatgen
data_Dy4Y7Er5CdIn3Pd4
_symmetry_space_group_name_H-M   'P 1'
_cell_length_a   9.68405262
_cell_length_b   9.68290060
_cell_length_c   9.68695800
_cell_angle_alpha   59.97832665
_cell_angle_beta   59.97814479
_cell_angle_gamma   60.07518527
_symmetry_Int_Tables_number   1
_chemical_formula_structural   Dy4Y7Er5CdIn3Pd4
_chemical_formula_sum   'Dy4 Y7 Er5 Cd1 In3 Pd4'
_cell_volume   642.44815680
_cell_formula_units_Z   1
loop_
 _symmetry_equiv_pos_site_id
 _symmetry_equiv_pos_as_xyz
  1  'x, y, z'
loop_
 _atom_site_type_symbol
 _atom_site_label
 _atom_site_symmetry_multiplicity
 _atom_site_fract_x
 _atom_site_fract_y
 _atom_site_fract_z
 _atom_site_occupancy
  Dy  Dy0  1  0.352362  0.352837  0.352657  1
  Dy  Dy1  1  0.352557  0.353826  0.940014  1
  Dy  Dy2  1  0.353015  0.938803  0.354433  1
  Dy  Dy3  1  0.939392  0.352775  0.352886  1
  Y  Y4  1  0.811087  0.810789  0.189245  1
  Y  Y5  1  0.936512  0.564186  0.565418  1
  Y  Y6  1  0.562689  0.936718  0.935944  1
  Y  Y7  1  0.564009  0.935740  0.564677  1
  Y  Y8  1  0.937943  0.562099  0.935604  1
  Y  Y9  1  0.564783  0.564112  0.935188  1
  Y  Y10  1  0.937699  0.936245  0.562522  1
  Er  Er11  1  0.811995  0.189463  0.188522  1
  Er  Er12  1  0.189433  0.811419  0.810818  1
  Er  Er13  1  0.188974  0.812579  0.188073  1
  Er  Er14  1  0.811010  0.190068  0.810260  1
  Er  Er15  1  0.188404  0.188408  0.812344  1
  Cd  Cd16  1  0.251492  0.581828  0.582973  1
  In  In17  1  0.582644  0.583352  0.584232  1
  In  In18  1  0.582032  0.583111  0.251119  1
  In  In19  1  0.581477  0.251311  0.583777  1
  Pd  Pd20  1  0.143904  0.143203  0.144769  1
  Pd  Pd21  1  0.143123  0.143264  0.568709  1
  Pd  Pd22  1  0.145819  0.567966  0.142956  1
  Pd  Pd23  1  0.567646  0.145900  0.142862  1
