# generated using pymatgen
data_Th4SiPt7Rh5
_symmetry_space_group_name_H-M   'P 1'
_cell_length_a   7.40037095
_cell_length_b   7.40008791
_cell_length_c   7.40037280
_cell_angle_alpha   109.27386262
_cell_angle_beta   109.30387180
_cell_angle_gamma   109.83810569
_symmetry_Int_Tables_number   1
_chemical_formula_structural   Th4SiPt7Rh5
_chemical_formula_sum   'Th4 Si1 Pt7 Rh5'
_cell_volume   311.96105953
_cell_formula_units_Z   1
loop_
 _symmetry_equiv_pos_site_id
 _symmetry_equiv_pos_as_xyz
  1  'x, y, z'
loop_
 _atom_site_type_symbol
 _atom_site_label
 _atom_site_symmetry_multiplicity
 _atom_site_fract_x
 _atom_site_fract_y
 _atom_site_fract_z
 _atom_site_occupancy
  Th  Th0  1  0.002927  0.002933  0.505541  1
  Th  Th1  1  0.002926  0.497394  0.000000  1
  Th  Th2  1  0.497392  0.002933  0.000007  1
  Th  Th3  1  0.497394  0.497394  0.494468  1
  Si  Si4  1  0.001181  0.001180  0.999998  1
  Pt  Pt5  1  0.750548  0.250537  0.499988  1
  Pt  Pt6  1  0.752029  0.500295  0.251745  1
  Pt  Pt7  1  0.500262  0.248490  0.748228  1
  Pt  Pt8  1  0.248550  0.500295  0.748266  1
  Pt  Pt9  1  0.250629  0.750641  0.500012  1
  Pt  Pt10  1  0.500283  0.752057  0.251775  1
  Pt  Pt11  1  0.722389  0.722407  0.000018  1
  Rh  Rh12  1  0.271948  0.999871  0.272075  1
  Rh  Rh13  1  0.999846  0.271806  0.271959  1
  Rh  Rh14  1  0.274010  0.273982  0.999972  1
  Rh  Rh15  1  0.727797  0.999871  0.727923  1
  Rh  Rh16  1  0.999886  0.727915  0.728028  1
