# generated using pymatgen
data_Tb3CoSn6
_symmetry_space_group_name_H-M   'P 1'
_cell_length_a   8.51755198
_cell_length_b   8.51755271
_cell_length_c   13.19593100
_cell_angle_alpha   90.00000000
_cell_angle_beta   90.00000000
_cell_angle_gamma   148.82644373
_symmetry_Int_Tables_number   1
_chemical_formula_structural   Tb3CoSn6
_chemical_formula_sum   'Tb6 Co2 Sn12'
_cell_volume   495.55392941
_cell_formula_units_Z   2
loop_
 _symmetry_equiv_pos_site_id
 _symmetry_equiv_pos_as_xyz
  1  'x, y, z'
loop_
 _atom_site_type_symbol
 _atom_site_label
 _atom_site_symmetry_multiplicity
 _atom_site_fract_x
 _atom_site_fract_y
 _atom_site_fract_z
 _atom_site_occupancy
  Tb  Tb0  1  0.899449  0.100551  0.093076  1
  Tb  Tb1  1  0.100551  0.899449  0.593076  1
  Tb  Tb2  1  0.900277  0.099723  0.750000  1
  Tb  Tb3  1  0.100551  0.899449  0.906924  1
  Tb  Tb4  1  0.099723  0.900277  0.250000  1
  Tb  Tb5  1  0.899449  0.100551  0.406924  1
  Co  Co6  1  0.298856  0.701144  0.250000  1
  Co  Co7  1  0.701144  0.298856  0.750000  1
  Sn  Sn8  1  0.754847  0.245153  0.571439  1
  Sn  Sn9  1  0.428088  0.571912  0.576417  1
  Sn  Sn10  1  0.571912  0.428088  0.423583  1
  Sn  Sn11  1  0.733853  0.266147  0.250000  1
  Sn  Sn12  1  0.266147  0.733853  0.750000  1
  Sn  Sn13  1  0.245153  0.754847  0.071439  1
  Sn  Sn14  1  0.245153  0.754847  0.428561  1
  Sn  Sn15  1  0.571912  0.428088  0.076417  1
  Sn  Sn16  1  0.453013  0.546987  0.250000  1
  Sn  Sn17  1  0.546987  0.453013  0.750000  1
  Sn  Sn18  1  0.754847  0.245153  0.928561  1
  Sn  Sn19  1  0.428088  0.571912  0.923583  1
