# generated using pymatgen
data_TbHoTm3Pt4
_symmetry_space_group_name_H-M   'P 1'
_cell_length_a   7.43217400
_cell_length_b   7.51901900
_cell_length_c   14.63878800
_cell_angle_alpha   90.00000000
_cell_angle_beta   90.00000000
_cell_angle_gamma   90.00000000
_symmetry_Int_Tables_number   1
_chemical_formula_structural   TbHoTm3Pt4
_chemical_formula_sum   'Tb4 Ho4 Tm12 Pt16'
_cell_volume   818.05437627
_cell_formula_units_Z   4
loop_
 _symmetry_equiv_pos_site_id
 _symmetry_equiv_pos_as_xyz
  1  'x, y, z'
loop_
 _atom_site_type_symbol
 _atom_site_label
 _atom_site_symmetry_multiplicity
 _atom_site_fract_x
 _atom_site_fract_y
 _atom_site_fract_z
 _atom_site_occupancy
  Tb  Tb0  1  0.500898  0.679338  0.592593  1
  Tb  Tb1  1  0.000898  0.820662  0.907407  1
  Tb  Tb2  1  0.499102  0.320662  0.092593  1
  Tb  Tb3  1  0.999102  0.179338  0.407407  1
  Ho  Ho4  1  0.498667  0.320241  0.407162  1
  Ho  Ho5  1  0.998667  0.179759  0.092838  1
  Ho  Ho6  1  0.501333  0.679759  0.907162  1
  Ho  Ho7  1  0.001333  0.820241  0.592838  1
  Tm  Tm8  1  0.656662  0.167788  0.622642  1
  Tm  Tm9  1  0.156662  0.332212  0.877358  1
  Tm  Tm10  1  0.343338  0.832212  0.122642  1
  Tm  Tm11  1  0.843338  0.667788  0.377358  1
  Tm  Tm12  1  0.343288  0.832323  0.377229  1
  Tm  Tm13  1  0.843288  0.667677  0.122771  1
  Tm  Tm14  1  0.656712  0.167677  0.877229  1
  Tm  Tm15  1  0.156712  0.332323  0.622771  1
  Tm  Tm16  1  0.819361  0.510726  0.750029  1
  Tm  Tm17  1  0.319361  0.989274  0.749971  1
  Tm  Tm18  1  0.180639  0.489274  0.250029  1
  Tm  Tm19  1  0.680639  0.010726  0.249971  1
  Pt  Pt20  1  0.682753  0.966450  0.458328  1
  Pt  Pt21  1  0.182753  0.533550  0.041672  1
  Pt  Pt22  1  0.317247  0.033550  0.958328  1
  Pt  Pt23  1  0.817247  0.466450  0.541672  1
  Pt  Pt24  1  0.316712  0.033679  0.541699  1
  Pt  Pt25  1  0.816712  0.466321  0.958301  1
  Pt  Pt26  1  0.683288  0.966321  0.041699  1
  Pt  Pt27  1  0.183288  0.533679  0.458301  1
  Pt  Pt28  1  0.454175  0.385788  0.750152  1
  Pt  Pt29  1  0.954175  0.114212  0.749848  1
  Pt  Pt30  1  0.545825  0.614212  0.250152  1
  Pt  Pt31  1  0.045825  0.885788  0.249848  1
  Pt  Pt32  1  0.682645  0.857068  0.750169  1
  Pt  Pt33  1  0.182645  0.642932  0.749831  1
  Pt  Pt34  1  0.317355  0.142932  0.250169  1
  Pt  Pt35  1  0.817355  0.357068  0.249831  1
