# generated using pymatgen
data_Nd4Al4IrPtRh2
_symmetry_space_group_name_H-M   'P 1'
_cell_length_a   4.35981800
_cell_length_b   7.07564445
_cell_length_c   8.06011066
_cell_angle_alpha   90.43780119
_cell_angle_beta   90.00000000
_cell_angle_gamma   90.00000000
_symmetry_Int_Tables_number   1
_chemical_formula_structural   Nd4Al4IrPtRh2
_chemical_formula_sum   'Nd4 Al4 Ir1 Pt1 Rh2'
_cell_volume   248.63524271
_cell_formula_units_Z   1
loop_
 _symmetry_equiv_pos_site_id
 _symmetry_equiv_pos_as_xyz
  1  'x, y, z'
loop_
 _atom_site_type_symbol
 _atom_site_label
 _atom_site_symmetry_multiplicity
 _atom_site_fract_x
 _atom_site_fract_y
 _atom_site_fract_z
 _atom_site_occupancy
  Nd  Nd0  1  0.250000  0.532535  0.184001  1
  Nd  Nd1  1  0.750000  0.460365  0.819220  1
  Nd  Nd2  1  0.750000  0.965953  0.677699  1
  Nd  Nd3  1  0.250000  0.037216  0.318865  1
  Al  Al4  1  0.250000  0.634218  0.561753  1
  Al  Al5  1  0.750000  0.364896  0.436943  1
  Al  Al6  1  0.750000  0.865688  0.063373  1
  Al  Al7  1  0.250000  0.138555  0.938906  1
  Ir  Ir8  1  0.750000  0.227424  0.116769  1
  Pt  Pt9  1  0.250000  0.773470  0.881777  1
  Rh  Rh10  1  0.750000  0.728781  0.384356  1
  Rh  Rh11  1  0.250000  0.270900  0.616337  1
