# generated using pymatgen
data_LiHo9Mg3Os
_symmetry_space_group_name_H-M   'P 1'
_cell_length_a   9.51956900
_cell_length_b   9.51957789
_cell_length_c   9.76301500
_cell_angle_alpha   90.00000000
_cell_angle_beta   90.00000000
_cell_angle_gamma   120.00029229
_symmetry_Int_Tables_number   1
_chemical_formula_structural   LiHo9Mg3Os
_chemical_formula_sum   'Li2 Ho18 Mg6 Os2'
_cell_volume   766.21083072
_cell_formula_units_Z   2
loop_
 _symmetry_equiv_pos_site_id
 _symmetry_equiv_pos_as_xyz
  1  'x, y, z'
loop_
 _atom_site_type_symbol
 _atom_site_label
 _atom_site_symmetry_multiplicity
 _atom_site_fract_x
 _atom_site_fract_y
 _atom_site_fract_z
 _atom_site_occupancy
  Li  Li0  1  0.999992  0.999987  0.499961  1
  Li  Li1  1  0.999993  0.999989  0.000034  1
  Ho  Ho2  1  0.210127  0.789821  0.442862  1
  Ho  Ho3  1  0.210125  0.420289  0.442866  1
  Ho  Ho4  1  0.579685  0.789837  0.442900  1
  Ho  Ho5  1  0.789858  0.210155  0.557121  1
  Ho  Ho6  1  0.789848  0.579672  0.557115  1
  Ho  Ho7  1  0.420324  0.210155  0.557093  1
  Ho  Ho8  1  0.789858  0.210153  0.942877  1
  Ho  Ho9  1  0.789850  0.579674  0.942884  1
  Ho  Ho10  1  0.420322  0.210156  0.942908  1
  Ho  Ho11  1  0.210125  0.789825  0.057142  1
  Ho  Ho12  1  0.210121  0.420284  0.057137  1
  Ho  Ho13  1  0.579691  0.789839  0.057100  1
  Ho  Ho14  1  0.541470  0.458499  0.250003  1
  Ho  Ho15  1  0.541456  0.082942  0.250002  1
  Ho  Ho16  1  0.917092  0.458545  0.250001  1
  Ho  Ho17  1  0.458517  0.541471  0.750001  1
  Ho  Ho18  1  0.458521  0.917041  0.750000  1
  Ho  Ho19  1  0.082896  0.541442  0.750001  1
  Mg  Mg20  1  0.893215  0.106855  0.250007  1
  Mg  Mg21  1  0.893232  0.786431  0.249997  1
  Mg  Mg22  1  0.213546  0.106785  0.250017  1
  Mg  Mg23  1  0.106612  0.893382  0.749988  1
  Mg  Mg24  1  0.106691  0.213361  0.749999  1
  Mg  Mg25  1  0.786790  0.893387  0.749977  1
  Os  Os26  1  0.333117  0.666605  0.250007  1
  Os  Os27  1  0.666927  0.333416  0.749998  1
