# generated using pymatgen
data_Tb3Sc7(GaSb)4
_symmetry_space_group_name_H-M   'P 1'
_cell_length_a   7.98744418
_cell_length_b   8.54395854
_cell_length_c   7.60745616
_cell_angle_alpha   90.00305784
_cell_angle_beta   89.68438499
_cell_angle_gamma   125.35780048
_symmetry_Int_Tables_number   1
_chemical_formula_structural   Tb3Sc7(GaSb)4
_chemical_formula_sum   'Tb3 Sc7 Ga4 Sb4'
_cell_volume   423.39865394
_cell_formula_units_Z   1
loop_
 _symmetry_equiv_pos_site_id
 _symmetry_equiv_pos_as_xyz
  1  'x, y, z'
loop_
 _atom_site_type_symbol
 _atom_site_label
 _atom_site_symmetry_multiplicity
 _atom_site_fract_x
 _atom_site_fract_y
 _atom_site_fract_z
 _atom_site_occupancy
  Tb  Tb0  1  0.159652  0.441744  0.820456  1
  Tb  Tb1  1  0.664607  0.946374  0.682197  1
  Tb  Tb2  1  0.342888  0.056387  0.318010  1
  Sc  Sc3  1  0.031120  0.274289  0.337644  1
  Sc  Sc4  1  0.974647  0.729017  0.659978  1
  Sc  Sc5  1  0.470802  0.225788  0.837485  1
  Sc  Sc6  1  0.822780  0.554671  0.175339  1
  Sc  Sc7  1  0.529446  0.773096  0.160880  1
  Sc  Sc8  1  0.998338  0.997623  0.002530  1
  Sc  Sc9  1  0.503377  0.501669  0.498764  1
  Ga  Ga10  1  0.377002  0.374261  0.126725  1
  Ga  Ga11  1  0.627704  0.626368  0.874081  1
  Ga  Ga12  1  0.126918  0.126160  0.625667  1
  Ga  Ga13  1  0.876017  0.869086  0.368124  1
  Sb  Sb14  1  0.760715  0.185004  0.042803  1
  Sb  Sb15  1  0.223151  0.810964  0.970759  1
  Sb  Sb16  1  0.740278  0.326046  0.532143  1
  Sb  Sb17  1  0.270559  0.681454  0.466413  1
