# generated using pymatgen
data_Y3Al8CuNi6
_symmetry_space_group_name_H-M   'P 1'
_cell_length_a   8.97825175
_cell_length_b   8.94097979
_cell_length_c   4.07427600
_cell_angle_alpha   90.00000000
_cell_angle_beta   90.00000000
_cell_angle_gamma   119.86277770
_symmetry_Int_Tables_number   1
_chemical_formula_structural   Y3Al8CuNi6
_chemical_formula_sum   'Y3 Al8 Cu1 Ni6'
_cell_volume   283.63304548
_cell_formula_units_Z   1
loop_
 _symmetry_equiv_pos_site_id
 _symmetry_equiv_pos_as_xyz
  1  'x, y, z'
loop_
 _atom_site_type_symbol
 _atom_site_label
 _atom_site_symmetry_multiplicity
 _atom_site_fract_x
 _atom_site_fract_y
 _atom_site_fract_z
 _atom_site_occupancy
  Y  Y0  1  0.330477  0.662837  0.500000  1
  Y  Y1  1  0.669523  0.332359  0.500000  1
  Y  Y2  1  0.000000  0.007070  0.000000  1
  Al  Al3  1  0.000000  0.493950  0.000000  1
  Al  Al4  1  0.502581  0.499636  0.000000  1
  Al  Al5  1  0.497419  0.997054  0.000000  1
  Al  Al6  1  0.711056  0.006162  0.500000  1
  Al  Al7  1  0.703253  0.703632  0.500000  1
  Al  Al8  1  0.296747  0.000380  0.500000  1
  Al  Al9  1  0.000000  0.702644  0.500000  1
  Al  Al10  1  0.288944  0.295106  0.500000  1
  Cu  Cu11  1  0.000000  0.296443  0.500000  1
  Ni  Ni12  1  0.810922  0.179987  0.000000  1
  Ni  Ni13  1  0.819893  0.636746  0.000000  1
  Ni  Ni14  1  0.180107  0.816852  0.000000  1
  Ni  Ni15  1  0.636537  0.818307  0.000000  1
  Ni  Ni16  1  0.363463  0.181771  0.000000  1
  Ni  Ni17  1  0.189078  0.369064  0.000000  1
