# generated using pymatgen
data_CaSiAs3(RuRh)3
_symmetry_space_group_name_H-M   'P 1'
_cell_length_a   7.17564800
_cell_length_b   7.17564810
_cell_length_c   3.81103700
_cell_angle_alpha   90.00000000
_cell_angle_beta   90.00000000
_cell_angle_gamma   120.00000874
_symmetry_Int_Tables_number   1
_chemical_formula_structural   CaSiAs3(RuRh)3
_chemical_formula_sum   'Ca1 Si1 As3 Ru3 Rh3'
_cell_volume   169.94015798
_cell_formula_units_Z   1
loop_
 _symmetry_equiv_pos_site_id
 _symmetry_equiv_pos_as_xyz
  1  'x, y, z'
loop_
 _atom_site_type_symbol
 _atom_site_label
 _atom_site_symmetry_multiplicity
 _atom_site_fract_x
 _atom_site_fract_y
 _atom_site_fract_z
 _atom_site_occupancy
  Ca  Ca0  1  0.000000  0.000000  0.000000  1
  Si  Si1  1  0.333333  0.666667  0.000000  1
  As  As2  1  0.807752  0.192248  0.500000  1
  As  As3  1  0.384497  0.192248  0.500000  1
  As  As4  1  0.807752  0.615503  0.500000  1
  Ru  Ru5  1  0.533988  0.067977  0.000000  1
  Ru  Ru6  1  0.932023  0.466012  0.000000  1
  Ru  Ru7  1  0.533988  0.466012  0.000000  1
  Rh  Rh8  1  0.202672  0.797328  0.500000  1
  Rh  Rh9  1  0.202672  0.405345  0.500000  1
  Rh  Rh10  1  0.594655  0.797328  0.500000  1
