# generated using pymatgen
data_PrCdAgHg
_symmetry_space_group_name_H-M   'P 1'
_cell_length_a   5.14212449
_cell_length_b   5.14212468
_cell_length_c   5.14212500
_cell_angle_alpha   59.99999148
_cell_angle_beta   59.99999028
_cell_angle_gamma   59.99999844
_symmetry_Int_Tables_number   1
_chemical_formula_structural   PrCdAgHg
_chemical_formula_sum   'Pr1 Cd1 Ag1 Hg1'
_cell_volume   96.14191221
_cell_formula_units_Z   1
loop_
 _symmetry_equiv_pos_site_id
 _symmetry_equiv_pos_as_xyz
  1  'x, y, z'
loop_
 _atom_site_type_symbol
 _atom_site_label
 _atom_site_symmetry_multiplicity
 _atom_site_fract_x
 _atom_site_fract_y
 _atom_site_fract_z
 _atom_site_occupancy
  Pr  Pr0  1  0.000000  0.000000  0.000000  1
  Cd  Cd1  1  0.500000  0.500000  0.500000  1
  Ag  Ag2  1  0.250000  0.250000  0.250000  1
  Hg  Hg3  1  0.750000  0.750000  0.750000  1
