# generated using pymatgen
data_Dy3LuCS3
_symmetry_space_group_name_H-M   'P 1'
_cell_length_a   6.71319247
_cell_length_b   6.71319320
_cell_length_c   6.71664800
_cell_angle_alpha   79.89079075
_cell_angle_beta   79.89078963
_cell_angle_gamma   32.72722890
_symmetry_Int_Tables_number   1
_chemical_formula_structural   Dy3LuCS3
_chemical_formula_sum   'Dy3 Lu1 C1 S3'
_cell_volume   160.88956709
_cell_formula_units_Z   1
loop_
 _symmetry_equiv_pos_site_id
 _symmetry_equiv_pos_as_xyz
  1  'x, y, z'
loop_
 _atom_site_type_symbol
 _atom_site_label
 _atom_site_symmetry_multiplicity
 _atom_site_fract_x
 _atom_site_fract_y
 _atom_site_fract_z
 _atom_site_occupancy
  Dy  Dy0  1  0.232951  0.232951  0.231029  1
  Dy  Dy1  1  0.509150  0.509150  0.466657  1
  Dy  Dy2  1  0.741067  0.741067  0.782639  1
  Lu  Lu3  1  0.017689  0.017689  0.020432  1
  C  C4  1  0.622338  0.622338  0.121880  1
  S  S5  1  0.869823  0.869823  0.373208  1
  S  S6  1  0.123688  0.123688  0.628940  1
  S  S7  1  0.383294  0.383294  0.875213  1
