# generated using pymatgen
data_LiHo6Lu(Co4P3)4
_symmetry_space_group_name_H-M   'P 1'
_cell_length_a   3.72417300
_cell_length_b   10.62672100
_cell_length_c   12.31629500
_cell_angle_alpha   90.00000000
_cell_angle_beta   90.00000000
_cell_angle_gamma   90.00000000
_symmetry_Int_Tables_number   1
_chemical_formula_structural   LiHo6Lu(Co4P3)4
_chemical_formula_sum   'Li1 Ho6 Lu1 Co16 P12'
_cell_volume   487.42658015
_cell_formula_units_Z   1
loop_
 _symmetry_equiv_pos_site_id
 _symmetry_equiv_pos_as_xyz
  1  'x, y, z'
loop_
 _atom_site_type_symbol
 _atom_site_label
 _atom_site_symmetry_multiplicity
 _atom_site_fract_x
 _atom_site_fract_y
 _atom_site_fract_z
 _atom_site_occupancy
  Li  Li0  1  0.000000  0.000000  0.841115  1
  Ho  Ho1  1  0.000000  0.500000  0.530518  1
  Ho  Ho2  1  0.500000  0.000000  0.476935  1
  Ho  Ho3  1  0.500000  0.823106  0.207604  1
  Ho  Ho4  1  0.500000  0.176894  0.207604  1
  Ho  Ho5  1  0.000000  0.680963  0.794950  1
  Ho  Ho6  1  0.000000  0.319037  0.794950  1
  Lu  Lu7  1  0.500000  0.500000  0.155602  1
  Co  Co8  1  0.000000  0.500000  0.983155  1
  Co  Co9  1  0.500000  0.000000  0.011994  1
  Co  Co10  1  0.500000  0.293887  0.435402  1
  Co  Co11  1  0.500000  0.706113  0.435402  1
  Co  Co12  1  0.000000  0.201776  0.569941  1
  Co  Co13  1  0.000000  0.798224  0.569941  1
  Co  Co14  1  0.500000  0.879482  0.705689  1
  Co  Co15  1  0.500000  0.120518  0.705689  1
  Co  Co16  1  0.000000  0.622943  0.301709  1
  Co  Co17  1  0.000000  0.377057  0.301709  1
  Co  Co18  1  0.500000  0.326589  0.988957  1
  Co  Co19  1  0.500000  0.673411  0.988957  1
  Co  Co20  1  0.000000  0.162148  0.998610  1
  Co  Co21  1  0.000000  0.837852  0.998610  1
  Co  Co22  1  0.500000  0.500000  0.703363  1
  Co  Co23  1  0.000000  0.000000  0.294904  1
  P  P24  1  0.500000  0.308138  0.617819  1
  P  P25  1  0.500000  0.691862  0.617819  1
  P  P26  1  0.000000  0.188447  0.386765  1
  P  P27  1  0.000000  0.811553  0.386765  1
  P  P28  1  0.500000  0.500000  0.882333  1
  P  P29  1  0.000000  0.000000  0.114286  1
  P  P30  1  0.500000  0.847853  0.888333  1
  P  P31  1  0.500000  0.152147  0.888333  1
  P  P32  1  0.000000  0.667309  0.099179  1
  P  P33  1  0.000000  0.332691  0.099179  1
  P  P34  1  0.500000  0.500000  0.364383  1
  P  P35  1  0.000000  0.000000  0.651498  1
