# generated using pymatgen
data_Pr2NdIn3IrPd2
_symmetry_space_group_name_H-M   'P 1'
_cell_length_a   7.84456239
_cell_length_b   7.84966619
_cell_length_c   4.00741900
_cell_angle_alpha   90.00000000
_cell_angle_beta   90.00000000
_cell_angle_gamma   119.94243768
_symmetry_Int_Tables_number   1
_chemical_formula_structural   Pr2NdIn3IrPd2
_chemical_formula_sum   'Pr2 Nd1 In3 Ir1 Pd2'
_cell_volume   213.82914962
_cell_formula_units_Z   1
loop_
 _symmetry_equiv_pos_site_id
 _symmetry_equiv_pos_as_xyz
  1  'x, y, z'
loop_
 _atom_site_type_symbol
 _atom_site_label
 _atom_site_symmetry_multiplicity
 _atom_site_fract_x
 _atom_site_fract_y
 _atom_site_fract_z
 _atom_site_occupancy
  Pr  Pr0  1  0.012291  0.593846  0.000000  1
  Pr  Pr1  1  0.406265  0.418812  0.000000  1
  Nd  Nd2  1  0.581370  0.986970  0.000000  1
  In  In3  1  0.745551  0.745624  0.500000  1
  In  In4  1  0.999015  0.253917  0.500000  1
  In  In5  1  0.255447  0.000600  0.500000  1
  Ir  Ir6  1  0.333987  0.667406  0.500000  1
  Pd  Pd7  1  0.999645  0.000201  0.000000  1
  Pd  Pd8  1  0.666429  0.332624  0.500000  1
