# generated using pymatgen
data_ReTc2Cl9
_symmetry_space_group_name_H-M   'P 1'
_cell_length_a   9.64922959
_cell_length_b   9.64923009
_cell_length_c   9.64980863
_cell_angle_alpha   64.65852571
_cell_angle_beta   64.65852644
_cell_angle_gamma   64.60479999
_symmetry_Int_Tables_number   1
_chemical_formula_structural   ReTc2Cl9
_chemical_formula_sum   'Re2 Tc4 Cl18'
_cell_volume   699.89672465
_cell_formula_units_Z   2
loop_
 _symmetry_equiv_pos_site_id
 _symmetry_equiv_pos_as_xyz
  1  'x, y, z'
loop_
 _atom_site_type_symbol
 _atom_site_label
 _atom_site_symmetry_multiplicity
 _atom_site_fract_x
 _atom_site_fract_y
 _atom_site_fract_z
 _atom_site_occupancy
  Re  Re0  1  0.378316  0.141283  0.142118  1
  Re  Re1  1  0.141283  0.378316  0.142118  1
  Tc  Tc2  1  0.141154  0.141154  0.380401  1
  Tc  Tc3  1  0.621946  0.857798  0.857749  1
  Tc  Tc4  1  0.857798  0.621946  0.857749  1
  Tc  Tc5  1  0.858304  0.858304  0.621214  1
  Cl  Cl6  1  0.378052  0.907782  0.373723  1
  Cl  Cl7  1  0.375456  0.375456  0.906760  1
  Cl  Cl8  1  0.907782  0.378052  0.373723  1
  Cl  Cl9  1  0.624668  0.091111  0.624913  1
  Cl  Cl10  1  0.624925  0.624925  0.091667  1
  Cl  Cl11  1  0.091111  0.624668  0.624913  1
  Cl  Cl12  1  0.329118  0.013146  0.011719  1
  Cl  Cl13  1  0.013146  0.329118  0.011719  1
  Cl  Cl14  1  0.009978  0.009978  0.332020  1
  Cl  Cl15  1  0.669530  0.989133  0.988127  1
  Cl  Cl16  1  0.989133  0.669530  0.988127  1
  Cl  Cl17  1  0.987134  0.987134  0.671854  1
  Cl  Cl18  1  0.527315  0.214049  0.211915  1
  Cl  Cl19  1  0.214049  0.527315  0.211915  1
  Cl  Cl20  1  0.213247  0.213247  0.529042  1
  Cl  Cl21  1  0.475805  0.785508  0.785362  1
  Cl  Cl22  1  0.785508  0.475805  0.785362  1
  Cl  Cl23  1  0.785243  0.785243  0.475788  1
