# generated using pymatgen
data_Hf18BeCu(Re3Mo)2
_symmetry_space_group_name_H-M   'P 1'
_cell_length_a   8.50984000
_cell_length_b   8.61126937
_cell_length_c   8.61126960
_cell_angle_alpha   119.95700456
_cell_angle_beta   90.00000000
_cell_angle_gamma   90.00000000
_symmetry_Int_Tables_number   1
_chemical_formula_structural   Hf18BeCu(Re3Mo)2
_chemical_formula_sum   'Hf18 Be1 Cu1 Re6 Mo2'
_cell_volume   546.73185992
_cell_formula_units_Z   1
loop_
 _symmetry_equiv_pos_site_id
 _symmetry_equiv_pos_as_xyz
  1  'x, y, z'
loop_
 _atom_site_type_symbol
 _atom_site_label
 _atom_site_symmetry_multiplicity
 _atom_site_fract_x
 _atom_site_fract_y
 _atom_site_fract_z
 _atom_site_occupancy
  Hf  Hf0  1  0.552956  0.803195  0.606481  1
  Hf  Hf1  1  0.552617  0.803387  0.196613  1
  Hf  Hf2  1  0.552956  0.393519  0.196805  1
  Hf  Hf3  1  0.447744  0.198719  0.397364  1
  Hf  Hf4  1  0.447814  0.198546  0.801454  1
  Hf  Hf5  1  0.447744  0.602636  0.801281  1
  Hf  Hf6  1  0.052256  0.198719  0.397364  1
  Hf  Hf7  1  0.052186  0.198546  0.801454  1
  Hf  Hf8  1  0.052256  0.602636  0.801281  1
  Hf  Hf9  1  0.947044  0.803195  0.606481  1
  Hf  Hf10  1  0.947383  0.803387  0.196613  1
  Hf  Hf11  1  0.947044  0.393519  0.196805  1
  Hf  Hf12  1  0.750000  0.459299  0.918658  1
  Hf  Hf13  1  0.750000  0.459330  0.540670  1
  Hf  Hf14  1  0.750000  0.081342  0.540700  1
  Hf  Hf15  1  0.250000  0.539103  0.078149  1
  Hf  Hf16  1  0.250000  0.539078  0.460922  1
  Hf  Hf17  1  0.250000  0.921851  0.460896  1
  Be  Be18  1  0.250000  0.333220  0.666780  1
  Cu  Cu19  1  0.750000  0.666876  0.333124  1
  Re  Re20  1  0.750000  0.111997  0.223815  1
  Re  Re21  1  0.750000  0.112030  0.887970  1
  Re  Re22  1  0.750000  0.776185  0.888003  1
  Re  Re23  1  0.250000  0.888556  0.777222  1
  Re  Re24  1  0.250000  0.888334  0.111666  1
  Re  Re25  1  0.250000  0.222778  0.111444  1
  Mo  Mo26  1  0.499218  0.000008  0.999992  1
  Mo  Mo27  1  0.000782  0.000008  0.999992  1
