# generated using pymatgen
data_Lu5Ga7Ni12
_symmetry_space_group_name_H-M   'P 1'
_cell_length_a   5.15984701
_cell_length_b   5.15984642
_cell_length_c   15.91278600
_cell_angle_alpha   80.66950443
_cell_angle_beta   80.66950551
_cell_angle_gamma   59.99998774
_symmetry_Int_Tables_number   1
_chemical_formula_structural   Lu5Ga7Ni12
_chemical_formula_sum   'Lu5 Ga7 Ni12'
_cell_volume   360.41537528
_cell_formula_units_Z   1
loop_
 _symmetry_equiv_pos_site_id
 _symmetry_equiv_pos_as_xyz
  1  'x, y, z'
loop_
 _atom_site_type_symbol
 _atom_site_label
 _atom_site_symmetry_multiplicity
 _atom_site_fract_x
 _atom_site_fract_y
 _atom_site_fract_z
 _atom_site_occupancy
  Lu  Lu0  1  0.000000  0.000000  0.000000  1
  Lu  Lu1  1  0.925905  0.925905  0.222289  1
  Lu  Lu2  1  0.074095  0.074095  0.777711  1
  Lu  Lu3  1  0.849960  0.849960  0.450121  1
  Lu  Lu4  1  0.150040  0.150040  0.549879  1
  Ga  Ga5  1  0.500000  0.500000  0.500000  1
  Ga  Ga6  1  0.750404  0.750405  0.748788  1
  Ga  Ga7  1  0.249595  0.249595  0.251213  1
  Ga  Ga8  1  0.666566  0.666566  0.000304  1
  Ga  Ga9  1  0.333434  0.333434  0.999696  1
  Ga  Ga10  1  0.582705  0.582705  0.251886  1
  Ga  Ga11  1  0.417295  0.417295  0.748114  1
  Ni  Ni12  1  0.372028  0.372028  0.375339  1
  Ni  Ni13  1  0.880605  0.372028  0.375339  1
  Ni  Ni14  1  0.372028  0.880605  0.375339  1
  Ni  Ni15  1  0.627972  0.627972  0.624661  1
  Ni  Ni16  1  0.119395  0.627972  0.624661  1
  Ni  Ni17  1  0.627972  0.119395  0.624661  1
  Ni  Ni18  1  0.458427  0.458427  0.124500  1
  Ni  Ni19  1  0.958647  0.458427  0.124500  1
  Ni  Ni20  1  0.458427  0.958647  0.124500  1
  Ni  Ni21  1  0.541573  0.541573  0.875500  1
  Ni  Ni22  1  0.041353  0.541573  0.875500  1
  Ni  Ni23  1  0.541573  0.041353  0.875500  1
