# generated using pymatgen
data_Tb8Sc12GaSi14P
_symmetry_space_group_name_H-M   'P 1'
_cell_length_a   7.10269823
_cell_length_b   7.39184522
_cell_length_c   14.01999023
_cell_angle_alpha   89.94759786
_cell_angle_beta   89.94145452
_cell_angle_gamma   90.07066057
_symmetry_Int_Tables_number   1
_chemical_formula_structural   Tb8Sc12GaSi14P
_chemical_formula_sum   'Tb8 Sc12 Ga1 Si14 P1'
_cell_volume   736.07691921
_cell_formula_units_Z   1
loop_
 _symmetry_equiv_pos_site_id
 _symmetry_equiv_pos_as_xyz
  1  'x, y, z'
loop_
 _atom_site_type_symbol
 _atom_site_label
 _atom_site_symmetry_multiplicity
 _atom_site_fract_x
 _atom_site_fract_y
 _atom_site_fract_z
 _atom_site_occupancy
  Tb  Tb0  1  0.010212  0.174333  0.096954  1
  Tb  Tb1  1  0.990725  0.827937  0.901010  1
  Tb  Tb2  1  0.489327  0.675240  0.904090  1
  Tb  Tb3  1  0.989988  0.829425  0.600450  1
  Tb  Tb4  1  0.511703  0.324444  0.096390  1
  Tb  Tb5  1  0.009386  0.173134  0.401456  1
  Tb  Tb6  1  0.512821  0.323895  0.401623  1
  Tb  Tb7  1  0.491585  0.677542  0.597286  1
  Sc  Sc8  1  0.160053  0.501940  0.752081  1
  Sc  Sc9  1  0.838983  0.498181  0.249668  1
  Sc  Sc10  1  0.339157  0.001775  0.249446  1
  Sc  Sc11  1  0.662539  0.998963  0.750225  1
  Sc  Sc12  1  0.329141  0.169883  0.628574  1
  Sc  Sc13  1  0.667589  0.824477  0.374667  1
  Sc  Sc14  1  0.169289  0.677250  0.373553  1
  Sc  Sc15  1  0.669370  0.823994  0.124585  1
  Sc  Sc16  1  0.830013  0.323738  0.626891  1
  Sc  Sc17  1  0.326373  0.171746  0.873061  1
  Sc  Sc18  1  0.831808  0.322827  0.873850  1
  Sc  Sc19  1  0.168446  0.676963  0.124969  1
  Ga  Ga20  1  0.159591  0.460865  0.539576  1
  Si  Si21  1  0.964598  0.881373  0.249298  1
  Si  Si22  1  0.466689  0.616512  0.249487  1
  Si  Si23  1  0.530617  0.382278  0.750204  1
  Si  Si24  1  0.296126  0.864013  0.750919  1
  Si  Si25  1  0.713154  0.125311  0.249119  1
  Si  Si26  1  0.214030  0.373793  0.249172  1
  Si  Si27  1  0.787548  0.627861  0.751115  1
  Si  Si28  1  0.842547  0.537291  0.461231  1
  Si  Si29  1  0.340959  0.964712  0.460367  1
  Si  Si30  1  0.843433  0.536037  0.037814  1
  Si  Si31  1  0.657578  0.037677  0.539904  1
  Si  Si32  1  0.155955  0.463182  0.961114  1
  Si  Si33  1  0.657428  0.036937  0.959793  1
  Si  Si34  1  0.341695  0.965027  0.039321  1
  P  P35  1  0.029545  0.129447  0.750735  1
