# generated using pymatgen
data_DyLuZr2(NiAs)4
_symmetry_space_group_name_H-M   'P 1'
_cell_length_a   3.98902600
_cell_length_b   3.98902749
_cell_length_c   14.70778100
_cell_angle_alpha   90.00000000
_cell_angle_beta   90.00000000
_cell_angle_gamma   120.00000420
_symmetry_Int_Tables_number   1
_chemical_formula_structural   DyLuZr2(NiAs)4
_chemical_formula_sum   'Dy1 Lu1 Zr2 Ni4 As4'
_cell_volume   202.68035885
_cell_formula_units_Z   1
loop_
 _symmetry_equiv_pos_site_id
 _symmetry_equiv_pos_as_xyz
  1  'x, y, z'
loop_
 _atom_site_type_symbol
 _atom_site_label
 _atom_site_symmetry_multiplicity
 _atom_site_fract_x
 _atom_site_fract_y
 _atom_site_fract_z
 _atom_site_occupancy
  Dy  Dy0  1  0.000000  0.000000  0.500000  1
  Lu  Lu1  1  0.000000  0.000000  0.000000  1
  Zr  Zr2  1  0.000000  0.000000  0.249208  1
  Zr  Zr3  1  0.000000  0.000000  0.750792  1
  Ni  Ni4  1  0.333333  0.666667  0.153192  1
  Ni  Ni5  1  0.666667  0.333333  0.846808  1
  Ni  Ni6  1  0.666667  0.333333  0.655096  1
  Ni  Ni7  1  0.333333  0.666667  0.344904  1
  As  As8  1  0.333333  0.666667  0.621830  1
  As  As9  1  0.666667  0.333333  0.378170  1
  As  As10  1  0.666667  0.333333  0.119194  1
  As  As11  1  0.333333  0.666667  0.880806  1
