# generated using pymatgen
data_CrBi3F20
_symmetry_space_group_name_H-M   'P 1'
_cell_length_a   5.96840700
_cell_length_b   8.37894823
_cell_length_c   8.87054496
_cell_angle_alpha   88.85925532
_cell_angle_beta   90.00000000
_cell_angle_gamma   90.00000000
_symmetry_Int_Tables_number   1
_chemical_formula_structural   CrBi3F20
_chemical_formula_sum   'Cr1 Bi3 F20'
_cell_volume   443.51892644
_cell_formula_units_Z   1
loop_
 _symmetry_equiv_pos_site_id
 _symmetry_equiv_pos_as_xyz
  1  'x, y, z'
loop_
 _atom_site_type_symbol
 _atom_site_label
 _atom_site_symmetry_multiplicity
 _atom_site_fract_x
 _atom_site_fract_y
 _atom_site_fract_z
 _atom_site_occupancy
  Cr  Cr0  1  0.750000  0.410916  0.257407  1
  Bi  Bi1  1  0.250000  0.578897  0.744852  1
  Bi  Bi2  1  0.250000  0.094332  0.256673  1
  Bi  Bi3  1  0.750000  0.921502  0.743607  1
  F  F4  1  0.750000  0.461213  0.445575  1
  F  F5  1  0.250000  0.230656  0.066810  1
  F  F6  1  0.250000  0.716772  0.927759  1
  F  F7  1  0.250000  0.022870  0.475064  1
  F  F8  1  0.995444  0.260037  0.333333  1
  F  F9  1  0.250000  0.514857  0.527303  1
  F  F10  1  0.750000  0.989292  0.525066  1
  F  F11  1  0.994937  0.436657  0.808628  1
  F  F12  1  0.539661  0.540476  0.198279  1
  F  F13  1  0.960339  0.540476  0.198279  1
  F  F14  1  0.505063  0.436657  0.808628  1
  F  F15  1  0.750000  0.289460  0.102655  1
  F  F16  1  0.504556  0.260037  0.333333  1
  F  F17  1  0.499195  0.947829  0.194179  1
  F  F18  1  0.750000  0.774434  0.925304  1
  F  F19  1  0.496728  0.062114  0.807857  1
  F  F20  1  0.003272  0.062114  0.807857  1
  F  F21  1  0.999737  0.750287  0.658684  1
  F  F22  1  0.500263  0.750287  0.658684  1
  F  F23  1  0.000805  0.947829  0.194179  1
