# generated using pymatgen
data_Dy3Ho4TmPt4
_symmetry_space_group_name_H-M   'P 1'
_cell_length_a   4.76219400
_cell_length_b   7.13071039
_cell_length_c   8.76575715
_cell_angle_alpha   89.99170396
_cell_angle_beta   90.00000000
_cell_angle_gamma   90.00000000
_symmetry_Int_Tables_number   1
_chemical_formula_structural   Dy3Ho4TmPt4
_chemical_formula_sum   'Dy3 Ho4 Tm1 Pt4'
_cell_volume   297.66605500
_cell_formula_units_Z   1
loop_
 _symmetry_equiv_pos_site_id
 _symmetry_equiv_pos_as_xyz
  1  'x, y, z'
loop_
 _atom_site_type_symbol
 _atom_site_label
 _atom_site_symmetry_multiplicity
 _atom_site_fract_x
 _atom_site_fract_y
 _atom_site_fract_z
 _atom_site_occupancy
  Dy  Dy0  1  0.250000  0.510159  0.170314  1
  Dy  Dy1  1  0.750000  0.989757  0.669308  1
  Dy  Dy2  1  0.750000  0.489433  0.830132  1
  Ho  Ho3  1  0.250000  0.144552  0.920910  1
  Ho  Ho4  1  0.250000  0.644534  0.578815  1
  Ho  Ho5  1  0.750000  0.855492  0.080126  1
  Ho  Ho6  1  0.250000  0.010882  0.331194  1
  Tm  Tm7  1  0.750000  0.355093  0.420728  1
  Pt  Pt8  1  0.250000  0.242552  0.591680  1
  Pt  Pt9  1  0.250000  0.742339  0.906734  1
  Pt  Pt10  1  0.750000  0.757781  0.406228  1
  Pt  Pt11  1  0.750000  0.257426  0.093831  1
