# generated using pymatgen
data_CaPrB4RuRh3
_symmetry_space_group_name_H-M   'P 1'
_cell_length_a   6.99892624
_cell_length_b   6.06782320
_cell_length_c   5.57861829
_cell_angle_alpha   73.74115568
_cell_angle_beta   56.33493408
_cell_angle_gamma   49.96410254
_symmetry_Int_Tables_number   1
_chemical_formula_structural   CaPrB4RuRh3
_chemical_formula_sum   'Ca1 Pr1 B4 Ru1 Rh3'
_cell_volume   149.87560747
_cell_formula_units_Z   1
loop_
 _symmetry_equiv_pos_site_id
 _symmetry_equiv_pos_as_xyz
  1  'x, y, z'
loop_
 _atom_site_type_symbol
 _atom_site_label
 _atom_site_symmetry_multiplicity
 _atom_site_fract_x
 _atom_site_fract_y
 _atom_site_fract_z
 _atom_site_occupancy
  Ca  Ca0  1  0.751544  0.751544  0.748456  1
  Pr  Pr1  1  0.499473  0.499473  0.500527  1
  B  B2  1  0.822886  0.186063  0.832982  1
  B  B3  1  0.062426  0.431550  0.072011  1
  B  B4  1  0.186063  0.822886  0.158069  1
  B  B5  1  0.431550  0.062426  0.434013  1
  Ru  Ru6  1  0.134168  0.134168  0.865832  1
  Rh  Rh7  1  0.379022  0.379022  0.120978  1
  Rh  Rh8  1  0.117022  0.117022  0.382978  1
  Rh  Rh9  1  0.865845  0.865845  0.134155  1
