# generated using pymatgen
data_Ta6Co6As
_symmetry_space_group_name_H-M   'P 1'
_cell_length_a   4.91288567
_cell_length_b   4.91288487
_cell_length_c   9.13029775
_cell_angle_alpha   74.39266604
_cell_angle_beta   74.39266956
_cell_angle_gamma   59.99999518
_symmetry_Int_Tables_number   1
_chemical_formula_structural   Ta6Co6As
_chemical_formula_sum   'Ta6 Co6 As1'
_cell_volume   181.40528426
_cell_formula_units_Z   1
loop_
 _symmetry_equiv_pos_site_id
 _symmetry_equiv_pos_as_xyz
  1  'x, y, z'
loop_
 _atom_site_type_symbol
 _atom_site_label
 _atom_site_symmetry_multiplicity
 _atom_site_fract_x
 _atom_site_fract_y
 _atom_site_fract_z
 _atom_site_occupancy
  Ta  Ta0  1  0.169316  0.169316  0.492053  1
  Ta  Ta1  1  0.830684  0.830684  0.507947  1
  Ta  Ta2  1  0.347601  0.347601  0.957196  1
  Ta  Ta3  1  0.652399  0.652399  0.042804  1
  Ta  Ta4  1  0.450486  0.450486  0.648542  1
  Ta  Ta5  1  0.549514  0.549514  0.351458  1
  Co  Co6  1  0.587565  0.091048  0.230338  1
  Co  Co7  1  0.091048  0.091048  0.230338  1
  Co  Co8  1  0.091048  0.587565  0.230338  1
  Co  Co9  1  0.412435  0.908952  0.769662  1
  Co  Co10  1  0.908952  0.908952  0.769662  1
  Co  Co11  1  0.908952  0.412435  0.769662  1
  As  As12  1  0.000000  0.000000  0.000000  1
