# generated using pymatgen
data_Ho8Zn2CoSi12Rh
_symmetry_space_group_name_H-M   'P 1'
_cell_length_a   8.05846600
_cell_length_b   8.05846576
_cell_length_c   8.03867700
_cell_angle_alpha   90.00000000
_cell_angle_beta   90.00000000
_cell_angle_gamma   120.00000097
_symmetry_Int_Tables_number   1
_chemical_formula_structural   Ho8Zn2CoSi12Rh
_chemical_formula_sum   'Ho8 Zn2 Co1 Si12 Rh1'
_cell_volume   452.08484569
_cell_formula_units_Z   1
loop_
 _symmetry_equiv_pos_site_id
 _symmetry_equiv_pos_as_xyz
  1  'x, y, z'
loop_
 _atom_site_type_symbol
 _atom_site_label
 _atom_site_symmetry_multiplicity
 _atom_site_fract_x
 _atom_site_fract_y
 _atom_site_fract_z
 _atom_site_occupancy
  Ho  Ho0  1  0.000000  0.000000  0.248229  1
  Ho  Ho1  1  0.000000  0.000000  0.753154  1
  Ho  Ho2  1  0.506253  0.493747  0.241468  1
  Ho  Ho3  1  0.506253  0.012505  0.241468  1
  Ho  Ho4  1  0.987495  0.493747  0.241468  1
  Ho  Ho5  1  0.497599  0.502401  0.758755  1
  Ho  Ho6  1  0.497599  0.995199  0.758755  1
  Ho  Ho7  1  0.004801  0.502401  0.758755  1
  Zn  Zn8  1  0.333333  0.666667  0.469398  1
  Zn  Zn9  1  0.666667  0.333333  0.525020  1
  Co  Co10  1  0.666667  0.333333  0.993212  1
  Si  Si11  1  0.166750  0.833250  0.509066  1
  Si  Si12  1  0.166750  0.333498  0.509066  1
  Si  Si13  1  0.666502  0.833250  0.509066  1
  Si  Si14  1  0.833692  0.166308  0.492056  1
  Si  Si15  1  0.833692  0.667385  0.492056  1
  Si  Si16  1  0.332615  0.166308  0.492056  1
  Si  Si17  1  0.827779  0.172221  0.994421  1
  Si  Si18  1  0.827779  0.655558  0.994421  1
  Si  Si19  1  0.344442  0.172221  0.994421  1
  Si  Si20  1  0.166311  0.833689  0.005070  1
  Si  Si21  1  0.166311  0.332619  0.005070  1
  Si  Si22  1  0.667381  0.833689  0.005070  1
  Rh  Rh23  1  0.333333  0.666667  0.008479  1
