# generated using pymatgen
data_Tb2Ce5Nd(AlRu)8
_symmetry_space_group_name_H-M   'P 1'
_cell_length_a   4.05894200
_cell_length_b   7.20583852
_cell_length_c   16.03625907
_cell_angle_alpha   89.77098405
_cell_angle_beta   90.00000000
_cell_angle_gamma   90.00000000
_symmetry_Int_Tables_number   1
_chemical_formula_structural   Tb2Ce5Nd(AlRu)8
_chemical_formula_sum   'Tb2 Ce5 Nd1 Al8 Ru8'
_cell_volume   469.02605139
_cell_formula_units_Z   1
loop_
 _symmetry_equiv_pos_site_id
 _symmetry_equiv_pos_as_xyz
  1  'x, y, z'
loop_
 _atom_site_type_symbol
 _atom_site_label
 _atom_site_symmetry_multiplicity
 _atom_site_fract_x
 _atom_site_fract_y
 _atom_site_fract_z
 _atom_site_occupancy
  Tb  Tb0  1  0.750000  0.961495  0.216017  1
  Tb  Tb1  1  0.250000  0.151016  0.560120  1
  Ce  Ce2  1  0.750000  0.465024  0.280513  1
  Ce  Ce3  1  0.750000  0.340858  0.061611  1
  Ce  Ce4  1  0.250000  0.683486  0.936546  1
  Ce  Ce5  1  0.250000  0.049224  0.779639  1
  Ce  Ce6  1  0.250000  0.536045  0.718355  1
  Nd  Nd7  1  0.750000  0.825823  0.439116  1
  Al  Al8  1  0.750000  0.474546  0.564064  1
  Al  Al9  1  0.750000  0.378283  0.850648  1
  Al  Al10  1  0.750000  0.020975  0.936222  1
  Al  Al11  1  0.750000  0.861251  0.652052  1
  Al  Al12  1  0.250000  0.485747  0.438065  1
  Al  Al13  1  0.250000  0.009729  0.064210  1
  Al  Al14  1  0.250000  0.646641  0.146772  1
  Al  Al15  1  0.250000  0.126020  0.344270  1
  Ru  Ru16  1  0.750000  0.764873  0.819368  1
  Ru  Ru17  1  0.250000  0.253529  0.937697  1
  Ru  Ru18  1  0.750000  0.254506  0.429539  1
  Ru  Ru19  1  0.250000  0.727490  0.310775  1
  Ru  Ru20  1  0.750000  0.773290  0.058516  1
  Ru  Ru21  1  0.750000  0.228330  0.693756  1
  Ru  Ru22  1  0.250000  0.279314  0.181942  1
  Ru  Ru23  1  0.250000  0.702503  0.580186  1
