# generated using pymatgen
data_Dy16MgNi4Ag2Hg
_symmetry_space_group_name_H-M   'P 1'
_cell_length_a   9.45702464
_cell_length_b   9.47683729
_cell_length_c   9.45758531
_cell_angle_alpha   60.10321216
_cell_angle_beta   60.21391337
_cell_angle_gamma   60.12050454
_symmetry_Int_Tables_number   1
_chemical_formula_structural   Dy16MgNi4Ag2Hg
_chemical_formula_sum   'Dy16 Mg1 Ni4 Ag2 Hg1'
_cell_volume   601.33290364
_cell_formula_units_Z   1
loop_
 _symmetry_equiv_pos_site_id
 _symmetry_equiv_pos_as_xyz
  1  'x, y, z'
loop_
 _atom_site_type_symbol
 _atom_site_label
 _atom_site_symmetry_multiplicity
 _atom_site_fract_x
 _atom_site_fract_y
 _atom_site_fract_z
 _atom_site_occupancy
  Dy  Dy0  1  0.345866  0.346168  0.347496  1
  Dy  Dy1  1  0.350659  0.348832  0.953240  1
  Dy  Dy2  1  0.350791  0.953017  0.348656  1
  Dy  Dy3  1  0.943842  0.352854  0.353029  1
  Dy  Dy4  1  0.809327  0.191476  0.191397  1
  Dy  Dy5  1  0.186465  0.812899  0.812868  1
  Dy  Dy6  1  0.187542  0.813703  0.188550  1
  Dy  Dy7  1  0.809505  0.189095  0.810222  1
  Dy  Dy8  1  0.188160  0.189674  0.811731  1
  Dy  Dy9  1  0.810369  0.811367  0.188042  1
  Dy  Dy10  1  0.932936  0.565157  0.565394  1
  Dy  Dy11  1  0.561389  0.934132  0.938658  1
  Dy  Dy12  1  0.562829  0.934104  0.564982  1
  Dy  Dy13  1  0.933668  0.564066  0.937462  1
  Dy  Dy14  1  0.562057  0.563804  0.937854  1
  Dy  Dy15  1  0.935885  0.935535  0.564033  1
  Mg  Mg16  1  0.283642  0.572756  0.570305  1
  Ni  Ni17  1  0.142690  0.144368  0.144740  1
  Ni  Ni18  1  0.140674  0.142610  0.572583  1
  Ni  Ni19  1  0.139769  0.572217  0.142886  1
  Ni  Ni20  1  0.572448  0.142471  0.142435  1
  Ag  Ag21  1  0.581868  0.585756  0.582413  1
  Ag  Ag22  1  0.583350  0.586626  0.247164  1
  Hg  Hg23  1  0.584266  0.247311  0.583861  1
