# generated using pymatgen
data_Nd2Al16Pt8Rh
_symmetry_space_group_name_H-M   'P 1'
_cell_length_a   11.11842467
_cell_length_b   11.11842458
_cell_length_c   11.11842400
_cell_angle_alpha   158.56985493
_cell_angle_beta   115.76242251
_cell_angle_gamma   68.56137932
_symmetry_Int_Tables_number   1
_chemical_formula_structural   Nd2Al16Pt8Rh
_chemical_formula_sum   'Nd2 Al16 Pt8 Rh1'
_cell_volume   449.06233827
_cell_formula_units_Z   1
loop_
 _symmetry_equiv_pos_site_id
 _symmetry_equiv_pos_as_xyz
  1  'x, y, z'
loop_
 _atom_site_type_symbol
 _atom_site_label
 _atom_site_symmetry_multiplicity
 _atom_site_fract_x
 _atom_site_fract_y
 _atom_site_fract_z
 _atom_site_occupancy
  Nd  Nd0  1  0.231005  0.230270  0.000735  1
  Nd  Nd1  1  0.770465  0.769730  0.000735  1
  Al  Al2  1  0.275506  0.392484  0.883022  1
  Al  Al3  1  0.091417  0.923291  0.168127  1
  Al  Al4  1  0.507955  0.202142  0.305815  1
  Al  Al5  1  0.244835  0.076709  0.168127  1
  Al  Al6  1  0.910539  0.414537  0.496001  1
  Al  Al7  1  0.725484  0.602865  0.122619  1
  Al  Al8  1  0.898473  0.206360  0.692113  1
  Al  Al9  1  0.485755  0.793640  0.692113  1
  Al  Al10  1  0.388563  0.000000  0.388563  1
  Al  Al11  1  0.622277  0.000000  0.622277  1
  Al  Al12  1  0.490539  0.607516  0.883022  1
  Al  Al13  1  0.103671  0.797858  0.305815  1
  Al  Al14  1  0.904546  0.082429  0.822117  1
  Al  Al15  1  0.739689  0.917571  0.822117  1
  Al  Al16  1  0.519754  0.397135  0.122619  1
  Al  Al17  1  0.081464  0.585463  0.496001  1
  Pt  Pt18  1  0.026148  0.342008  0.684140  1
  Pt  Pt19  1  0.627245  0.125125  0.502120  1
  Pt  Pt20  1  0.254125  0.500000  0.754125  1
  Pt  Pt21  1  0.376995  0.874875  0.502120  1
  Pt  Pt22  1  0.989027  0.000000  0.989027  1
  Pt  Pt23  1  0.650134  0.337512  0.312622  1
  Pt  Pt24  1  0.342132  0.657992  0.684140  1
  Pt  Pt25  1  0.975110  0.662488  0.312622  1
  Rh  Rh26  1  0.767145  0.500000  0.267145  1
