# generated using pymatgen
data_Dy3Tm13In4(IrRu)2
_symmetry_space_group_name_H-M   'P 1'
_cell_length_a   9.54114330
_cell_length_b   9.53976573
_cell_length_c   9.55902900
_cell_angle_alpha   59.94271920
_cell_angle_beta   59.92841851
_cell_angle_gamma   59.88484403
_symmetry_Int_Tables_number   1
_chemical_formula_structural   Dy3Tm13In4(IrRu)2
_chemical_formula_sum   'Dy3 Tm13 In4 Ir2 Ru2'
_cell_volume   614.09365156
_cell_formula_units_Z   1
loop_
 _symmetry_equiv_pos_site_id
 _symmetry_equiv_pos_as_xyz
  1  'x, y, z'
loop_
 _atom_site_type_symbol
 _atom_site_label
 _atom_site_symmetry_multiplicity
 _atom_site_fract_x
 _atom_site_fract_y
 _atom_site_fract_z
 _atom_site_occupancy
  Dy  Dy0  1  0.057972  0.057796  0.442374  1
  Dy  Dy1  1  0.441875  0.061898  0.437016  1
  Dy  Dy2  1  0.061089  0.442621  0.058342  1
  Tm  Tm3  1  0.042079  0.651833  0.652883  1
  Tm  Tm4  1  0.442368  0.441740  0.058152  1
  Tm  Tm5  1  0.651876  0.042133  0.652628  1
  Tm  Tm6  1  0.191059  0.808555  0.193549  1
  Tm  Tm7  1  0.192625  0.192710  0.807652  1
  Tm  Tm8  1  0.809022  0.809353  0.191297  1
  Tm  Tm9  1  0.444556  0.058359  0.055881  1
  Tm  Tm10  1  0.808755  0.191294  0.193539  1
  Tm  Tm11  1  0.059134  0.444086  0.439985  1
  Tm  Tm12  1  0.807833  0.191069  0.807931  1
  Tm  Tm13  1  0.191373  0.808061  0.807511  1
  Tm  Tm14  1  0.652183  0.651720  0.046091  1
  Tm  Tm15  1  0.651165  0.651847  0.649433  1
  In  In16  1  0.415540  0.417558  0.419148  1
  In  In17  1  0.749621  0.416900  0.417432  1
  In  In18  1  0.417268  0.749265  0.415529  1
  In  In19  1  0.417773  0.415980  0.747965  1
  Ir  Ir20  1  0.420773  0.856380  0.862158  1
  Ir  Ir21  1  0.856067  0.420821  0.860591  1
  Ru  Ru22  1  0.859085  0.858173  0.419114  1
  Ru  Ru23  1  0.858916  0.859852  0.863794  1
