# generated using pymatgen
data_Nd2YSi6(Pd9Pt)2
_symmetry_space_group_name_H-M   'P 1'
_cell_length_a   8.78251913
_cell_length_b   8.76388544
_cell_length_c   8.76388442
_cell_angle_alpha   59.75450216
_cell_angle_beta   59.92964240
_cell_angle_gamma   59.92963627
_symmetry_Int_Tables_number   1
_chemical_formula_structural   Nd2YSi6(Pd9Pt)2
_chemical_formula_sum   'Nd2 Y1 Si6 Pd18 Pt2'
_cell_volume   475.58068314
_cell_formula_units_Z   1
loop_
 _symmetry_equiv_pos_site_id
 _symmetry_equiv_pos_as_xyz
  1  'x, y, z'
loop_
 _atom_site_type_symbol
 _atom_site_label
 _atom_site_symmetry_multiplicity
 _atom_site_fract_x
 _atom_site_fract_y
 _atom_site_fract_z
 _atom_site_occupancy
  Nd  Nd0  1  0.250692  0.249308  0.249308  1
  Nd  Nd1  1  0.749308  0.750692  0.750692  1
  Y  Y2  1  0.000000  0.000000  0.000000  1
  Si  Si3  1  0.733246  0.266754  0.266754  1
  Si  Si4  1  0.266754  0.733246  0.733246  1
  Si  Si5  1  0.265944  0.734236  0.265764  1
  Si  Si6  1  0.734056  0.265764  0.734236  1
  Si  Si7  1  0.265944  0.265764  0.734236  1
  Si  Si8  1  0.734056  0.734236  0.265764  1
  Pd  Pd9  1  0.000000  0.345446  0.654554  1
  Pd  Pd10  1  0.000000  0.654554  0.345446  1
  Pd  Pd11  1  0.999448  0.345723  0.000769  1
  Pd  Pd12  1  0.654060  0.000769  0.345723  1
  Pd  Pd13  1  0.000552  0.654277  0.999231  1
  Pd  Pd14  1  0.345940  0.999231  0.654277  1
  Pd  Pd15  1  0.999448  0.000769  0.345723  1
  Pd  Pd16  1  0.000552  0.999231  0.654277  1
  Pd  Pd17  1  0.654060  0.345723  0.000769  1
  Pd  Pd18  1  0.345940  0.654277  0.999231  1
  Pd  Pd19  1  0.384892  0.385304  0.385304  1
  Pd  Pd20  1  0.615108  0.614696  0.614696  1
  Pd  Pd21  1  0.385013  0.386101  0.843873  1
  Pd  Pd22  1  0.385013  0.843873  0.386101  1
  Pd  Pd23  1  0.614987  0.613899  0.156127  1
  Pd  Pd24  1  0.614987  0.156127  0.613899  1
  Pd  Pd25  1  0.844499  0.385304  0.385304  1
  Pd  Pd26  1  0.155501  0.614696  0.614696  1
  Pt  Pt27  1  0.345351  0.000000  0.000000  1
  Pt  Pt28  1  0.654649  0.000000  0.000000  1
