# generated using pymatgen
data_Er6TaO12
_symmetry_space_group_name_H-M   'P 1'
_cell_length_a   6.41608198
_cell_length_b   6.41608199
_cell_length_c   6.41608204
_cell_angle_alpha   98.81445961
_cell_angle_beta   98.81445097
_cell_angle_gamma   98.81445706
_symmetry_Int_Tables_number   1
_chemical_formula_structural   Er6TaO12
_chemical_formula_sum   'Er6 Ta1 O12'
_cell_volume   253.66474804
_cell_formula_units_Z   1
loop_
 _symmetry_equiv_pos_site_id
 _symmetry_equiv_pos_as_xyz
  1  'x, y, z'
loop_
 _atom_site_type_symbol
 _atom_site_label
 _atom_site_symmetry_multiplicity
 _atom_site_fract_x
 _atom_site_fract_y
 _atom_site_fract_z
 _atom_site_occupancy
  Er  Er0  1  0.139127  0.304228  0.611301  1
  Er  Er1  1  0.388699  0.860873  0.695772  1
  Er  Er2  1  0.695772  0.388699  0.860873  1
  Er  Er3  1  0.304228  0.611301  0.139127  1
  Er  Er4  1  0.611301  0.139127  0.304228  1
  Er  Er5  1  0.860873  0.695772  0.388699  1
  Ta  Ta6  1  0.000000  0.000000  0.000000  1
  O  O7  1  0.074407  0.305582  0.957987  1
  O  O8  1  0.042013  0.925593  0.694418  1
  O  O9  1  0.413696  0.564877  0.821645  1
  O  O10  1  0.178355  0.586304  0.435123  1
  O  O11  1  0.694418  0.042013  0.925593  1
  O  O12  1  0.435123  0.178355  0.586304  1
  O  O13  1  0.564877  0.821645  0.413696  1
  O  O14  1  0.305582  0.957987  0.074407  1
  O  O15  1  0.821645  0.413696  0.564877  1
  O  O16  1  0.586304  0.435123  0.178355  1
  O  O17  1  0.957987  0.074407  0.305582  1
  O  O18  1  0.925593  0.694418  0.042013  1
