# generated using pymatgen
data_AcCeRh2F14
_symmetry_space_group_name_H-M   'P 1'
_cell_length_a   5.61156600
_cell_length_b   9.20664055
_cell_length_c   12.36181000
_cell_angle_alpha   62.38399513
_cell_angle_beta   90.00000000
_cell_angle_gamma   90.00000000
_symmetry_Int_Tables_number   1
_chemical_formula_structural   AcCeRh2F14
_chemical_formula_sum   'Ac2 Ce2 Rh4 F28'
_cell_volume   565.89698899
_cell_formula_units_Z   2
loop_
 _symmetry_equiv_pos_site_id
 _symmetry_equiv_pos_as_xyz
  1  'x, y, z'
loop_
 _atom_site_type_symbol
 _atom_site_label
 _atom_site_symmetry_multiplicity
 _atom_site_fract_x
 _atom_site_fract_y
 _atom_site_fract_z
 _atom_site_occupancy
  Ac  Ac0  1  0.760849  0.806746  0.763362  1
  Ac  Ac1  1  0.260849  0.193254  0.736638  1
  Ce  Ce2  1  0.241719  0.193637  0.235517  1
  Ce  Ce3  1  0.741719  0.806363  0.264483  1
  Rh  Rh4  1  0.751146  0.266275  0.971572  1
  Rh  Rh5  1  0.251146  0.733725  0.528428  1
  Rh  Rh6  1  0.241471  0.720224  0.052159  1
  Rh  Rh7  1  0.741471  0.279776  0.447841  1
  F  F8  1  0.438486  0.701568  0.930202  1
  F  F9  1  0.938486  0.298432  0.569798  1
  F  F10  1  0.555387  0.286942  0.097115  1
  F  F11  1  0.055387  0.713058  0.402885  1
  F  F12  1  0.455773  0.292265  0.531731  1
  F  F13  1  0.955773  0.707735  0.968269  1
  F  F14  1  0.550173  0.724601  0.444303  1
  F  F15  1  0.050173  0.275399  0.055697  1
  F  F16  1  0.761259  0.502051  0.875282  1
  F  F17  1  0.261259  0.497949  0.624718  1
  F  F18  1  0.234806  0.479179  0.148597  1
  F  F19  1  0.734806  0.520821  0.351403  1
  F  F20  1  0.755896  0.024775  0.062562  1
  F  F21  1  0.255896  0.975225  0.437438  1
  F  F22  1  0.239206  0.956516  0.959865  1
  F  F23  1  0.739206  0.043484  0.540135  1
  F  F24  1  0.961420  0.732143  0.614729  1
  F  F25  1  0.461420  0.267857  0.885271  1
  F  F26  1  0.024306  0.269158  0.355134  1
  F  F27  1  0.524306  0.730842  0.144866  1
  F  F28  1  0.044506  0.742723  0.176357  1
  F  F29  1  0.544506  0.257277  0.323643  1
  F  F30  1  0.937434  0.255531  0.842849  1
  F  F31  1  0.437434  0.744469  0.657151  1
  F  F32  1  0.412129  0.973957  0.231348  1
  F  F33  1  0.912129  0.026043  0.268652  1
  F  F34  1  0.634035  0.048180  0.772543  1
  F  F35  1  0.134035  0.951820  0.727457  1
