# generated using pymatgen
data_Er8TaTi11Si15Pb
_symmetry_space_group_name_H-M   'P 1'
_cell_length_a   7.09322769
_cell_length_b   7.04992482
_cell_length_c   12.98867148
_cell_angle_alpha   89.93380712
_cell_angle_beta   89.75109459
_cell_angle_gamma   89.95149657
_symmetry_Int_Tables_number   1
_chemical_formula_structural   Er8TaTi11Si15Pb
_chemical_formula_sum   'Er8 Ta1 Ti11 Si15 Pb1'
_cell_volume   649.51409061
_cell_formula_units_Z   1
loop_
 _symmetry_equiv_pos_site_id
 _symmetry_equiv_pos_as_xyz
  1  'x, y, z'
loop_
 _atom_site_type_symbol
 _atom_site_label
 _atom_site_symmetry_multiplicity
 _atom_site_fract_x
 _atom_site_fract_y
 _atom_site_fract_z
 _atom_site_occupancy
  Er  Er0  1  0.344804  0.997980  0.460021  1
  Er  Er1  1  0.507607  0.834099  0.718694  1
  Er  Er2  1  0.501614  0.159450  0.216748  1
  Er  Er3  1  0.841361  0.497500  0.281693  1
  Er  Er4  1  0.158782  0.510977  0.786770  1
  Er  Er5  1  0.660942  0.996816  0.969332  1
  Er  Er6  1  0.990608  0.350820  0.526011  1
  Er  Er7  1  0.999446  0.658665  0.034291  1
  Ta  Ta8  1  0.326212  0.326928  0.001494  1
  Ti  Ti9  1  0.174067  0.826215  0.249724  1
  Ti  Ti10  1  0.813750  0.175342  0.752744  1
  Ti  Ti11  1  0.672576  0.672736  0.499413  1
  Ti  Ti12  1  0.153046  0.007823  0.884278  1
  Ti  Ti13  1  0.492172  0.649790  0.125879  1
  Ti  Ti14  1  0.516966  0.355477  0.626163  1
  Ti  Ti15  1  0.653663  0.493333  0.876647  1
  Ti  Ti16  1  0.347891  0.508970  0.372981  1
  Ti  Ti17  1  0.847193  0.992855  0.375227  1
  Ti  Ti18  1  0.009661  0.152375  0.123768  1
  Ti  Ti19  1  0.977734  0.832010  0.618356  1
  Si  Si20  1  0.370622  0.703203  0.935616  1
  Si  Si21  1  0.628282  0.297003  0.431851  1
  Si  Si22  1  0.703456  0.369083  0.067266  1
  Si  Si23  1  0.297123  0.631223  0.566025  1
  Si  Si24  1  0.797387  0.869649  0.183841  1
  Si  Si25  1  0.130228  0.203071  0.315605  1
  Si  Si26  1  0.870195  0.799972  0.817042  1
  Si  Si27  1  0.293284  0.952310  0.067366  1
  Si  Si28  1  0.549793  0.789578  0.313278  1
  Si  Si29  1  0.461546  0.209244  0.820846  1
  Si  Si30  1  0.794872  0.543842  0.687179  1
  Si  Si31  1  0.208270  0.453365  0.186023  1
  Si  Si32  1  0.706356  0.048076  0.564307  1
  Si  Si33  1  0.952598  0.292315  0.935434  1
  Si  Si34  1  0.048359  0.711038  0.432298  1
  Pb  Pb35  1  0.197534  0.126869  0.675787  1
