# generated using pymatgen
data_LiCaAcNi6
_symmetry_space_group_name_H-M   'P 1'
_cell_length_a   5.07604067
_cell_length_b   5.07603979
_cell_length_c   12.55769363
_cell_angle_alpha   78.33968935
_cell_angle_beta   78.33969269
_cell_angle_gamma   59.99999066
_symmetry_Int_Tables_number   1
_chemical_formula_structural   LiCaAcNi6
_chemical_formula_sum   'Li2 Ca2 Ac2 Ni12'
_cell_volume   272.47685515
_cell_formula_units_Z   2
loop_
 _symmetry_equiv_pos_site_id
 _symmetry_equiv_pos_as_xyz
  1  'x, y, z'
loop_
 _atom_site_type_symbol
 _atom_site_label
 _atom_site_symmetry_multiplicity
 _atom_site_fract_x
 _atom_site_fract_y
 _atom_site_fract_z
 _atom_site_occupancy
  Li  Li0  1  0.721864  0.721864  0.834407  1
  Li  Li1  1  0.278136  0.278136  0.165593  1
  Ca  Ca2  1  0.850112  0.850112  0.449663  1
  Ca  Ca3  1  0.149888  0.149888  0.550337  1
  Ac  Ac4  1  0.946819  0.946819  0.159541  1
  Ac  Ac5  1  0.053181  0.053181  0.840459  1
  Ni  Ni6  1  0.500000  0.500000  0.500000  1
  Ni  Ni7  1  0.611729  0.611729  0.164814  1
  Ni  Ni8  1  0.388271  0.388271  0.835186  1
  Ni  Ni9  1  0.000000  0.500000  0.000000  1
  Ni  Ni10  1  0.500000  0.000000  0.000000  1
  Ni  Ni11  1  0.500000  0.500000  0.000000  1
  Ni  Ni12  1  0.391365  0.391365  0.331707  1
  Ni  Ni13  1  0.885563  0.391365  0.331707  1
  Ni  Ni14  1  0.391365  0.885563  0.331707  1
  Ni  Ni15  1  0.608635  0.608635  0.668293  1
  Ni  Ni16  1  0.114437  0.608635  0.668293  1
  Ni  Ni17  1  0.608635  0.114437  0.668293  1
