# generated using pymatgen
data_Pm2TaRh3
_symmetry_space_group_name_H-M   'P 1'
_cell_length_a   5.26906525
_cell_length_b   5.77639652
_cell_length_c   5.77631389
_cell_angle_alpha   59.99931308
_cell_angle_beta   56.76539166
_cell_angle_gamma   56.75979274
_symmetry_Int_Tables_number   1
_chemical_formula_structural   Pm2TaRh3
_chemical_formula_sum   'Pm2 Ta1 Rh3'
_cell_volume   117.88022212
_cell_formula_units_Z   1
loop_
 _symmetry_equiv_pos_site_id
 _symmetry_equiv_pos_as_xyz
  1  'x, y, z'
loop_
 _atom_site_type_symbol
 _atom_site_label
 _atom_site_symmetry_multiplicity
 _atom_site_fract_x
 _atom_site_fract_y
 _atom_site_fract_z
 _atom_site_occupancy
  Pm  Pm0  1  0.752714  0.749099  0.749070  1
  Pm  Pm1  1  0.997286  0.000901  0.000930  1
  Ta  Ta2  1  0.875000  0.375000  0.375000  1
  Rh  Rh3  1  0.375000  0.875000  0.375000  1
  Rh  Rh4  1  0.375000  0.375000  0.875000  1
  Rh  Rh5  1  0.375000  0.375000  0.375000  1
