# generated using pymatgen
data_Th3CuIr2Au3
_symmetry_space_group_name_H-M   'P 1'
_cell_length_a   7.63427000
_cell_length_b   7.63426934
_cell_length_c   3.82212600
_cell_angle_alpha   90.00000000
_cell_angle_beta   90.00000000
_cell_angle_gamma   120.00000285
_symmetry_Int_Tables_number   1
_chemical_formula_structural   Th3CuIr2Au3
_chemical_formula_sum   'Th3 Cu1 Ir2 Au3'
_cell_volume   192.91705020
_cell_formula_units_Z   1
loop_
 _symmetry_equiv_pos_site_id
 _symmetry_equiv_pos_as_xyz
  1  'x, y, z'
loop_
 _atom_site_type_symbol
 _atom_site_label
 _atom_site_symmetry_multiplicity
 _atom_site_fract_x
 _atom_site_fract_y
 _atom_site_fract_z
 _atom_site_occupancy
  Th  Th0  1  0.411547  0.411547  0.500000  1
  Th  Th1  1  0.588453  0.000000  0.500000  1
  Th  Th2  1  0.000000  0.588453  0.500000  1
  Cu  Cu3  1  0.000000  0.000000  0.500000  1
  Ir  Ir4  1  0.666667  0.333333  0.000000  1
  Ir  Ir5  1  0.333333  0.666667  0.000000  1
  Au  Au6  1  0.757950  0.757950  0.000000  1
  Au  Au7  1  0.242050  0.000000  0.000000  1
  Au  Au8  1  0.000000  0.242050  0.000000  1
