# generated using pymatgen
data_Ga6PdRh7
_symmetry_space_group_name_H-M   'P 1'
_cell_length_a   6.81080436
_cell_length_b   6.81080470
_cell_length_c   6.81080476
_cell_angle_alpha   113.43230696
_cell_angle_beta   113.43231189
_cell_angle_gamma   113.43229939
_symmetry_Int_Tables_number   1
_chemical_formula_structural   Ga6PdRh7
_chemical_formula_sum   'Ga6 Pd1 Rh7'
_cell_volume   199.76753126
_cell_formula_units_Z   1
loop_
 _symmetry_equiv_pos_site_id
 _symmetry_equiv_pos_as_xyz
  1  'x, y, z'
loop_
 _atom_site_type_symbol
 _atom_site_label
 _atom_site_symmetry_multiplicity
 _atom_site_fract_x
 _atom_site_fract_y
 _atom_site_fract_z
 _atom_site_occupancy
  Ga  Ga0  1  0.370723  0.231390  0.957133  1
  Ga  Ga1  1  0.957133  0.370723  0.231390  1
  Ga  Ga2  1  0.231390  0.957133  0.370723  1
  Ga  Ga3  1  0.629277  0.768610  0.042867  1
  Ga  Ga4  1  0.042867  0.629277  0.768610  1
  Ga  Ga5  1  0.768610  0.042867  0.629277  1
  Pd  Pd6  1  0.500000  0.500000  0.500000  1
  Rh  Rh7  1  0.000000  0.000000  0.000000  1
  Rh  Rh8  1  0.875533  0.724092  0.429718  1
  Rh  Rh9  1  0.429718  0.875533  0.724092  1
  Rh  Rh10  1  0.724092  0.429718  0.875533  1
  Rh  Rh11  1  0.124467  0.275908  0.570282  1
  Rh  Rh12  1  0.570282  0.124467  0.275908  1
  Rh  Rh13  1  0.275908  0.570282  0.124467  1
