# generated using pymatgen
data_Sr5Sm3(Al4Au3)4
_symmetry_space_group_name_H-M   'P 1'
_cell_length_a   14.21349600
_cell_length_b   14.21349684
_cell_length_c   4.43700100
_cell_angle_alpha   90.00000000
_cell_angle_beta   90.00000000
_cell_angle_gamma   120.00000271
_symmetry_Int_Tables_number   1
_chemical_formula_structural   Sr5Sm3(Al4Au3)4
_chemical_formula_sum   'Sr5 Sm3 Al16 Au12'
_cell_volume   776.28643130
_cell_formula_units_Z   1
loop_
 _symmetry_equiv_pos_site_id
 _symmetry_equiv_pos_as_xyz
  1  'x, y, z'
loop_
 _atom_site_type_symbol
 _atom_site_label
 _atom_site_symmetry_multiplicity
 _atom_site_fract_x
 _atom_site_fract_y
 _atom_site_fract_z
 _atom_site_occupancy
  Sr  Sr0  1  0.333333  0.666667  0.000000  1
  Sr  Sr1  1  0.666667  0.333333  0.000000  1
  Sr  Sr2  1  0.816982  0.000000  0.500000  1
  Sr  Sr3  1  0.000000  0.816982  0.500000  1
  Sr  Sr4  1  0.183018  0.183018  0.500000  1
  Sm  Sm5  1  0.437569  0.000000  0.000000  1
  Sm  Sm6  1  0.000000  0.437569  0.000000  1
  Sm  Sm7  1  0.562431  0.562431  0.000000  1
  Al  Al8  1  0.190890  0.383913  0.000000  1
  Al  Al9  1  0.616087  0.806978  0.000000  1
  Al  Al10  1  0.383913  0.190890  0.000000  1
  Al  Al11  1  0.193022  0.809110  0.000000  1
  Al  Al12  1  0.806978  0.616087  0.000000  1
  Al  Al13  1  0.809110  0.193022  0.000000  1
  Al  Al14  1  0.278757  0.000000  0.500000  1
  Al  Al15  1  0.000000  0.278757  0.500000  1
  Al  Al16  1  0.721243  0.721243  0.500000  1
  Al  Al17  1  0.359862  0.477108  0.500000  1
  Al  Al18  1  0.522892  0.882754  0.500000  1
  Al  Al19  1  0.477108  0.359862  0.500000  1
  Al  Al20  1  0.117246  0.640138  0.500000  1
  Al  Al21  1  0.882754  0.522892  0.500000  1
  Al  Al22  1  0.640138  0.117246  0.500000  1
  Al  Al23  1  0.000000  0.000000  0.000000  1
  Au  Au24  1  0.174092  0.478592  0.500000  1
  Au  Au25  1  0.521408  0.695501  0.500000  1
  Au  Au26  1  0.478592  0.174092  0.500000  1
  Au  Au27  1  0.304499  0.825908  0.500000  1
  Au  Au28  1  0.695501  0.521408  0.500000  1
  Au  Au29  1  0.825908  0.304499  0.500000  1
  Au  Au30  1  0.182359  0.000000  0.000000  1
  Au  Au31  1  0.000000  0.182359  0.000000  1
  Au  Au32  1  0.817641  0.817641  0.000000  1
  Au  Au33  1  0.643266  0.000000  0.000000  1
  Au  Au34  1  0.000000  0.643266  0.000000  1
  Au  Au35  1  0.356734  0.356734  0.000000  1
