# generated using pymatgen
data_YbLu3Ga18(PdRh2)2
_symmetry_space_group_name_H-M   'P 1'
_cell_length_a   7.58119713
_cell_length_b   7.58938431
_cell_length_c   9.47569400
_cell_angle_alpha   90.00000000
_cell_angle_beta   90.00000000
_cell_angle_gamma   119.93575068
_symmetry_Int_Tables_number   1
_chemical_formula_structural   YbLu3Ga18(PdRh2)2
_chemical_formula_sum   'Yb1 Lu3 Ga18 Pd2 Rh4'
_cell_volume   472.46190880
_cell_formula_units_Z   1
loop_
 _symmetry_equiv_pos_site_id
 _symmetry_equiv_pos_as_xyz
  1  'x, y, z'
loop_
 _atom_site_type_symbol
 _atom_site_label
 _atom_site_symmetry_multiplicity
 _atom_site_fract_x
 _atom_site_fract_y
 _atom_site_fract_z
 _atom_site_occupancy
  Yb  Yb0  1  0.996573  0.669267  0.250000  1
  Lu  Lu1  1  0.003052  0.331104  0.750000  1
  Lu  Lu2  1  0.668564  0.995663  0.250000  1
  Lu  Lu3  1  0.329904  0.002729  0.750000  1
  Ga  Ga4  1  0.128837  0.129190  0.250000  1
  Ga  Ga5  1  0.871996  0.871390  0.750000  1
  Ga  Ga6  1  0.998198  0.338111  0.081490  1
  Ga  Ga7  1  0.001406  0.662631  0.919007  1
  Ga  Ga8  1  0.001406  0.662631  0.580993  1
  Ga  Ga9  1  0.337218  0.997456  0.418507  1
  Ga  Ga10  1  0.998198  0.338111  0.418510  1
  Ga  Ga11  1  0.662503  0.002043  0.582324  1
  Ga  Ga12  1  0.662503  0.002043  0.917676  1
  Ga  Ga13  1  0.337218  0.997456  0.081493  1
  Ga  Ga14  1  0.335163  0.335120  0.568787  1
  Ga  Ga15  1  0.664946  0.664079  0.432165  1
  Ga  Ga16  1  0.664946  0.664079  0.067835  1
  Ga  Ga17  1  0.335163  0.335120  0.931213  1
  Ga  Ga18  1  0.337466  0.549038  0.250000  1
  Ga  Ga19  1  0.663294  0.451472  0.750000  1
  Ga  Ga20  1  0.548725  0.336555  0.250000  1
  Ga  Ga21  1  0.452097  0.663448  0.750000  1
  Pd  Pd22  1  0.000244  0.001539  0.999179  1
  Pd  Pd23  1  0.000244  0.001539  0.500821  1
  Rh  Rh24  1  0.670938  0.327620  0.999487  1
  Rh  Rh25  1  0.329129  0.671474  0.998799  1
  Rh  Rh26  1  0.329129  0.671474  0.501201  1
  Rh  Rh27  1  0.670938  0.327620  0.500513  1
