# generated using pymatgen
data_Dy7Tm4Lu5(CdPt)4
_symmetry_space_group_name_H-M   'P 1'
_cell_length_a   9.59098948
_cell_length_b   9.59115414
_cell_length_c   9.57931800
_cell_angle_alpha   60.04086312
_cell_angle_beta   60.04106080
_cell_angle_gamma   60.18872714
_symmetry_Int_Tables_number   1
_chemical_formula_structural   Dy7Tm4Lu5(CdPt)4
_chemical_formula_sum   'Dy7 Tm4 Lu5 Cd4 Pt4'
_cell_volume   624.36545816
_cell_formula_units_Z   1
loop_
 _symmetry_equiv_pos_site_id
 _symmetry_equiv_pos_as_xyz
  1  'x, y, z'
loop_
 _atom_site_type_symbol
 _atom_site_label
 _atom_site_symmetry_multiplicity
 _atom_site_fract_x
 _atom_site_fract_y
 _atom_site_fract_z
 _atom_site_occupancy
  Dy  Dy0  1  0.812832  0.812808  0.187180  1
  Dy  Dy1  1  0.937308  0.562850  0.563969  1
  Dy  Dy2  1  0.562850  0.937307  0.935862  1
  Dy  Dy3  1  0.562834  0.937312  0.563980  1
  Dy  Dy4  1  0.937315  0.562845  0.935871  1
  Dy  Dy5  1  0.564937  0.564929  0.935068  1
  Dy  Dy6  1  0.937976  0.937981  0.562025  1
  Tm  Tm7  1  0.351557  0.351542  0.351054  1
  Tm  Tm8  1  0.351553  0.351550  0.945849  1
  Tm  Tm9  1  0.352790  0.941702  0.352759  1
  Tm  Tm10  1  0.941710  0.352779  0.352756  1
  Lu  Lu11  1  0.811980  0.189714  0.187697  1
  Lu  Lu12  1  0.189698  0.811973  0.810617  1
  Lu  Lu13  1  0.189684  0.811977  0.187700  1
  Lu  Lu14  1  0.811972  0.189709  0.810618  1
  Lu  Lu15  1  0.188432  0.188423  0.811568  1
  Cd  Cd16  1  0.580293  0.580302  0.582665  1
  Cd  Cd17  1  0.580294  0.580312  0.256736  1
  Cd  Cd18  1  0.580306  0.255416  0.582143  1
  Cd  Cd19  1  0.255423  0.580312  0.582133  1
  Pt  Pt20  1  0.141787  0.141780  0.144874  1
  Pt  Pt21  1  0.141784  0.141790  0.571557  1
  Pt  Pt22  1  0.143969  0.570718  0.142661  1
  Pt  Pt23  1  0.570720  0.143974  0.142653  1
