# generated using pymatgen
data_Dy6Ho10Cd4OsPt3
_symmetry_space_group_name_H-M   'P 1'
_cell_length_a   9.67541020
_cell_length_b   9.67540842
_cell_length_c   9.67540964
_cell_angle_alpha   59.53560081
_cell_angle_beta   59.53560204
_cell_angle_gamma   59.53559831
_symmetry_Int_Tables_number   1
_chemical_formula_structural   Dy6Ho10Cd4OsPt3
_chemical_formula_sum   'Dy6 Ho10 Cd4 Os1 Pt3'
_cell_volume   633.69864656
_cell_formula_units_Z   1
loop_
 _symmetry_equiv_pos_site_id
 _symmetry_equiv_pos_as_xyz
  1  'x, y, z'
loop_
 _atom_site_type_symbol
 _atom_site_label
 _atom_site_symmetry_multiplicity
 _atom_site_fract_x
 _atom_site_fract_y
 _atom_site_fract_z
 _atom_site_occupancy
  Dy  Dy0  1  0.935757  0.565299  0.565299  1
  Dy  Dy1  1  0.558166  0.937916  0.937916  1
  Dy  Dy2  1  0.565299  0.935757  0.565299  1
  Dy  Dy3  1  0.937916  0.558165  0.937916  1
  Dy  Dy4  1  0.565299  0.565299  0.935757  1
  Dy  Dy5  1  0.937916  0.937916  0.558165  1
  Ho  Ho6  1  0.351481  0.351481  0.351481  1
  Ho  Ho7  1  0.349913  0.349913  0.948207  1
  Ho  Ho8  1  0.349913  0.948207  0.349913  1
  Ho  Ho9  1  0.948207  0.349913  0.349913  1
  Ho  Ho10  1  0.814385  0.188838  0.188838  1
  Ho  Ho11  1  0.188289  0.810000  0.810000  1
  Ho  Ho12  1  0.188838  0.814385  0.188838  1
  Ho  Ho13  1  0.810000  0.188289  0.810000  1
  Ho  Ho14  1  0.188838  0.188838  0.814385  1
  Ho  Ho15  1  0.810000  0.810000  0.188289  1
  Cd  Cd16  1  0.580386  0.580386  0.580386  1
  Cd  Cd17  1  0.580951  0.580951  0.254634  1
  Cd  Cd18  1  0.580951  0.254634  0.580951  1
  Cd  Cd19  1  0.254634  0.580951  0.580951  1
  Os  Os20  1  0.143324  0.143324  0.143324  1
  Pt  Pt21  1  0.143548  0.143548  0.572440  1
  Pt  Pt22  1  0.143548  0.572440  0.143548  1
  Pt  Pt23  1  0.572440  0.143548  0.143548  1
