# generated using pymatgen
data_Sc5(Cd2Ni)2
_symmetry_space_group_name_H-M   'P 1'
_cell_length_a   3.25611500
_cell_length_b   7.61653900
_cell_length_c   17.56376100
_cell_angle_alpha   90.00000000
_cell_angle_beta   90.00000000
_cell_angle_gamma   90.00000000
_symmetry_Int_Tables_number   1
_chemical_formula_structural   Sc5(Cd2Ni)2
_chemical_formula_sum   'Sc10 Cd8 Ni4'
_cell_volume   435.58701415
_cell_formula_units_Z   2
loop_
 _symmetry_equiv_pos_site_id
 _symmetry_equiv_pos_as_xyz
  1  'x, y, z'
loop_
 _atom_site_type_symbol
 _atom_site_label
 _atom_site_symmetry_multiplicity
 _atom_site_fract_x
 _atom_site_fract_y
 _atom_site_fract_z
 _atom_site_occupancy
  Sc  Sc0  1  0.500000  0.122629  0.912050  1
  Sc  Sc1  1  0.500000  0.622629  0.587950  1
  Sc  Sc2  1  0.500000  0.377371  0.412050  1
  Sc  Sc3  1  0.500000  0.877371  0.087950  1
  Sc  Sc4  1  0.500000  0.000000  0.500000  1
  Sc  Sc5  1  0.500000  0.758752  0.779348  1
  Sc  Sc6  1  0.500000  0.741248  0.279348  1
  Sc  Sc7  1  0.500000  0.258752  0.720652  1
  Sc  Sc8  1  0.500000  0.500000  0.000000  1
  Sc  Sc9  1  0.500000  0.241248  0.220652  1
  Cd  Cd10  1  0.000000  0.205191  0.067658  1
  Cd  Cd11  1  0.000000  0.705191  0.432342  1
  Cd  Cd12  1  0.000000  0.934675  0.650996  1
  Cd  Cd13  1  0.000000  0.065325  0.349004  1
  Cd  Cd14  1  0.000000  0.294809  0.567658  1
  Cd  Cd15  1  0.000000  0.434675  0.849004  1
  Cd  Cd16  1  0.000000  0.565325  0.150996  1
  Cd  Cd17  1  0.000000  0.794809  0.932342  1
  Ni  Ni18  1  0.000000  0.460409  0.304120  1
  Ni  Ni19  1  0.000000  0.539591  0.695880  1
  Ni  Ni20  1  0.000000  0.039591  0.804120  1
  Ni  Ni21  1  0.000000  0.960409  0.195880  1
