# generated using pymatgen
data_Pr2GePd14
_symmetry_space_group_name_H-M   'P 1'
_cell_length_a   9.01572300
_cell_length_b   9.01572300
_cell_length_c   7.24886700
_cell_angle_alpha   90.00000000
_cell_angle_beta   90.00000000
_cell_angle_gamma   90.00000000
_symmetry_Int_Tables_number   1
_chemical_formula_structural   Pr2GePd14
_chemical_formula_sum   'Pr4 Ge2 Pd28'
_cell_volume   589.21154986
_cell_formula_units_Z   2
loop_
 _symmetry_equiv_pos_site_id
 _symmetry_equiv_pos_as_xyz
  1  'x, y, z'
loop_
 _atom_site_type_symbol
 _atom_site_label
 _atom_site_symmetry_multiplicity
 _atom_site_fract_x
 _atom_site_fract_y
 _atom_site_fract_z
 _atom_site_occupancy
  Pr  Pr0  1  0.500000  0.000000  0.936973  1
  Pr  Pr1  1  0.000000  0.500000  0.063027  1
  Pr  Pr2  1  0.000000  0.000000  0.500000  1
  Pr  Pr3  1  0.500000  0.500000  0.500000  1
  Ge  Ge4  1  0.500000  0.000000  0.448709  1
  Ge  Ge5  1  0.000000  0.500000  0.551291  1
  Pd  Pd6  1  0.330894  0.830894  0.620242  1
  Pd  Pd7  1  0.330894  0.169106  0.620242  1
  Pd  Pd8  1  0.669106  0.830894  0.620242  1
  Pd  Pd9  1  0.669106  0.169106  0.620242  1
  Pd  Pd10  1  0.169106  0.669106  0.379758  1
  Pd  Pd11  1  0.169106  0.330894  0.379758  1
  Pd  Pd12  1  0.830894  0.669106  0.379758  1
  Pd  Pd13  1  0.830894  0.330894  0.379758  1
  Pd  Pd14  1  0.500000  0.766545  0.253381  1
  Pd  Pd15  1  0.500000  0.233455  0.253381  1
  Pd  Pd16  1  0.266545  0.000000  0.253381  1
  Pd  Pd17  1  0.733455  0.000000  0.253381  1
  Pd  Pd18  1  0.000000  0.733455  0.746619  1
  Pd  Pd19  1  0.000000  0.266545  0.746619  1
  Pd  Pd20  1  0.233455  0.500000  0.746619  1
  Pd  Pd21  1  0.766545  0.500000  0.746619  1
  Pd  Pd22  1  0.500000  0.348555  0.857625  1
  Pd  Pd23  1  0.500000  0.651445  0.857625  1
  Pd  Pd24  1  0.848555  0.000000  0.857625  1
  Pd  Pd25  1  0.151445  0.000000  0.857625  1
  Pd  Pd26  1  0.000000  0.151445  0.142375  1
  Pd  Pd27  1  0.000000  0.848555  0.142375  1
  Pd  Pd28  1  0.651445  0.500000  0.142375  1
  Pd  Pd29  1  0.348555  0.500000  0.142375  1
  Pd  Pd30  1  0.250000  0.750000  0.000000  1
  Pd  Pd31  1  0.250000  0.250000  0.000000  1
  Pd  Pd32  1  0.750000  0.750000  0.000000  1
  Pd  Pd33  1  0.750000  0.250000  0.000000  1
