# generated using pymatgen
data_CaLa3(PrIr)6
_symmetry_space_group_name_H-M   'P 1'
_cell_length_a   11.39371124
_cell_length_b   11.37558200
_cell_length_c   6.56430414
_cell_angle_alpha   90.00000000
_cell_angle_beta   89.97620052
_cell_angle_gamma   90.00000000
_symmetry_Int_Tables_number   1
_chemical_formula_structural   CaLa3(PrIr)6
_chemical_formula_sum   'Ca2 La6 Pr12 Ir12'
_cell_volume   850.80002024
_cell_formula_units_Z   2
loop_
 _symmetry_equiv_pos_site_id
 _symmetry_equiv_pos_as_xyz
  1  'x, y, z'
loop_
 _atom_site_type_symbol
 _atom_site_label
 _atom_site_symmetry_multiplicity
 _atom_site_fract_x
 _atom_site_fract_y
 _atom_site_fract_z
 _atom_site_occupancy
  Ca  Ca0  1  0.999803  0.999752  0.500199  1
  Ca  Ca1  1  0.999803  0.000248  0.000199  1
  La  La2  1  0.288023  0.090304  0.389781  1
  La  La3  1  0.288023  0.909696  0.889781  1
  La  La4  1  0.712384  0.090907  0.890042  1
  La  La5  1  0.712384  0.909093  0.390042  1
  La  La6  1  0.590667  0.790947  0.887370  1
  La  La7  1  0.590667  0.209053  0.387370  1
  Pr  Pr8  1  0.409325  0.790278  0.385036  1
  Pr  Pr9  1  0.409325  0.209722  0.885036  1
  Pr  Pr10  1  0.208348  0.411167  0.615388  1
  Pr  Pr11  1  0.208348  0.588833  0.115388  1
  Pr  Pr12  1  0.792015  0.411486  0.113902  1
  Pr  Pr13  1  0.792015  0.588514  0.613902  1
  Pr  Pr14  1  0.912449  0.711106  0.112316  1
  Pr  Pr15  1  0.912449  0.288894  0.612316  1
  Pr  Pr16  1  0.088320  0.711285  0.611938  1
  Pr  Pr17  1  0.088320  0.288715  0.111938  1
  Pr  Pr18  1  0.499636  0.499221  0.001146  1
  Pr  Pr19  1  0.499636  0.500779  0.501146  1
  Ir  Ir20  1  0.840860  0.157731  0.247589  1
  Ir  Ir21  1  0.840860  0.842269  0.747589  1
  Ir  Ir22  1  0.158591  0.157031  0.746611  1
  Ir  Ir23  1  0.158591  0.842969  0.246611  1
  Ir  Ir24  1  0.653618  0.344439  0.747864  1
  Ir  Ir25  1  0.653618  0.655561  0.247864  1
  Ir  Ir26  1  0.345486  0.345879  0.249982  1
  Ir  Ir27  1  0.345486  0.654121  0.749982  1
  Ir  Ir28  1  0.500520  0.000812  0.117147  1
  Ir  Ir29  1  0.500520  0.999188  0.617147  1
  Ir  Ir30  1  0.999955  0.499884  0.883690  1
  Ir  Ir31  1  0.999955  0.500116  0.383690  1
