# generated using pymatgen
data_Hf18Cr2Re6GeP
_symmetry_space_group_name_H-M   'P 1'
_cell_length_a   8.56625300
_cell_length_b   8.56622129
_cell_length_c   8.53463300
_cell_angle_alpha   90.00000000
_cell_angle_beta   90.00000000
_cell_angle_gamma   119.99998994
_symmetry_Int_Tables_number   1
_chemical_formula_structural   Hf18Cr2Re6GeP
_chemical_formula_sum   'Hf18 Cr2 Re6 Ge1 P1'
_cell_volume   542.37006602
_cell_formula_units_Z   1
loop_
 _symmetry_equiv_pos_site_id
 _symmetry_equiv_pos_as_xyz
  1  'x, y, z'
loop_
 _atom_site_type_symbol
 _atom_site_label
 _atom_site_symmetry_multiplicity
 _atom_site_fract_x
 _atom_site_fract_y
 _atom_site_fract_z
 _atom_site_occupancy
  Hf  Hf0  1  0.191779  0.808217  0.452551  1
  Hf  Hf1  1  0.191784  0.383561  0.452548  1
  Hf  Hf2  1  0.616438  0.808218  0.452541  1
  Hf  Hf3  1  0.805109  0.194897  0.549445  1
  Hf  Hf4  1  0.805108  0.610211  0.549446  1
  Hf  Hf5  1  0.389790  0.194895  0.549445  1
  Hf  Hf6  1  0.805109  0.194897  0.950555  1
  Hf  Hf7  1  0.805108  0.610211  0.950554  1
  Hf  Hf8  1  0.389790  0.194895  0.950555  1
  Hf  Hf9  1  0.191779  0.808217  0.047449  1
  Hf  Hf10  1  0.191784  0.383561  0.047452  1
  Hf  Hf11  1  0.616438  0.808218  0.047459  1
  Hf  Hf12  1  0.540392  0.459604  0.250000  1
  Hf  Hf13  1  0.540397  0.080797  0.250000  1
  Hf  Hf14  1  0.919206  0.459601  0.250000  1
  Hf  Hf15  1  0.459267  0.540739  0.750000  1
  Hf  Hf16  1  0.459257  0.918527  0.750000  1
  Hf  Hf17  1  0.081479  0.540737  0.750000  1
  Cr  Cr18  1  0.000000  0.000000  0.500053  1
  Cr  Cr19  1  0.000000  0.000000  0.999947  1
  Re  Re20  1  0.892521  0.107483  0.250000  1
  Re  Re21  1  0.892516  0.785031  0.250000  1
  Re  Re22  1  0.214963  0.107482  0.250000  1
  Re  Re23  1  0.107174  0.892830  0.750000  1
  Re  Re24  1  0.107166  0.214340  0.750000  1
  Re  Re25  1  0.785646  0.892827  0.750000  1
  Ge  Ge26  1  0.333333  0.666666  0.250000  1
  P  P27  1  0.666666  0.333335  0.750000  1
