# generated using pymatgen
data_Er2Lu4P13Rh20
_symmetry_space_group_name_H-M   'P 1'
_cell_length_a   13.30931000
_cell_length_b   13.30650994
_cell_length_c   3.89412601
_cell_angle_alpha   90.00499756
_cell_angle_beta   90.00029783
_cell_angle_gamma   120.00590820
_symmetry_Int_Tables_number   1
_chemical_formula_structural   Er2Lu4P13Rh20
_chemical_formula_sum   'Er2 Lu4 P13 Rh20'
_cell_volume   597.22018025
_cell_formula_units_Z   1
loop_
 _symmetry_equiv_pos_site_id
 _symmetry_equiv_pos_as_xyz
  1  'x, y, z'
loop_
 _atom_site_type_symbol
 _atom_site_label
 _atom_site_symmetry_multiplicity
 _atom_site_fract_x
 _atom_site_fract_y
 _atom_site_fract_z
 _atom_site_occupancy
  Er  Er0  1  0.529034  0.717214  0.248547  1
  Er  Er1  1  0.282803  0.811844  0.248462  1
  Lu  Lu2  1  0.188195  0.470945  0.248547  1
  Lu  Lu3  1  0.471319  0.282962  0.751379  1
  Lu  Lu4  1  0.716957  0.188267  0.751514  1
  Lu  Lu5  1  0.811561  0.528685  0.751543  1
  P  P6  1  0.527705  0.140595  0.250387  1
  P  P7  1  0.859434  0.387066  0.250321  1
  P  P8  1  0.612793  0.472294  0.250308  1
  P  P9  1  0.944426  0.713561  0.254516  1
  P  P10  1  0.286344  0.230707  0.254703  1
  P  P11  1  0.769246  0.055636  0.254543  1
  P  P12  1  0.386863  0.526956  0.749800  1
  P  P13  1  0.472822  0.859856  0.749681  1
  P  P14  1  0.139915  0.612365  0.749701  1
  P  P15  1  0.714314  0.769533  0.745262  1
  P  P16  1  0.230475  0.944773  0.745399  1
  P  P17  1  0.055597  0.286316  0.745345  1
  P  P18  1  0.000059  0.000093  0.000103  1
  Rh  Rh19  1  0.332669  0.665786  0.752523  1
  Rh  Rh20  1  0.918827  0.250018  0.253754  1
  Rh  Rh21  1  0.750185  0.668786  0.253833  1
  Rh  Rh22  1  0.331225  0.081419  0.253924  1
  Rh  Rh23  1  0.438352  0.022178  0.751520  1
  Rh  Rh24  1  0.978708  0.416257  0.751497  1
  Rh  Rh25  1  0.583744  0.561356  0.751591  1
  Rh  Rh26  1  0.666736  0.333402  0.247286  1
  Rh  Rh27  1  0.094580  0.188116  0.246892  1
  Rh  Rh28  1  0.812236  0.906606  0.247336  1
  Rh  Rh29  1  0.093517  0.905477  0.247202  1
  Rh  Rh30  1  0.020723  0.583058  0.248569  1
  Rh  Rh31  1  0.416241  0.437288  0.248307  1
  Rh  Rh32  1  0.562752  0.979432  0.248490  1
  Rh  Rh33  1  0.669934  0.920473  0.746182  1
  Rh  Rh34  1  0.079489  0.749099  0.746394  1
  Rh  Rh35  1  0.249858  0.330914  0.746012  1
  Rh  Rh36  1  0.905999  0.812346  0.752903  1
  Rh  Rh37  1  0.187733  0.093845  0.752741  1
  Rh  Rh38  1  0.906629  0.094476  0.752982  1
