# generated using pymatgen
data_Er12Tm7Lu(CoSb2)4
_symmetry_space_group_name_H-M   'P 1'
_cell_length_a   7.76925836
_cell_length_b   8.73919213
_cell_length_c   12.08266352
_cell_angle_alpha   90.01262668
_cell_angle_beta   89.96870640
_cell_angle_gamma   89.98441384
_symmetry_Int_Tables_number   1
_chemical_formula_structural   Er12Tm7Lu(CoSb2)4
_chemical_formula_sum   'Er12 Tm7 Lu1 Co4 Sb8'
_cell_volume   820.37693478
_cell_formula_units_Z   1
loop_
 _symmetry_equiv_pos_site_id
 _symmetry_equiv_pos_as_xyz
  1  'x, y, z'
loop_
 _atom_site_type_symbol
 _atom_site_label
 _atom_site_symmetry_multiplicity
 _atom_site_fract_x
 _atom_site_fract_y
 _atom_site_fract_z
 _atom_site_occupancy
  Er  Er0  1  0.156463  0.750137  0.204482  1
  Er  Er1  1  0.656826  0.249953  0.295295  1
  Er  Er2  1  0.843341  0.249940  0.795626  1
  Er  Er3  1  0.343315  0.750024  0.704536  1
  Er  Er4  1  0.451703  0.750158  0.998039  1
  Er  Er5  1  0.951596  0.249985  0.501959  1
  Er  Er6  1  0.548963  0.249748  0.002013  1
  Er  Er7  1  0.048414  0.750039  0.498026  1
  Er  Er8  1  0.623138  0.749969  0.308244  1
  Er  Er9  1  0.122705  0.249866  0.191472  1
  Er  Er10  1  0.376869  0.249996  0.691799  1
  Er  Er11  1  0.876738  0.750227  0.808485  1
  Tm  Tm12  1  0.323835  0.036658  0.434352  1
  Tm  Tm13  1  0.176173  0.463532  0.934428  1
  Tm  Tm14  1  0.676191  0.536639  0.565607  1
  Tm  Tm15  1  0.175889  0.036522  0.934509  1
  Tm  Tm16  1  0.676201  0.963394  0.565633  1
  Tm  Tm17  1  0.823887  0.536593  0.065649  1
  Tm  Tm18  1  0.323814  0.463369  0.434368  1
  Lu  Lu19  1  0.825022  0.963302  0.065512  1
  Co  Co20  1  0.432978  0.750022  0.491119  1
  Co  Co21  1  0.932649  0.249685  0.008873  1
  Co  Co22  1  0.566992  0.249992  0.508846  1
  Co  Co23  1  0.066273  0.750393  0.991365  1
  Sb  Sb24  1  0.930972  0.991775  0.327175  1
  Sb  Sb25  1  0.431516  0.008090  0.172546  1
  Sb  Sb26  1  0.068885  0.491812  0.672736  1
  Sb  Sb27  1  0.568877  0.508228  0.827335  1
  Sb  Sb28  1  0.068903  0.008181  0.672711  1
  Sb  Sb29  1  0.568725  0.991763  0.827284  1
  Sb  Sb30  1  0.931067  0.508214  0.327314  1
  Sb  Sb31  1  0.431081  0.491793  0.172662  1
