# generated using pymatgen
data_SrGd3(MgIr)4
_symmetry_space_group_name_H-M   'P 1'
_cell_length_a   4.11670200
_cell_length_b   7.18096766
_cell_length_c   8.76556200
_cell_angle_alpha   89.45853202
_cell_angle_beta   90.00000000
_cell_angle_gamma   90.00000000
_symmetry_Int_Tables_number   1
_chemical_formula_structural   SrGd3(MgIr)4
_chemical_formula_sum   'Sr1 Gd3 Mg4 Ir4'
_cell_volume   259.11513064
_cell_formula_units_Z   1
loop_
 _symmetry_equiv_pos_site_id
 _symmetry_equiv_pos_as_xyz
  1  'x, y, z'
loop_
 _atom_site_type_symbol
 _atom_site_label
 _atom_site_symmetry_multiplicity
 _atom_site_fract_x
 _atom_site_fract_y
 _atom_site_fract_z
 _atom_site_occupancy
  Sr  Sr0  1  0.250000  0.535029  0.176027  1
  Gd  Gd1  1  0.750000  0.462131  0.822897  1
  Gd  Gd2  1  0.750000  0.964254  0.672768  1
  Gd  Gd3  1  0.250000  0.039691  0.326554  1
  Mg  Mg4  1  0.250000  0.637256  0.559583  1
  Mg  Mg5  1  0.750000  0.366468  0.444457  1
  Mg  Mg6  1  0.750000  0.862786  0.053383  1
  Mg  Mg7  1  0.250000  0.130042  0.940365  1
  Ir  Ir8  1  0.250000  0.757744  0.856791  1
  Ir  Ir9  1  0.750000  0.222256  0.131314  1
  Ir  Ir10  1  0.750000  0.762967  0.381980  1
  Ir  Ir11  1  0.250000  0.259378  0.633884  1
