# generated using pymatgen
data_Ho10Si5Sn
_symmetry_space_group_name_H-M   'P 1'
_cell_length_a   8.47441300
_cell_length_b   8.49929942
_cell_length_c   6.36128000
_cell_angle_alpha   90.00000000
_cell_angle_beta   90.00000000
_cell_angle_gamma   119.90319179
_symmetry_Int_Tables_number   1
_chemical_formula_structural   Ho10Si5Sn
_chemical_formula_sum   'Ho10 Si5 Sn1'
_cell_volume   397.18306973
_cell_formula_units_Z   1
loop_
 _symmetry_equiv_pos_site_id
 _symmetry_equiv_pos_as_xyz
  1  'x, y, z'
loop_
 _atom_site_type_symbol
 _atom_site_label
 _atom_site_symmetry_multiplicity
 _atom_site_fract_x
 _atom_site_fract_y
 _atom_site_fract_z
 _atom_site_occupancy
  Ho  Ho0  1  0.989569  0.749225  0.750000  1
  Ho  Ho1  1  0.998984  0.242570  0.250000  1
  Ho  Ho2  1  0.756414  0.757430  0.250000  1
  Ho  Ho3  1  0.765179  0.000000  0.750000  1
  Ho  Ho4  1  0.240345  0.250775  0.750000  1
  Ho  Ho5  1  0.241091  0.000000  0.250000  1
  Ho  Ho6  1  0.331643  0.658286  0.496880  1
  Ho  Ho7  1  0.673358  0.341714  0.003120  1
  Ho  Ho8  1  0.673358  0.341714  0.496880  1
  Ho  Ho9  1  0.331643  0.658286  0.003120  1
  Si  Si10  1  0.393673  0.392470  0.250000  1
  Si  Si11  1  0.001202  0.607530  0.250000  1
  Si  Si12  1  0.998832  0.394374  0.750000  1
  Si  Si13  1  0.604458  0.605626  0.750000  1
  Si  Si14  1  0.605644  0.000000  0.250000  1
  Sn  Sn15  1  0.394606  0.000000  0.750000  1
