# generated using pymatgen
data_Y2Re2OsRu
_symmetry_space_group_name_H-M   'P 1'
_cell_length_a   5.35917900
_cell_length_b   5.29087003
_cell_length_c   9.08931100
_cell_angle_alpha   90.00000000
_cell_angle_beta   90.00000000
_cell_angle_gamma   120.42801659
_symmetry_Int_Tables_number   1
_chemical_formula_structural   Y2Re2OsRu
_chemical_formula_sum   'Y4 Re4 Os2 Ru2'
_cell_volume   222.22742018
_cell_formula_units_Z   2
loop_
 _symmetry_equiv_pos_site_id
 _symmetry_equiv_pos_as_xyz
  1  'x, y, z'
loop_
 _atom_site_type_symbol
 _atom_site_label
 _atom_site_symmetry_multiplicity
 _atom_site_fract_x
 _atom_site_fract_y
 _atom_site_fract_z
 _atom_site_occupancy
  Y  Y0  1  0.335072  0.666272  0.434684  1
  Y  Y1  1  0.668801  0.333728  0.565316  1
  Y  Y2  1  0.668801  0.333728  0.934684  1
  Y  Y3  1  0.335072  0.666272  0.065316  1
  Re  Re4  1  0.161196  0.332792  0.750000  1
  Re  Re5  1  0.164789  0.828148  0.750000  1
  Re  Re6  1  0.336642  0.171852  0.250000  1
  Re  Re7  1  0.828403  0.667208  0.250000  1
  Os  Os8  1  0.646572  0.823624  0.750000  1
  Os  Os9  1  0.822948  0.176376  0.250000  1
  Ru  Ru10  1  0.015852  0.000000  0.000000  1
  Ru  Ru11  1  0.015852  0.000000  0.500000  1
