# generated using pymatgen
data_TbHo2Er2(In2Pd)2
_symmetry_space_group_name_H-M   'P 1'
_cell_length_a   3.60148000
_cell_length_b   8.14522600
_cell_length_c   18.24341000
_cell_angle_alpha   90.00000000
_cell_angle_beta   90.00000000
_cell_angle_gamma   90.00000000
_symmetry_Int_Tables_number   1
_chemical_formula_structural   TbHo2Er2(In2Pd)2
_chemical_formula_sum   'Tb2 Ho4 Er4 In8 Pd4'
_cell_volume   535.16803397
_cell_formula_units_Z   2
loop_
 _symmetry_equiv_pos_site_id
 _symmetry_equiv_pos_as_xyz
  1  'x, y, z'
loop_
 _atom_site_type_symbol
 _atom_site_label
 _atom_site_symmetry_multiplicity
 _atom_site_fract_x
 _atom_site_fract_y
 _atom_site_fract_z
 _atom_site_occupancy
  Tb  Tb0  1  0.000000  0.500000  0.500000  1
  Tb  Tb1  1  0.000000  0.000000  0.000000  1
  Ho  Ho2  1  0.000000  0.739269  0.280305  1
  Ho  Ho3  1  0.000000  0.260731  0.719695  1
  Ho  Ho4  1  0.000000  0.760731  0.780305  1
  Ho  Ho5  1  0.000000  0.239269  0.219695  1
  Er  Er6  1  0.000000  0.616121  0.083372  1
  Er  Er7  1  0.000000  0.383879  0.916628  1
  Er  Er8  1  0.000000  0.883879  0.583372  1
  Er  Er9  1  0.000000  0.116121  0.416628  1
  In  In10  1  0.500000  0.708248  0.931931  1
  In  In11  1  0.500000  0.291752  0.068069  1
  In  In12  1  0.500000  0.791752  0.431931  1
  In  In13  1  0.500000  0.208248  0.568069  1
  In  In14  1  0.500000  0.582267  0.650309  1
  In  In15  1  0.500000  0.417733  0.349691  1
  In  In16  1  0.500000  0.917733  0.150309  1
  In  In17  1  0.500000  0.082267  0.849691  1
  Pd  Pd18  1  0.500000  0.523468  0.195786  1
  Pd  Pd19  1  0.500000  0.476532  0.804214  1
  Pd  Pd20  1  0.500000  0.976532  0.695786  1
  Pd  Pd21  1  0.500000  0.023468  0.304214  1
