# generated using pymatgen
data_Sr2Eu2Sb2O
_symmetry_space_group_name_H-M   'P 1'
_cell_length_a   9.43719500
_cell_length_b   9.43719451
_cell_length_c   6.98332200
_cell_angle_alpha   90.00000000
_cell_angle_beta   90.00000000
_cell_angle_gamma   136.57348457
_symmetry_Int_Tables_number   1
_chemical_formula_structural   Sr2Eu2Sb2O
_chemical_formula_sum   'Sr4 Eu4 Sb4 O2'
_cell_volume   427.53570782
_cell_formula_units_Z   2
loop_
 _symmetry_equiv_pos_site_id
 _symmetry_equiv_pos_as_xyz
  1  'x, y, z'
loop_
 _atom_site_type_symbol
 _atom_site_label
 _atom_site_symmetry_multiplicity
 _atom_site_fract_x
 _atom_site_fract_y
 _atom_site_fract_z
 _atom_site_occupancy
  Sr  Sr0  1  0.666943  0.333058  0.000071  1
  Sr  Sr1  1  0.166943  0.833057  0.499929  1
  Sr  Sr2  1  0.833057  0.166943  0.500071  1
  Sr  Sr3  1  0.333058  0.666943  0.999929  1
  Eu  Eu4  1  0.250057  0.249943  0.249999  1
  Eu  Eu5  1  0.750058  0.749944  0.249999  1
  Eu  Eu6  1  0.249943  0.250057  0.750000  1
  Eu  Eu7  1  0.749944  0.750058  0.750000  1
  Sb  Sb8  1  0.865193  0.134808  0.000068  1
  Sb  Sb9  1  0.365193  0.634808  0.499932  1
  Sb  Sb10  1  0.634808  0.365193  0.500068  1
  Sb  Sb11  1  0.134808  0.865193  0.999933  1
  O  O12  1  0.500000  0.500000  0.000000  1
  O  O13  1  0.000000  0.000000  0.500000  1
