# generated using pymatgen
data_Hf10In3CuSiSb3
_symmetry_space_group_name_H-M   'P 1'
_cell_length_a   8.60383600
_cell_length_b   8.60383639
_cell_length_c   5.78188900
_cell_angle_alpha   90.00000000
_cell_angle_beta   90.00000000
_cell_angle_gamma   119.99999849
_symmetry_Int_Tables_number   1
_chemical_formula_structural   Hf10In3CuSiSb3
_chemical_formula_sum   'Hf10 In3 Cu1 Si1 Sb3'
_cell_volume   370.66762488
_cell_formula_units_Z   1
loop_
 _symmetry_equiv_pos_site_id
 _symmetry_equiv_pos_as_xyz
  1  'x, y, z'
loop_
 _atom_site_type_symbol
 _atom_site_label
 _atom_site_symmetry_multiplicity
 _atom_site_fract_x
 _atom_site_fract_y
 _atom_site_fract_z
 _atom_site_occupancy
  Hf  Hf0  1  0.666667  0.333333  0.999054  1
  Hf  Hf1  1  0.333333  0.666667  0.999054  1
  Hf  Hf2  1  0.333333  0.666667  0.502295  1
  Hf  Hf3  1  0.666667  0.333333  0.502295  1
  Hf  Hf4  1  0.729511  0.729511  0.748114  1
  Hf  Hf5  1  0.270489  0.000000  0.748114  1
  Hf  Hf6  1  0.000000  0.270489  0.748114  1
  Hf  Hf7  1  0.255836  0.255836  0.252788  1
  Hf  Hf8  1  0.744164  0.000000  0.252788  1
  Hf  Hf9  1  0.000000  0.744164  0.252788  1
  In  In10  1  0.382694  0.382694  0.752193  1
  In  In11  1  0.617306  0.000000  0.752193  1
  In  In12  1  0.000000  0.617306  0.752193  1
  Cu  Cu13  1  0.000000  0.000000  0.969599  1
  Si  Si14  1  0.000000  0.000000  0.518469  1
  Sb  Sb15  1  0.606634  0.606634  0.249984  1
  Sb  Sb16  1  0.393366  0.000000  0.249984  1
  Sb  Sb17  1  0.000000  0.393366  0.249984  1
