# generated using pymatgen
data_TbSi2Tc3Mo
_symmetry_space_group_name_H-M   'P 1'
_cell_length_a   7.81005617
_cell_length_b   6.98257501
_cell_length_c   4.20460500
_cell_angle_alpha   90.00000000
_cell_angle_beta   90.00000000
_cell_angle_gamma   89.98428790
_symmetry_Int_Tables_number   1
_chemical_formula_structural   TbSi2Tc3Mo
_chemical_formula_sum   'Tb2 Si4 Tc6 Mo2'
_cell_volume   229.29519484
_cell_formula_units_Z   2
loop_
 _symmetry_equiv_pos_site_id
 _symmetry_equiv_pos_as_xyz
  1  'x, y, z'
loop_
 _atom_site_type_symbol
 _atom_site_label
 _atom_site_symmetry_multiplicity
 _atom_site_fract_x
 _atom_site_fract_y
 _atom_site_fract_z
 _atom_site_occupancy
  Tb  Tb0  1  0.000000  0.000000  0.000000  1
  Tb  Tb1  1  0.500000  0.500000  0.500000  1
  Si  Si2  1  0.309724  0.271872  0.000000  1
  Si  Si3  1  0.690276  0.728128  0.000000  1
  Si  Si4  1  0.813669  0.232408  0.500000  1
  Si  Si5  1  0.186331  0.767592  0.500000  1
  Tc  Tc6  1  0.664643  0.922789  0.500000  1
  Tc  Tc7  1  0.111459  0.346912  0.500000  1
  Tc  Tc8  1  0.335357  0.077211  0.500000  1
  Tc  Tc9  1  0.888541  0.653088  0.500000  1
  Tc  Tc10  1  0.157162  0.577776  0.000000  1
  Tc  Tc11  1  0.842838  0.422224  0.000000  1
  Mo  Mo12  1  0.614104  0.150253  0.000000  1
  Mo  Mo13  1  0.385896  0.849747  0.000000  1
