# generated using pymatgen
data_TbDy3Tm(ReO6)2
_symmetry_space_group_name_H-M   'P 1'
_cell_length_a   6.83293443
_cell_length_b   6.83293493
_cell_length_c   7.53076703
_cell_angle_alpha   73.73929637
_cell_angle_beta   73.73929521
_cell_angle_gamma   49.11035397
_symmetry_Int_Tables_number   1
_chemical_formula_structural   TbDy3Tm(ReO6)2
_chemical_formula_sum   'Tb1 Dy3 Tm1 Re2 O12'
_cell_volume   252.89394694
_cell_formula_units_Z   1
loop_
 _symmetry_equiv_pos_site_id
 _symmetry_equiv_pos_as_xyz
  1  'x, y, z'
loop_
 _atom_site_type_symbol
 _atom_site_label
 _atom_site_symmetry_multiplicity
 _atom_site_fract_x
 _atom_site_fract_y
 _atom_site_fract_z
 _atom_site_occupancy
  Tb  Tb0  1  0.803182  0.803182  0.358512  1
  Dy  Dy1  1  0.196915  0.196915  0.641504  1
  Dy  Dy2  1  0.184818  0.184818  0.176886  1
  Dy  Dy3  1  0.815176  0.815176  0.823089  1
  Tm  Tm4  1  0.499959  0.499959  0.500071  1
  Re  Re5  1  0.286250  0.713816  0.999925  1
  Re  Re6  1  0.713816  0.286250  0.999925  1
  O  O7  1  0.412937  0.918265  0.914255  1
  O  O8  1  0.082078  0.586811  0.085338  1
  O  O9  1  0.586811  0.082078  0.085338  1
  O  O10  1  0.918265  0.412937  0.914255  1
  O  O11  1  0.598074  0.098268  0.572340  1
  O  O12  1  0.902415  0.400726  0.428271  1
  O  O13  1  0.400726  0.902415  0.428271  1
  O  O14  1  0.000983  0.000983  0.822996  1
  O  O15  1  0.999310  0.999310  0.176642  1
  O  O16  1  0.498007  0.498007  0.792747  1
  O  O17  1  0.502011  0.502011  0.207295  1
  O  O18  1  0.098268  0.598074  0.572340  1
