# generated using pymatgen
data_K2Ga(TeO4)3
_symmetry_space_group_name_H-M   'P 1'
_cell_length_a   7.12897864
_cell_length_b   7.30996109
_cell_length_c   7.12603680
_cell_angle_alpha   89.99999950
_cell_angle_beta   61.66764029
_cell_angle_gamma   120.84340288
_symmetry_Int_Tables_number   1
_chemical_formula_structural   K2Ga(TeO4)3
_chemical_formula_sum   'K2 Ga1 Te3 O12'
_cell_volume   265.69844370
_cell_formula_units_Z   1
loop_
 _symmetry_equiv_pos_site_id
 _symmetry_equiv_pos_as_xyz
  1  'x, y, z'
loop_
 _atom_site_type_symbol
 _atom_site_label
 _atom_site_symmetry_multiplicity
 _atom_site_fract_x
 _atom_site_fract_y
 _atom_site_fract_z
 _atom_site_occupancy
  K  K0  1  0.264352  0.129475  0.632138  1
  K  K1  1  0.735648  0.865123  0.367862  1
  Ga  Ga2  1  0.000000  0.498059  0.000000  1
  Te  Te3  1  0.500050  0.497295  0.000188  1
  Te  Te4  1  0.499950  0.997245  0.999812  1
  Te  Te5  1  0.000000  0.497140  0.500000  1
  O  O6  1  0.649388  0.822142  0.926644  1
  O  O7  1  0.848943  0.421802  0.328924  1
  O  O8  1  0.253331  0.421638  0.924285  1
  O  O9  1  0.251336  0.822067  0.324535  1
  O  O10  1  0.253145  0.825922  0.924672  1
  O  O11  1  0.251234  0.423951  0.324704  1
  O  O12  1  0.350612  0.172753  0.073356  1
  O  O13  1  0.151057  0.572859  0.671076  1
  O  O14  1  0.746855  0.572776  0.075328  1
  O  O15  1  0.748766  0.172717  0.675296  1
  O  O16  1  0.746669  0.168307  0.075715  1
  O  O17  1  0.748664  0.570731  0.675465  1
