# generated using pymatgen
data_Rb2CaCo3F12
_symmetry_space_group_name_H-M   'P 1'
_cell_length_a   7.28211848
_cell_length_b   7.44572652
_cell_length_c   10.14902272
_cell_angle_alpha   90.41928304
_cell_angle_beta   87.67293942
_cell_angle_gamma   88.81768091
_symmetry_Int_Tables_number   1
_chemical_formula_structural   Rb2CaCo3F12
_chemical_formula_sum   'Rb4 Ca2 Co6 F24'
_cell_volume   549.69755133
_cell_formula_units_Z   2
loop_
 _symmetry_equiv_pos_site_id
 _symmetry_equiv_pos_as_xyz
  1  'x, y, z'
loop_
 _atom_site_type_symbol
 _atom_site_label
 _atom_site_symmetry_multiplicity
 _atom_site_fract_x
 _atom_site_fract_y
 _atom_site_fract_z
 _atom_site_occupancy
  Rb  Rb0  1  0.510687  0.746905  0.610591  1
  Rb  Rb1  1  0.489313  0.253095  0.389409  1
  Rb  Rb2  1  0.021187  0.269402  0.137887  1
  Rb  Rb3  1  0.978813  0.730598  0.862113  1
  Ca  Ca4  1  0.715112  0.248448  0.751443  1
  Ca  Ca5  1  0.284888  0.751552  0.248557  1
  Co  Co6  1  0.799897  0.747410  0.220238  1
  Co  Co7  1  0.200103  0.252590  0.779762  1
  Co  Co8  1  0.000000  0.500000  0.500000  1
  Co  Co9  1  0.000000  0.000000  0.500000  1
  Co  Co10  1  0.500000  0.000000  0.000000  1
  Co  Co11  1  0.500000  0.500000  0.000000  1
  F  F12  1  0.040533  0.721245  0.123933  1
  F  F13  1  0.959467  0.278755  0.876067  1
  F  F14  1  0.569363  0.763921  0.326001  1
  F  F15  1  0.430637  0.236079  0.673999  1
  F  F16  1  0.770966  0.439195  0.574414  1
  F  F17  1  0.229034  0.560805  0.425586  1
  F  F18  1  0.757146  0.057893  0.551146  1
  F  F19  1  0.242854  0.942107  0.448854  1
  F  F20  1  0.635510  0.965074  0.839436  1
  F  F21  1  0.364490  0.034926  0.160564  1
  F  F22  1  0.623067  0.536260  0.836205  1
  F  F23  1  0.376933  0.463740  0.163795  1
  F  F24  1  0.584650  0.258610  0.982249  1
  F  F25  1  0.415350  0.741390  0.017751  1
  F  F26  1  0.285473  0.447056  0.912285  1
  F  F27  1  0.714527  0.552944  0.087715  1
  F  F28  1  0.286685  0.054353  0.910046  1
  F  F29  1  0.713315  0.945647  0.089954  1
  F  F30  1  0.062763  0.051482  0.681056  1
  F  F31  1  0.937237  0.948518  0.318944  1
  F  F32  1  0.950168  0.745019  0.555920  1
  F  F33  1  0.049832  0.254981  0.444080  1
  F  F34  1  0.108524  0.461309  0.661608  1
  F  F35  1  0.891476  0.538691  0.338392  1
