# generated using pymatgen
data_Ge2PBrO4
_symmetry_space_group_name_H-M   'P 1'
_cell_length_a   4.97492542
_cell_length_b   4.97492580
_cell_length_c   13.49534600
_cell_angle_alpha   90.00000000
_cell_angle_beta   90.00000000
_cell_angle_gamma   123.58989655
_symmetry_Int_Tables_number   1
_chemical_formula_structural   Ge2PBrO4
_chemical_formula_sum   'Ge4 P2 Br2 O8'
_cell_volume   278.23516302
_cell_formula_units_Z   2
loop_
 _symmetry_equiv_pos_site_id
 _symmetry_equiv_pos_as_xyz
  1  'x, y, z'
loop_
 _atom_site_type_symbol
 _atom_site_label
 _atom_site_symmetry_multiplicity
 _atom_site_fract_x
 _atom_site_fract_y
 _atom_site_fract_z
 _atom_site_occupancy
  Ge  Ge0  1  0.844634  0.252818  0.879363  1
  Ge  Ge1  1  0.252818  0.844634  0.379363  1
  Ge  Ge2  1  0.252818  0.844634  0.120637  1
  Ge  Ge3  1  0.844634  0.252818  0.620637  1
  P  P4  1  0.185614  0.914718  0.750000  1
  P  P5  1  0.914718  0.185614  0.250000  1
  Br  Br6  1  0.440874  0.440874  0.000000  1
  Br  Br7  1  0.440874  0.440874  0.500000  1
  O  O8  1  0.115550  0.710441  0.844645  1
  O  O9  1  0.193688  0.554059  0.250000  1
  O  O10  1  0.994828  0.078462  0.750000  1
  O  O11  1  0.710441  0.115550  0.155355  1
  O  O12  1  0.115550  0.710441  0.655355  1
  O  O13  1  0.710441  0.115550  0.344645  1
  O  O14  1  0.554059  0.193688  0.750000  1
  O  O15  1  0.078462  0.994828  0.250000  1
