# generated using pymatgen
data_DyHo11Co5Hg
_symmetry_space_group_name_H-M   'P 1'
_cell_length_a   8.21273652
_cell_length_b   8.21273575
_cell_length_c   8.21000921
_cell_angle_alpha   107.51871567
_cell_angle_beta   110.13395599
_cell_angle_gamma   110.79226656
_symmetry_Int_Tables_number   1
_chemical_formula_structural   DyHo11Co5Hg
_chemical_formula_sum   'Dy1 Ho11 Co5 Hg1'
_cell_volume   425.82803327
_cell_formula_units_Z   1
loop_
 _symmetry_equiv_pos_site_id
 _symmetry_equiv_pos_as_xyz
  1  'x, y, z'
loop_
 _atom_site_type_symbol
 _atom_site_label
 _atom_site_symmetry_multiplicity
 _atom_site_fract_x
 _atom_site_fract_y
 _atom_site_fract_z
 _atom_site_occupancy
  Dy  Dy0  1  0.807355  0.210020  0.017376  1
  Ho  Ho1  1  0.474886  0.290890  0.184162  1
  Ho  Ho2  1  0.106996  0.291280  0.815459  1
  Ho  Ho3  1  0.893272  0.709275  0.184162  1
  Ho  Ho4  1  0.524179  0.708465  0.815459  1
  Ho  Ho5  1  0.303548  0.619442  0.316328  1
  Ho  Ho6  1  0.302772  0.986895  0.683717  1
  Ho  Ho7  1  0.696825  0.380946  0.683717  1
  Ho  Ho8  1  0.696887  0.012779  0.316328  1
  Ho  Ho9  1  0.193206  0.210248  0.403454  1
  Ho  Ho10  1  0.807297  0.789838  0.597135  1
  Ho  Ho11  1  0.193079  0.789750  0.982828  1
  Co  Co12  1  0.499965  0.614099  0.114065  1
  Co  Co13  1  0.499526  0.386178  0.885705  1
  Co  Co14  1  0.377132  0.000146  0.377278  1
  Co  Co15  1  0.622131  0.999936  0.622067  1
  Co  Co16  1  0.000815  0.999614  0.000428  1
  Hg  Hg17  1  0.000132  0.500199  0.500331  1
