# generated using pymatgen
data_Mo2IrRu3Rh2
_symmetry_space_group_name_H-M   'P 1'
_cell_length_a   5.48847352
_cell_length_b   5.51380176
_cell_length_c   4.38465500
_cell_angle_alpha   90.00000000
_cell_angle_beta   90.00000000
_cell_angle_gamma   119.66384325
_symmetry_Int_Tables_number   1
_chemical_formula_structural   Mo2IrRu3Rh2
_chemical_formula_sum   'Mo2 Ir1 Ru3 Rh2'
_cell_volume   115.30016769
_cell_formula_units_Z   1
loop_
 _symmetry_equiv_pos_site_id
 _symmetry_equiv_pos_as_xyz
  1  'x, y, z'
loop_
 _atom_site_type_symbol
 _atom_site_label
 _atom_site_symmetry_multiplicity
 _atom_site_fract_x
 _atom_site_fract_y
 _atom_site_fract_z
 _atom_site_occupancy
  Mo  Mo0  1  0.666902  0.337259  0.250000  1
  Mo  Mo1  1  0.334638  0.664928  0.750000  1
  Ir  Ir2  1  0.834462  0.168179  0.750000  1
  Ru  Ru3  1  0.831639  0.666427  0.750000  1
  Ru  Ru4  1  0.666764  0.830220  0.250000  1
  Ru  Ru5  1  0.168110  0.332716  0.250000  1
  Rh  Rh6  1  0.330800  0.165656  0.750000  1
  Rh  Rh7  1  0.166687  0.834614  0.250000  1
