# generated using pymatgen
data_TbDy3Ho2Ta2O14
_symmetry_space_group_name_H-M   'P 1'
_cell_length_a   6.49652093
_cell_length_b   6.49647094
_cell_length_c   7.46589402
_cell_angle_alpha   89.98672347
_cell_angle_beta   89.97300154
_cell_angle_gamma   108.49525054
_symmetry_Int_Tables_number   1
_chemical_formula_structural   TbDy3Ho2Ta2O14
_chemical_formula_sum   'Tb1 Dy3 Ho2 Ta2 O14'
_cell_volume   298.81934354
_cell_formula_units_Z   1
loop_
 _symmetry_equiv_pos_site_id
 _symmetry_equiv_pos_as_xyz
  1  'x, y, z'
loop_
 _atom_site_type_symbol
 _atom_site_label
 _atom_site_symmetry_multiplicity
 _atom_site_fract_x
 _atom_site_fract_y
 _atom_site_fract_z
 _atom_site_occupancy
  Tb  Tb0  1  0.463186  0.462654  0.000411  1
  Dy  Dy1  1  0.539246  0.538710  0.499606  1
  Dy  Dy2  1  0.000051  0.464721  0.740422  1
  Dy  Dy3  1  0.535299  0.000026  0.758807  1
  Ho  Ho4  1  0.000321  0.535306  0.240991  1
  Ho  Ho5  1  0.464721  0.999749  0.259774  1
  Ta  Ta6  1  0.002157  0.002270  0.499415  1
  Ta  Ta7  1  0.997806  0.997922  0.000583  1
  O  O8  1  0.931764  0.068177  0.750004  1
  O  O9  1  0.640019  0.359904  0.748964  1
  O  O10  1  0.306842  0.048644  0.544565  1
  O  O11  1  0.950731  0.692677  0.955500  1
  O  O12  1  0.629981  0.370195  0.251287  1
  O  O13  1  0.917151  0.671394  0.523289  1
  O  O14  1  0.328473  0.081993  0.976636  1
  O  O15  1  0.081760  0.328360  0.024949  1
  O  O16  1  0.671496  0.917378  0.475128  1
  O  O17  1  0.370786  0.629375  0.748716  1
  O  O18  1  0.693628  0.953159  0.046714  1
  O  O19  1  0.046216  0.305895  0.453217  1
  O  O20  1  0.358741  0.641173  0.251029  1
  O  O21  1  0.069628  0.930314  0.249995  1
