# generated using pymatgen
data_Dy3ErAl14Ga3SiIr6
_symmetry_space_group_name_H-M   'P 1'
_cell_length_a   7.56020400
_cell_length_b   7.55925406
_cell_length_c   9.38618100
_cell_angle_alpha   90.00000000
_cell_angle_beta   90.00000000
_cell_angle_gamma   119.64286231
_symmetry_Int_Tables_number   1
_chemical_formula_structural   Dy3ErAl14Ga3SiIr6
_chemical_formula_sum   'Dy3 Er1 Al14 Ga3 Si1 Ir6'
_cell_volume   466.21228183
_cell_formula_units_Z   1
loop_
 _symmetry_equiv_pos_site_id
 _symmetry_equiv_pos_as_xyz
  1  'x, y, z'
loop_
 _atom_site_type_symbol
 _atom_site_label
 _atom_site_symmetry_multiplicity
 _atom_site_fract_x
 _atom_site_fract_y
 _atom_site_fract_z
 _atom_site_occupancy
  Dy  Dy0  1  0.004316  0.323878  0.250000  1
  Dy  Dy1  1  0.670053  0.995736  0.750000  1
  Dy  Dy2  1  0.323916  0.004184  0.250000  1
  Er  Er3  1  0.995805  0.670188  0.750000  1
  Al  Al4  1  0.002577  0.334968  0.574801  1
  Al  Al5  1  0.999618  0.662873  0.422946  1
  Al  Al6  1  0.999618  0.662873  0.077054  1
  Al  Al7  1  0.334164  0.002350  0.925402  1
  Al  Al8  1  0.002577  0.334968  0.925199  1
  Al  Al9  1  0.662837  0.999565  0.077605  1
  Al  Al10  1  0.662837  0.999565  0.422395  1
  Al  Al11  1  0.334164  0.002350  0.574598  1
  Al  Al12  1  0.336162  0.336133  0.058572  1
  Al  Al13  1  0.667199  0.666920  0.947683  1
  Al  Al14  1  0.667199  0.666920  0.552317  1
  Al  Al15  1  0.336162  0.336133  0.441428  1
  Al  Al16  1  0.663957  0.450574  0.250000  1
  Al  Al17  1  0.450431  0.663667  0.250000  1
  Ga  Ga18  1  0.125320  0.125002  0.750000  1
  Ga  Ga19  1  0.339573  0.547959  0.750000  1
  Ga  Ga20  1  0.548632  0.340492  0.750000  1
  Si  Si21  1  0.868594  0.868104  0.250000  1
  Ir  Ir22  1  0.673721  0.329686  0.498136  1
  Ir  Ir23  1  0.329570  0.673741  0.498130  1
  Ir  Ir24  1  0.329570  0.673741  0.001870  1
  Ir  Ir25  1  0.673721  0.329686  0.001864  1
  Ir  Ir26  1  0.998857  0.998873  0.491019  1
  Ir  Ir27  1  0.998857  0.998873  0.008981  1
