# generated using pymatgen
data_DyHo3(Si3Ir)2
_symmetry_space_group_name_H-M   'P 1'
_cell_length_a   8.16480300
_cell_length_b   8.16480341
_cell_length_c   7.91200200
_cell_angle_alpha   90.00000000
_cell_angle_beta   90.00000000
_cell_angle_gamma   120.00000239
_symmetry_Int_Tables_number   1
_chemical_formula_structural   DyHo3(Si3Ir)2
_chemical_formula_sum   'Dy2 Ho6 Si12 Ir4'
_cell_volume   456.78144344
_cell_formula_units_Z   2
loop_
 _symmetry_equiv_pos_site_id
 _symmetry_equiv_pos_as_xyz
  1  'x, y, z'
loop_
 _atom_site_type_symbol
 _atom_site_label
 _atom_site_symmetry_multiplicity
 _atom_site_fract_x
 _atom_site_fract_y
 _atom_site_fract_z
 _atom_site_occupancy
  Dy  Dy0  1  0.000000  0.000000  0.250000  1
  Dy  Dy1  1  0.000000  0.000000  0.750000  1
  Ho  Ho2  1  0.509421  0.490579  0.250000  1
  Ho  Ho3  1  0.509421  0.018842  0.250000  1
  Ho  Ho4  1  0.981158  0.490579  0.250000  1
  Ho  Ho5  1  0.490579  0.509421  0.750000  1
  Ho  Ho6  1  0.490579  0.981158  0.750000  1
  Ho  Ho7  1  0.018842  0.509421  0.750000  1
  Si  Si8  1  0.166801  0.833199  0.499462  1
  Si  Si9  1  0.166801  0.333600  0.499462  1
  Si  Si10  1  0.666400  0.833199  0.499462  1
  Si  Si11  1  0.833199  0.166801  0.500538  1
  Si  Si12  1  0.833199  0.666400  0.500538  1
  Si  Si13  1  0.333600  0.166801  0.500538  1
  Si  Si14  1  0.833199  0.166801  0.999462  1
  Si  Si15  1  0.833199  0.666400  0.999462  1
  Si  Si16  1  0.333600  0.166801  0.999462  1
  Si  Si17  1  0.166801  0.833199  0.000538  1
  Si  Si18  1  0.166801  0.333600  0.000538  1
  Si  Si19  1  0.666400  0.833199  0.000538  1
  Ir  Ir20  1  0.333333  0.666667  0.466273  1
  Ir  Ir21  1  0.666667  0.333333  0.533727  1
  Ir  Ir22  1  0.666667  0.333333  0.966273  1
  Ir  Ir23  1  0.333333  0.666667  0.033727  1
