# generated using pymatgen
data_TiNb3Co4BP3
_symmetry_space_group_name_H-M   'P 1'
_cell_length_a   3.52751600
_cell_length_b   6.06292761
_cell_length_c   6.93172458
_cell_angle_alpha   89.83277400
_cell_angle_beta   90.00000000
_cell_angle_gamma   90.00000000
_symmetry_Int_Tables_number   1
_chemical_formula_structural   TiNb3Co4BP3
_chemical_formula_sum   'Ti1 Nb3 Co4 B1 P3'
_cell_volume   148.24867608
_cell_formula_units_Z   1
loop_
 _symmetry_equiv_pos_site_id
 _symmetry_equiv_pos_as_xyz
  1  'x, y, z'
loop_
 _atom_site_type_symbol
 _atom_site_label
 _atom_site_symmetry_multiplicity
 _atom_site_fract_x
 _atom_site_fract_y
 _atom_site_fract_z
 _atom_site_occupancy
  Ti  Ti0  1  0.250000  0.024434  0.821922  1
  Nb  Nb1  1  0.250000  0.533028  0.667886  1
  Nb  Nb2  1  0.750000  0.965583  0.186276  1
  Nb  Nb3  1  0.750000  0.488327  0.326703  1
  Co  Co4  1  0.250000  0.135200  0.439447  1
  Co  Co5  1  0.250000  0.642918  0.062321  1
  Co  Co6  1  0.750000  0.857488  0.555802  1
  Co  Co7  1  0.750000  0.355758  0.937675  1
  B  B8  1  0.250000  0.773672  0.381812  1
  P  P9  1  0.250000  0.270151  0.120845  1
  P  P10  1  0.750000  0.222164  0.621751  1
  P  P11  1  0.750000  0.731277  0.877562  1
