# generated using pymatgen
data_Hf16Ta2Co5Cu
_symmetry_space_group_name_H-M   'P 1'
_cell_length_a   8.62080368
_cell_length_b   8.66854999
_cell_length_c   8.66854900
_cell_angle_alpha   60.43744469
_cell_angle_beta   60.17308225
_cell_angle_gamma   60.17308055
_symmetry_Int_Tables_number   1
_chemical_formula_structural   Hf16Ta2Co5Cu
_chemical_formula_sum   'Hf16 Ta2 Co5 Cu1'
_cell_volume   460.76513407
_cell_formula_units_Z   1
loop_
 _symmetry_equiv_pos_site_id
 _symmetry_equiv_pos_as_xyz
  1  'x, y, z'
loop_
 _atom_site_type_symbol
 _atom_site_label
 _atom_site_symmetry_multiplicity
 _atom_site_fract_x
 _atom_site_fract_y
 _atom_site_fract_z
 _atom_site_occupancy
  Hf  Hf0  1  0.205126  0.598090  0.598090  1
  Hf  Hf1  1  0.598287  0.202517  0.599098  1
  Hf  Hf2  1  0.598287  0.599098  0.202517  1
  Hf  Hf3  1  0.601473  0.598164  0.598164  1
  Hf  Hf4  1  0.815499  0.816712  0.188742  1
  Hf  Hf5  1  0.184925  0.186017  0.815507  1
  Hf  Hf6  1  0.815499  0.188742  0.816712  1
  Hf  Hf7  1  0.184925  0.815507  0.186017  1
  Hf  Hf8  1  0.198754  0.813703  0.813703  1
  Hf  Hf9  1  0.815933  0.185333  0.185333  1
  Hf  Hf10  1  0.449331  0.446577  0.050710  1
  Hf  Hf11  1  0.055391  0.054322  0.443954  1
  Hf  Hf12  1  0.449331  0.050710  0.446577  1
  Hf  Hf13  1  0.055391  0.443954  0.054322  1
  Hf  Hf14  1  0.046640  0.453770  0.453770  1
  Hf  Hf15  1  0.452722  0.044102  0.044102  1
  Ta  Ta16  1  0.827502  0.508630  0.832412  1
  Ta  Ta17  1  0.827502  0.832412  0.508630  1
  Co  Co18  1  0.828966  0.388003  0.388003  1
  Co  Co19  1  0.391444  0.829204  0.386128  1
  Co  Co20  1  0.391444  0.386128  0.829204  1
  Co  Co21  1  0.392133  0.389291  0.389291  1
  Co  Co22  1  0.482754  0.835695  0.835695  1
  Cu  Cu23  1  0.830746  0.833318  0.833318  1
