# generated using pymatgen
data_Sm2Y14Cd4Ni3Os
_symmetry_space_group_name_H-M   'P 1'
_cell_length_a   9.67660596
_cell_length_b   9.67660683
_cell_length_c   9.67674881
_cell_angle_alpha   59.50228021
_cell_angle_beta   59.50226825
_cell_angle_gamma   59.49686075
_symmetry_Int_Tables_number   1
_chemical_formula_structural   Sm2Y14Cd4Ni3Os
_chemical_formula_sum   'Sm2 Y14 Cd4 Ni3 Os1'
_cell_volume   633.42984597
_cell_formula_units_Z   1
loop_
 _symmetry_equiv_pos_site_id
 _symmetry_equiv_pos_as_xyz
  1  'x, y, z'
loop_
 _atom_site_type_symbol
 _atom_site_label
 _atom_site_symmetry_multiplicity
 _atom_site_fract_x
 _atom_site_fract_y
 _atom_site_fract_z
 _atom_site_occupancy
  Sm  Sm0  1  0.597891  0.597891  0.599474  1
  Sm  Sm1  1  0.600569  0.600569  0.203141  1
  Y  Y2  1  0.600661  0.202201  0.600942  1
  Y  Y3  1  0.202201  0.600661  0.600942  1
  Y  Y4  1  0.061287  0.438300  0.437995  1
  Y  Y5  1  0.436885  0.061625  0.061112  1
  Y  Y6  1  0.438300  0.061287  0.437995  1
  Y  Y7  1  0.061625  0.436885  0.061112  1
  Y  Y8  1  0.437652  0.437652  0.061221  1
  Y  Y9  1  0.061185  0.061185  0.437053  1
  Y  Y10  1  0.186104  0.815179  0.815262  1
  Y  Y11  1  0.808088  0.188052  0.187923  1
  Y  Y12  1  0.815179  0.186104  0.815262  1
  Y  Y13  1  0.188052  0.808088  0.187923  1
  Y  Y14  1  0.815409  0.815409  0.185758  1
  Y  Y15  1  0.188475  0.188475  0.807063  1
  Cd  Cd16  1  0.831314  0.831314  0.828870  1
  Cd  Cd17  1  0.831144  0.831144  0.505833  1
  Cd  Cd18  1  0.831429  0.505668  0.830125  1
  Cd  Cd19  1  0.505668  0.831429  0.830125  1
  Ni  Ni20  1  0.391772  0.391772  0.825147  1
  Ni  Ni21  1  0.391231  0.825721  0.392403  1
  Ni  Ni22  1  0.825721  0.391231  0.392403  1
  Os  Os23  1  0.392156  0.392156  0.394916  1
