# generated using pymatgen
data_Zr3Ti(SeO3)8
_symmetry_space_group_name_H-M   'P 1'
_cell_length_a   8.57310382
_cell_length_b   8.57310360
_cell_length_c   8.57310400
_cell_angle_alpha   89.91329879
_cell_angle_beta   90.08670120
_cell_angle_gamma   90.08670533
_symmetry_Int_Tables_number   1
_chemical_formula_structural   Zr3Ti(SeO3)8
_chemical_formula_sum   'Zr3 Ti1 Se8 O24'
_cell_volume   630.10475471
_cell_formula_units_Z   1
loop_
 _symmetry_equiv_pos_site_id
 _symmetry_equiv_pos_as_xyz
  1  'x, y, z'
loop_
 _atom_site_type_symbol
 _atom_site_label
 _atom_site_symmetry_multiplicity
 _atom_site_fract_x
 _atom_site_fract_y
 _atom_site_fract_z
 _atom_site_occupancy
  Zr  Zr0  1  0.500000  0.000000  0.500000  1
  Zr  Zr1  1  0.000000  0.000000  0.000000  1
  Zr  Zr2  1  0.000000  0.500000  0.500000  1
  Ti  Ti3  1  0.500000  0.500000  0.000000  1
  Se  Se4  1  0.814378  0.185622  0.685622  1
  Se  Se5  1  0.185622  0.814378  0.314378  1
  Se  Se6  1  0.686254  0.675758  0.712703  1
  Se  Se7  1  0.212703  0.686254  0.824242  1
  Se  Se8  1  0.324242  0.212703  0.813746  1
  Se  Se9  1  0.787297  0.313746  0.175758  1
  Se  Se10  1  0.675758  0.787297  0.186254  1
  Se  Se11  1  0.313746  0.324242  0.287297  1
  O  O12  1  0.224379  0.440140  0.423962  1
  O  O13  1  0.923962  0.224379  0.059860  1
  O  O14  1  0.029931  0.726827  0.407171  1
  O  O15  1  0.456969  0.279371  0.952016  1
  O  O16  1  0.273173  0.907171  0.470069  1
  O  O17  1  0.547984  0.543031  0.779371  1
  O  O18  1  0.907171  0.029931  0.773173  1
  O  O19  1  0.543031  0.720629  0.047984  1
  O  O20  1  0.559860  0.923962  0.275621  1
  O  O21  1  0.440140  0.076038  0.724379  1
  O  O22  1  0.785443  0.907553  0.070676  1
  O  O23  1  0.279371  0.547984  0.956969  1
  O  O24  1  0.092447  0.570676  0.714557  1
  O  O25  1  0.092829  0.970069  0.226827  1
  O  O26  1  0.214557  0.092447  0.929324  1
  O  O27  1  0.452016  0.456969  0.220629  1
  O  O28  1  0.775621  0.559860  0.576038  1
  O  O29  1  0.907553  0.429324  0.285443  1
  O  O30  1  0.076038  0.775621  0.940140  1
  O  O31  1  0.429324  0.214557  0.407553  1
  O  O32  1  0.570676  0.785443  0.592447  1
  O  O33  1  0.970069  0.273173  0.592829  1
  O  O34  1  0.726827  0.092829  0.529931  1
  O  O35  1  0.720629  0.452016  0.043031  1
