# generated using pymatgen
data_Ca3Er(TcB4)4
_symmetry_space_group_name_H-M   'P 1'
_cell_length_a   3.57012600
_cell_length_b   5.99584085
_cell_length_c   11.59315523
_cell_angle_alpha   89.93847944
_cell_angle_beta   90.00000000
_cell_angle_gamma   90.00000000
_symmetry_Int_Tables_number   1
_chemical_formula_structural   Ca3Er(TcB4)4
_chemical_formula_sum   'Ca3 Er1 Tc4 B16'
_cell_volume   248.16186329
_cell_formula_units_Z   1
loop_
 _symmetry_equiv_pos_site_id
 _symmetry_equiv_pos_as_xyz
  1  'x, y, z'
loop_
 _atom_site_type_symbol
 _atom_site_label
 _atom_site_symmetry_multiplicity
 _atom_site_fract_x
 _atom_site_fract_y
 _atom_site_fract_z
 _atom_site_occupancy
  Ca  Ca0  1  0.500000  0.872067  0.150315  1
  Ca  Ca1  1  0.500000  0.126963  0.850520  1
  Ca  Ca2  1  0.500000  0.372007  0.348351  1
  Er  Er3  1  0.500000  0.628595  0.650780  1
  Tc  Tc4  1  0.500000  0.868766  0.418180  1
  Tc  Tc5  1  0.500000  0.129444  0.584712  1
  Tc  Tc6  1  0.500000  0.369844  0.082458  1
  Tc  Tc7  1  0.500000  0.628987  0.915530  1
  B  B8  1  0.000000  0.523045  0.192278  1
  B  B9  1  0.000000  0.477230  0.806591  1
  B  B10  1  0.000000  0.022816  0.307874  1
  B  B11  1  0.000000  0.975597  0.692788  1
  B  B12  1  0.000000  0.614051  0.046539  1
  B  B13  1  0.000000  0.386796  0.952001  1
  B  B14  1  0.000000  0.114093  0.453037  1
  B  B15  1  0.000000  0.887130  0.548137  1
  B  B16  1  0.000000  0.635304  0.469017  1
  B  B17  1  0.000000  0.365104  0.532430  1
  B  B18  1  0.000000  0.134788  0.031870  1
  B  B19  1  0.000000  0.865326  0.967415  1
  B  B20  1  0.000000  0.715988  0.315305  1
  B  B21  1  0.000000  0.285952  0.684780  1
  B  B22  1  0.000000  0.215124  0.184518  1
  B  B23  1  0.000000  0.784984  0.814574  1
