# generated using pymatgen
data_SmPt2Au3
_symmetry_space_group_name_H-M   'P 1'
_cell_length_a   5.46924889
_cell_length_b   5.46924863
_cell_length_c   5.46924885
_cell_angle_alpha   119.91407874
_cell_angle_beta   119.29967394
_cell_angle_gamma   90.68308232
_symmetry_Int_Tables_number   1
_chemical_formula_structural   SmPt2Au3
_chemical_formula_sum   'Sm1 Pt2 Au3'
_cell_volume   116.35691985
_cell_formula_units_Z   1
loop_
 _symmetry_equiv_pos_site_id
 _symmetry_equiv_pos_as_xyz
  1  'x, y, z'
loop_
 _atom_site_type_symbol
 _atom_site_label
 _atom_site_symmetry_multiplicity
 _atom_site_fract_x
 _atom_site_fract_y
 _atom_site_fract_z
 _atom_site_occupancy
  Sm  Sm0  1  0.006371  0.006371  0.000000  1
  Pt  Pt1  1  0.622706  0.374080  0.248626  1
  Pt  Pt2  1  0.125454  0.374080  0.751374  1
  Au  Au3  1  0.623229  0.373783  0.750554  1
  Au  Au4  1  0.623229  0.872676  0.249446  1
  Au  Au5  1  0.249011  0.749011  0.500000  1
