# generated using pymatgen
data_Nd6NiRhBr6
_symmetry_space_group_name_H-M   'P 1'
_cell_length_a   10.36728581
_cell_length_b   10.36728595
_cell_length_c   10.40465376
_cell_angle_alpha   109.36841956
_cell_angle_beta   109.36841806
_cell_angle_gamma   109.53161341
_symmetry_Int_Tables_number   1
_chemical_formula_structural   Nd6NiRhBr6
_chemical_formula_sum   'Nd12 Ni2 Rh2 Br12'
_cell_volume   862.40421967
_cell_formula_units_Z   2
loop_
 _symmetry_equiv_pos_site_id
 _symmetry_equiv_pos_as_xyz
  1  'x, y, z'
loop_
 _atom_site_type_symbol
 _atom_site_label
 _atom_site_symmetry_multiplicity
 _atom_site_fract_x
 _atom_site_fract_y
 _atom_site_fract_z
 _atom_site_occupancy
  Nd  Nd0  1  0.468212  0.485100  0.232742  1
  Nd  Nd1  1  0.752358  0.235471  0.267258  1
  Nd  Nd2  1  0.754126  0.017206  0.485702  1
  Nd  Nd3  1  0.231576  0.468494  0.485702  1
  Nd  Nd4  1  0.264529  0.747642  0.232742  1
  Nd  Nd5  1  0.031506  0.268424  0.014298  1
  Nd  Nd6  1  0.014900  0.031788  0.267258  1
  Nd  Nd7  1  0.482794  0.745874  0.014298  1
  Nd  Nd8  1  0.486290  0.236290  0.472579  1
  Nd  Nd9  1  0.017610  0.482390  0.750000  1
  Nd  Nd10  1  0.263710  0.013710  0.027421  1
  Nd  Nd11  1  0.232390  0.267610  0.750000  1
  Ni  Ni12  1  0.999658  0.249658  0.499316  1
  Ni  Ni13  1  0.250342  0.500342  0.000684  1
  Rh  Rh14  1  0.250082  0.249918  0.250000  1
  Rh  Rh15  1  0.499918  0.000082  0.250000  1
  Br  Br16  1  0.250117  0.754947  0.743012  1
  Br  Br17  1  0.511935  0.507104  0.756988  1
  Br  Br18  1  0.988260  0.742171  0.992927  1
  Br  Br19  1  0.745053  0.249883  0.756988  1
  Br  Br20  1  0.992896  0.988065  0.743012  1
  Br  Br21  1  0.249244  0.995332  0.507073  1
  Br  Br22  1  0.757829  0.511740  0.507073  1
  Br  Br23  1  0.504668  0.250756  0.992927  1
  Br  Br24  1  0.756305  0.743695  0.250000  1
  Br  Br25  1  0.744500  0.994500  0.988999  1
  Br  Br26  1  0.993695  0.506305  0.250000  1
  Br  Br27  1  0.505500  0.755500  0.511001  1
