# generated using pymatgen
data_CaY4ErCo16(P6W)2
_symmetry_space_group_name_H-M   'P 1'
_cell_length_a   3.71862500
_cell_length_b   10.54735863
_cell_length_c   12.24160300
_cell_angle_alpha   89.95952438
_cell_angle_beta   90.00000000
_cell_angle_gamma   90.00000000
_symmetry_Int_Tables_number   1
_chemical_formula_structural   CaY4ErCo16(P6W)2
_chemical_formula_sum   'Ca1 Y4 Er1 Co16 P12 W2'
_cell_volume   480.13601160
_cell_formula_units_Z   1
loop_
 _symmetry_equiv_pos_site_id
 _symmetry_equiv_pos_as_xyz
  1  'x, y, z'
loop_
 _atom_site_type_symbol
 _atom_site_label
 _atom_site_symmetry_multiplicity
 _atom_site_fract_x
 _atom_site_fract_y
 _atom_site_fract_z
 _atom_site_occupancy
  Ca  Ca0  1  0.000000  0.499733  0.523748  1
  Y  Y1  1  0.500000  0.999974  0.475730  1
  Y  Y2  1  0.500000  0.180574  0.204619  1
  Y  Y3  1  0.000000  0.680689  0.794925  1
  Y  Y4  1  0.000000  0.319472  0.795412  1
  Er  Er5  1  0.500000  0.819413  0.204451  1
  Co  Co6  1  0.500000  0.500117  0.701717  1
  Co  Co7  1  0.000000  0.999119  0.299172  1
  Co  Co8  1  0.000000  0.500991  0.987204  1
  Co  Co9  1  0.500000  0.999007  0.013401  1
  Co  Co10  1  0.500000  0.332924  0.990658  1
  Co  Co11  1  0.500000  0.668004  0.990872  1
  Co  Co12  1  0.000000  0.166874  0.010047  1
  Co  Co13  1  0.000000  0.832448  0.010330  1
  Co  Co14  1  0.500000  0.294575  0.430853  1
  Co  Co15  1  0.500000  0.705456  0.430103  1
  Co  Co16  1  0.000000  0.203550  0.568656  1
  Co  Co17  1  0.000000  0.796352  0.568125  1
  Co  Co18  1  0.500000  0.878700  0.707345  1
  Co  Co19  1  0.500000  0.121234  0.707791  1
  Co  Co20  1  0.000000  0.622232  0.291494  1
  Co  Co21  1  0.000000  0.378609  0.292109  1
  P  P22  1  0.500000  0.500231  0.881170  1
  P  P23  1  0.000000  0.999285  0.119761  1
  P  P24  1  0.500000  0.499601  0.349103  1
  P  P25  1  0.000000  0.999984  0.650488  1
  P  P26  1  0.500000  0.309812  0.616114  1
  P  P27  1  0.500000  0.690242  0.615662  1
  P  P28  1  0.000000  0.189484  0.384262  1
  P  P29  1  0.000000  0.810321  0.383251  1
  P  P30  1  0.500000  0.844623  0.892610  1
  P  P31  1  0.500000  0.155407  0.893496  1
  P  P32  1  0.000000  0.656159  0.108028  1
  P  P33  1  0.000000  0.344601  0.107048  1
  W  W34  1  0.500000  0.500227  0.156001  1
  W  W35  1  0.000000  0.999975  0.844243  1
