# generated using pymatgen
data_Na4ScCr3(P3Ir4)4
_symmetry_space_group_name_H-M   'P 1'
_cell_length_a   12.61752900
_cell_length_b   12.61752869
_cell_length_c   3.93734200
_cell_angle_alpha   90.00000000
_cell_angle_beta   90.00000000
_cell_angle_gamma   119.99999889
_symmetry_Int_Tables_number   1
_chemical_formula_structural   Na4ScCr3(P3Ir4)4
_chemical_formula_sum   'Na4 Sc1 Cr3 P12 Ir16'
_cell_volume   542.85318288
_cell_formula_units_Z   1
loop_
 _symmetry_equiv_pos_site_id
 _symmetry_equiv_pos_as_xyz
  1  'x, y, z'
loop_
 _atom_site_type_symbol
 _atom_site_label
 _atom_site_symmetry_multiplicity
 _atom_site_fract_x
 _atom_site_fract_y
 _atom_site_fract_z
 _atom_site_occupancy
  Na  Na0  1  0.333333  0.666667  0.000000  1
  Na  Na1  1  0.818475  0.999511  0.500000  1
  Na  Na2  1  0.000489  0.818965  0.500000  1
  Na  Na3  1  0.181035  0.181525  0.500000  1
  Sc  Sc4  1  0.666667  0.333333  0.000000  1
  Cr  Cr5  1  0.455277  0.004338  0.000000  1
  Cr  Cr6  1  0.995662  0.450939  0.000000  1
  Cr  Cr7  1  0.549061  0.544723  0.000000  1
  P  P8  1  0.179171  0.000394  0.000000  1
  P  P9  1  0.999606  0.178777  0.000000  1
  P  P10  1  0.821223  0.820829  0.000000  1
  P  P11  1  0.170605  0.484571  0.500000  1
  P  P12  1  0.515429  0.686033  0.500000  1
  P  P13  1  0.313967  0.829395  0.500000  1
  P  P14  1  0.690459  0.518554  0.500000  1
  P  P15  1  0.828094  0.309541  0.500000  1
  P  P16  1  0.481446  0.171906  0.500000  1
  P  P17  1  0.633524  0.996864  0.000000  1
  P  P18  1  0.003136  0.636659  0.000000  1
  P  P19  1  0.363341  0.366476  0.000000  1
  Ir  Ir20  1  0.361538  0.487081  0.500000  1
  Ir  Ir21  1  0.512919  0.874457  0.500000  1
  Ir  Ir22  1  0.125543  0.638462  0.500000  1
  Ir  Ir23  1  0.865338  0.501522  0.500000  1
  Ir  Ir24  1  0.636182  0.134662  0.500000  1
  Ir  Ir25  1  0.498478  0.363818  0.500000  1
  Ir  Ir26  1  0.178939  0.379274  0.000000  1
  Ir  Ir27  1  0.620726  0.799667  0.000000  1
  Ir  Ir28  1  0.200333  0.821061  0.000000  1
  Ir  Ir29  1  0.805679  0.621888  0.000000  1
  Ir  Ir30  1  0.816210  0.194321  0.000000  1
  Ir  Ir31  1  0.378112  0.183790  0.000000  1
  Ir  Ir32  1  0.285979  0.000993  0.500000  1
  Ir  Ir33  1  0.999007  0.284986  0.500000  1
  Ir  Ir34  1  0.715014  0.714021  0.500000  1
  Ir  Ir35  1  0.000000  0.000000  0.000000  1
