# generated using pymatgen
data_DyTm3BBr6
_symmetry_space_group_name_H-M   'P 1'
_cell_length_a   3.91160400
_cell_length_b   13.03000882
_cell_length_c   13.49003500
_cell_angle_alpha   89.95070719
_cell_angle_beta   90.00000000
_cell_angle_gamma   90.00000000
_symmetry_Int_Tables_number   1
_chemical_formula_structural   DyTm3BBr6
_chemical_formula_sum   'Dy2 Tm6 B2 Br12'
_cell_volume   687.56301458
_cell_formula_units_Z   2
loop_
 _symmetry_equiv_pos_site_id
 _symmetry_equiv_pos_as_xyz
  1  'x, y, z'
loop_
 _atom_site_type_symbol
 _atom_site_label
 _atom_site_symmetry_multiplicity
 _atom_site_fract_x
 _atom_site_fract_y
 _atom_site_fract_z
 _atom_site_occupancy
  Dy  Dy0  1  0.500000  0.623010  0.644627  1
  Dy  Dy1  1  0.500000  0.376990  0.355373  1
  Tm  Tm2  1  0.000000  0.100165  0.079610  1
  Tm  Tm3  1  0.000000  0.899835  0.920390  1
  Tm  Tm4  1  0.000000  0.600491  0.420051  1
  Tm  Tm5  1  0.000000  0.399509  0.579949  1
  Tm  Tm6  1  0.500000  0.121817  0.856813  1
  Tm  Tm7  1  0.500000  0.878183  0.143187  1
  B  B8  1  0.500000  0.000000  0.000000  1
  B  B9  1  0.500000  0.500000  0.500000  1
  Br  Br10  1  0.500000  0.268275  0.682534  1
  Br  Br11  1  0.500000  0.731725  0.317466  1
  Br  Br12  1  0.500000  0.769643  0.819076  1
  Br  Br13  1  0.500000  0.230357  0.180924  1
  Br  Br14  1  0.000000  0.260401  0.930924  1
  Br  Br15  1  0.000000  0.739599  0.069076  1
  Br  Br16  1  0.000000  0.482522  0.237774  1
  Br  Br17  1  0.000000  0.517478  0.762226  1
  Br  Br18  1  0.000000  0.980046  0.260343  1
  Br  Br19  1  0.000000  0.019954  0.739657  1
  Br  Br20  1  0.000000  0.237364  0.432820  1
  Br  Br21  1  0.000000  0.762636  0.567180  1
