# generated using pymatgen
data_Ho20Ir10PtAu
_symmetry_space_group_name_H-M   'P 1'
_cell_length_a   10.93062812
_cell_length_b   10.93062827
_cell_length_c   6.32262006
_cell_angle_alpha   89.96200220
_cell_angle_beta   89.96199841
_cell_angle_gamma   89.31626131
_symmetry_Int_Tables_number   1
_chemical_formula_structural   Ho20Ir10PtAu
_chemical_formula_sum   'Ho20 Ir10 Pt1 Au1'
_cell_volume   755.36388285
_cell_formula_units_Z   1
loop_
 _symmetry_equiv_pos_site_id
 _symmetry_equiv_pos_as_xyz
  1  'x, y, z'
loop_
 _atom_site_type_symbol
 _atom_site_label
 _atom_site_symmetry_multiplicity
 _atom_site_fract_x
 _atom_site_fract_y
 _atom_site_fract_z
 _atom_site_occupancy
  Ho  Ho0  1  0.290054  0.087965  0.376230  1
  Ho  Ho1  1  0.293069  0.911205  0.875483  1
  Ho  Ho2  1  0.703710  0.080181  0.865786  1
  Ho  Ho3  1  0.705256  0.904073  0.379739  1
  Ho  Ho4  1  0.587957  0.790196  0.878274  1
  Ho  Ho5  1  0.577263  0.207596  0.373807  1
  Ho  Ho6  1  0.410858  0.791588  0.376642  1
  Ho  Ho7  1  0.406895  0.206886  0.879044  1
  Ho  Ho8  1  0.209804  0.412043  0.621726  1
  Ho  Ho9  1  0.208412  0.589142  0.123358  1
  Ho  Ho10  1  0.792404  0.422737  0.126193  1
  Ho  Ho11  1  0.793114  0.593105  0.620956  1
  Ho  Ho12  1  0.912035  0.709946  0.123770  1
  Ho  Ho13  1  0.919819  0.296290  0.634214  1
  Ho  Ho14  1  0.088795  0.706931  0.624517  1
  Ho  Ho15  1  0.095927  0.294744  0.120261  1
  Ho  Ho16  1  0.003420  0.995400  0.501077  1
  Ho  Ho17  1  0.004600  0.996580  0.998923  1
  Ho  Ho18  1  0.497270  0.500677  0.999386  1
  Ho  Ho19  1  0.499323  0.502730  0.500614  1
  Ir  Ir20  1  0.846728  0.848497  0.749945  1
  Ir  Ir21  1  0.151503  0.153272  0.750055  1
  Ir  Ir22  1  0.155514  0.844486  0.250000  1
  Ir  Ir23  1  0.653659  0.651552  0.248785  1
  Ir  Ir24  1  0.348448  0.346341  0.251215  1
  Ir  Ir25  1  0.345656  0.654344  0.750000  1
  Ir  Ir26  1  0.500732  0.000192  0.124343  1
  Ir  Ir27  1  0.499751  0.000678  0.621996  1
  Ir  Ir28  1  0.999322  0.500249  0.878004  1
  Ir  Ir29  1  0.999808  0.499268  0.375657  1
  Pt  Pt30  1  0.655667  0.344333  0.750000  1
  Au  Au31  1  0.843224  0.156776  0.250000  1
