# generated using pymatgen
data_NdPa5Mn3(Co5P4)3
_symmetry_space_group_name_H-M   'P 1'
_cell_length_a   3.76509400
_cell_length_b   10.49222000
_cell_length_c   12.27716300
_cell_angle_alpha   90.00000000
_cell_angle_beta   90.00000000
_cell_angle_gamma   90.00000000
_symmetry_Int_Tables_number   1
_chemical_formula_structural   NdPa5Mn3(Co5P4)3
_chemical_formula_sum   'Nd1 Pa5 Mn3 Co15 P12'
_cell_volume   484.99943590
_cell_formula_units_Z   1
loop_
 _symmetry_equiv_pos_site_id
 _symmetry_equiv_pos_as_xyz
  1  'x, y, z'
loop_
 _atom_site_type_symbol
 _atom_site_label
 _atom_site_symmetry_multiplicity
 _atom_site_fract_x
 _atom_site_fract_y
 _atom_site_fract_z
 _atom_site_occupancy
  Nd  Nd0  1  0.500000  0.000000  0.481319  1
  Pa  Pa1  1  0.000000  0.500000  0.520713  1
  Pa  Pa2  1  0.500000  0.819019  0.207977  1
  Pa  Pa3  1  0.500000  0.180981  0.207977  1
  Pa  Pa4  1  0.000000  0.679803  0.793743  1
  Pa  Pa5  1  0.000000  0.320197  0.793743  1
  Mn  Mn6  1  0.500000  0.500000  0.152302  1
  Mn  Mn7  1  0.000000  0.000000  0.845169  1
  Mn  Mn8  1  0.000000  0.500000  0.985144  1
  Co  Co9  1  0.500000  0.500000  0.701305  1
  Co  Co10  1  0.000000  0.000000  0.290658  1
  Co  Co11  1  0.500000  0.000000  0.016461  1
  Co  Co12  1  0.500000  0.330723  0.993526  1
  Co  Co13  1  0.500000  0.669277  0.993526  1
  Co  Co14  1  0.000000  0.166996  0.005674  1
  Co  Co15  1  0.000000  0.833004  0.005674  1
  Co  Co16  1  0.500000  0.306311  0.427865  1
  Co  Co17  1  0.500000  0.693689  0.427865  1
  Co  Co18  1  0.000000  0.204633  0.573463  1
  Co  Co19  1  0.000000  0.795367  0.573463  1
  Co  Co20  1  0.500000  0.875020  0.716378  1
  Co  Co21  1  0.500000  0.124980  0.716378  1
  Co  Co22  1  0.000000  0.623291  0.286054  1
  Co  Co23  1  0.000000  0.376709  0.286054  1
  P  P24  1  0.500000  0.500000  0.884358  1
  P  P25  1  0.000000  0.000000  0.113862  1
  P  P26  1  0.500000  0.500000  0.336726  1
  P  P27  1  0.000000  0.000000  0.661685  1
  P  P28  1  0.500000  0.309654  0.613137  1
  P  P29  1  0.500000  0.690346  0.613137  1
  P  P30  1  0.000000  0.191133  0.387400  1
  P  P31  1  0.000000  0.808867  0.387400  1
  P  P32  1  0.500000  0.848391  0.895774  1
  P  P33  1  0.500000  0.151609  0.895774  1
  P  P34  1  0.000000  0.652345  0.104157  1
  P  P35  1  0.000000  0.347655  0.104157  1
