# generated using pymatgen
data_Sm2HoBe2(PPd5)4
_symmetry_space_group_name_H-M   'P 1'
_cell_length_a   8.70035681
_cell_length_b   8.62180908
_cell_length_c   8.62180864
_cell_angle_alpha   60.60365481
_cell_angle_beta   59.69816628
_cell_angle_gamma   59.69817409
_symmetry_Int_Tables_number   1
_chemical_formula_structural   Sm2HoBe2(PPd5)4
_chemical_formula_sum   'Sm2 Ho1 Be2 P4 Pd20'
_cell_volume   457.24195120
_cell_formula_units_Z   1
loop_
 _symmetry_equiv_pos_site_id
 _symmetry_equiv_pos_as_xyz
  1  'x, y, z'
loop_
 _atom_site_type_symbol
 _atom_site_label
 _atom_site_symmetry_multiplicity
 _atom_site_fract_x
 _atom_site_fract_y
 _atom_site_fract_z
 _atom_site_occupancy
  Sm  Sm0  1  0.250000  0.250000  0.250000  1
  Sm  Sm1  1  0.750000  0.750000  0.750000  1
  Ho  Ho2  1  0.000000  0.000000  0.000000  1
  Be  Be3  1  0.733337  0.266663  0.266663  1
  Be  Be4  1  0.266663  0.733337  0.733337  1
  P  P5  1  0.266059  0.733941  0.266059  1
  P  P6  1  0.733941  0.266059  0.733941  1
  P  P7  1  0.266059  0.266059  0.733941  1
  P  P8  1  0.733941  0.733941  0.266059  1
  Pd  Pd9  1  0.388444  0.383172  0.383172  1
  Pd  Pd10  1  0.611556  0.616828  0.616828  1
  Pd  Pd11  1  0.383172  0.388444  0.845214  1
  Pd  Pd12  1  0.383172  0.845214  0.388444  1
  Pd  Pd13  1  0.616828  0.611556  0.154786  1
  Pd  Pd14  1  0.616828  0.154786  0.611556  1
  Pd  Pd15  1  0.845214  0.383172  0.383172  1
  Pd  Pd16  1  0.154786  0.616828  0.616828  1
  Pd  Pd17  1  0.344080  0.000000  0.000000  1
  Pd  Pd18  1  0.655920  0.000000  0.000000  1
  Pd  Pd19  1  0.000000  0.344080  0.655920  1
  Pd  Pd20  1  0.000000  0.655920  0.344080  1
  Pd  Pd21  1  0.997112  0.343207  0.002888  1
  Pd  Pd22  1  0.656793  0.002888  0.343207  1
  Pd  Pd23  1  0.002888  0.656793  0.997112  1
  Pd  Pd24  1  0.343207  0.997112  0.656793  1
  Pd  Pd25  1  0.997112  0.002888  0.343207  1
  Pd  Pd26  1  0.002888  0.997112  0.656793  1
  Pd  Pd27  1  0.656793  0.343207  0.002888  1
  Pd  Pd28  1  0.343207  0.656793  0.997112  1
