# generated using pymatgen
data_HfNi4Au
_symmetry_space_group_name_H-M   'P 1'
_cell_length_a   4.82058605
_cell_length_b   4.82058621
_cell_length_c   4.82058600
_cell_angle_alpha   60.00000143
_cell_angle_beta   60.00000037
_cell_angle_gamma   59.99999339
_symmetry_Int_Tables_number   1
_chemical_formula_structural   HfNi4Au
_chemical_formula_sum   'Hf1 Ni4 Au1'
_cell_volume   79.21082117
_cell_formula_units_Z   1
loop_
 _symmetry_equiv_pos_site_id
 _symmetry_equiv_pos_as_xyz
  1  'x, y, z'
loop_
 _atom_site_type_symbol
 _atom_site_label
 _atom_site_symmetry_multiplicity
 _atom_site_fract_x
 _atom_site_fract_y
 _atom_site_fract_z
 _atom_site_occupancy
  Hf  Hf0  1  0.250000  0.250000  0.250000  1
  Ni  Ni1  1  0.625241  0.625241  0.625241  1
  Ni  Ni2  1  0.124278  0.625241  0.625241  1
  Ni  Ni3  1  0.625241  0.124278  0.625241  1
  Ni  Ni4  1  0.625241  0.625241  0.124278  1
  Au  Au5  1  0.000000  0.000000  0.000000  1
