# generated using pymatgen
data_LiSc4Co16(P4Rh)3
_symmetry_space_group_name_H-M   'P 1'
_cell_length_a   3.63212700
_cell_length_b   10.24164178
_cell_length_c   11.75303155
_cell_angle_alpha   89.87864152
_cell_angle_beta   90.00000000
_cell_angle_gamma   90.00000000
_symmetry_Int_Tables_number   1
_chemical_formula_structural   LiSc4Co16(P4Rh)3
_chemical_formula_sum   'Li1 Sc4 Co16 P12 Rh3'
_cell_volume   437.19937740
_cell_formula_units_Z   1
loop_
 _symmetry_equiv_pos_site_id
 _symmetry_equiv_pos_as_xyz
  1  'x, y, z'
loop_
 _atom_site_type_symbol
 _atom_site_label
 _atom_site_symmetry_multiplicity
 _atom_site_fract_x
 _atom_site_fract_y
 _atom_site_fract_z
 _atom_site_occupancy
  Li  Li0  1  0.250000  0.706003  0.990842  1
  Sc  Sc1  1  0.250000  0.582503  0.704229  1
  Sc  Sc2  1  0.250000  0.916928  0.205215  1
  Sc  Sc3  1  0.750000  0.418202  0.296253  1
  Sc  Sc4  1  0.750000  0.078780  0.797494  1
  Co  Co5  1  0.250000  0.410309  0.484593  1
  Co  Co6  1  0.250000  0.091151  0.984238  1
  Co  Co7  1  0.750000  0.590667  0.516986  1
  Co  Co8  1  0.750000  0.907264  0.016580  1
  Co  Co9  1  0.250000  0.224706  0.175993  1
  Co  Co10  1  0.250000  0.278037  0.676274  1
  Co  Co11  1  0.750000  0.779858  0.823333  1
  Co  Co12  1  0.750000  0.720598  0.325567  1
  Co  Co13  1  0.250000  0.885793  0.702320  1
  Co  Co14  1  0.250000  0.619758  0.200891  1
  Co  Co15  1  0.750000  0.114928  0.295335  1
  Co  Co16  1  0.750000  0.384337  0.797942  1
  Co  Co17  1  0.250000  0.464902  0.930361  1
  Co  Co18  1  0.250000  0.036066  0.428254  1
  Co  Co19  1  0.750000  0.537907  0.068223  1
  Co  Co20  1  0.750000  0.964458  0.570114  1
  P  P21  1  0.250000  0.425452  0.115774  1
  P  P22  1  0.250000  0.078473  0.614859  1
  P  P23  1  0.750000  0.579166  0.882353  1
  P  P24  1  0.750000  0.921519  0.384465  1
  P  P25  1  0.250000  0.264715  0.863355  1
  P  P26  1  0.250000  0.234930  0.363230  1
  P  P27  1  0.750000  0.736079  0.137672  1
  P  P28  1  0.750000  0.766402  0.636901  1
  P  P29  1  0.250000  0.592818  0.387041  1
  P  P30  1  0.250000  0.901293  0.890726  1
  P  P31  1  0.750000  0.407041  0.613080  1
  P  P32  1  0.750000  0.092177  0.110485  1
  Rh  Rh33  1  0.250000  0.781341  0.492750  1
  Rh  Rh34  1  0.750000  0.286278  0.009938  1
  Rh  Rh35  1  0.750000  0.219163  0.506334  1
