# generated using pymatgen
data_Y9ErInSb5
_symmetry_space_group_name_H-M   'P 1'
_cell_length_a   6.40399412
_cell_length_b   9.00035985
_cell_length_c   8.99448429
_cell_angle_alpha   120.04041509
_cell_angle_beta   90.01643630
_cell_angle_gamma   90.00422608
_symmetry_Int_Tables_number   1
_chemical_formula_structural   Y9ErInSb5
_chemical_formula_sum   'Y9 Er1 In1 Sb5'
_cell_volume   448.78740027
_cell_formula_units_Z   1
loop_
 _symmetry_equiv_pos_site_id
 _symmetry_equiv_pos_as_xyz
  1  'x, y, z'
loop_
 _atom_site_type_symbol
 _atom_site_label
 _atom_site_symmetry_multiplicity
 _atom_site_fract_x
 _atom_site_fract_y
 _atom_site_fract_z
 _atom_site_occupancy
  Y  Y0  1  0.499091  0.666181  0.331909  1
  Y  Y1  1  0.000859  0.666127  0.331768  1
  Y  Y2  1  0.000841  0.334343  0.668163  1
  Y  Y3  1  0.749933  0.244573  0.999909  1
  Y  Y4  1  0.749933  0.753769  0.757290  1
  Y  Y5  1  0.749899  0.996615  0.242735  1
  Y  Y6  1  0.250146  0.756698  0.999862  1
  Y  Y7  1  0.250101  0.247011  0.245193  1
  Y  Y8  1  0.250029  0.001862  0.754816  1
  Er  Er9  1  0.499311  0.334609  0.668406  1
  In  In10  1  0.749406  0.606135  0.999479  1
  Sb  Sb11  1  0.749523  0.388443  0.389723  1
  Sb  Sb12  1  0.749576  0.999691  0.610739  1
  Sb  Sb13  1  0.250492  0.390870  0.999504  1
  Sb  Sb14  1  0.250420  0.611484  0.610813  1
  Sb  Sb15  1  0.250448  0.001589  0.389691  1
