# generated using pymatgen
data_Y5Ho3Mg2(SiB4)4
_symmetry_space_group_name_H-M   'P 1'
_cell_length_a   7.16831810
_cell_length_b   7.16831810
_cell_length_c   7.83903201
_cell_angle_alpha   89.99701404
_cell_angle_beta   89.99701404
_cell_angle_gamma   89.98121660
_symmetry_Int_Tables_number   1
_chemical_formula_structural   Y5Ho3Mg2(SiB4)4
_chemical_formula_sum   'Y5 Ho3 Mg2 Si4 B16'
_cell_volume   402.80694648
_cell_formula_units_Z   1
loop_
 _symmetry_equiv_pos_site_id
 _symmetry_equiv_pos_as_xyz
  1  'x, y, z'
loop_
 _atom_site_type_symbol
 _atom_site_label
 _atom_site_symmetry_multiplicity
 _atom_site_fract_x
 _atom_site_fract_y
 _atom_site_fract_z
 _atom_site_occupancy
  Y  Y0  1  0.817120  0.682951  0.233889  1
  Y  Y1  1  0.817098  0.682934  0.766083  1
  Y  Y2  1  0.682810  0.182810  0.766028  1
  Y  Y3  1  0.182934  0.317098  0.766083  1
  Y  Y4  1  0.182951  0.317120  0.233889  1
  Ho  Ho5  1  0.682793  0.182793  0.232910  1
  Ho  Ho6  1  0.317090  0.817090  0.767070  1
  Ho  Ho7  1  0.317152  0.817152  0.232863  1
  Mg  Mg8  1  0.000159  0.999899  0.499871  1
  Mg  Mg9  1  0.499899  0.500159  0.499871  1
  Si  Si10  1  0.115906  0.615906  0.499926  1
  Si  Si11  1  0.884497  0.384497  0.499588  1
  Si  Si12  1  0.384655  0.114817  0.499651  1
  Si  Si13  1  0.614817  0.884655  0.499651  1
  B  B14  1  0.173819  0.039375  0.000077  1
  B  B15  1  0.826392  0.960308  0.000264  1
  B  B16  1  0.960040  0.173537  0.000144  1
  B  B17  1  0.326322  0.540271  0.000095  1
  B  B18  1  0.040271  0.826322  0.000095  1
  B  B19  1  0.673537  0.460040  0.000144  1
  B  B20  1  0.539375  0.673819  0.000077  1
  B  B21  1  0.460308  0.326392  0.000264  1
  B  B22  1  0.089717  0.589717  0.000029  1
  B  B23  1  0.910396  0.410396  0.000186  1
  B  B24  1  0.410506  0.089287  0.000347  1
  B  B25  1  0.589287  0.910506  0.000347  1
  B  B26  1  0.000000  0.999965  0.162604  1
  B  B27  1  0.000385  0.999798  0.837675  1
  B  B28  1  0.499798  0.500385  0.837675  1
  B  B29  1  0.499965  0.500000  0.162604  1
