# generated using pymatgen
data_Pa4Ge6Mo2Rh5
_symmetry_space_group_name_H-M   'P 1'
_cell_length_a   7.33240909
_cell_length_b   7.33240911
_cell_length_c   7.33240971
_cell_angle_alpha   109.84104469
_cell_angle_beta   108.73408275
_cell_angle_gamma   109.84104131
_symmetry_Int_Tables_number   1
_chemical_formula_structural   Pa4Ge6Mo2Rh5
_chemical_formula_sum   'Pa4 Ge6 Mo2 Rh5'
_cell_volume   303.43408640
_cell_formula_units_Z   1
loop_
 _symmetry_equiv_pos_site_id
 _symmetry_equiv_pos_as_xyz
  1  'x, y, z'
loop_
 _atom_site_type_symbol
 _atom_site_label
 _atom_site_symmetry_multiplicity
 _atom_site_fract_x
 _atom_site_fract_y
 _atom_site_fract_z
 _atom_site_occupancy
  Pa  Pa0  1  0.505946  0.500000  0.494054  1
  Pa  Pa1  1  0.994054  0.500000  0.005946  1
  Pa  Pa2  1  0.505946  0.011892  0.005946  1
  Pa  Pa3  1  0.994054  0.988108  0.494054  1
  Ge  Ge4  1  0.686927  0.000000  0.686927  1
  Ge  Ge5  1  0.682247  0.685898  0.996348  1
  Ge  Ge6  1  0.310450  0.314102  0.996348  1
  Ge  Ge7  1  0.003652  0.685898  0.689550  1
  Ge  Ge8  1  0.003652  0.314102  0.317753  1
  Ge  Ge9  1  0.313073  0.000000  0.313073  1
  Mo  Mo10  1  0.750000  0.500000  0.250000  1
  Mo  Mo11  1  0.000000  0.000000  0.000000  1
  Rh  Rh12  1  0.497326  0.248073  0.745399  1
  Rh  Rh13  1  0.750746  0.248073  0.502674  1
  Rh  Rh14  1  0.254601  0.751927  0.502674  1
  Rh  Rh15  1  0.250000  0.500000  0.750000  1
  Rh  Rh16  1  0.497326  0.751927  0.249254  1
