# generated using pymatgen
data_Y5ThFeRh
_symmetry_space_group_name_H-M   'P 1'
_cell_length_a   6.44911949
_cell_length_b   7.10729870
_cell_length_c   9.45480800
_cell_angle_alpha   90.00000000
_cell_angle_beta   90.00000000
_cell_angle_gamma   88.31724112
_symmetry_Int_Tables_number   1
_chemical_formula_structural   Y5ThFeRh
_chemical_formula_sum   'Y10 Th2 Fe2 Rh2'
_cell_volume   433.18197056
_cell_formula_units_Z   2
loop_
 _symmetry_equiv_pos_site_id
 _symmetry_equiv_pos_as_xyz
  1  'x, y, z'
loop_
 _atom_site_type_symbol
 _atom_site_label
 _atom_site_symmetry_multiplicity
 _atom_site_fract_x
 _atom_site_fract_y
 _atom_site_fract_z
 _atom_site_occupancy
  Y  Y0  1  0.139500  0.466868  0.750000  1
  Y  Y1  1  0.860500  0.533132  0.250000  1
  Y  Y2  1  0.174778  0.177003  0.063054  1
  Y  Y3  1  0.825222  0.822997  0.936946  1
  Y  Y4  1  0.668601  0.332137  0.930991  1
  Y  Y5  1  0.825222  0.822997  0.563054  1
  Y  Y6  1  0.331399  0.667863  0.069009  1
  Y  Y7  1  0.174778  0.177003  0.436946  1
  Y  Y8  1  0.331399  0.667863  0.430991  1
  Y  Y9  1  0.668601  0.332137  0.569009  1
  Th  Th10  1  0.639082  0.070466  0.250000  1
  Th  Th11  1  0.360918  0.929534  0.750000  1
  Fe  Fe12  1  0.465201  0.361700  0.250000  1
  Fe  Fe13  1  0.534799  0.638300  0.750000  1
  Rh  Rh14  1  0.968818  0.112013  0.750000  1
  Rh  Rh15  1  0.031182  0.887987  0.250000  1
