# generated using pymatgen
data_Th10Ge2BiPb5
_symmetry_space_group_name_H-M   'P 1'
_cell_length_a   9.68440543
_cell_length_b   9.68440586
_cell_length_c   6.66188600
_cell_angle_alpha   90.00000000
_cell_angle_beta   90.00000000
_cell_angle_gamma   120.03416800
_symmetry_Int_Tables_number   1
_chemical_formula_structural   Th10Ge2BiPb5
_chemical_formula_sum   'Th10 Ge2 Bi1 Pb5'
_cell_volume   540.90891862
_cell_formula_units_Z   1
loop_
 _symmetry_equiv_pos_site_id
 _symmetry_equiv_pos_as_xyz
  1  'x, y, z'
loop_
 _atom_site_type_symbol
 _atom_site_label
 _atom_site_symmetry_multiplicity
 _atom_site_fract_x
 _atom_site_fract_y
 _atom_site_fract_z
 _atom_site_occupancy
  Th  Th0  1  0.667173  0.333530  0.500562  1
  Th  Th1  1  0.333530  0.667173  0.500562  1
  Th  Th2  1  0.333530  0.667173  0.999438  1
  Th  Th3  1  0.667173  0.333530  0.999438  1
  Th  Th4  1  0.740509  0.740509  0.250000  1
  Th  Th5  1  0.258069  0.998833  0.250000  1
  Th  Th6  1  0.998833  0.258069  0.250000  1
  Th  Th7  1  0.258504  0.258504  0.750000  1
  Th  Th8  1  0.741035  0.999913  0.750000  1
  Th  Th9  1  0.999913  0.741035  0.750000  1
  Ge  Ge10  1  0.000363  0.000363  0.499560  1
  Ge  Ge11  1  0.000363  0.000363  0.000440  1
  Bi  Bi12  1  0.388767  0.388767  0.250000  1
  Pb  Pb13  1  0.611733  0.999653  0.250000  1
  Pb  Pb14  1  0.999653  0.611733  0.250000  1
  Pb  Pb15  1  0.612874  0.612874  0.750000  1
  Pb  Pb16  1  0.388251  0.999727  0.750000  1
  Pb  Pb17  1  0.999727  0.388251  0.750000  1
