# generated using pymatgen
data_Tb3Tm3TcOs
_symmetry_space_group_name_H-M   'P 1'
_cell_length_a   6.26990677
_cell_length_b   7.39790900
_cell_length_c   9.02066346
_cell_angle_alpha   90.00000000
_cell_angle_beta   89.55311981
_cell_angle_gamma   90.00000000
_symmetry_Int_Tables_number   1
_chemical_formula_structural   Tb3Tm3TcOs
_chemical_formula_sum   'Tb6 Tm6 Tc2 Os2'
_cell_volume   418.40352893
_cell_formula_units_Z   2
loop_
 _symmetry_equiv_pos_site_id
 _symmetry_equiv_pos_as_xyz
  1  'x, y, z'
loop_
 _atom_site_type_symbol
 _atom_site_label
 _atom_site_symmetry_multiplicity
 _atom_site_fract_x
 _atom_site_fract_y
 _atom_site_fract_z
 _atom_site_occupancy
  Tb  Tb0  1  0.338124  0.675888  0.437289  1
  Tb  Tb1  1  0.161876  0.175888  0.062711  1
  Tb  Tb2  1  0.875780  0.539915  0.249569  1
  Tb  Tb3  1  0.624220  0.039915  0.250431  1
  Tb  Tb4  1  0.126846  0.459128  0.750193  1
  Tb  Tb5  1  0.373154  0.959128  0.749807  1
  Tm  Tm6  1  0.339675  0.674501  0.060726  1
  Tm  Tm7  1  0.160325  0.174501  0.439274  1
  Tm  Tm8  1  0.663420  0.324242  0.564042  1
  Tm  Tm9  1  0.836580  0.824242  0.935958  1
  Tm  Tm10  1  0.662928  0.325433  0.936292  1
  Tm  Tm11  1  0.837072  0.825433  0.563708  1
  Tc  Tc12  1  0.037263  0.883902  0.249070  1
  Tc  Tc13  1  0.462737  0.383902  0.250930  1
  Os  Os14  1  0.954641  0.116989  0.746563  1
  Os  Os15  1  0.545359  0.616989  0.753437  1
