# generated using pymatgen
data_CaMnNi(Sb6Os)2
_symmetry_space_group_name_H-M   'P 1'
_cell_length_a   8.14403967
_cell_length_b   8.09237953
_cell_length_c   8.10303670
_cell_angle_alpha   109.30181055
_cell_angle_beta   109.71007701
_cell_angle_gamma   109.50355058
_symmetry_Int_Tables_number   1
_chemical_formula_structural   CaMnNi(Sb6Os)2
_chemical_formula_sum   'Ca1 Mn1 Ni1 Sb12 Os2'
_cell_volume   410.57377470
_cell_formula_units_Z   1
loop_
 _symmetry_equiv_pos_site_id
 _symmetry_equiv_pos_as_xyz
  1  'x, y, z'
loop_
 _atom_site_type_symbol
 _atom_site_label
 _atom_site_symmetry_multiplicity
 _atom_site_fract_x
 _atom_site_fract_y
 _atom_site_fract_z
 _atom_site_occupancy
  Ca  Ca0  1  0.000000  0.000000  0.000000  1
  Mn  Mn1  1  0.500000  0.500000  0.500000  1
  Ni  Ni2  1  0.500000  0.000000  0.000000  1
  Sb  Sb3  1  0.836697  0.658597  0.502671  1
  Sb  Sb4  1  0.163303  0.341403  0.497329  1
  Sb  Sb5  1  0.159336  0.662613  0.817794  1
  Sb  Sb6  1  0.840664  0.337387  0.182206  1
  Sb  Sb7  1  0.659872  0.503627  0.838242  1
  Sb  Sb8  1  0.340128  0.496373  0.161758  1
  Sb  Sb9  1  0.657654  0.817229  0.154256  1
  Sb  Sb10  1  0.342346  0.182771  0.845744  1
  Sb  Sb11  1  0.504362  0.840331  0.661240  1
  Sb  Sb12  1  0.495638  0.159669  0.338760  1
  Sb  Sb13  1  0.182748  0.843611  0.340974  1
  Sb  Sb14  1  0.817252  0.156389  0.659026  1
  Os  Os15  1  0.000000  0.500000  0.000000  1
  Os  Os16  1  0.000000  0.000000  0.500000  1
