# generated using pymatgen
data_Pa3Co29(Si2B5)2
_symmetry_space_group_name_H-M   'P 1'
_cell_length_a   7.79893500
_cell_length_b   11.09377800
_cell_length_c   11.09377800
_cell_angle_alpha   90.00000000
_cell_angle_beta   90.00000000
_cell_angle_gamma   90.00000000
_symmetry_Int_Tables_number   1
_chemical_formula_structural   Pa3Co29(Si2B5)2
_chemical_formula_sum   'Pa6 Co58 Si8 B20'
_cell_volume   959.82982886
_cell_formula_units_Z   2
loop_
 _symmetry_equiv_pos_site_id
 _symmetry_equiv_pos_as_xyz
  1  'x, y, z'
loop_
 _atom_site_type_symbol
 _atom_site_label
 _atom_site_symmetry_multiplicity
 _atom_site_fract_x
 _atom_site_fract_y
 _atom_site_fract_z
 _atom_site_occupancy
  Pa  Pa0  1  0.000000  0.500000  0.500000  1
  Pa  Pa1  1  0.000000  0.000000  0.500000  1
  Pa  Pa2  1  0.000000  0.500000  0.000000  1
  Pa  Pa3  1  0.000000  0.000000  0.000000  1
  Pa  Pa4  1  0.500000  0.750000  0.250000  1
  Pa  Pa5  1  0.500000  0.250000  0.750000  1
  Co  Co6  1  0.334495  0.423320  0.588324  1
  Co  Co7  1  0.524354  0.750000  0.521141  1
  Co  Co8  1  0.524354  0.521141  0.750000  1
  Co  Co9  1  0.524354  0.978859  0.750000  1
  Co  Co10  1  0.974037  0.250000  0.084218  1
  Co  Co11  1  0.974037  0.415782  0.250000  1
  Co  Co12  1  0.974037  0.084218  0.250000  1
  Co  Co13  1  0.974037  0.250000  0.415782  1
  Co  Co14  1  0.025963  0.750000  0.915782  1
  Co  Co15  1  0.025963  0.750000  0.584218  1
  Co  Co16  1  0.025963  0.584218  0.750000  1
  Co  Co17  1  0.025963  0.915782  0.750000  1
  Co  Co18  1  0.246938  0.131933  0.131933  1
  Co  Co19  1  0.246938  0.368067  0.131933  1
  Co  Co20  1  0.246938  0.131933  0.368067  1
  Co  Co21  1  0.246938  0.368067  0.368067  1
  Co  Co22  1  0.753062  0.631933  0.868067  1
  Co  Co23  1  0.753062  0.868067  0.631933  1
  Co  Co24  1  0.753062  0.631933  0.631933  1
  Co  Co25  1  0.753062  0.868067  0.868067  1
  Co  Co26  1  0.700419  0.139997  0.139997  1
  Co  Co27  1  0.700419  0.360003  0.139997  1
  Co  Co28  1  0.700419  0.139997  0.360003  1
  Co  Co29  1  0.700419  0.360003  0.360003  1
  Co  Co30  1  0.299581  0.639997  0.860003  1
  Co  Co31  1  0.299581  0.860003  0.639997  1
  Co  Co32  1  0.299581  0.639997  0.639997  1
  Co  Co33  1  0.299581  0.860003  0.860003  1
  Co  Co34  1  0.334495  0.076680  0.588324  1
  Co  Co35  1  0.334495  0.911676  0.076680  1
  Co  Co36  1  0.334495  0.588324  0.423320  1
  Co  Co37  1  0.334495  0.423320  0.911676  1
  Co  Co38  1  0.665505  0.576680  0.411676  1
  Co  Co39  1  0.665505  0.923320  0.088324  1
  Co  Co40  1  0.665505  0.088324  0.576680  1
  Co  Co41  1  0.888925  0.250000  0.859518  1
  Co  Co42  1  0.665505  0.923320  0.411676  1
  Co  Co43  1  0.665505  0.088324  0.923320  1
  Co  Co44  1  0.665505  0.411676  0.576680  1
  Co  Co45  1  0.665505  0.576680  0.088324  1
  Co  Co46  1  0.524354  0.750000  0.978859  1
  Co  Co47  1  0.888925  0.640482  0.250000  1
  Co  Co48  1  0.334495  0.911676  0.423320  1
  Co  Co49  1  0.334495  0.588324  0.076680  1
  Co  Co50  1  0.888925  0.859518  0.250000  1
  Co  Co51  1  0.888925  0.250000  0.640482  1
  Co  Co52  1  0.533520  0.750000  0.750000  1
  Co  Co53  1  0.466480  0.250000  0.250000  1
  Co  Co54  1  0.111075  0.750000  0.359518  1
  Co  Co55  1  0.475646  0.250000  0.478859  1
  Co  Co56  1  0.475646  0.021141  0.250000  1
  Co  Co57  1  0.475646  0.478859  0.250000  1
  Co  Co58  1  0.475646  0.250000  0.021141  1
  Co  Co59  1  0.111075  0.359518  0.750000  1
  Co  Co60  1  0.111075  0.140482  0.750000  1
  Co  Co61  1  0.111075  0.750000  0.140482  1
  Co  Co62  1  0.665505  0.411676  0.923320  1
  Co  Co63  1  0.334495  0.076680  0.911676  1
  Si  Si64  1  0.825047  0.430407  0.750000  1
  Si  Si65  1  0.174953  0.250000  0.569593  1
  Si  Si66  1  0.174953  0.930407  0.250000  1
  Si  Si67  1  0.174953  0.569593  0.250000  1
  Si  Si68  1  0.174953  0.250000  0.930407  1
  Si  Si69  1  0.825047  0.750000  0.430407  1
  Si  Si70  1  0.825047  0.750000  0.069593  1
  Si  Si71  1  0.825047  0.069593  0.750000  1
  B  B72  1  0.515947  0.937074  0.937074  1
  B  B73  1  0.515947  0.562926  0.562926  1
  B  B74  1  0.515947  0.937074  0.562926  1
  B  B75  1  0.515947  0.562926  0.937074  1
  B  B76  1  0.484053  0.437074  0.437074  1
  B  B77  1  0.484053  0.062926  0.437074  1
  B  B78  1  0.261158  0.006202  0.750000  1
  B  B79  1  0.261158  0.493798  0.750000  1
  B  B80  1  0.261158  0.750000  0.493798  1
  B  B81  1  0.261158  0.750000  0.006202  1
  B  B82  1  0.738842  0.250000  0.506202  1
  B  B83  1  0.738842  0.993798  0.250000  1
  B  B84  1  0.738842  0.506202  0.250000  1
  B  B85  1  0.738842  0.250000  0.993798  1
  B  B86  1  0.143810  0.750000  0.750000  1
  B  B87  1  0.856190  0.250000  0.250000  1
  B  B88  1  0.890793  0.750000  0.750000  1
  B  B89  1  0.109207  0.250000  0.250000  1
  B  B90  1  0.484053  0.437074  0.062926  1
  B  B91  1  0.484053  0.062926  0.062926  1
