# generated using pymatgen
data_Pa4Al24PtRh8
_symmetry_space_group_name_H-M   'P 1'
_cell_length_a   7.52369620
_cell_length_b   7.53741897
_cell_length_c   13.05030265
_cell_angle_alpha   84.40814347
_cell_angle_beta   78.93164490
_cell_angle_gamma   59.80800194
_symmetry_Int_Tables_number   1
_chemical_formula_structural   Pa4Al24PtRh8
_chemical_formula_sum   'Pa4 Al24 Pt1 Rh8'
_cell_volume   627.77922352
_cell_formula_units_Z   1
loop_
 _symmetry_equiv_pos_site_id
 _symmetry_equiv_pos_as_xyz
  1  'x, y, z'
loop_
 _atom_site_type_symbol
 _atom_site_label
 _atom_site_symmetry_multiplicity
 _atom_site_fract_x
 _atom_site_fract_y
 _atom_site_fract_z
 _atom_site_occupancy
  Pa  Pa0  1  0.395654  0.168251  0.801662  1
  Pa  Pa1  1  0.606728  0.831694  0.196841  1
  Pa  Pa2  1  0.735720  0.499030  0.801697  1
  Pa  Pa3  1  0.264214  0.499648  0.196908  1
  Al  Al4  1  0.682304  0.833530  0.946195  1
  Al  Al5  1  0.317948  0.165567  0.052887  1
  Al  Al6  1  0.146132  0.833274  0.560122  1
  Al  Al7  1  0.848932  0.170196  0.444384  1
  Al  Al8  1  0.482298  0.166406  0.554477  1
  Al  Al9  1  0.520134  0.833803  0.445835  1
  Al  Al10  1  0.208353  0.168409  0.333909  1
  Al  Al11  1  0.791734  0.834275  0.665309  1
  Al  Al12  1  0.432149  0.513581  0.665378  1
  Al  Al13  1  0.570528  0.484419  0.332756  1
  Al  Al14  1  0.111424  0.152002  0.663943  1
  Al  Al15  1  0.886033  0.848371  0.335356  1
  Al  Al16  1  0.354173  0.497639  0.946071  1
  Al  Al17  1  0.646819  0.501546  0.053544  1
  Al  Al18  1  0.013758  0.169711  0.957004  1
  Al  Al19  1  0.987084  0.831043  0.041283  1
  Al  Al20  1  0.184937  0.497352  0.445759  1
  Al  Al21  1  0.814776  0.500194  0.554611  1
  Al  Al22  1  0.736937  0.162945  0.179952  1
  Al  Al23  1  0.263221  0.836471  0.820522  1
  Al  Al24  1  0.059866  0.631763  0.819008  1
  Al  Al25  1  0.940441  0.367509  0.181590  1
  Al  Al26  1  0.854511  0.041703  0.820804  1
  Al  Al27  1  0.144910  0.958850  0.178212  1
  Pt  Pt28  1  0.225776  0.822038  0.358436  1
  Rh  Rh29  1  0.118938  0.487343  0.644059  1
  Rh  Rh30  1  0.880968  0.512907  0.356128  1
  Rh  Rh31  1  0.655395  0.171930  0.000994  1
  Rh  Rh32  1  0.344706  0.827506  0.000020  1
  Rh  Rh33  1  0.534638  0.167773  0.356378  1
  Rh  Rh34  1  0.464701  0.832862  0.643835  1
  Rh  Rh35  1  0.773198  0.178400  0.643381  1
  Rh  Rh36  1  0.999964  0.500058  0.000748  1
