# generated using pymatgen
data_Zr6Al15ZnPt7
_symmetry_space_group_name_H-M   'P 1'
_cell_length_a   8.78946937
_cell_length_b   8.78946167
_cell_length_c   8.78818205
_cell_angle_alpha   59.99513628
_cell_angle_beta   59.99513302
_cell_angle_gamma   59.99992092
_symmetry_Int_Tables_number   1
_chemical_formula_structural   Zr6Al15ZnPt7
_chemical_formula_sum   'Zr6 Al15 Zn1 Pt7'
_cell_volume   480.03928385
_cell_formula_units_Z   1
loop_
 _symmetry_equiv_pos_site_id
 _symmetry_equiv_pos_as_xyz
  1  'x, y, z'
loop_
 _atom_site_type_symbol
 _atom_site_label
 _atom_site_symmetry_multiplicity
 _atom_site_fract_x
 _atom_site_fract_y
 _atom_site_fract_z
 _atom_site_occupancy
  Zr  Zr0  1  0.685820  0.685820  0.314853  1
  Zr  Zr1  1  0.313505  0.685822  0.314851  1
  Zr  Zr2  1  0.685822  0.313505  0.314851  1
  Zr  Zr3  1  0.314862  0.314862  0.685425  1
  Zr  Zr4  1  0.684853  0.314860  0.685427  1
  Zr  Zr5  1  0.314861  0.684852  0.685426  1
  Al  Al6  1  0.879638  0.360813  0.879912  1
  Al  Al7  1  0.360812  0.879638  0.879912  1
  Al  Al8  1  0.879638  0.879638  0.879912  1
  Al  Al9  1  0.120510  0.120510  0.638470  1
  Al  Al10  1  0.117941  0.641713  0.122404  1
  Al  Al11  1  0.641712  0.117941  0.122404  1
  Al  Al12  1  0.117941  0.117942  0.122404  1
  Al  Al13  1  0.664680  0.664679  0.005961  1
  Al  Al14  1  0.667176  0.003068  0.662581  1
  Al  Al15  1  0.003069  0.667175  0.662581  1
  Al  Al16  1  0.667175  0.667175  0.662582  1
  Al  Al17  1  0.334989  0.334990  0.995031  1
  Al  Al18  1  0.336176  0.993658  0.333989  1
  Al  Al19  1  0.993658  0.336176  0.333989  1
  Al  Al20  1  0.336177  0.336177  0.333989  1
  Zn  Zn21  1  0.880093  0.880093  0.359719  1
  Pt  Pt22  1  0.002678  0.002680  0.991963  1
  Pt  Pt23  1  0.001901  0.001901  0.504887  1
  Pt  Pt24  1  0.491311  0.001901  0.504887  1
  Pt  Pt25  1  0.001901  0.491311  0.504887  1
  Pt  Pt26  1  0.500251  0.500251  0.998900  1
  Pt  Pt27  1  0.000597  0.500252  0.998900  1
  Pt  Pt28  1  0.500252  0.000597  0.998900  1
