# generated using pymatgen
data_DyHo2Lu5Tl3Co
_symmetry_space_group_name_H-M   'P 1'
_cell_length_a   10.18484457
_cell_length_b   10.18484388
_cell_length_c   7.04832013
_cell_angle_alpha   90.02397135
_cell_angle_beta   89.97602877
_cell_angle_gamma   119.99635557
_symmetry_Int_Tables_number   1
_chemical_formula_structural   DyHo2Lu5Tl3Co
_chemical_formula_sum   'Dy2 Ho4 Lu10 Tl6 Co2'
_cell_volume   633.20003786
_cell_formula_units_Z   2
loop_
 _symmetry_equiv_pos_site_id
 _symmetry_equiv_pos_as_xyz
  1  'x, y, z'
loop_
 _atom_site_type_symbol
 _atom_site_label
 _atom_site_symmetry_multiplicity
 _atom_site_fract_x
 _atom_site_fract_y
 _atom_site_fract_z
 _atom_site_occupancy
  Dy  Dy0  1  0.535863  0.072157  0.505406  1
  Dy  Dy1  1  0.927843  0.464137  0.505406  1
  Ho  Ho2  1  0.666272  0.333728  0.896298  1
  Ho  Ho3  1  0.333880  0.666120  0.395540  1
  Ho  Ho4  1  0.999871  0.000129  0.490817  1
  Ho  Ho5  1  0.999882  0.000118  0.991509  1
  Lu  Lu6  1  0.536863  0.463137  0.506493  1
  Lu  Lu7  1  0.462277  0.924626  0.006335  1
  Lu  Lu8  1  0.075374  0.537723  0.006335  1
  Lu  Lu9  1  0.462739  0.537261  0.006818  1
  Lu  Lu10  1  0.180845  0.359665  0.710392  1
  Lu  Lu11  1  0.640335  0.819155  0.710392  1
  Lu  Lu12  1  0.179364  0.820636  0.711201  1
  Lu  Lu13  1  0.819718  0.640976  0.208115  1
  Lu  Lu14  1  0.359024  0.180282  0.208115  1
  Lu  Lu15  1  0.820510  0.179490  0.206634  1
  Tl  Tl16  1  0.837277  0.675434  0.755837  1
  Tl  Tl17  1  0.324566  0.162723  0.755837  1
  Tl  Tl18  1  0.838399  0.161601  0.756783  1
  Tl  Tl19  1  0.162274  0.324933  0.255430  1
  Tl  Tl20  1  0.675067  0.837726  0.255430  1
  Tl  Tl21  1  0.162706  0.837294  0.254647  1
  Co  Co22  1  0.665718  0.334282  0.278246  1
  Co  Co23  1  0.333334  0.666666  0.780022  1
