# generated using pymatgen
data_NdEuSb2PtRh
_symmetry_space_group_name_H-M   'P 1'
_cell_length_a   4.66867000
_cell_length_b   7.58326000
_cell_length_c   8.02370300
_cell_angle_alpha   90.00000000
_cell_angle_beta   90.00000000
_cell_angle_gamma   90.00000000
_symmetry_Int_Tables_number   1
_chemical_formula_structural   NdEuSb2PtRh
_chemical_formula_sum   'Nd2 Eu2 Sb4 Pt2 Rh2'
_cell_volume   284.06908253
_cell_formula_units_Z   2
loop_
 _symmetry_equiv_pos_site_id
 _symmetry_equiv_pos_as_xyz
  1  'x, y, z'
loop_
 _atom_site_type_symbol
 _atom_site_label
 _atom_site_symmetry_multiplicity
 _atom_site_fract_x
 _atom_site_fract_y
 _atom_site_fract_z
 _atom_site_occupancy
  Nd  Nd0  1  0.750000  0.485879  0.804588  1
  Nd  Nd1  1  0.750000  0.985879  0.695412  1
  Eu  Eu2  1  0.250000  0.008155  0.298643  1
  Eu  Eu3  1  0.250000  0.508155  0.201357  1
  Sb  Sb4  1  0.250000  0.680934  0.594710  1
  Sb  Sb5  1  0.250000  0.180934  0.905290  1
  Sb  Sb6  1  0.750000  0.308446  0.415415  1
  Sb  Sb7  1  0.750000  0.808446  0.084585  1
  Pt  Pt8  1  0.750000  0.703914  0.418908  1
  Pt  Pt9  1  0.750000  0.203914  0.081092  1
  Rh  Rh10  1  0.250000  0.812672  0.908316  1
  Rh  Rh11  1  0.250000  0.312672  0.591684  1
