# generated using pymatgen
data_TbErTm3(In2Ni)2
_symmetry_space_group_name_H-M   'P 1'
_cell_length_a   3.57030900
_cell_length_b   7.96373319
_cell_length_c   17.83961302
_cell_angle_alpha   89.95991922
_cell_angle_beta   90.00000000
_cell_angle_gamma   90.00000000
_symmetry_Int_Tables_number   1
_chemical_formula_structural   TbErTm3(In2Ni)2
_chemical_formula_sum   'Tb2 Er2 Tm6 In8 Ni4'
_cell_volume   507.23338382
_cell_formula_units_Z   2
loop_
 _symmetry_equiv_pos_site_id
 _symmetry_equiv_pos_as_xyz
  1  'x, y, z'
loop_
 _atom_site_type_symbol
 _atom_site_label
 _atom_site_symmetry_multiplicity
 _atom_site_fract_x
 _atom_site_fract_y
 _atom_site_fract_z
 _atom_site_occupancy
  Tb  Tb0  1  0.000000  0.500000  0.500000  1
  Tb  Tb1  1  0.000000  0.000000  0.000000  1
  Er  Er2  1  0.000000  0.745962  0.277970  1
  Er  Er3  1  0.000000  0.254038  0.722030  1
  Tm  Tm4  1  0.000000  0.753899  0.777974  1
  Tm  Tm5  1  0.000000  0.246101  0.222026  1
  Tm  Tm6  1  0.000000  0.616547  0.088674  1
  Tm  Tm7  1  0.000000  0.383453  0.911326  1
  Tm  Tm8  1  0.000000  0.883185  0.588686  1
  Tm  Tm9  1  0.000000  0.116815  0.411314  1
  In  In10  1  0.500000  0.704425  0.930850  1
  In  In11  1  0.500000  0.295575  0.069150  1
  In  In12  1  0.500000  0.795971  0.431038  1
  In  In13  1  0.500000  0.204029  0.568962  1
  In  In14  1  0.500000  0.574254  0.652207  1
  In  In15  1  0.500000  0.425746  0.347793  1
  In  In16  1  0.500000  0.926707  0.151988  1
  In  In17  1  0.500000  0.073293  0.848012  1
  Ni  Ni18  1  0.500000  0.523665  0.195194  1
  Ni  Ni19  1  0.500000  0.476335  0.804806  1
  Ni  Ni20  1  0.500000  0.974224  0.695471  1
  Ni  Ni21  1  0.500000  0.025776  0.304529  1
