# generated using pymatgen
data_Lu2Mn(Fe3P2)3
_symmetry_space_group_name_H-M   'P 1'
_cell_length_a   3.64269400
_cell_length_b   10.22784600
_cell_length_c   11.80542100
_cell_angle_alpha   90.00000000
_cell_angle_beta   90.00000000
_cell_angle_gamma   90.00000000
_symmetry_Int_Tables_number   1
_chemical_formula_structural   Lu2Mn(Fe3P2)3
_chemical_formula_sum   'Lu4 Mn2 Fe18 P12'
_cell_volume   439.83354616
_cell_formula_units_Z   2
loop_
 _symmetry_equiv_pos_site_id
 _symmetry_equiv_pos_as_xyz
  1  'x, y, z'
loop_
 _atom_site_type_symbol
 _atom_site_label
 _atom_site_symmetry_multiplicity
 _atom_site_fract_x
 _atom_site_fract_y
 _atom_site_fract_z
 _atom_site_occupancy
  Lu  Lu0  1  0.250000  0.582207  0.704401  1
  Lu  Lu1  1  0.250000  0.917793  0.204401  1
  Lu  Lu2  1  0.750000  0.423809  0.295508  1
  Lu  Lu3  1  0.750000  0.076191  0.795508  1
  Mn  Mn4  1  0.250000  0.701037  0.989693  1
  Mn  Mn5  1  0.250000  0.798963  0.489693  1
  Fe  Fe6  1  0.750000  0.289691  0.010763  1
  Fe  Fe7  1  0.750000  0.210309  0.510763  1
  Fe  Fe8  1  0.250000  0.408327  0.488751  1
  Fe  Fe9  1  0.250000  0.091673  0.988751  1
  Fe  Fe10  1  0.750000  0.598725  0.512680  1
  Fe  Fe11  1  0.750000  0.901275  0.012680  1
  Fe  Fe12  1  0.250000  0.218336  0.176162  1
  Fe  Fe13  1  0.250000  0.281664  0.676162  1
  Fe  Fe14  1  0.750000  0.777931  0.828581  1
  Fe  Fe15  1  0.750000  0.722069  0.328581  1
  Fe  Fe16  1  0.250000  0.878440  0.700042  1
  Fe  Fe17  1  0.250000  0.621560  0.200042  1
  Fe  Fe18  1  0.750000  0.127842  0.297605  1
  Fe  Fe19  1  0.750000  0.372158  0.797605  1
  Fe  Fe20  1  0.250000  0.459562  0.931163  1
  Fe  Fe21  1  0.250000  0.040438  0.431163  1
  Fe  Fe22  1  0.750000  0.533367  0.064695  1
  Fe  Fe23  1  0.750000  0.966633  0.564695  1
  P  P24  1  0.250000  0.422515  0.113588  1
  P  P25  1  0.250000  0.077485  0.613588  1
  P  P26  1  0.750000  0.574665  0.883529  1
  P  P27  1  0.750000  0.925335  0.383529  1
  P  P28  1  0.250000  0.260283  0.871306  1
  P  P29  1  0.250000  0.239717  0.371306  1
  P  P30  1  0.750000  0.730719  0.137444  1
  P  P31  1  0.750000  0.769281  0.637444  1
  P  P32  1  0.250000  0.600565  0.390917  1
  P  P33  1  0.250000  0.899435  0.890917  1
  P  P34  1  0.750000  0.402997  0.603170  1
  P  P35  1  0.750000  0.097003  0.103170  1
