# generated using pymatgen
data_Tb9ThOs4
_symmetry_space_group_name_H-M   'P 1'
_cell_length_a   6.45108200
_cell_length_b   7.36778824
_cell_length_c   8.55718550
_cell_angle_alpha   96.46796674
_cell_angle_beta   112.64333086
_cell_angle_gamma   90.53137239
_symmetry_Int_Tables_number   1
_chemical_formula_structural   Tb9ThOs4
_chemical_formula_sum   'Tb9 Th1 Os4'
_cell_volume   372.36985282
_cell_formula_units_Z   1
loop_
 _symmetry_equiv_pos_site_id
 _symmetry_equiv_pos_as_xyz
  1  'x, y, z'
loop_
 _atom_site_type_symbol
 _atom_site_label
 _atom_site_symmetry_multiplicity
 _atom_site_fract_x
 _atom_site_fract_y
 _atom_site_fract_z
 _atom_site_occupancy
  Tb  Tb0  1  0.789871  0.582102  0.811567  1
  Tb  Tb1  1  0.024913  0.084761  0.814242  1
  Tb  Tb2  1  0.207056  0.416041  0.182341  1
  Tb  Tb3  1  0.640104  0.816888  0.437593  1
  Tb  Tb4  1  0.207984  0.683302  0.566491  1
  Tb  Tb5  1  0.358250  0.185261  0.566905  1
  Tb  Tb6  1  0.793588  0.315857  0.435933  1
  Tb  Tb7  1  0.421649  0.747560  0.997416  1
  Tb  Tb8  1  0.576251  0.251636  0.000281  1
  Th  Th9  1  0.982129  0.910287  0.184109  1
  Os  Os10  1  0.827901  0.584627  0.219694  1
  Os  Os11  1  0.610268  0.925560  0.786934  1
  Os  Os12  1  0.176517  0.423751  0.779079  1
  Os  Os13  1  0.383519  0.072368  0.217414  1
