# generated using pymatgen
data_Mn3Si6Tc6Ni
_symmetry_space_group_name_H-M   'P 1'
_cell_length_a   6.93043800
_cell_length_b   6.93043768
_cell_length_c   4.83425400
_cell_angle_alpha   90.00000000
_cell_angle_beta   90.00000000
_cell_angle_gamma   120.00000152
_symmetry_Int_Tables_number   1
_chemical_formula_structural   Mn3Si6Tc6Ni
_chemical_formula_sum   'Mn3 Si6 Tc6 Ni1'
_cell_volume   201.08581501
_cell_formula_units_Z   1
loop_
 _symmetry_equiv_pos_site_id
 _symmetry_equiv_pos_as_xyz
  1  'x, y, z'
loop_
 _atom_site_type_symbol
 _atom_site_label
 _atom_site_symmetry_multiplicity
 _atom_site_fract_x
 _atom_site_fract_y
 _atom_site_fract_z
 _atom_site_occupancy
  Mn  Mn0  1  0.666667  0.333333  0.000000  1
  Mn  Mn1  1  0.666667  0.333333  0.500000  1
  Mn  Mn2  1  0.333333  0.666667  0.000000  1
  Si  Si3  1  0.401538  0.996198  0.753697  1
  Si  Si4  1  0.401538  0.405340  0.246303  1
  Si  Si5  1  0.003802  0.598462  0.246303  1
  Si  Si6  1  0.003802  0.405340  0.753697  1
  Si  Si7  1  0.594660  0.598462  0.753697  1
  Si  Si8  1  0.594660  0.996198  0.246303  1
  Tc  Tc9  1  0.997888  0.757745  0.747693  1
  Tc  Tc10  1  0.997888  0.240143  0.252307  1
  Tc  Tc11  1  0.759857  0.757745  0.252307  1
  Tc  Tc12  1  0.759857  0.002112  0.747693  1
  Tc  Tc13  1  0.242255  0.240143  0.747693  1
  Tc  Tc14  1  0.242255  0.002112  0.252307  1
  Ni  Ni15  1  0.333333  0.666667  0.500000  1
