# generated using pymatgen
data_DyHo2In3CuRh2
_symmetry_space_group_name_H-M   'P 1'
_cell_length_a   7.48131964
_cell_length_b   7.47042453
_cell_length_c   3.93579300
_cell_angle_alpha   90.00000000
_cell_angle_beta   90.00000000
_cell_angle_gamma   119.95184976
_symmetry_Int_Tables_number   1
_chemical_formula_structural   DyHo2In3CuRh2
_chemical_formula_sum   'Dy1 Ho2 In3 Cu1 Rh2'
_cell_volume   190.58858541
_cell_formula_units_Z   1
loop_
 _symmetry_equiv_pos_site_id
 _symmetry_equiv_pos_as_xyz
  1  'x, y, z'
loop_
 _atom_site_type_symbol
 _atom_site_label
 _atom_site_symmetry_multiplicity
 _atom_site_fract_x
 _atom_site_fract_y
 _atom_site_fract_z
 _atom_site_occupancy
  Dy  Dy0  1  0.000000  0.586051  0.500000  1
  Ho  Ho1  1  0.413783  0.413992  0.500000  1
  Ho  Ho2  1  0.586217  0.000209  0.500000  1
  In  In3  1  0.748554  0.748586  0.000000  1
  In  In4  1  0.000000  0.250903  0.000000  1
  In  In5  1  0.251446  0.000031  0.000000  1
  Cu  Cu6  1  0.000000  0.000957  0.500000  1
  Rh  Rh7  1  0.334358  0.666815  0.000000  1
  Rh  Rh8  1  0.665642  0.332456  0.000000  1
