# generated using pymatgen
data_Er3PdPtPb3
_symmetry_space_group_name_H-M   'P 1'
_cell_length_a   7.88813500
_cell_length_b   7.88813622
_cell_length_c   3.67819500
_cell_angle_alpha   90.00000000
_cell_angle_beta   90.00000000
_cell_angle_gamma   119.99999068
_symmetry_Int_Tables_number   1
_chemical_formula_structural   Er3PdPtPb3
_chemical_formula_sum   'Er3 Pd1 Pt1 Pb3'
_cell_volume   198.20479594
_cell_formula_units_Z   1
loop_
 _symmetry_equiv_pos_site_id
 _symmetry_equiv_pos_as_xyz
  1  'x, y, z'
loop_
 _atom_site_type_symbol
 _atom_site_label
 _atom_site_symmetry_multiplicity
 _atom_site_fract_x
 _atom_site_fract_y
 _atom_site_fract_z
 _atom_site_occupancy
  Er  Er0  1  0.583920  0.990099  0.500000  1
  Er  Er1  1  0.406180  0.416081  0.500000  1
  Er  Er2  1  0.009901  0.593821  0.500000  1
  Pd  Pd3  1  0.666667  0.333333  0.000000  1
  Pt  Pt4  1  0.333333  0.666667  0.000000  1
  Pb  Pb5  1  0.248344  0.005607  0.000000  1
  Pb  Pb6  1  0.994393  0.242738  0.000000  1
  Pb  Pb7  1  0.757261  0.751656  0.000000  1
