# generated using pymatgen
data_U2Co12P5Se2
_symmetry_space_group_name_H-M   'P 1'
_cell_length_a   9.27269284
_cell_length_b   9.15553228
_cell_length_c   3.63212700
_cell_angle_alpha   90.00000000
_cell_angle_beta   90.00000000
_cell_angle_gamma   120.32310949
_symmetry_Int_Tables_number   1
_chemical_formula_structural   U2Co12P5Se2
_chemical_formula_sum   'U2 Co12 P5 Se2'
_cell_volume   266.16925989
_cell_formula_units_Z   1
loop_
 _symmetry_equiv_pos_site_id
 _symmetry_equiv_pos_as_xyz
  1  'x, y, z'
loop_
 _atom_site_type_symbol
 _atom_site_label
 _atom_site_symmetry_multiplicity
 _atom_site_fract_x
 _atom_site_fract_y
 _atom_site_fract_z
 _atom_site_occupancy
  U  U0  1  0.005919  0.003812  0.000000  1
  U  U1  1  0.334235  0.667734  0.500000  1
  Co  Co2  1  0.109964  0.395768  0.000000  1
  Co  Co3  1  0.585901  0.706545  0.000000  1
  Co  Co4  1  0.294021  0.893449  0.000000  1
  Co  Co5  1  0.065326  0.771818  0.500000  1
  Co  Co6  1  0.219117  0.267747  0.500000  1
  Co  Co7  1  0.713188  0.953253  0.500000  1
  Co  Co8  1  0.832820  0.612812  0.000000  1
  Co  Co9  1  0.382205  0.208184  0.000000  1
  Co  Co10  1  0.797416  0.180757  0.000000  1
  Co  Co11  1  0.935638  0.449684  0.500000  1
  Co  Co12  1  0.532321  0.473073  0.500000  1
  Co  Co13  1  0.525218  0.086110  0.500000  1
  P  P14  1  0.265767  0.038974  0.500000  1
  P  P15  1  0.956715  0.218732  0.500000  1
  P  P16  1  0.076409  0.625935  0.000000  1
  P  P17  1  0.367182  0.439599  0.000000  1
  P  P18  1  0.556220  0.935683  0.000000  1
  Se  Se19  1  0.781206  0.740970  0.500000  1
  Se  Se20  1  0.663215  0.329358  0.000000  1
