# generated using pymatgen
data_Pr3NdMg3Au10
_symmetry_space_group_name_H-M   'P 1'
_cell_length_a   8.76185907
_cell_length_b   8.76185879
_cell_length_c   10.40456300
_cell_angle_alpha   89.99283301
_cell_angle_beta   89.99283301
_cell_angle_gamma   108.43935217
_symmetry_Int_Tables_number   1
_chemical_formula_structural   Pr3NdMg3Au10
_chemical_formula_sum   'Pr6 Nd2 Mg6 Au20'
_cell_volume   757.75092427
_cell_formula_units_Z   2
loop_
 _symmetry_equiv_pos_site_id
 _symmetry_equiv_pos_as_xyz
  1  'x, y, z'
loop_
 _atom_site_type_symbol
 _atom_site_label
 _atom_site_symmetry_multiplicity
 _atom_site_fract_x
 _atom_site_fract_y
 _atom_site_fract_z
 _atom_site_occupancy
  Pr  Pr0  1  0.799635  0.200365  0.500000  1
  Pr  Pr1  1  0.200365  0.799635  0.500000  1
  Pr  Pr2  1  0.302328  0.302328  0.202757  1
  Pr  Pr3  1  0.697672  0.697672  0.797243  1
  Pr  Pr4  1  0.198339  0.198339  0.703377  1
  Pr  Pr5  1  0.801661  0.801661  0.296623  1
  Nd  Nd6  1  0.699727  0.300273  0.000000  1
  Nd  Nd7  1  0.300273  0.699727  0.000000  1
  Mg  Mg8  1  0.012334  0.511678  0.249495  1
  Mg  Mg9  1  0.987666  0.488322  0.750505  1
  Mg  Mg10  1  0.488322  0.987666  0.750505  1
  Mg  Mg11  1  0.511678  0.012334  0.249495  1
  Mg  Mg12  1  0.000000  0.000000  0.000000  1
  Mg  Mg13  1  0.500000  0.500000  0.500000  1
  Au  Au14  1  0.096949  0.096949  0.403679  1
  Au  Au15  1  0.903051  0.903051  0.596321  1
  Au  Au16  1  0.402061  0.402061  0.905233  1
  Au  Au17  1  0.597939  0.597939  0.094767  1
  Au  Au18  1  0.882675  0.165274  0.205075  1
  Au  Au19  1  0.117325  0.834726  0.794925  1
  Au  Au20  1  0.616222  0.334234  0.706790  1
  Au  Au21  1  0.665766  0.383778  0.293210  1
  Au  Au22  1  0.383778  0.665766  0.293210  1
  Au  Au23  1  0.334234  0.616222  0.706790  1
  Au  Au24  1  0.834726  0.117325  0.794925  1
  Au  Au25  1  0.165274  0.882675  0.205075  1
  Au  Au26  1  0.934851  0.655528  0.021130  1
  Au  Au27  1  0.065149  0.344472  0.978870  1
  Au  Au28  1  0.566039  0.842391  0.521783  1
  Au  Au29  1  0.157609  0.433961  0.478217  1
  Au  Au30  1  0.433961  0.157609  0.478217  1
  Au  Au31  1  0.842391  0.566039  0.521783  1
  Au  Au32  1  0.344472  0.065149  0.978870  1
  Au  Au33  1  0.655528  0.934851  0.021130  1
