# generated using pymatgen
data_MnBe4Nb
_symmetry_space_group_name_H-M   'P 1'
_cell_length_a   4.38395217
_cell_length_b   4.38395217
_cell_length_c   4.38395200
_cell_angle_alpha   60.00000126
_cell_angle_beta   60.00000130
_cell_angle_gamma   60.00000083
_symmetry_Int_Tables_number   1
_chemical_formula_structural   MnBe4Nb
_chemical_formula_sum   'Mn1 Be4 Nb1'
_cell_volume   59.57751959
_cell_formula_units_Z   1
loop_
 _symmetry_equiv_pos_site_id
 _symmetry_equiv_pos_as_xyz
  1  'x, y, z'
loop_
 _atom_site_type_symbol
 _atom_site_label
 _atom_site_symmetry_multiplicity
 _atom_site_fract_x
 _atom_site_fract_y
 _atom_site_fract_z
 _atom_site_occupancy
  Mn  Mn0  1  0.000000  0.000000  0.000000  1
  Be  Be1  1  0.626229  0.626229  0.121312  1
  Be  Be2  1  0.626229  0.121312  0.626229  1
  Be  Be3  1  0.121312  0.626229  0.626229  1
  Be  Be4  1  0.626229  0.626229  0.626229  1
  Nb  Nb5  1  0.250000  0.250000  0.250000  1
