# generated using pymatgen
data_Hf2TaNb3(B2Ru5)2
_symmetry_space_group_name_H-M   'P 1'
_cell_length_a   9.47104813
_cell_length_b   9.47113778
_cell_length_c   3.06608500
_cell_angle_alpha   90.00000000
_cell_angle_beta   90.00000000
_cell_angle_gamma   89.91434384
_symmetry_Int_Tables_number   1
_chemical_formula_structural   Hf2TaNb3(B2Ru5)2
_chemical_formula_sum   'Hf2 Ta1 Nb3 B4 Ru10'
_cell_volume   275.03242839
_cell_formula_units_Z   1
loop_
 _symmetry_equiv_pos_site_id
 _symmetry_equiv_pos_as_xyz
  1  'x, y, z'
loop_
 _atom_site_type_symbol
 _atom_site_label
 _atom_site_symmetry_multiplicity
 _atom_site_fract_x
 _atom_site_fract_y
 _atom_site_fract_z
 _atom_site_occupancy
  Hf  Hf0  1  0.824001  0.676351  0.000000  1
  Hf  Hf1  1  0.175999  0.323649  0.000000  1
  Ta  Ta2  1  0.000000  0.000000  0.000000  1
  Nb  Nb3  1  0.323572  0.823762  0.000000  1
  Nb  Nb4  1  0.676428  0.176238  0.000000  1
  Nb  Nb5  1  0.500000  0.500000  0.000000  1
  B  B6  1  0.621140  0.878787  0.000000  1
  B  B7  1  0.378860  0.121213  0.000000  1
  B  B8  1  0.121321  0.621214  0.000000  1
  B  B9  1  0.878679  0.378786  0.000000  1
  Ru  Ru10  1  0.568999  0.719646  0.500000  1
  Ru  Ru11  1  0.431001  0.280354  0.500000  1
  Ru  Ru12  1  0.073227  0.782846  0.500000  1
  Ru  Ru13  1  0.926773  0.217154  0.500000  1
  Ru  Ru14  1  0.282409  0.573360  0.500000  1
  Ru  Ru15  1  0.717591  0.426640  0.500000  1
  Ru  Ru16  1  0.219189  0.068913  0.500000  1
  Ru  Ru17  1  0.780811  0.931087  0.500000  1
  Ru  Ru18  1  0.500000  0.000000  0.500000  1
  Ru  Ru19  1  0.000000  0.500000  0.500000  1
