# generated using pymatgen
data_La8Ga8Ir3Rh5
_symmetry_space_group_name_H-M   'P 1'
_cell_length_a   4.19698700
_cell_length_b   7.37481883
_cell_length_c   16.35544215
_cell_angle_alpha   89.94198319
_cell_angle_beta   90.00000000
_cell_angle_gamma   90.00000000
_symmetry_Int_Tables_number   1
_chemical_formula_structural   La8Ga8Ir3Rh5
_chemical_formula_sum   'La8 Ga8 Ir3 Rh5'
_cell_volume   506.23369286
_cell_formula_units_Z   1
loop_
 _symmetry_equiv_pos_site_id
 _symmetry_equiv_pos_as_xyz
  1  'x, y, z'
loop_
 _atom_site_type_symbol
 _atom_site_label
 _atom_site_symmetry_multiplicity
 _atom_site_fract_x
 _atom_site_fract_y
 _atom_site_fract_z
 _atom_site_occupancy
  La  La0  1  0.750000  0.332001  0.439638  1
  La  La1  1  0.250000  0.046149  0.717754  1
  La  La2  1  0.250000  0.543506  0.782012  1
  La  La3  1  0.250000  0.668418  0.560534  1
  La  La4  1  0.750000  0.831070  0.060385  1
  La  La5  1  0.250000  0.165797  0.939843  1
  La  La6  1  0.750000  0.454026  0.217682  1
  La  La7  1  0.750000  0.955044  0.282588  1
  Ga  Ga8  1  0.250000  0.128197  0.150436  1
  Ga  Ga9  1  0.250000  0.000175  0.438479  1
  Ga  Ga10  1  0.750000  0.873611  0.850960  1
  Ga  Ga11  1  0.750000  0.999814  0.561380  1
  Ga  Ga12  1  0.250000  0.501508  0.061418  1
  Ga  Ga13  1  0.750000  0.372027  0.650516  1
  Ga  Ga14  1  0.750000  0.499453  0.938190  1
  Ga  Ga15  1  0.250000  0.626182  0.349973  1
  Ir  Ir16  1  0.750000  0.252652  0.816194  1
  Ir  Ir17  1  0.250000  0.246476  0.316654  1
  Ir  Ir18  1  0.250000  0.737182  0.930463  1
  Rh  Rh19  1  0.250000  0.234423  0.569495  1
  Rh  Rh20  1  0.250000  0.749016  0.183696  1
  Rh  Rh21  1  0.750000  0.764112  0.430165  1
  Rh  Rh22  1  0.750000  0.267432  0.069308  1
  Rh  Rh23  1  0.750000  0.751729  0.682238  1
