# generated using pymatgen
data_NdSc6Sn23Ir6
_symmetry_space_group_name_H-M   'P 1'
_cell_length_a   9.73369200
_cell_length_b   9.73369153
_cell_length_c   9.95872700
_cell_angle_alpha   90.00000000
_cell_angle_beta   90.00000000
_cell_angle_gamma   120.00000160
_symmetry_Int_Tables_number   1
_chemical_formula_structural   NdSc6Sn23Ir6
_chemical_formula_sum   'Nd1 Sc6 Sn23 Ir6'
_cell_volume   817.12713098
_cell_formula_units_Z   1
loop_
 _symmetry_equiv_pos_site_id
 _symmetry_equiv_pos_as_xyz
  1  'x, y, z'
loop_
 _atom_site_type_symbol
 _atom_site_label
 _atom_site_symmetry_multiplicity
 _atom_site_fract_x
 _atom_site_fract_y
 _atom_site_fract_z
 _atom_site_occupancy
  Nd  Nd0  1  0.000000  0.000000  0.000000  1
  Sc  Sc1  1  0.515482  0.484518  0.691894  1
  Sc  Sc2  1  0.515482  0.030963  0.691894  1
  Sc  Sc3  1  0.969037  0.484518  0.691894  1
  Sc  Sc4  1  0.030963  0.515482  0.308106  1
  Sc  Sc5  1  0.484518  0.969037  0.308106  1
  Sc  Sc6  1  0.484518  0.515482  0.308106  1
  Sn  Sn7  1  0.666667  0.333333  0.167360  1
  Sn  Sn8  1  0.666667  0.333333  0.860371  1
  Sn  Sn9  1  0.333333  0.666667  0.139629  1
  Sn  Sn10  1  0.354007  0.354007  0.000000  1
  Sn  Sn11  1  0.000000  0.645993  0.000000  1
  Sn  Sn12  1  0.645993  0.000000  0.000000  1
  Sn  Sn13  1  0.645993  0.645993  0.000000  1
  Sn  Sn14  1  0.333333  0.666667  0.832640  1
  Sn  Sn15  1  0.449387  0.224693  0.459692  1
  Sn  Sn16  1  0.224693  0.775307  0.540308  1
  Sn  Sn17  1  0.224693  0.449387  0.540308  1
  Sn  Sn18  1  0.550613  0.775307  0.540308  1
  Sn  Sn19  1  0.123062  0.876938  0.286565  1
  Sn  Sn20  1  0.775307  0.550613  0.459692  1
  Sn  Sn21  1  0.775307  0.224693  0.459692  1
  Sn  Sn22  1  0.354007  0.000000  0.000000  1
  Sn  Sn23  1  0.123062  0.246122  0.286565  1
  Sn  Sn24  1  0.753878  0.876938  0.286565  1
  Sn  Sn25  1  0.246122  0.123062  0.713435  1
  Sn  Sn26  1  0.876938  0.753878  0.713435  1
  Sn  Sn27  1  0.876938  0.123062  0.713435  1
  Sn  Sn28  1  0.000000  0.000000  0.500000  1
  Sn  Sn29  1  0.000000  0.354007  0.000000  1
  Ir  Ir30  1  0.170568  0.829432  0.798497  1
  Ir  Ir31  1  0.170568  0.341136  0.798497  1
  Ir  Ir32  1  0.658864  0.829432  0.798497  1
  Ir  Ir33  1  0.341136  0.170568  0.201503  1
  Ir  Ir34  1  0.829432  0.658864  0.201503  1
  Ir  Ir35  1  0.829432  0.170568  0.201503  1
