# generated using pymatgen
data_CsTiCu3Te4
_symmetry_space_group_name_H-M   'P 1'
_cell_length_a   8.26813700
_cell_length_b   6.15941340
_cell_length_c   10.98825450
_cell_angle_alpha   73.53991669
_cell_angle_beta   90.00000000
_cell_angle_gamma   90.00000000
_symmetry_Int_Tables_number   1
_chemical_formula_structural   CsTiCu3Te4
_chemical_formula_sum   'Cs2 Ti2 Cu6 Te8'
_cell_volume   536.66367482
_cell_formula_units_Z   2
loop_
 _symmetry_equiv_pos_site_id
 _symmetry_equiv_pos_as_xyz
  1  'x, y, z'
loop_
 _atom_site_type_symbol
 _atom_site_label
 _atom_site_symmetry_multiplicity
 _atom_site_fract_x
 _atom_site_fract_y
 _atom_site_fract_z
 _atom_site_occupancy
  Cs  Cs0  1  0.250000  0.189110  0.616939  1
  Cs  Cs1  1  0.750000  0.810890  0.383061  1
  Ti  Ti2  1  0.750000  0.349978  0.799204  1
  Ti  Ti3  1  0.250000  0.650022  0.200796  1
  Cu  Cu4  1  0.502248  0.712894  0.000085  1
  Cu  Cu5  1  0.750000  0.845395  0.813570  1
  Cu  Cu6  1  0.250000  0.154605  0.186430  1
  Cu  Cu7  1  0.497752  0.287106  0.999915  1
  Cu  Cu8  1  0.002248  0.287106  0.999915  1
  Cu  Cu9  1  0.997752  0.712894  0.000085  1
  Te  Te10  1  0.490521  0.607199  0.784716  1
  Te  Te11  1  0.990521  0.392801  0.215284  1
  Te  Te12  1  0.009479  0.607199  0.784716  1
  Te  Te13  1  0.509479  0.392801  0.215284  1
  Te  Te14  1  0.250000  0.990820  0.985837  1
  Te  Te15  1  0.750000  0.009180  0.014163  1
  Te  Te16  1  0.250000  0.807547  0.393668  1
  Te  Te17  1  0.750000  0.192453  0.606332  1
