# generated using pymatgen
data_La3Mg3In2Sn
_symmetry_space_group_name_H-M   'P 1'
_cell_length_a   7.80888500
_cell_length_b   7.80888494
_cell_length_c   4.73405300
_cell_angle_alpha   90.00000000
_cell_angle_beta   90.00000000
_cell_angle_gamma   119.99999603
_symmetry_Int_Tables_number   1
_chemical_formula_structural   La3Mg3In2Sn
_chemical_formula_sum   'La3 Mg3 In2 Sn1'
_cell_volume   250.00104007
_cell_formula_units_Z   1
loop_
 _symmetry_equiv_pos_site_id
 _symmetry_equiv_pos_as_xyz
  1  'x, y, z'
loop_
 _atom_site_type_symbol
 _atom_site_label
 _atom_site_symmetry_multiplicity
 _atom_site_fract_x
 _atom_site_fract_y
 _atom_site_fract_z
 _atom_site_occupancy
  La  La0  1  0.422325  0.000319  0.000000  1
  La  La1  1  0.999681  0.422006  0.000000  1
  La  La2  1  0.577994  0.577675  0.000000  1
  Mg  Mg3  1  0.758390  0.997044  0.500000  1
  Mg  Mg4  1  0.238654  0.241610  0.500000  1
  Mg  Mg5  1  0.002956  0.761345  0.500000  1
  In  In6  1  0.000000  0.000000  0.000000  1
  In  In7  1  0.333334  0.666667  0.500000  1
  Sn  Sn8  1  0.666666  0.333333  0.500000  1
