# generated using pymatgen
data_V6PS
_symmetry_space_group_name_H-M   'P 1'
_cell_length_a   9.46811900
_cell_length_b   9.18389300
_cell_length_c   4.70369300
_cell_angle_alpha   90.00000000
_cell_angle_beta   90.00000000
_cell_angle_gamma   90.00000000
_symmetry_Int_Tables_number   1
_chemical_formula_structural   V6PS
_chemical_formula_sum   'V24 P4 S4'
_cell_volume   409.00582332
_cell_formula_units_Z   4
loop_
 _symmetry_equiv_pos_site_id
 _symmetry_equiv_pos_as_xyz
  1  'x, y, z'
loop_
 _atom_site_type_symbol
 _atom_site_label
 _atom_site_symmetry_multiplicity
 _atom_site_fract_x
 _atom_site_fract_y
 _atom_site_fract_z
 _atom_site_occupancy
  V  V0  1  0.588175  0.088358  0.502449  1
  V  V1  1  0.911825  0.411642  0.997551  1
  V  V2  1  0.299006  0.790894  0.003933  1
  V  V3  1  0.200994  0.709106  0.496067  1
  V  V4  1  0.852472  0.000000  0.750000  1
  V  V5  1  0.147528  0.000000  0.750000  1
  V  V6  1  0.911825  0.588358  0.502449  1
  V  V7  1  0.588175  0.911642  0.997551  1
  V  V8  1  0.700994  0.790894  0.496067  1
  V  V9  1  0.799006  0.290894  0.496067  1
  V  V10  1  0.352472  0.500000  0.750000  1
  V  V11  1  0.088175  0.588358  0.997551  1
  V  V12  1  0.647528  0.500000  0.750000  1
  V  V13  1  0.411825  0.911642  0.502449  1
  V  V14  1  0.000000  0.148503  0.250000  1
  V  V15  1  0.088175  0.411642  0.502449  1
  V  V16  1  0.200994  0.290894  0.003933  1
  V  V17  1  0.411825  0.088358  0.997551  1
  V  V18  1  0.500000  0.351497  0.250000  1
  V  V19  1  0.000000  0.851497  0.250000  1
  V  V20  1  0.700994  0.209106  0.003933  1
  V  V21  1  0.799006  0.709106  0.003933  1
  V  V22  1  0.500000  0.648503  0.250000  1
  V  V23  1  0.299006  0.209106  0.496067  1
  P  P24  1  0.208975  0.000000  0.250000  1
  P  P25  1  0.791025  0.000000  0.250000  1
  P  P26  1  0.708975  0.500000  0.250000  1
  P  P27  1  0.291025  0.500000  0.250000  1
  S  S28  1  0.500000  0.292477  0.750000  1
  S  S29  1  0.000000  0.207523  0.750000  1
  S  S30  1  0.500000  0.707523  0.750000  1
  S  S31  1  0.000000  0.792477  0.750000  1
