# generated using pymatgen
data_Gd6AlGa3Ir4
_symmetry_space_group_name_H-M   'P 1'
_cell_length_a   5.67152700
_cell_length_b   7.96249700
_cell_length_c   13.38006200
_cell_angle_alpha   90.00000000
_cell_angle_beta   90.00000000
_cell_angle_gamma   90.00000000
_symmetry_Int_Tables_number   1
_chemical_formula_structural   Gd6AlGa3Ir4
_chemical_formula_sum   'Gd12 Al2 Ga6 Ir8'
_cell_volume   604.23713364
_cell_formula_units_Z   2
loop_
 _symmetry_equiv_pos_site_id
 _symmetry_equiv_pos_as_xyz
  1  'x, y, z'
loop_
 _atom_site_type_symbol
 _atom_site_label
 _atom_site_symmetry_multiplicity
 _atom_site_fract_x
 _atom_site_fract_y
 _atom_site_fract_z
 _atom_site_occupancy
  Gd  Gd0  1  0.147065  0.895969  0.597852  1
  Gd  Gd1  1  0.852935  0.104031  0.097852  1
  Gd  Gd2  1  0.147065  0.604031  0.402148  1
  Gd  Gd3  1  0.852935  0.395969  0.902148  1
  Gd  Gd4  1  0.852018  0.102043  0.401564  1
  Gd  Gd5  1  0.147982  0.897957  0.901564  1
  Gd  Gd6  1  0.852018  0.397957  0.598436  1
  Gd  Gd7  1  0.147982  0.602043  0.098436  1
  Gd  Gd8  1  0.377211  0.257244  0.749794  1
  Gd  Gd9  1  0.622789  0.742756  0.249794  1
  Gd  Gd10  1  0.377211  0.242756  0.250206  1
  Gd  Gd11  1  0.622789  0.757244  0.750206  1
  Al  Al12  1  0.378617  0.250000  0.500000  1
  Al  Al13  1  0.621383  0.750000  0.000000  1
  Ga  Ga14  1  0.879412  0.104562  0.749894  1
  Ga  Ga15  1  0.120588  0.895438  0.249894  1
  Ga  Ga16  1  0.879412  0.395438  0.250106  1
  Ga  Ga17  1  0.120588  0.604562  0.750106  1
  Ga  Ga18  1  0.628925  0.750000  0.500000  1
  Ga  Ga19  1  0.371075  0.250000  0.000000  1
  Ir  Ir20  1  0.643279  0.034819  0.593369  1
  Ir  Ir21  1  0.356721  0.965181  0.093369  1
  Ir  Ir22  1  0.643279  0.465181  0.406631  1
  Ir  Ir23  1  0.356721  0.534819  0.906631  1
  Ir  Ir24  1  0.351222  0.969984  0.407916  1
  Ir  Ir25  1  0.648778  0.030016  0.907916  1
  Ir  Ir26  1  0.351222  0.530016  0.592084  1
  Ir  Ir27  1  0.648778  0.469984  0.092084  1
