# generated using pymatgen
data_DyTm2Co7(P3Rh)2
_symmetry_space_group_name_H-M   'P 1'
_cell_length_a   3.70432100
_cell_length_b   10.62130100
_cell_length_c   12.32654100
_cell_angle_alpha   90.00000000
_cell_angle_beta   90.00000000
_cell_angle_gamma   90.00000000
_symmetry_Int_Tables_number   1
_chemical_formula_structural   DyTm2Co7(P3Rh)2
_chemical_formula_sum   'Dy2 Tm4 Co14 P12 Rh4'
_cell_volume   484.98416051
_cell_formula_units_Z   2
loop_
 _symmetry_equiv_pos_site_id
 _symmetry_equiv_pos_as_xyz
  1  'x, y, z'
loop_
 _atom_site_type_symbol
 _atom_site_label
 _atom_site_symmetry_multiplicity
 _atom_site_fract_x
 _atom_site_fract_y
 _atom_site_fract_z
 _atom_site_occupancy
  Dy  Dy0  1  0.000000  0.500000  0.520891  1
  Dy  Dy1  1  0.500000  0.000000  0.479109  1
  Tm  Tm2  1  0.500000  0.814380  0.205705  1
  Tm  Tm3  1  0.500000  0.185620  0.205705  1
  Tm  Tm4  1  0.000000  0.685620  0.794295  1
  Tm  Tm5  1  0.000000  0.314380  0.794295  1
  Co  Co6  1  0.000000  0.500000  0.988365  1
  Co  Co7  1  0.500000  0.000000  0.011635  1
  Co  Co8  1  0.500000  0.331796  0.993729  1
  Co  Co9  1  0.500000  0.668204  0.993729  1
  Co  Co10  1  0.000000  0.168204  0.006271  1
  Co  Co11  1  0.000000  0.831796  0.006271  1
  Co  Co12  1  0.500000  0.300104  0.429394  1
  Co  Co13  1  0.500000  0.699896  0.429394  1
  Co  Co14  1  0.000000  0.199896  0.570606  1
  Co  Co15  1  0.000000  0.800104  0.570606  1
  Co  Co16  1  0.500000  0.879420  0.710290  1
  Co  Co17  1  0.500000  0.120580  0.710290  1
  Co  Co18  1  0.000000  0.620580  0.289710  1
  Co  Co19  1  0.000000  0.379420  0.289710  1
  P  P20  1  0.500000  0.500000  0.889858  1
  P  P21  1  0.000000  0.000000  0.110142  1
  P  P22  1  0.500000  0.500000  0.350175  1
  P  P23  1  0.000000  0.000000  0.649825  1
  P  P24  1  0.500000  0.302752  0.614102  1
  P  P25  1  0.500000  0.697248  0.614102  1
  P  P26  1  0.000000  0.197248  0.385898  1
  P  P27  1  0.000000  0.802752  0.385898  1
  P  P28  1  0.500000  0.843621  0.893788  1
  P  P29  1  0.500000  0.156379  0.893788  1
  P  P30  1  0.000000  0.656379  0.106212  1
  P  P31  1  0.000000  0.343621  0.106212  1
  Rh  Rh32  1  0.500000  0.500000  0.159938  1
  Rh  Rh33  1  0.000000  0.000000  0.840062  1
  Rh  Rh34  1  0.500000  0.500000  0.704700  1
  Rh  Rh35  1  0.000000  0.000000  0.295300  1
