# generated using pymatgen
data_NdDy7(Si4W3)4
_symmetry_space_group_name_H-M   'P 1'
_cell_length_a   6.80037026
_cell_length_b   6.95762804
_cell_length_c   12.93602844
_cell_angle_alpha   89.90667501
_cell_angle_beta   90.00064504
_cell_angle_gamma   89.96001815
_symmetry_Int_Tables_number   1
_chemical_formula_structural   NdDy7(Si4W3)4
_chemical_formula_sum   'Nd1 Dy7 Si16 W12'
_cell_volume   612.06006809
_cell_formula_units_Z   1
loop_
 _symmetry_equiv_pos_site_id
 _symmetry_equiv_pos_as_xyz
  1  'x, y, z'
loop_
 _atom_site_type_symbol
 _atom_site_label
 _atom_site_symmetry_multiplicity
 _atom_site_fract_x
 _atom_site_fract_y
 _atom_site_fract_z
 _atom_site_occupancy
  Nd  Nd0  1  0.996479  0.833472  0.592155  1
  Dy  Dy1  1  0.495377  0.667366  0.593459  1
  Dy  Dy2  1  0.995604  0.832355  0.906508  1
  Dy  Dy3  1  0.504870  0.332330  0.093669  1
  Dy  Dy4  1  0.004950  0.167503  0.405953  1
  Dy  Dy5  1  0.504846  0.333067  0.406109  1
  Dy  Dy6  1  0.004445  0.167911  0.093561  1
  Dy  Dy7  1  0.495349  0.667406  0.907194  1
  Si  Si8  1  0.659556  0.957608  0.451692  1
  Si  Si9  1  0.161605  0.542789  0.047277  1
  Si  Si10  1  0.338502  0.042765  0.953259  1
  Si  Si11  1  0.837188  0.453756  0.546651  1
  Si  Si12  1  0.342052  0.044922  0.546412  1
  Si  Si13  1  0.838492  0.457587  0.952980  1
  Si  Si14  1  0.661501  0.957133  0.047242  1
  Si  Si15  1  0.162150  0.541067  0.451623  1
  Si  Si16  1  0.463205  0.370333  0.750453  1
  Si  Si17  1  0.963031  0.132124  0.750972  1
  Si  Si18  1  0.536423  0.629923  0.249621  1
  Si  Si19  1  0.036462  0.869995  0.250098  1
  Si  Si20  1  0.694328  0.867715  0.751167  1
  Si  Si21  1  0.198065  0.630308  0.751190  1
  Si  Si22  1  0.303564  0.132785  0.249904  1
  Si  Si23  1  0.803327  0.367301  0.249861  1
  W  W24  1  0.666085  0.164637  0.626618  1
  W  W25  1  0.167695  0.336442  0.874845  1
  W  W26  1  0.331992  0.836593  0.125680  1
  W  W27  1  0.831462  0.662223  0.373320  1
  W  W28  1  0.332924  0.836239  0.373555  1
  W  W29  1  0.832603  0.663368  0.125769  1
  W  W30  1  0.667432  0.163796  0.874903  1
  W  W31  1  0.167980  0.336572  0.625764  1
  W  W32  1  0.833610  0.498238  0.750444  1
  W  W33  1  0.334615  0.002434  0.750666  1
  W  W34  1  0.166048  0.500858  0.249729  1
  W  W35  1  0.666183  0.999077  0.249699  1
