# generated using pymatgen
data_Y3Lu(ZrGa5)2
_symmetry_space_group_name_H-M   'P 1'
_cell_length_a   5.92161852
_cell_length_b   9.43238185
_cell_length_c   11.45365400
_cell_angle_alpha   90.00000000
_cell_angle_beta   90.00000000
_cell_angle_gamma   89.95164041
_symmetry_Int_Tables_number   1
_chemical_formula_structural   Y3Lu(ZrGa5)2
_chemical_formula_sum   'Y6 Lu2 Zr4 Ga20'
_cell_volume   639.74323902
_cell_formula_units_Z   2
loop_
 _symmetry_equiv_pos_site_id
 _symmetry_equiv_pos_as_xyz
  1  'x, y, z'
loop_
 _atom_site_type_symbol
 _atom_site_label
 _atom_site_symmetry_multiplicity
 _atom_site_fract_x
 _atom_site_fract_y
 _atom_site_fract_z
 _atom_site_occupancy
  Y  Y0  1  0.884558  0.500879  0.352192  1
  Y  Y1  1  0.615442  0.999121  0.852192  1
  Y  Y2  1  0.114943  0.000613  0.647225  1
  Y  Y3  1  0.385057  0.499387  0.147225  1
  Y  Y4  1  0.114578  0.499369  0.648006  1
  Y  Y5  1  0.385422  0.000631  0.148006  1
  Lu  Lu6  1  0.885388  0.999427  0.352476  1
  Lu  Lu7  1  0.614612  0.500573  0.852476  1
  Zr  Zr8  1  0.859019  0.749658  0.073872  1
  Zr  Zr9  1  0.640981  0.750342  0.573872  1
  Zr  Zr10  1  0.141992  0.249969  0.925768  1
  Zr  Zr11  1  0.358008  0.250031  0.425768  1
  Ga  Ga12  1  0.876285  0.053756  0.090228  1
  Ga  Ga13  1  0.623715  0.446244  0.590228  1
  Ga  Ga14  1  0.124702  0.553256  0.910472  1
  Ga  Ga15  1  0.375298  0.946744  0.410472  1
  Ga  Ga16  1  0.123738  0.945647  0.911048  1
  Ga  Ga17  1  0.376262  0.554353  0.411048  1
  Ga  Ga18  1  0.876307  0.446052  0.088299  1
  Ga  Ga19  1  0.623693  0.053948  0.588299  1
  Ga  Ga20  1  0.151341  0.751283  0.258895  1
  Ga  Ga21  1  0.348659  0.748717  0.758895  1
  Ga  Ga22  1  0.846014  0.251386  0.742366  1
  Ga  Ga23  1  0.653986  0.248614  0.242366  1
  Ga  Ga24  1  0.396385  0.749488  0.997351  1
  Ga  Ga25  1  0.103615  0.750512  0.497351  1
  Ga  Ga26  1  0.605508  0.251430  0.000726  1
  Ga  Ga27  1  0.894492  0.248570  0.500726  1
  Ga  Ga28  1  0.612453  0.751813  0.295155  1
  Ga  Ga29  1  0.887547  0.748187  0.795155  1
  Ga  Ga30  1  0.390134  0.250344  0.705920  1
  Ga  Ga31  1  0.109866  0.249656  0.205920  1
