# generated using pymatgen
data_TbGdDyTaO7
_symmetry_space_group_name_H-M   'P 1'
_cell_length_a   6.51494446
_cell_length_b   6.51494611
_cell_length_c   7.53094338
_cell_angle_alpha   90.00888486
_cell_angle_beta   90.00887999
_cell_angle_gamma   108.72103469
_symmetry_Int_Tables_number   1
_chemical_formula_structural   TbGdDyTaO7
_chemical_formula_sum   'Tb2 Gd2 Dy2 Ta2 O14'
_cell_volume   302.73547432
_cell_formula_units_Z   2
loop_
 _symmetry_equiv_pos_site_id
 _symmetry_equiv_pos_as_xyz
  1  'x, y, z'
loop_
 _atom_site_type_symbol
 _atom_site_label
 _atom_site_symmetry_multiplicity
 _atom_site_fract_x
 _atom_site_fract_y
 _atom_site_fract_z
 _atom_site_occupancy
  Tb  Tb0  1  0.000054  0.534839  0.244002  1
  Tb  Tb1  1  0.465161  0.999946  0.255998  1
  Gd  Gd2  1  0.470733  0.471154  0.999605  1
  Gd  Gd3  1  0.528846  0.529267  0.500395  1
  Dy  Dy4  1  0.999858  0.464831  0.743773  1
  Dy  Dy5  1  0.535169  0.000142  0.756227  1
  Ta  Ta6  1  0.002623  0.002536  0.500605  1
  Ta  Ta7  1  0.997464  0.997377  0.999395  1
  O  O8  1  0.932593  0.067407  0.750000  1
  O  O9  1  0.640668  0.359332  0.750000  1
  O  O10  1  0.309942  0.052548  0.541279  1
  O  O11  1  0.947452  0.690058  0.958721  1
  O  O12  1  0.630868  0.369132  0.250000  1
  O  O13  1  0.922047  0.674997  0.527455  1
  O  O14  1  0.325003  0.077953  0.972545  1
  O  O15  1  0.078861  0.325604  0.025788  1
  O  O16  1  0.674396  0.921139  0.474212  1
  O  O17  1  0.368862  0.631138  0.750000  1
  O  O18  1  0.688882  0.944772  0.039088  1
  O  O19  1  0.055228  0.311118  0.460912  1
  O  O20  1  0.360276  0.639724  0.250000  1
  O  O21  1  0.065015  0.934985  0.250000  1
