# generated using pymatgen
data_YEr7Ga3Co
_symmetry_space_group_name_H-M   'P 1'
_cell_length_a   9.94585900
_cell_length_b   9.94585963
_cell_length_c   6.87273000
_cell_angle_alpha   90.00000000
_cell_angle_beta   90.00000000
_cell_angle_gamma   120.00000122
_symmetry_Int_Tables_number   1
_chemical_formula_structural   YEr7Ga3Co
_chemical_formula_sum   'Y2 Er14 Ga6 Co2'
_cell_volume   588.76845432
_cell_formula_units_Z   2
loop_
 _symmetry_equiv_pos_site_id
 _symmetry_equiv_pos_as_xyz
  1  'x, y, z'
loop_
 _atom_site_type_symbol
 _atom_site_label
 _atom_site_symmetry_multiplicity
 _atom_site_fract_x
 _atom_site_fract_y
 _atom_site_fract_z
 _atom_site_occupancy
  Y  Y0  1  0.000000  0.000000  0.270163  1
  Y  Y1  1  0.000000  0.000000  0.770163  1
  Er  Er2  1  0.173459  0.826541  0.991392  1
  Er  Er3  1  0.826541  0.173459  0.491392  1
  Er  Er4  1  0.173459  0.346918  0.991392  1
  Er  Er5  1  0.653082  0.826541  0.991392  1
  Er  Er6  1  0.346918  0.173459  0.491392  1
  Er  Er7  1  0.826541  0.653082  0.491392  1
  Er  Er8  1  0.333333  0.666667  0.672095  1
  Er  Er9  1  0.666667  0.333333  0.172095  1
  Er  Er10  1  0.464168  0.535832  0.292798  1
  Er  Er11  1  0.535832  0.464168  0.792798  1
  Er  Er12  1  0.464168  0.928336  0.292798  1
  Er  Er13  1  0.071664  0.535832  0.292798  1
  Er  Er14  1  0.928336  0.464168  0.792798  1
  Er  Er15  1  0.535832  0.071664  0.792798  1
  Ga  Ga16  1  0.163715  0.836285  0.539944  1
  Ga  Ga17  1  0.836285  0.163715  0.039944  1
  Ga  Ga18  1  0.163715  0.327431  0.539944  1
  Ga  Ga19  1  0.672569  0.836285  0.539944  1
  Ga  Ga20  1  0.327431  0.163715  0.039944  1
  Ga  Ga21  1  0.836285  0.672569  0.039944  1
  Co  Co22  1  0.333333  0.666667  0.058401  1
  Co  Co23  1  0.666667  0.333333  0.558401  1
