# generated using pymatgen
data_Ta3Al2CrC
_symmetry_space_group_name_H-M   'P 1'
_cell_length_a   8.28376978
_cell_length_b   8.28376998
_cell_length_c   8.28376900
_cell_angle_alpha   59.99999990
_cell_angle_beta   59.99999910
_cell_angle_gamma   60.00000250
_symmetry_Int_Tables_number   1
_chemical_formula_structural   Ta3Al2CrC
_chemical_formula_sum   'Ta12 Al8 Cr4 C4'
_cell_volume   401.94722811
_cell_formula_units_Z   4
loop_
 _symmetry_equiv_pos_site_id
 _symmetry_equiv_pos_as_xyz
  1  'x, y, z'
loop_
 _atom_site_type_symbol
 _atom_site_label
 _atom_site_symmetry_multiplicity
 _atom_site_fract_x
 _atom_site_fract_y
 _atom_site_fract_z
 _atom_site_occupancy
  Ta  Ta0  1  0.555623  0.944377  0.555623  1
  Ta  Ta1  1  0.305623  0.694377  0.694377  1
  Ta  Ta2  1  0.694377  0.305623  0.305623  1
  Ta  Ta3  1  0.305623  0.694377  0.305623  1
  Ta  Ta4  1  0.694377  0.694377  0.305623  1
  Ta  Ta5  1  0.305623  0.305623  0.694377  1
  Ta  Ta6  1  0.555623  0.555623  0.944377  1
  Ta  Ta7  1  0.944377  0.555623  0.555623  1
  Ta  Ta8  1  0.555623  0.944377  0.944377  1
  Ta  Ta9  1  0.944377  0.944377  0.555623  1
  Ta  Ta10  1  0.694377  0.305623  0.694377  1
  Ta  Ta11  1  0.944377  0.555623  0.944377  1
  Al  Al12  1  0.915853  0.915853  0.915853  1
  Al  Al13  1  0.997557  0.334147  0.334147  1
  Al  Al14  1  0.334147  0.997557  0.334147  1
  Al  Al15  1  0.334147  0.334147  0.997557  1
  Al  Al16  1  0.915853  0.252443  0.915853  1
  Al  Al17  1  0.915853  0.915853  0.252443  1
  Al  Al18  1  0.252443  0.915853  0.915853  1
  Al  Al19  1  0.334147  0.334147  0.334147  1
  Cr  Cr20  1  0.125000  0.125000  0.125000  1
  Cr  Cr21  1  0.625000  0.125000  0.125000  1
  Cr  Cr22  1  0.125000  0.625000  0.125000  1
  Cr  Cr23  1  0.125000  0.125000  0.625000  1
  C  C24  1  0.625000  0.625000  0.625000  1
  C  C25  1  0.125000  0.625000  0.625000  1
  C  C26  1  0.625000  0.125000  0.625000  1
  C  C27  1  0.625000  0.625000  0.125000  1
