# generated using pymatgen
data_TmLu3Th6(Au3C)2
_symmetry_space_group_name_H-M   'P 1'
_cell_length_a   8.77132500
_cell_length_b   8.77132588
_cell_length_c   6.39630700
_cell_angle_alpha   90.00000000
_cell_angle_beta   90.00000000
_cell_angle_gamma   120.00000046
_symmetry_Int_Tables_number   1
_chemical_formula_structural   TmLu3Th6(Au3C)2
_chemical_formula_sum   'Tm1 Lu3 Th6 Au6 C2'
_cell_volume   426.17736451
_cell_formula_units_Z   1
loop_
 _symmetry_equiv_pos_site_id
 _symmetry_equiv_pos_as_xyz
  1  'x, y, z'
loop_
 _atom_site_type_symbol
 _atom_site_label
 _atom_site_symmetry_multiplicity
 _atom_site_fract_x
 _atom_site_fract_y
 _atom_site_fract_z
 _atom_site_occupancy
  Tm  Tm0  1  0.666667  0.333333  0.500000  1
  Lu  Lu1  1  0.666667  0.333333  0.000000  1
  Lu  Lu2  1  0.333333  0.666667  0.000000  1
  Lu  Lu3  1  0.333333  0.666667  0.500000  1
  Th  Th4  1  0.766269  0.766350  0.750064  1
  Th  Th5  1  0.233650  0.999918  0.750064  1
  Th  Th6  1  0.000082  0.233731  0.750064  1
  Th  Th7  1  0.233650  0.233731  0.249936  1
  Th  Th8  1  0.766269  0.999918  0.249936  1
  Th  Th9  1  0.000082  0.766350  0.249936  1
  Au  Au10  1  0.407470  0.408823  0.750031  1
  Au  Au11  1  0.591177  0.998647  0.750031  1
  Au  Au12  1  0.001353  0.592530  0.750031  1
  Au  Au13  1  0.591177  0.592530  0.249969  1
  Au  Au14  1  0.407470  0.998647  0.249969  1
  Au  Au15  1  0.001353  0.408823  0.249969  1
  C  C16  1  0.000000  0.000000  0.000000  1
  C  C17  1  0.000000  0.000000  0.500000  1
