# generated using pymatgen
data_Ce3Al12(OsRu)2
_symmetry_space_group_name_H-M   'P 1'
_cell_length_a   8.90342745
_cell_length_b   8.90342648
_cell_length_c   9.53819821
_cell_angle_alpha   90.03276144
_cell_angle_beta   90.03275546
_cell_angle_gamma   120.10755464
_symmetry_Int_Tables_number   1
_chemical_formula_structural   Ce3Al12(OsRu)2
_chemical_formula_sum   'Ce6 Al24 Os4 Ru4'
_cell_volume   654.09282449
_cell_formula_units_Z   2
loop_
 _symmetry_equiv_pos_site_id
 _symmetry_equiv_pos_as_xyz
  1  'x, y, z'
loop_
 _atom_site_type_symbol
 _atom_site_label
 _atom_site_symmetry_multiplicity
 _atom_site_fract_x
 _atom_site_fract_y
 _atom_site_fract_z
 _atom_site_occupancy
  Ce  Ce0  1  0.804356  0.611407  0.750301  1
  Ce  Ce1  1  0.193575  0.806425  0.250000  1
  Ce  Ce2  1  0.611407  0.804356  0.250301  1
  Ce  Ce3  1  0.388593  0.195644  0.749699  1
  Ce  Ce4  1  0.806425  0.193575  0.750000  1
  Ce  Ce5  1  0.195644  0.388593  0.249699  1
  Al  Al6  1  0.333362  0.666777  0.491554  1
  Al  Al7  1  0.666777  0.333362  0.991554  1
  Al  Al8  1  0.666638  0.333223  0.508446  1
  Al  Al9  1  0.333223  0.666638  0.008446  1
  Al  Al10  1  0.162289  0.323694  0.577802  1
  Al  Al11  1  0.675932  0.837898  0.577490  1
  Al  Al12  1  0.161765  0.838892  0.578896  1
  Al  Al13  1  0.838892  0.161765  0.078896  1
  Al  Al14  1  0.838235  0.161108  0.421104  1
  Al  Al15  1  0.837898  0.675932  0.077490  1
  Al  Al16  1  0.323694  0.162289  0.077802  1
  Al  Al17  1  0.676306  0.837711  0.922198  1
  Al  Al18  1  0.162102  0.324068  0.922510  1
  Al  Al19  1  0.837711  0.676306  0.422198  1
  Al  Al20  1  0.999580  0.000420  0.250000  1
  Al  Al21  1  0.000420  0.999580  0.750000  1
  Al  Al22  1  0.562140  0.123165  0.249523  1
  Al  Al23  1  0.437709  0.562291  0.750000  1
  Al  Al24  1  0.123165  0.562140  0.749523  1
  Al  Al25  1  0.876835  0.437860  0.250477  1
  Al  Al26  1  0.562291  0.437709  0.250000  1
  Al  Al27  1  0.437860  0.876835  0.750477  1
  Al  Al28  1  0.161108  0.838235  0.921104  1
  Al  Al29  1  0.324068  0.162102  0.422510  1
  Os  Os30  1  0.500000  0.000000  0.500000  1
  Os  Os31  1  0.500000  0.500000  0.000000  1
  Os  Os32  1  0.000000  0.500000  0.000000  1
  Os  Os33  1  0.500000  0.500000  0.500000  1
  Ru  Ru34  1  0.000000  0.000000  0.500000  1
  Ru  Ru35  1  0.000000  0.000000  0.000000  1
  Ru  Ru36  1  0.000000  0.500000  0.500000  1
  Ru  Ru37  1  0.500000  0.000000  0.000000  1
