# generated using pymatgen
data_PrNd11(Si7Br3)2
_symmetry_space_group_name_H-M   'P 1'
_cell_length_a   4.09088000
_cell_length_b   11.75111869
_cell_length_c   16.56236815
_cell_angle_alpha   90.02617194
_cell_angle_beta   90.00000000
_cell_angle_gamma   90.00000000
_symmetry_Int_Tables_number   1
_chemical_formula_structural   PrNd11(Si7Br3)2
_chemical_formula_sum   'Pr1 Nd11 Si14 Br6'
_cell_volume   796.19297552
_cell_formula_units_Z   1
loop_
 _symmetry_equiv_pos_site_id
 _symmetry_equiv_pos_as_xyz
  1  'x, y, z'
loop_
 _atom_site_type_symbol
 _atom_site_label
 _atom_site_symmetry_multiplicity
 _atom_site_fract_x
 _atom_site_fract_y
 _atom_site_fract_z
 _atom_site_occupancy
  Pr  Pr0  1  0.500000  0.358147  0.756390  1
  Nd  Nd1  1  0.500000  0.342456  0.500045  1
  Nd  Nd2  1  0.000000  0.657756  0.000037  1
  Nd  Nd3  1  0.000000  0.641432  0.743165  1
  Nd  Nd4  1  0.500000  0.358715  0.243401  1
  Nd  Nd5  1  0.000000  0.641206  0.256784  1
  Nd  Nd6  1  0.500000  0.065324  0.880184  1
  Nd  Nd7  1  0.000000  0.934076  0.619616  1
  Nd  Nd8  1  0.500000  0.065464  0.119678  1
  Nd  Nd9  1  0.000000  0.934054  0.380378  1
  Nd  Nd10  1  0.500000  0.355952  0.000068  1
  Nd  Nd11  1  0.000000  0.644365  0.499962  1
  Si  Si12  1  0.000000  0.150838  0.999928  1
  Si  Si13  1  0.500000  0.849339  0.500149  1
  Si  Si14  1  0.500000  0.568436  0.876395  1
  Si  Si15  1  0.000000  0.432440  0.623342  1
  Si  Si16  1  0.500000  0.567789  0.123624  1
  Si  Si17  1  0.000000  0.432038  0.376419  1
  Si  Si18  1  0.000000  0.253078  0.874010  1
  Si  Si19  1  0.500000  0.747085  0.626457  1
  Si  Si20  1  0.000000  0.253278  0.126397  1
  Si  Si21  1  0.500000  0.746776  0.373563  1
  Si  Si22  1  0.000000  0.458365  0.877119  1
  Si  Si23  1  0.500000  0.542216  0.623189  1
  Si  Si24  1  0.500000  0.541979  0.376512  1
  Si  Si25  1  0.000000  0.457982  0.123593  1
  Br  Br26  1  0.500000  0.108255  0.692662  1
  Br  Br27  1  0.000000  0.891216  0.807232  1
  Br  Br28  1  0.000000  0.138947  0.499942  1
  Br  Br29  1  0.500000  0.860978  0.999929  1
  Br  Br30  1  0.500000  0.108634  0.307128  1
  Br  Br31  1  0.000000  0.891384  0.192701  1
