# generated using pymatgen
data_HoEr5Pa2(NiB14)2
_symmetry_space_group_name_H-M   'P 1'
_cell_length_a   7.21334121
_cell_length_b   7.21359760
_cell_length_c   7.49435200
_cell_angle_alpha   90.00000000
_cell_angle_beta   90.00000000
_cell_angle_gamma   89.99059628
_symmetry_Int_Tables_number   1
_chemical_formula_structural   HoEr5Pa2(NiB14)2
_chemical_formula_sum   'Ho1 Er5 Pa2 Ni2 B28'
_cell_volume   389.96216252
_cell_formula_units_Z   1
loop_
 _symmetry_equiv_pos_site_id
 _symmetry_equiv_pos_as_xyz
  1  'x, y, z'
loop_
 _atom_site_type_symbol
 _atom_site_label
 _atom_site_symmetry_multiplicity
 _atom_site_fract_x
 _atom_site_fract_y
 _atom_site_fract_z
 _atom_site_occupancy
  Ho  Ho0  1  0.166569  0.306562  0.500000  1
  Er  Er1  1  0.334837  0.808165  0.000000  1
  Er  Er2  1  0.694522  0.167143  0.500000  1
  Er  Er3  1  0.306259  0.833759  0.500000  1
  Er  Er4  1  0.808267  0.664864  0.000000  1
  Er  Er5  1  0.833613  0.693936  0.500000  1
  Pa  Pa6  1  0.193894  0.329331  0.000000  1
  Pa  Pa7  1  0.671200  0.193877  0.000000  1
  Ni  Ni8  1  0.999679  0.995860  0.000000  1
  Ni  Ni9  1  0.500172  0.501973  0.500000  1
  B  B10  1  0.173898  0.038459  0.232247  1
  B  B11  1  0.960601  0.172221  0.233535  1
  B  B12  1  0.039783  0.823167  0.231136  1
  B  B13  1  0.675164  0.462193  0.268700  1
  B  B14  1  0.325233  0.541873  0.269347  1
  B  B15  1  0.824314  0.959459  0.232993  1
  B  B16  1  0.539823  0.676508  0.271211  1
  B  B17  1  0.460379  0.327024  0.267957  1
  B  B18  1  0.824314  0.959459  0.767007  1
  B  B19  1  0.039783  0.823167  0.768864  1
  B  B20  1  0.960601  0.172221  0.766465  1
  B  B21  1  0.325233  0.541873  0.730653  1
  B  B22  1  0.675164  0.462193  0.731300  1
  B  B23  1  0.173898  0.038459  0.767753  1
  B  B24  1  0.460379  0.327024  0.732043  1
  B  B25  1  0.539823  0.676508  0.728789  1
  B  B26  1  0.088339  0.588303  0.246585  1
  B  B27  1  0.409958  0.090617  0.243643  1
  B  B28  1  0.587839  0.912882  0.248300  1
  B  B29  1  0.910205  0.409965  0.244169  1
  B  B30  1  0.910205  0.409965  0.755831  1
  B  B31  1  0.587839  0.912882  0.751700  1
  B  B32  1  0.409958  0.090617  0.756357  1
  B  B33  1  0.088339  0.588303  0.753415  1
  B  B34  1  0.000101  0.996414  0.390638  1
  B  B35  1  0.499862  0.503181  0.110903  1
  B  B36  1  0.000101  0.996414  0.609362  1
  B  B37  1  0.499862  0.503181  0.889097  1
