# generated using pymatgen
data_Ba2Al16Ir2Pt7
_symmetry_space_group_name_H-M   'P 1'
_cell_length_a   11.32509879
_cell_length_b   11.32509950
_cell_length_c   11.32509963
_cell_angle_alpha   158.53288294
_cell_angle_beta   115.72645317
_cell_angle_gamma   68.61070830
_symmetry_Int_Tables_number   1
_chemical_formula_structural   Ba2Al16Ir2Pt7
_chemical_formula_sum   'Ba2 Al16 Ir2 Pt7'
_cell_volume   475.48013770
_cell_formula_units_Z   1
loop_
 _symmetry_equiv_pos_site_id
 _symmetry_equiv_pos_as_xyz
  1  'x, y, z'
loop_
 _atom_site_type_symbol
 _atom_site_label
 _atom_site_symmetry_multiplicity
 _atom_site_fract_x
 _atom_site_fract_y
 _atom_site_fract_z
 _atom_site_occupancy
  Ba  Ba0  1  0.229358  0.228902  0.000456  1
  Ba  Ba1  1  0.771555  0.771098  0.000456  1
  Al  Al2  1  0.279041  0.394836  0.884204  1
  Al  Al3  1  0.089828  0.924573  0.165255  1
  Al  Al4  1  0.502574  0.202224  0.300351  1
  Al  Al5  1  0.240681  0.075427  0.165255  1
  Al  Al6  1  0.916559  0.419954  0.496604  1
  Al  Al7  1  0.720958  0.599824  0.121135  1
  Al  Al8  1  0.904515  0.205754  0.698761  1
  Al  Al9  1  0.493008  0.794246  0.698761  1
  Al  Al10  1  0.382720  0.000000  0.382720  1
  Al  Al11  1  0.624339  0.000000  0.624339  1
  Al  Al12  1  0.489368  0.605164  0.884204  1
  Al  Al13  1  0.098127  0.797776  0.300351  1
  Al  Al14  1  0.907045  0.080820  0.826224  1
  Al  Al15  1  0.745405  0.919180  0.826224  1
  Al  Al16  1  0.521310  0.400176  0.121135  1
  Al  Al17  1  0.076650  0.580046  0.496604  1
  Ir  Ir18  1  0.766148  0.500000  0.266148  1
  Ir  Ir19  1  0.990363  0.000000  0.990363  1
  Pt  Pt20  1  0.037317  0.343753  0.693563  1
  Pt  Pt21  1  0.618376  0.116646  0.501730  1
  Pt  Pt22  1  0.250825  0.500000  0.750825  1
  Pt  Pt23  1  0.385084  0.883354  0.501730  1
  Pt  Pt24  1  0.644504  0.339985  0.304519  1
  Pt  Pt25  1  0.349810  0.656247  0.693563  1
  Pt  Pt26  1  0.964533  0.660015  0.304519  1
