# generated using pymatgen
data_Hf18ReMo7Se2
_symmetry_space_group_name_H-M   'P 1'
_cell_length_a   8.73545100
_cell_length_b   8.73545083
_cell_length_c   8.61094000
_cell_angle_alpha   90.00000000
_cell_angle_beta   90.00000000
_cell_angle_gamma   120.00000441
_symmetry_Int_Tables_number   1
_chemical_formula_structural   Hf18ReMo7Se2
_chemical_formula_sum   'Hf18 Re1 Mo7 Se2'
_cell_volume   569.05183904
_cell_formula_units_Z   1
loop_
 _symmetry_equiv_pos_site_id
 _symmetry_equiv_pos_as_xyz
  1  'x, y, z'
loop_
 _atom_site_type_symbol
 _atom_site_label
 _atom_site_symmetry_multiplicity
 _atom_site_fract_x
 _atom_site_fract_y
 _atom_site_fract_z
 _atom_site_occupancy
  Hf  Hf0  1  0.614910  0.807455  0.047234  1
  Hf  Hf1  1  0.805274  0.610549  0.546417  1
  Hf  Hf2  1  0.192545  0.385090  0.047234  1
  Hf  Hf3  1  0.192545  0.807455  0.047234  1
  Hf  Hf4  1  0.805274  0.194726  0.546417  1
  Hf  Hf5  1  0.389451  0.194726  0.546417  1
  Hf  Hf6  1  0.807455  0.614910  0.952766  1
  Hf  Hf7  1  0.807455  0.192545  0.952766  1
  Hf  Hf8  1  0.385090  0.192545  0.952766  1
  Hf  Hf9  1  0.610549  0.805274  0.453583  1
  Hf  Hf10  1  0.194726  0.805274  0.453583  1
  Hf  Hf11  1  0.194726  0.389451  0.453583  1
  Hf  Hf12  1  0.541973  0.083949  0.248859  1
  Hf  Hf13  1  0.458027  0.916051  0.751141  1
  Hf  Hf14  1  0.916051  0.458027  0.248859  1
  Hf  Hf15  1  0.541973  0.458027  0.248859  1
  Hf  Hf16  1  0.458027  0.541973  0.751141  1
  Hf  Hf17  1  0.083949  0.541973  0.751141  1
  Re  Re18  1  0.000000  0.000000  0.000000  1
  Mo  Mo19  1  0.000000  0.000000  0.500000  1
  Mo  Mo20  1  0.889862  0.779723  0.250917  1
  Mo  Mo21  1  0.110138  0.220277  0.749083  1
  Mo  Mo22  1  0.220277  0.110138  0.250917  1
  Mo  Mo23  1  0.889862  0.110138  0.250917  1
  Mo  Mo24  1  0.110138  0.889862  0.749083  1
  Mo  Mo25  1  0.779723  0.889862  0.749083  1
  Se  Se26  1  0.666667  0.333333  0.752080  1
  Se  Se27  1  0.333333  0.666667  0.247920  1
