# generated using pymatgen
data_Zr4Ge3MoC
_symmetry_space_group_name_H-M   'P 1'
_cell_length_a   7.95467300
_cell_length_b   7.95467421
_cell_length_c   5.56443200
_cell_angle_alpha   90.00000000
_cell_angle_beta   90.00000000
_cell_angle_gamma   119.99999915
_symmetry_Int_Tables_number   1
_chemical_formula_structural   Zr4Ge3MoC
_chemical_formula_sum   'Zr8 Ge6 Mo2 C2'
_cell_volume   304.92722647
_cell_formula_units_Z   2
loop_
 _symmetry_equiv_pos_site_id
 _symmetry_equiv_pos_as_xyz
  1  'x, y, z'
loop_
 _atom_site_type_symbol
 _atom_site_label
 _atom_site_symmetry_multiplicity
 _atom_site_fract_x
 _atom_site_fract_y
 _atom_site_fract_z
 _atom_site_occupancy
  Zr  Zr0  1  0.234284  0.000000  0.750708  1
  Zr  Zr1  1  0.765716  0.000000  0.249292  1
  Zr  Zr2  1  0.000000  0.234284  0.750708  1
  Zr  Zr3  1  0.000000  0.765716  0.249292  1
  Zr  Zr4  1  0.765716  0.765716  0.750708  1
  Zr  Zr5  1  0.234284  0.234284  0.249292  1
  Zr  Zr6  1  0.666667  0.333333  0.000000  1
  Zr  Zr7  1  0.333333  0.666667  0.000000  1
  Ge  Ge8  1  0.593990  0.000000  0.731207  1
  Ge  Ge9  1  0.406010  0.000000  0.268793  1
  Ge  Ge10  1  0.000000  0.593990  0.731207  1
  Ge  Ge11  1  0.000000  0.406010  0.268793  1
  Ge  Ge12  1  0.406010  0.406010  0.731207  1
  Ge  Ge13  1  0.593990  0.593990  0.268793  1
  Mo  Mo14  1  0.333333  0.666667  0.500000  1
  Mo  Mo15  1  0.666667  0.333333  0.500000  1
  C  C16  1  0.000000  0.000000  0.500000  1
  C  C17  1  0.000000  0.000000  0.000000  1
