# generated using pymatgen
data_EuIrI18
_symmetry_space_group_name_H-M   'P 1'
_cell_length_a   10.33635518
_cell_length_b   10.33635544
_cell_length_c   10.33635700
_cell_angle_alpha   96.41421544
_cell_angle_beta   96.41421560
_cell_angle_gamma   96.41423302
_symmetry_Int_Tables_number   1
_chemical_formula_structural   EuIrI18
_chemical_formula_sum   'Eu1 Ir1 I18'
_cell_volume   1081.89728460
_cell_formula_units_Z   1
loop_
 _symmetry_equiv_pos_site_id
 _symmetry_equiv_pos_as_xyz
  1  'x, y, z'
loop_
 _atom_site_type_symbol
 _atom_site_label
 _atom_site_symmetry_multiplicity
 _atom_site_fract_x
 _atom_site_fract_y
 _atom_site_fract_z
 _atom_site_occupancy
  Eu  Eu0  1  0.000000  0.000000  0.000000  1
  Ir  Ir1  1  0.500000  0.500000  0.500000  1
  I  I2  1  0.720415  0.138197  0.588391  1
  I  I3  1  0.943226  0.009916  0.690500  1
  I  I4  1  0.588391  0.720415  0.138197  1
  I  I5  1  0.990084  0.309500  0.056774  1
  I  I6  1  0.690500  0.943226  0.009916  1
  I  I7  1  0.009916  0.690500  0.943226  1
  I  I8  1  0.056774  0.990084  0.309500  1
  I  I9  1  0.861803  0.411609  0.279585  1
  I  I10  1  0.309500  0.056774  0.990084  1
  I  I11  1  0.279585  0.861803  0.411609  1
  I  I12  1  0.138197  0.588391  0.720415  1
  I  I13  1  0.411609  0.279585  0.861803  1
  I  I14  1  0.762737  0.537151  0.512183  1
  I  I15  1  0.537151  0.512183  0.762737  1
  I  I16  1  0.237263  0.462849  0.487817  1
  I  I17  1  0.462849  0.487817  0.237263  1
  I  I18  1  0.512183  0.762737  0.537151  1
  I  I19  1  0.487817  0.237263  0.462849  1
