# generated using pymatgen
data_Gd6YGaI12
_symmetry_space_group_name_H-M   'P 1'
_cell_length_a   9.79538793
_cell_length_b   9.79538738
_cell_length_c   9.79538700
_cell_angle_alpha   107.70431882
_cell_angle_beta   107.70432393
_cell_angle_gamma   107.70431550
_symmetry_Int_Tables_number   1
_chemical_formula_structural   Gd6YGaI12
_chemical_formula_sum   'Gd6 Y1 Ga1 I12'
_cell_volume   767.19220560
_cell_formula_units_Z   1
loop_
 _symmetry_equiv_pos_site_id
 _symmetry_equiv_pos_as_xyz
  1  'x, y, z'
loop_
 _atom_site_type_symbol
 _atom_site_label
 _atom_site_symmetry_multiplicity
 _atom_site_fract_x
 _atom_site_fract_y
 _atom_site_fract_z
 _atom_site_occupancy
  Gd  Gd0  1  0.683350  0.965523  0.894381  1
  Gd  Gd1  1  0.965523  0.894381  0.683350  1
  Gd  Gd2  1  0.105619  0.316650  0.034477  1
  Gd  Gd3  1  0.316650  0.034477  0.105619  1
  Gd  Gd4  1  0.894381  0.683350  0.965523  1
  Gd  Gd5  1  0.034477  0.105619  0.316650  1
  Y  Y6  1  0.500000  0.500000  0.500000  1
  Ga  Ga7  1  0.000000  0.000000  0.000000  1
  I  I8  1  0.074501  0.230566  0.683131  1
  I  I9  1  0.390939  0.158375  0.471107  1
  I  I10  1  0.609061  0.841625  0.528893  1
  I  I11  1  0.230566  0.683131  0.074501  1
  I  I12  1  0.769434  0.316869  0.925499  1
  I  I13  1  0.683131  0.074501  0.230566  1
  I  I14  1  0.528893  0.609061  0.841625  1
  I  I15  1  0.841625  0.528893  0.609061  1
  I  I16  1  0.925499  0.769434  0.316869  1
  I  I17  1  0.316869  0.925499  0.769434  1
  I  I18  1  0.471107  0.390939  0.158375  1
  I  I19  1  0.158375  0.471107  0.390939  1
