# generated using pymatgen
data_La3Nd13Cd4Ru3Au
_symmetry_space_group_name_H-M   'P 1'
_cell_length_a   10.07478851
_cell_length_b   10.08787722
_cell_length_c   10.00223832
_cell_angle_alpha   59.38721963
_cell_angle_beta   59.43103184
_cell_angle_gamma   59.96317915
_symmetry_Int_Tables_number   1
_chemical_formula_structural   La3Nd13Cd4Ru3Au
_chemical_formula_sum   'La3 Nd13 Cd4 Ru3 Au1'
_cell_volume   712.13446710
_cell_formula_units_Z   1
loop_
 _symmetry_equiv_pos_site_id
 _symmetry_equiv_pos_as_xyz
  1  'x, y, z'
loop_
 _atom_site_type_symbol
 _atom_site_label
 _atom_site_symmetry_multiplicity
 _atom_site_fract_x
 _atom_site_fract_y
 _atom_site_fract_z
 _atom_site_occupancy
  La  La0  1  0.059806  0.458405  0.422093  1
  La  La1  1  0.458087  0.060109  0.421419  1
  La  La2  1  0.685686  0.309582  0.691865  1
  Nd  Nd3  1  0.896171  0.893741  0.914697  1
  Nd  Nd4  1  0.442523  0.443944  0.054914  1
  Nd  Nd5  1  0.058424  0.056294  0.430712  1
  Nd  Nd6  1  0.437590  0.060780  0.056682  1
  Nd  Nd7  1  0.312193  0.687773  0.313474  1
  Nd  Nd8  1  0.688198  0.689111  0.310652  1
  Nd  Nd9  1  0.688426  0.312158  0.312876  1
  Nd  Nd10  1  0.299867  0.893860  0.909309  1
  Nd  Nd11  1  0.894612  0.299239  0.910080  1
  Nd  Nd12  1  0.309423  0.687228  0.689261  1
  Nd  Nd13  1  0.906639  0.906958  0.290048  1
  Nd  Nd14  1  0.061067  0.438151  0.056271  1
  Nd  Nd15  1  0.308008  0.309358  0.692350  1
  Cd  Cd16  1  0.670204  0.669565  0.992238  1
  Cd  Cd17  1  0.990249  0.671364  0.671331  1
  Cd  Cd18  1  0.671348  0.989119  0.670725  1
  Cd  Cd19  1  0.670161  0.672189  0.671469  1
  Ru  Ru20  1  0.112347  0.112816  0.100087  1
  Ru  Ru21  1  0.106186  0.665144  0.120474  1
  Ru  Ru22  1  0.665121  0.106445  0.119328  1
  Au  Au23  1  0.107663  0.106668  0.677647  1
