# generated using pymatgen
data_Nb4Al4V3Rh
_symmetry_space_group_name_H-M   'P 1'
_cell_length_a   4.97950874
_cell_length_b   5.11685951
_cell_length_c   8.54419500
_cell_angle_alpha   90.00000000
_cell_angle_beta   90.00000000
_cell_angle_gamma   120.89924637
_symmetry_Int_Tables_number   1
_chemical_formula_structural   Nb4Al4V3Rh
_chemical_formula_sum   'Nb4 Al4 V3 Rh1'
_cell_volume   186.80336818
_cell_formula_units_Z   1
loop_
 _symmetry_equiv_pos_site_id
 _symmetry_equiv_pos_as_xyz
  1  'x, y, z'
loop_
 _atom_site_type_symbol
 _atom_site_label
 _atom_site_symmetry_multiplicity
 _atom_site_fract_x
 _atom_site_fract_y
 _atom_site_fract_z
 _atom_site_occupancy
  Nb  Nb0  1  0.675597  0.337847  0.554359  1
  Nb  Nb1  1  0.322691  0.661274  0.435916  1
  Nb  Nb2  1  0.322691  0.661274  0.064084  1
  Nb  Nb3  1  0.675597  0.337847  0.945641  1
  Al  Al4  1  0.990109  0.995090  0.500738  1
  Al  Al5  1  0.990109  0.995090  0.999262  1
  Al  Al6  1  0.184004  0.348488  0.750000  1
  Al  Al7  1  0.183908  0.835464  0.750000  1
  V  V8  1  0.819450  0.653421  0.250000  1
  V  V9  1  0.819400  0.165997  0.250000  1
  V  V10  1  0.339553  0.169726  0.250000  1
  Rh  Rh11  1  0.676891  0.838480  0.750000  1
