# generated using pymatgen
data_Li2Ho8Sc10Si15B
_symmetry_space_group_name_H-M   'P 1'
_cell_length_a   6.91031500
_cell_length_b   7.37943573
_cell_length_c   13.92692900
_cell_angle_alpha   90.00000000
_cell_angle_beta   90.00000000
_cell_angle_gamma   89.43602207
_symmetry_Int_Tables_number   1
_chemical_formula_structural   Li2Ho8Sc10Si15B
_chemical_formula_sum   'Li2 Ho8 Sc10 Si15 B1'
_cell_volume   710.15855169
_cell_formula_units_Z   1
loop_
 _symmetry_equiv_pos_site_id
 _symmetry_equiv_pos_as_xyz
  1  'x, y, z'
loop_
 _atom_site_type_symbol
 _atom_site_label
 _atom_site_symmetry_multiplicity
 _atom_site_fract_x
 _atom_site_fract_y
 _atom_site_fract_z
 _atom_site_occupancy
  Li  Li0  1  0.165196  0.513104  0.750000  1
  Li  Li1  1  0.839402  0.496002  0.250000  1
  Ho  Ho2  1  0.008330  0.185734  0.098089  1
  Ho  Ho3  1  0.989590  0.821295  0.900528  1
  Ho  Ho4  1  0.486070  0.676548  0.901225  1
  Ho  Ho5  1  0.989590  0.821295  0.599472  1
  Ho  Ho6  1  0.514016  0.326088  0.095946  1
  Ho  Ho7  1  0.008330  0.185734  0.401911  1
  Ho  Ho8  1  0.514016  0.326088  0.404054  1
  Ho  Ho9  1  0.486070  0.676548  0.598775  1
  Sc  Sc10  1  0.339114  0.004004  0.250000  1
  Sc  Sc11  1  0.673623  0.998317  0.750000  1
  Sc  Sc12  1  0.312842  0.180119  0.631054  1
  Sc  Sc13  1  0.672702  0.818324  0.375217  1
  Sc  Sc14  1  0.165039  0.674554  0.374674  1
  Sc  Sc15  1  0.672702  0.818324  0.124783  1
  Sc  Sc16  1  0.850365  0.313486  0.632967  1
  Sc  Sc17  1  0.312842  0.180119  0.868946  1
  Sc  Sc18  1  0.850365  0.313486  0.867033  1
  Sc  Sc19  1  0.165039  0.674554  0.125326  1
  Si  Si20  1  0.968713  0.896903  0.250000  1
  Si  Si21  1  0.466024  0.613124  0.250000  1
  Si  Si22  1  0.540353  0.383602  0.750000  1
  Si  Si23  1  0.272864  0.892031  0.750000  1
  Si  Si24  1  0.710567  0.120408  0.250000  1
  Si  Si25  1  0.219484  0.373500  0.250000  1
  Si  Si26  1  0.782262  0.624632  0.750000  1
  Si  Si27  1  0.161240  0.463038  0.535561  1
  Si  Si28  1  0.838367  0.537381  0.470383  1
  Si  Si29  1  0.340671  0.967435  0.463421  1
  Si  Si30  1  0.838367  0.537381  0.029617  1
  Si  Si31  1  0.654288  0.035341  0.540507  1
  Si  Si32  1  0.161240  0.463038  0.964439  1
  Si  Si33  1  0.654288  0.035341  0.959493  1
  Si  Si34  1  0.340671  0.967435  0.036579  1
  B  B35  1  0.035361  0.085688  0.750000  1
