# generated using pymatgen
data_KPaNiS3
_symmetry_space_group_name_H-M   'P 1'
_cell_length_a   7.42041173
_cell_length_b   7.42041265
_cell_length_c   10.05896900
_cell_angle_alpha   90.00000000
_cell_angle_beta   90.00000000
_cell_angle_gamma   149.42630531
_symmetry_Int_Tables_number   1
_chemical_formula_structural   KPaNiS3
_chemical_formula_sum   'K2 Pa2 Ni2 S6'
_cell_volume   281.72495611
_cell_formula_units_Z   2
loop_
 _symmetry_equiv_pos_site_id
 _symmetry_equiv_pos_as_xyz
  1  'x, y, z'
loop_
 _atom_site_type_symbol
 _atom_site_label
 _atom_site_symmetry_multiplicity
 _atom_site_fract_x
 _atom_site_fract_y
 _atom_site_fract_z
 _atom_site_occupancy
  K  K0  1  0.744804  0.255196  0.250000  1
  K  K1  1  0.255196  0.744804  0.750000  1
  Pa  Pa2  1  0.000000  0.000000  0.000000  1
  Pa  Pa3  1  0.000000  0.000000  0.500000  1
  Ni  Ni4  1  0.474489  0.525511  0.250000  1
  Ni  Ni5  1  0.525511  0.474489  0.750000  1
  S  S6  1  0.380258  0.619742  0.068933  1
  S  S7  1  0.062653  0.937347  0.250000  1
  S  S8  1  0.380258  0.619742  0.431068  1
  S  S9  1  0.619742  0.380258  0.568933  1
  S  S10  1  0.937347  0.062653  0.750000  1
  S  S11  1  0.619742  0.380258  0.931067  1
