# generated using pymatgen
data_Ta4Si4RuPtRh2
_symmetry_space_group_name_H-M   'P 1'
_cell_length_a   3.78520700
_cell_length_b   6.43295107
_cell_length_c   7.35466354
_cell_angle_alpha   89.50651283
_cell_angle_beta   90.00000000
_cell_angle_gamma   90.00000000
_symmetry_Int_Tables_number   1
_chemical_formula_structural   Ta4Si4RuPtRh2
_chemical_formula_sum   'Ta4 Si4 Ru1 Pt1 Rh2'
_cell_volume   179.07979278
_cell_formula_units_Z   1
loop_
 _symmetry_equiv_pos_site_id
 _symmetry_equiv_pos_as_xyz
  1  'x, y, z'
loop_
 _atom_site_type_symbol
 _atom_site_label
 _atom_site_symmetry_multiplicity
 _atom_site_fract_x
 _atom_site_fract_y
 _atom_site_fract_z
 _atom_site_occupancy
  Ta  Ta0  1  0.250000  0.521401  0.676477  1
  Ta  Ta1  1  0.750000  0.472556  0.323593  1
  Ta  Ta2  1  0.250000  0.029661  0.832304  1
  Ta  Ta3  1  0.750000  0.976954  0.168272  1
  Si  Si4  1  0.250000  0.268920  0.124288  1
  Si  Si5  1  0.750000  0.730380  0.879263  1
  Si  Si6  1  0.250000  0.765118  0.369580  1
  Si  Si7  1  0.750000  0.236846  0.625616  1
  Ru  Ru8  1  0.750000  0.355750  0.936065  1
  Pt  Pt9  1  0.750000  0.852651  0.564813  1
  Rh  Rh10  1  0.250000  0.143699  0.436846  1
  Rh  Rh11  1  0.250000  0.646065  0.062884  1
