# generated using pymatgen
data_Nd10CdIn7Pt4
_symmetry_space_group_name_H-M   'P 1'
_cell_length_a   3.78759700
_cell_length_b   8.33424628
_cell_length_c   18.78857437
_cell_angle_alpha   89.89845423
_cell_angle_beta   90.00000000
_cell_angle_gamma   90.00000000
_symmetry_Int_Tables_number   1
_chemical_formula_structural   Nd10CdIn7Pt4
_chemical_formula_sum   'Nd10 Cd1 In7 Pt4'
_cell_volume   593.09360271
_cell_formula_units_Z   1
loop_
 _symmetry_equiv_pos_site_id
 _symmetry_equiv_pos_as_xyz
  1  'x, y, z'
loop_
 _atom_site_type_symbol
 _atom_site_label
 _atom_site_symmetry_multiplicity
 _atom_site_fract_x
 _atom_site_fract_y
 _atom_site_fract_z
 _atom_site_occupancy
  Nd  Nd0  1  0.000000  0.117115  0.414784  1
  Nd  Nd1  1  0.000000  0.882839  0.585408  1
  Nd  Nd2  1  0.000000  0.382610  0.914917  1
  Nd  Nd3  1  0.000000  0.617478  0.085538  1
  Nd  Nd4  1  0.000000  0.243550  0.219618  1
  Nd  Nd5  1  0.000000  0.757362  0.780817  1
  Nd  Nd6  1  0.000000  0.256182  0.719636  1
  Nd  Nd7  1  0.000000  0.742319  0.281008  1
  Nd  Nd8  1  0.000000  0.000024  0.999825  1
  Nd  Nd9  1  0.000000  0.500056  0.499927  1
  Cd  Cd10  1  0.500000  0.427042  0.350384  1
  In  In11  1  0.500000  0.573962  0.649668  1
  In  In12  1  0.500000  0.073837  0.850144  1
  In  In13  1  0.500000  0.926515  0.149660  1
  In  In14  1  0.500000  0.291443  0.067953  1
  In  In15  1  0.500000  0.707744  0.931779  1
  In  In16  1  0.500000  0.208554  0.567903  1
  In  In17  1  0.500000  0.790910  0.431879  1
  Pt  Pt18  1  0.500000  0.022497  0.302650  1
  Pt  Pt19  1  0.500000  0.977319  0.696963  1
  Pt  Pt20  1  0.500000  0.477875  0.802853  1
  Pt  Pt21  1  0.500000  0.522766  0.196685  1
