# generated using pymatgen
data_Nd2Bi8(MoO8)3
_symmetry_space_group_name_H-M   'P 1'
_cell_length_a   12.21030875
_cell_length_b   12.28507882
_cell_length_c   8.87639258
_cell_angle_alpha   84.88969184
_cell_angle_beta   85.40998847
_cell_angle_gamma   27.12473831
_symmetry_Int_Tables_number   1
_chemical_formula_structural   Nd2Bi8(MoO8)3
_chemical_formula_sum   'Nd2 Bi8 Mo3 O24'
_cell_volume   604.65577096
_cell_formula_units_Z   1
loop_
 _symmetry_equiv_pos_site_id
 _symmetry_equiv_pos_as_xyz
  1  'x, y, z'
loop_
 _atom_site_type_symbol
 _atom_site_label
 _atom_site_symmetry_multiplicity
 _atom_site_fract_x
 _atom_site_fract_y
 _atom_site_fract_z
 _atom_site_occupancy
  Nd  Nd0  1  0.454549  0.472473  0.301261  1
  Nd  Nd1  1  0.642819  0.741439  0.461101  1
  Bi  Bi2  1  0.525979  0.546383  0.660489  1
  Bi  Bi3  1  0.200062  0.267249  0.192578  1
  Bi  Bi4  1  0.061390  0.089564  0.407923  1
  Bi  Bi5  1  0.211619  0.401090  0.543905  1
  Bi  Bi6  1  0.127703  0.175083  0.741346  1
  Bi  Bi7  1  0.924738  0.924787  0.580296  1
  Bi  Bi8  1  0.814116  0.885206  0.249028  1
  Bi  Bi9  1  0.725773  0.799075  0.812332  1
  Mo  Mo10  1  0.333644  0.418741  0.930062  1
  Mo  Mo11  1  0.006080  0.998945  0.003496  1
  Mo  Mo12  1  0.551625  0.696083  0.081363  1
  O  O13  1  0.895112  0.758591  0.648024  1
  O  O14  1  0.379102  0.968871  0.008868  1
  O  O15  1  0.260962  0.076117  0.341233  1
  O  O16  1  0.230165  0.898726  0.930853  1
  O  O17  1  0.721165  0.282418  0.499047  1
  O  O18  1  0.994277  0.540391  0.358803  1
  O  O19  1  0.234399  0.764072  0.492500  1
  O  O20  1  0.824415  0.207637  0.152657  1
  O  O21  1  0.733327  0.493911  0.931274  1
  O  O22  1  0.523408  0.269678  0.093669  1
  O  O23  1  0.469522  0.188432  0.837834  1
  O  O24  1  0.298882  0.559624  0.783882  1
  O  O25  1  0.662420  0.130171  0.399804  1
  O  O26  1  0.767265  0.565932  0.205575  1
  O  O27  1  0.415484  0.711036  0.213557  1
  O  O28  1  0.840866  0.386884  0.567238  1
  O  O29  1  0.149113  0.747897  0.086684  1
  O  O30  1  0.334306  0.878258  0.586159  1
  O  O31  1  0.954908  0.492052  0.675084  1
  O  O32  1  0.133809  0.640910  0.412549  1
  O  O33  1  0.518291  0.033936  0.313550  1
  O  O34  1  0.827379  0.131263  0.845105  1
  O  O35  1  0.049711  0.612024  0.992988  1
  O  O36  1  0.446197  0.000474  0.657884  1
