# generated using pymatgen
data_Lu3ZnFeRu4
_symmetry_space_group_name_H-M   'P 1'
_cell_length_a   5.19325893
_cell_length_b   5.15745775
_cell_length_c   13.06316959
_cell_angle_alpha   91.23903496
_cell_angle_beta   88.89609711
_cell_angle_gamma   117.91262159
_symmetry_Int_Tables_number   1
_chemical_formula_structural   Lu3ZnFeRu4
_chemical_formula_sum   'Lu6 Zn2 Fe2 Ru8'
_cell_volume   309.09063286
_cell_formula_units_Z   2
loop_
 _symmetry_equiv_pos_site_id
 _symmetry_equiv_pos_as_xyz
  1  'x, y, z'
loop_
 _atom_site_type_symbol
 _atom_site_label
 _atom_site_symmetry_multiplicity
 _atom_site_fract_x
 _atom_site_fract_y
 _atom_site_fract_z
 _atom_site_occupancy
  Lu  Lu0  1  0.336921  0.665338  0.910160  1
  Lu  Lu1  1  0.989367  0.993510  0.256746  1
  Lu  Lu2  1  0.668599  0.333388  0.584798  1
  Lu  Lu3  1  0.331401  0.666612  0.665202  1
  Lu  Lu4  1  0.010633  0.006490  0.993254  1
  Lu  Lu5  1  0.663079  0.334662  0.339840  1
  Zn  Zn6  1  0.500000  0.500000  0.125000  1
  Zn  Zn7  1  0.500000  0.000000  0.125000  1
  Fe  Fe8  1  0.168759  0.838230  0.459179  1
  Fe  Fe9  1  0.831241  0.161770  0.790821  1
  Ru  Ru10  1  0.171091  0.340954  0.457313  1
  Ru  Ru11  1  0.828909  0.659046  0.792687  1
  Ru  Ru12  1  0.321363  0.670496  0.291809  1
  Ru  Ru13  1  0.000000  0.000000  0.625000  1
  Ru  Ru14  1  0.678637  0.329504  0.958191  1
  Ru  Ru15  1  0.000000  0.500000  0.125000  1
  Ru  Ru16  1  0.668766  0.835800  0.460541  1
  Ru  Ru17  1  0.331234  0.164200  0.789459  1
