# generated using pymatgen
data_Li2Nd2Si2Pb
_symmetry_space_group_name_H-M   'P 1'
_cell_length_a   9.87882576
_cell_length_b   9.87882542
_cell_length_c   6.91251200
_cell_angle_alpha   90.00000000
_cell_angle_beta   90.00000000
_cell_angle_gamma   153.35652391
_symmetry_Int_Tables_number   1
_chemical_formula_structural   Li2Nd2Si2Pb
_chemical_formula_sum   'Li4 Nd4 Si4 Pb2'
_cell_volume   302.51603729
_cell_formula_units_Z   2
loop_
 _symmetry_equiv_pos_site_id
 _symmetry_equiv_pos_as_xyz
  1  'x, y, z'
loop_
 _atom_site_type_symbol
 _atom_site_label
 _atom_site_symmetry_multiplicity
 _atom_site_fract_x
 _atom_site_fract_y
 _atom_site_fract_z
 _atom_site_occupancy
  Li  Li0  1  0.182813  0.817187  0.053783  1
  Li  Li1  1  0.182813  0.817187  0.446217  1
  Li  Li2  1  0.817187  0.182813  0.946217  1
  Li  Li3  1  0.817187  0.182813  0.553783  1
  Nd  Nd4  1  0.351947  0.648053  0.250000  1
  Nd  Nd5  1  0.648053  0.351947  0.750000  1
  Nd  Nd6  1  0.548171  0.451829  0.250000  1
  Nd  Nd7  1  0.451829  0.548171  0.750000  1
  Si  Si8  1  0.056428  0.943572  0.924729  1
  Si  Si9  1  0.943572  0.056428  0.075271  1
  Si  Si10  1  0.943572  0.056428  0.424729  1
  Si  Si11  1  0.056428  0.943572  0.575271  1
  Pb  Pb12  1  0.719412  0.280588  0.250000  1
  Pb  Pb13  1  0.280588  0.719412  0.750000  1
