# generated using pymatgen
data_La20CoOs3Pb8
_symmetry_space_group_name_H-M   'P 1'
_cell_length_a   8.55980592
_cell_length_b   9.29608300
_cell_length_c   13.09821100
_cell_angle_alpha   90.00000000
_cell_angle_beta   89.79853610
_cell_angle_gamma   90.00000000
_symmetry_Int_Tables_number   1
_chemical_formula_structural   La20CoOs3Pb8
_chemical_formula_sum   'La20 Co1 Os3 Pb8'
_cell_volume   1042.25312933
_cell_formula_units_Z   1
loop_
 _symmetry_equiv_pos_site_id
 _symmetry_equiv_pos_as_xyz
  1  'x, y, z'
loop_
 _atom_site_type_symbol
 _atom_site_label
 _atom_site_symmetry_multiplicity
 _atom_site_fract_x
 _atom_site_fract_y
 _atom_site_fract_z
 _atom_site_occupancy
  La  La0  1  0.346791  0.750000  0.702031  1
  La  La1  1  0.652560  0.250000  0.295607  1
  La  La2  1  0.846519  0.250000  0.794561  1
  La  La3  1  0.151959  0.750000  0.203506  1
  La  La4  1  0.879346  0.750000  0.804637  1
  La  La5  1  0.119245  0.250000  0.194455  1
  La  La6  1  0.380396  0.250000  0.693884  1
  La  La7  1  0.619763  0.750000  0.306886  1
  La  La8  1  0.677055  0.534091  0.565546  1
  La  La9  1  0.322674  0.467077  0.435885  1
  La  La10  1  0.176545  0.466774  0.933643  1
  La  La11  1  0.322674  0.032923  0.435885  1
  La  La12  1  0.823123  0.533898  0.066403  1
  La  La13  1  0.677055  0.965909  0.565546  1
  La  La14  1  0.823123  0.966102  0.066403  1
  La  La15  1  0.176545  0.033226  0.933643  1
  La  La16  1  0.063629  0.750000  0.497047  1
  La  La17  1  0.945405  0.250000  0.502044  1
  La  La18  1  0.553843  0.250000  0.002486  1
  La  La19  1  0.444076  0.750000  0.997653  1
  Co  Co20  1  0.422190  0.750000  0.487963  1
  Os  Os21  1  0.078303  0.750000  0.987234  1
  Os  Os22  1  0.920207  0.250000  0.012630  1
  Os  Os23  1  0.577738  0.250000  0.512734  1
  Pb  Pb24  1  0.571376  0.508087  0.828247  1
  Pb  Pb25  1  0.428528  0.492948  0.172421  1
  Pb  Pb26  1  0.072013  0.492811  0.671074  1
  Pb  Pb27  1  0.428528  0.007052  0.172421  1
  Pb  Pb28  1  0.927701  0.507826  0.329100  1
  Pb  Pb29  1  0.571376  0.991913  0.828247  1
  Pb  Pb30  1  0.927701  0.992174  0.329100  1
  Pb  Pb31  1  0.072013  0.007189  0.671074  1
