# generated using pymatgen
data_Sr21Al2Tl(GaSn)6
_symmetry_space_group_name_H-M   'P 1'
_cell_length_a   12.15360942
_cell_length_b   12.16481598
_cell_length_c   12.16481464
_cell_angle_alpha   60.11239314
_cell_angle_beta   60.06359705
_cell_angle_gamma   60.06359777
_symmetry_Int_Tables_number   1
_chemical_formula_structural   Sr21Al2Tl(GaSn)6
_chemical_formula_sum   'Sr21 Al2 Tl1 Ga6 Sn6'
_cell_volume   1274.04970274
_cell_formula_units_Z   1
loop_
 _symmetry_equiv_pos_site_id
 _symmetry_equiv_pos_as_xyz
  1  'x, y, z'
loop_
 _atom_site_type_symbol
 _atom_site_label
 _atom_site_symmetry_multiplicity
 _atom_site_fract_x
 _atom_site_fract_y
 _atom_site_fract_z
 _atom_site_occupancy
  Sr  Sr0  1  0.870527  0.869252  0.389782  1
  Sr  Sr1  1  0.608207  0.130560  0.130560  1
  Sr  Sr2  1  0.870527  0.389782  0.869252  1
  Sr  Sr3  1  0.130611  0.130585  0.130585  1
  Sr  Sr4  1  0.388736  0.870222  0.870222  1
  Sr  Sr5  1  0.870867  0.870195  0.870195  1
  Sr  Sr6  1  0.171794  0.827765  0.500106  1
  Sr  Sr7  1  0.827188  0.500188  0.500188  1
  Sr  Sr8  1  0.130526  0.130619  0.608247  1
  Sr  Sr9  1  0.827396  0.174362  0.499069  1
  Sr  Sr10  1  0.172458  0.500162  0.500162  1
  Sr  Sr11  1  0.130526  0.608247  0.130619  1
  Sr  Sr12  1  0.499173  0.499055  0.174417  1
  Sr  Sr13  1  0.499278  0.173635  0.827810  1
  Sr  Sr14  1  0.499278  0.827810  0.173635  1
  Sr  Sr15  1  0.500357  0.500115  0.827693  1
  Sr  Sr16  1  0.499173  0.174417  0.499055  1
  Sr  Sr17  1  0.171794  0.500106  0.827765  1
  Sr  Sr18  1  0.999667  0.000336  0.000336  1
  Sr  Sr19  1  0.500357  0.827693  0.500115  1
  Sr  Sr20  1  0.827396  0.499069  0.174362  1
  Al  Al21  1  0.695342  0.915840  0.693535  1
  Al  Al22  1  0.695342  0.693535  0.915840  1
  Tl  Tl23  1  0.499836  0.500156  0.500156  1
  Ga  Ga24  1  0.692898  0.693091  0.693091  1
  Ga  Ga25  1  0.306363  0.080474  0.306736  1
  Ga  Ga26  1  0.920842  0.693139  0.693139  1
  Ga  Ga27  1  0.306363  0.306736  0.080474  1
  Ga  Ga28  1  0.080486  0.306634  0.306634  1
  Ga  Ga29  1  0.306223  0.306681  0.306681  1
  Sn  Sn30  1  0.785079  0.214979  0.784974  1
  Sn  Sn31  1  0.785148  0.214874  0.214874  1
  Sn  Sn32  1  0.214958  0.784982  0.214999  1
  Sn  Sn33  1  0.215247  0.784734  0.784734  1
  Sn  Sn34  1  0.785079  0.784974  0.214979  1
  Sn  Sn35  1  0.214958  0.214999  0.784982  1
