# generated using pymatgen
data_Tb8Th4Tc3Os
_symmetry_space_group_name_H-M   'P 1'
_cell_length_a   6.40932248
_cell_length_b   7.33323269
_cell_length_c   9.58270800
_cell_angle_alpha   90.00000000
_cell_angle_beta   90.00000000
_cell_angle_gamma   89.95294291
_symmetry_Int_Tables_number   1
_chemical_formula_structural   Tb8Th4Tc3Os
_chemical_formula_sum   'Tb8 Th4 Tc3 Os1'
_cell_volume   450.39721601
_cell_formula_units_Z   1
loop_
 _symmetry_equiv_pos_site_id
 _symmetry_equiv_pos_as_xyz
  1  'x, y, z'
loop_
 _atom_site_type_symbol
 _atom_site_label
 _atom_site_symmetry_multiplicity
 _atom_site_fract_x
 _atom_site_fract_y
 _atom_site_fract_z
 _atom_site_occupancy
  Tb  Tb0  1  0.330633  0.675099  0.066133  1
  Tb  Tb1  1  0.167203  0.175623  0.432391  1
  Tb  Tb2  1  0.665106  0.326239  0.566920  1
  Tb  Tb3  1  0.831694  0.823614  0.932587  1
  Tb  Tb4  1  0.665106  0.326239  0.933080  1
  Tb  Tb5  1  0.831694  0.823614  0.567413  1
  Tb  Tb6  1  0.330633  0.675099  0.433867  1
  Tb  Tb7  1  0.167203  0.175623  0.067609  1
  Th  Th8  1  0.853865  0.550803  0.250000  1
  Th  Th9  1  0.643641  0.048613  0.250000  1
  Th  Th10  1  0.146027  0.448411  0.750000  1
  Th  Th11  1  0.350913  0.953447  0.750000  1
  Tc  Tc12  1  0.015498  0.871021  0.250000  1
  Tc  Tc13  1  0.484948  0.371469  0.250000  1
  Tc  Tc14  1  0.982904  0.129455  0.750000  1
  Os  Os15  1  0.532931  0.625631  0.750000  1
