# generated using pymatgen
data_Cs6TbLuBr12
_symmetry_space_group_name_H-M   'P 1'
_cell_length_a   9.97908148
_cell_length_b   9.97354446
_cell_length_c   8.27822000
_cell_angle_alpha   90.00000000
_cell_angle_beta   90.00000000
_cell_angle_gamma   90.09556654
_symmetry_Int_Tables_number   1
_chemical_formula_structural   Cs6TbLuBr12
_chemical_formula_sum   'Cs6 Tb1 Lu1 Br12'
_cell_volume   823.90370616
_cell_formula_units_Z   1
loop_
 _symmetry_equiv_pos_site_id
 _symmetry_equiv_pos_as_xyz
  1  'x, y, z'
loop_
 _atom_site_type_symbol
 _atom_site_label
 _atom_site_symmetry_multiplicity
 _atom_site_fract_x
 _atom_site_fract_y
 _atom_site_fract_z
 _atom_site_occupancy
  Cs  Cs0  1  0.000000  0.000000  0.500000  1
  Cs  Cs1  1  0.000000  0.000000  0.000000  1
  Cs  Cs2  1  0.235766  0.584508  0.500000  1
  Cs  Cs3  1  0.764234  0.415492  0.500000  1
  Cs  Cs4  1  0.415819  0.234626  0.000000  1
  Cs  Cs5  1  0.584181  0.765374  0.000000  1
  Tb  Tb6  1  0.000000  0.500000  0.000000  1
  Lu  Lu7  1  0.500000  0.000000  0.500000  1
  Br  Br8  1  0.688936  0.057003  0.736841  1
  Br  Br9  1  0.311064  0.942997  0.736841  1
  Br  Br10  1  0.941860  0.693171  0.241879  1
  Br  Br11  1  0.058140  0.306829  0.241879  1
  Br  Br12  1  0.311064  0.942997  0.263159  1
  Br  Br13  1  0.688936  0.057003  0.263159  1
  Br  Br14  1  0.058140  0.306829  0.758121  1
  Br  Br15  1  0.941860  0.693171  0.758121  1
  Br  Br16  1  0.569968  0.733080  0.500000  1
  Br  Br17  1  0.430032  0.266920  0.500000  1
  Br  Br18  1  0.272960  0.571720  0.000000  1
  Br  Br19  1  0.727040  0.428280  0.000000  1
