# generated using pymatgen
data_Pr15NdCd4Co3Pd
_symmetry_space_group_name_H-M   'P 1'
_cell_length_a   9.96447570
_cell_length_b   9.93404575
_cell_length_c   9.93223400
_cell_angle_alpha   60.00603284
_cell_angle_beta   60.10697731
_cell_angle_gamma   60.10249593
_symmetry_Int_Tables_number   1
_chemical_formula_structural   Pr15NdCd4Co3Pd
_chemical_formula_sum   'Pr15 Nd1 Cd4 Co3 Pd1'
_cell_volume   696.33484659
_cell_formula_units_Z   1
loop_
 _symmetry_equiv_pos_site_id
 _symmetry_equiv_pos_as_xyz
  1  'x, y, z'
loop_
 _atom_site_type_symbol
 _atom_site_label
 _atom_site_symmetry_multiplicity
 _atom_site_fract_x
 _atom_site_fract_y
 _atom_site_fract_z
 _atom_site_occupancy
  Pr  Pr0  1  0.338086  0.352696  0.352284  1
  Pr  Pr1  1  0.338086  0.352696  0.956934  1
  Pr  Pr2  1  0.338649  0.955748  0.352802  1
  Pr  Pr3  1  0.961984  0.345909  0.346053  1
  Pr  Pr4  1  0.820851  0.189460  0.191317  1
  Pr  Pr5  1  0.189105  0.810326  0.810464  1
  Pr  Pr6  1  0.189105  0.810326  0.190106  1
  Pr  Pr7  1  0.820851  0.189460  0.798372  1
  Pr  Pr8  1  0.190010  0.188497  0.810746  1
  Pr  Pr9  1  0.820617  0.798171  0.190606  1
  Pr  Pr10  1  0.935519  0.563201  0.563546  1
  Pr  Pr11  1  0.560515  0.939432  0.938089  1
  Pr  Pr12  1  0.560515  0.939432  0.561963  1
  Pr  Pr13  1  0.935519  0.563201  0.937733  1
  Pr  Pr14  1  0.561108  0.562079  0.938406  1
  Nd  Nd15  1  0.935821  0.938620  0.562779  1
  Cd  Cd16  1  0.579759  0.579076  0.579121  1
  Cd  Cd17  1  0.579759  0.579076  0.262047  1
  Cd  Cd18  1  0.580428  0.261240  0.579167  1
  Cd  Cd19  1  0.258840  0.580928  0.580116  1
  Co  Co20  1  0.142773  0.141529  0.140502  1
  Co  Co21  1  0.142773  0.141529  0.575194  1
  Co  Co22  1  0.143363  0.575634  0.140501  1
  Pd  Pd23  1  0.575968  0.141729  0.141151  1
