# generated using pymatgen
data_Tb14Tm2MgHg3Ir4
_symmetry_space_group_name_H-M   'P 1'
_cell_length_a   9.63502193
_cell_length_b   9.65576148
_cell_length_c   9.65576119
_cell_angle_alpha   59.77322193
_cell_angle_beta   59.95508508
_cell_angle_gamma   59.95508043
_symmetry_Int_Tables_number   1
_chemical_formula_structural   Tb14Tm2MgHg3Ir4
_chemical_formula_sum   'Tb14 Tm2 Mg1 Hg3 Ir4'
_cell_volume   633.67521073
_cell_formula_units_Z   1
loop_
 _symmetry_equiv_pos_site_id
 _symmetry_equiv_pos_as_xyz
  1  'x, y, z'
loop_
 _atom_site_type_symbol
 _atom_site_label
 _atom_site_symmetry_multiplicity
 _atom_site_fract_x
 _atom_site_fract_y
 _atom_site_fract_z
 _atom_site_occupancy
  Tb  Tb0  1  0.062253  0.439945  0.059669  1
  Tb  Tb1  1  0.056064  0.647832  0.647832  1
  Tb  Tb2  1  0.650279  0.652558  0.652558  1
  Tb  Tb3  1  0.062253  0.059669  0.439945  1
  Tb  Tb4  1  0.191204  0.811523  0.190227  1
  Tb  Tb5  1  0.812947  0.811496  0.188333  1
  Tb  Tb6  1  0.812947  0.188333  0.811496  1
  Tb  Tb7  1  0.439485  0.060015  0.437893  1
  Tb  Tb8  1  0.439485  0.437893  0.060015  1
  Tb  Tb9  1  0.440633  0.061067  0.061067  1
  Tb  Tb10  1  0.061478  0.438469  0.438469  1
  Tb  Tb11  1  0.191204  0.190227  0.811523  1
  Tb  Tb12  1  0.649499  0.649752  0.046867  1
  Tb  Tb13  1  0.649499  0.046867  0.649752  1
  Tm  Tm14  1  0.192413  0.808497  0.808497  1
  Tm  Tm15  1  0.814474  0.188603  0.188603  1
  Mg  Mg16  1  0.717384  0.428008  0.428008  1
  Hg  Hg17  1  0.417522  0.413422  0.756581  1
  Hg  Hg18  1  0.417522  0.756581  0.413422  1
  Hg  Hg19  1  0.418682  0.413390  0.413390  1
  Ir  Ir20  1  0.858412  0.858989  0.423922  1
  Ir  Ir21  1  0.858412  0.423922  0.858989  1
  Ir  Ir22  1  0.862501  0.856447  0.856447  1
  Ir  Ir23  1  0.423455  0.856492  0.856492  1
