# generated using pymatgen
data_AcH2I
_symmetry_space_group_name_H-M   'P 1'
_cell_length_a   12.61800293
_cell_length_b   12.61800284
_cell_length_c   12.61800105
_cell_angle_alpha   19.59186481
_cell_angle_beta   19.59186833
_cell_angle_gamma   19.59186479
_symmetry_Int_Tables_number   1
_chemical_formula_structural   AcH2I
_chemical_formula_sum   'Ac2 H4 I2'
_cell_volume   197.52670423
_cell_formula_units_Z   2
loop_
 _symmetry_equiv_pos_site_id
 _symmetry_equiv_pos_as_xyz
  1  'x, y, z'
loop_
 _atom_site_type_symbol
 _atom_site_label
 _atom_site_symmetry_multiplicity
 _atom_site_fract_x
 _atom_site_fract_y
 _atom_site_fract_z
 _atom_site_occupancy
  Ac  Ac0  1  0.881712  0.881712  0.881712  1
  Ac  Ac1  1  0.118288  0.118288  0.118288  1
  H  H2  1  0.813521  0.813521  0.813521  1
  H  H3  1  0.186479  0.186479  0.186479  1
  H  H4  1  0.542616  0.542616  0.542616  1
  H  H5  1  0.457384  0.457384  0.457384  1
  I  I6  1  0.722953  0.722953  0.722953  1
  I  I7  1  0.277047  0.277047  0.277047  1
