# generated using pymatgen
data_RbTbNd5(CBr6)2
_symmetry_space_group_name_H-M   'P 1'
_cell_length_a   9.15459417
_cell_length_b   9.15012272
_cell_length_c   9.65746777
_cell_angle_alpha   72.12832601
_cell_angle_beta   70.84361278
_cell_angle_gamma   72.78888749
_symmetry_Int_Tables_number   1
_chemical_formula_structural   RbTbNd5(CBr6)2
_chemical_formula_sum   'Rb1 Tb1 Nd5 C2 Br12'
_cell_volume   709.94724469
_cell_formula_units_Z   1
loop_
 _symmetry_equiv_pos_site_id
 _symmetry_equiv_pos_as_xyz
  1  'x, y, z'
loop_
 _atom_site_type_symbol
 _atom_site_label
 _atom_site_symmetry_multiplicity
 _atom_site_fract_x
 _atom_site_fract_y
 _atom_site_fract_z
 _atom_site_occupancy
  Rb  Rb0  1  0.998536  0.500510  0.000285  1
  Tb  Tb1  1  0.525993  0.884141  0.813298  1
  Nd  Nd2  1  0.475197  0.117395  0.180456  1
  Nd  Nd3  1  0.782726  0.033509  0.405964  1
  Nd  Nd4  1  0.595358  0.719807  0.473024  1
  Nd  Nd5  1  0.404254  0.279951  0.526226  1
  Nd  Nd6  1  0.217252  0.965960  0.595897  1
  C  C7  1  0.493474  0.025295  0.426087  1
  C  C8  1  0.506703  0.973118  0.576282  1
  Br  Br9  1  0.799361  0.164144  0.081523  1
  Br  Br10  1  0.585795  0.785820  0.135424  1
  Br  Br11  1  0.348967  0.434632  0.224742  1
  Br  Br12  1  0.135558  0.072843  0.294262  1
  Br  Br13  1  0.926616  0.721890  0.351716  1
  Br  Br14  1  0.716823  0.368063  0.428622  1
  Br  Br15  1  0.282519  0.632129  0.572734  1
  Br  Br16  1  0.072574  0.277877  0.648484  1
  Br  Br17  1  0.857768  0.925900  0.710743  1
  Br  Br18  1  0.647538  0.573157  0.778503  1
  Br  Br19  1  0.416230  0.206745  0.857307  1
  Br  Br20  1  0.210762  0.837113  0.918421  1
