# generated using pymatgen
data_CeEu3(Ge2O7)2
_symmetry_space_group_name_H-M   'P 1'
_cell_length_a   7.20255618
_cell_length_b   7.20255671
_cell_length_c   7.21359064
_cell_angle_alpha   60.05058708
_cell_angle_beta   60.05058224
_cell_angle_gamma   59.99999832
_symmetry_Int_Tables_number   1
_chemical_formula_structural   CeEu3(Ge2O7)2
_chemical_formula_sum   'Ce1 Eu3 Ge4 O14'
_cell_volume   264.81431871
_cell_formula_units_Z   1
loop_
 _symmetry_equiv_pos_site_id
 _symmetry_equiv_pos_as_xyz
  1  'x, y, z'
loop_
 _atom_site_type_symbol
 _atom_site_label
 _atom_site_symmetry_multiplicity
 _atom_site_fract_x
 _atom_site_fract_y
 _atom_site_fract_z
 _atom_site_occupancy
  Ce  Ce0  1  0.125000  0.125000  0.625000  1
  Eu  Eu1  1  0.125000  0.625000  0.125000  1
  Eu  Eu2  1  0.625000  0.125000  0.125000  1
  Eu  Eu3  1  0.125000  0.125000  0.125000  1
  Ge  Ge4  1  0.125000  0.625000  0.625000  1
  Ge  Ge5  1  0.625000  0.625000  0.625000  1
  Ge  Ge6  1  0.625000  0.125000  0.625000  1
  Ge  Ge7  1  0.625000  0.625000  0.125000  1
  O  O8  1  0.299648  0.703851  0.696854  1
  O  O9  1  0.550377  0.950768  0.948478  1
  O  O10  1  0.703851  0.299648  0.696854  1
  O  O11  1  0.699623  0.699623  0.301522  1
  O  O12  1  0.005525  0.005525  0.983425  1
  O  O13  1  0.299648  0.299648  0.696854  1
  O  O14  1  0.299232  0.699623  0.301522  1
  O  O15  1  0.950768  0.550377  0.948478  1
  O  O16  1  0.244475  0.244475  0.266575  1
  O  O17  1  0.950352  0.950352  0.553146  1
  O  O18  1  0.550377  0.550377  0.948478  1
  O  O19  1  0.546149  0.950352  0.553146  1
  O  O20  1  0.699623  0.299232  0.301522  1
  O  O21  1  0.950352  0.546149  0.553146  1
