# generated using pymatgen
data_Er8Tm4InCo4Cu
_symmetry_space_group_name_H-M   'P 1'
_cell_length_a   8.21214222
_cell_length_b   8.21223551
_cell_length_c   8.21214095
_cell_angle_alpha   111.06622830
_cell_angle_beta   110.89492812
_cell_angle_gamma   106.49254347
_symmetry_Int_Tables_number   1
_chemical_formula_structural   Er8Tm4InCo4Cu
_chemical_formula_sum   'Er8 Tm4 In1 Co4 Cu1'
_cell_volume   425.47926741
_cell_formula_units_Z   1
loop_
 _symmetry_equiv_pos_site_id
 _symmetry_equiv_pos_as_xyz
  1  'x, y, z'
loop_
 _atom_site_type_symbol
 _atom_site_label
 _atom_site_symmetry_multiplicity
 _atom_site_fract_x
 _atom_site_fract_y
 _atom_site_fract_z
 _atom_site_occupancy
  Er  Er0  1  0.419346  0.220046  0.199312  1
  Er  Er1  1  0.580654  0.779954  0.800688  1
  Er  Er2  1  0.020735  0.220046  0.800701  1
  Er  Er3  1  0.979265  0.779954  0.199299  1
  Er  Er4  1  0.185644  0.288471  0.474114  1
  Er  Er5  1  0.814356  0.711529  0.525886  1
  Er  Er6  1  0.185644  0.711529  0.897173  1
  Er  Er7  1  0.814356  0.288471  0.102827  1
  Tm  Tm8  1  0.315757  0.620551  0.304795  1
  Tm  Tm9  1  0.684243  0.379449  0.695205  1
  Tm  Tm10  1  0.315759  0.010979  0.695220  1
  Tm  Tm11  1  0.684241  0.989021  0.304780  1
  In  In12  1  0.500000  0.500000  0.000000  1
  Co  Co13  1  0.375469  0.000000  0.375469  1
  Co  Co14  1  0.624531  0.000000  0.624531  1
  Co  Co15  1  0.113333  0.613348  0.500014  1
  Co  Co16  1  0.886667  0.386652  0.499986  1
  Cu  Cu17  1  0.000000  0.000000  0.000000  1
