# generated using pymatgen
data_Tb3Y5Mg2(SiB4)4
_symmetry_space_group_name_H-M   'P 1'
_cell_length_a   7.18303203
_cell_length_b   7.18304103
_cell_length_c   7.87777401
_cell_angle_alpha   90.00472500
_cell_angle_beta   90.00470976
_cell_angle_gamma   89.99066735
_symmetry_Int_Tables_number   1
_chemical_formula_structural   Tb3Y5Mg2(SiB4)4
_chemical_formula_sum   'Tb3 Y5 Mg2 Si4 B16'
_cell_volume   406.46172848
_cell_formula_units_Z   1
loop_
 _symmetry_equiv_pos_site_id
 _symmetry_equiv_pos_as_xyz
  1  'x, y, z'
loop_
 _atom_site_type_symbol
 _atom_site_label
 _atom_site_symmetry_multiplicity
 _atom_site_fract_x
 _atom_site_fract_y
 _atom_site_fract_z
 _atom_site_occupancy
  Tb  Tb0  1  0.683021  0.183024  0.766054  1
  Tb  Tb1  1  0.182961  0.316964  0.766087  1
  Tb  Tb2  1  0.183052  0.317022  0.233896  1
  Y  Y3  1  0.682898  0.182897  0.233746  1
  Y  Y4  1  0.317092  0.817091  0.766322  1
  Y  Y5  1  0.317059  0.817058  0.233671  1
  Y  Y6  1  0.817094  0.682982  0.233544  1
  Y  Y7  1  0.817040  0.682888  0.766438  1
  Mg  Mg8  1  0.999998  0.999826  0.499938  1
  Mg  Mg9  1  0.500103  0.500141  0.499939  1
  Si  Si10  1  0.115211  0.615672  0.499916  1
  Si  Si11  1  0.884537  0.385003  0.499863  1
  Si  Si12  1  0.384889  0.114869  0.499869  1
  Si  Si13  1  0.615295  0.884476  0.499874  1
  B  B14  1  0.173445  0.039790  0.000055  1
  B  B15  1  0.826420  0.959987  0.000079  1
  B  B16  1  0.960108  0.173487  0.000033  1
  B  B17  1  0.326419  0.539966  0.000104  1
  B  B18  1  0.039821  0.826308  0.000104  1
  B  B19  1  0.673600  0.460253  0.000029  1
  B  B20  1  0.539940  0.673636  0.000054  1
  B  B21  1  0.460137  0.326612  0.000084  1
  B  B22  1  0.089537  0.589607  0.000046  1
  B  B23  1  0.910349  0.410419  0.999918  1
  B  B24  1  0.410261  0.089703  0.000027  1
  B  B25  1  0.589611  0.910352  0.000026  1
  B  B26  1  0.999954  0.999815  0.161466  1
  B  B27  1  0.999997  0.999868  0.838678  1
  B  B28  1  0.500103  0.500165  0.838677  1
  B  B29  1  0.500047  0.500121  0.161465  1
