# generated using pymatgen
data_Ho5Er5(TmRh2)2
_symmetry_space_group_name_H-M   'P 1'
_cell_length_a   6.27872071
_cell_length_b   7.13542617
_cell_length_c   9.32039500
_cell_angle_alpha   90.00786488
_cell_angle_beta   89.95779164
_cell_angle_gamma   89.95977539
_symmetry_Int_Tables_number   1
_chemical_formula_structural   Ho5Er5(TmRh2)2
_chemical_formula_sum   'Ho5 Er5 Tm2 Rh4'
_cell_volume   417.56603998
_cell_formula_units_Z   1
loop_
 _symmetry_equiv_pos_site_id
 _symmetry_equiv_pos_as_xyz
  1  'x, y, z'
loop_
 _atom_site_type_symbol
 _atom_site_label
 _atom_site_symmetry_multiplicity
 _atom_site_fract_x
 _atom_site_fract_y
 _atom_site_fract_z
 _atom_site_occupancy
  Ho  Ho0  1  0.672747  0.178633  0.062953  1
  Ho  Ho1  1  0.867028  0.966149  0.749789  1
  Ho  Ho2  1  0.366677  0.534068  0.250122  1
  Ho  Ho3  1  0.632921  0.466174  0.749794  1
  Ho  Ho4  1  0.133257  0.033655  0.250160  1
  Er  Er5  1  0.327284  0.821430  0.563122  1
  Er  Er6  1  0.327106  0.821436  0.936692  1
  Er  Er7  1  0.827425  0.678354  0.063484  1
  Er  Er8  1  0.172637  0.321585  0.563303  1
  Er  Er9  1  0.672828  0.178430  0.437003  1
  Tm  Tm10  1  0.172656  0.321649  0.936374  1
  Tm  Tm11  1  0.827248  0.678480  0.436523  1
  Rh  Rh12  1  0.053625  0.615633  0.750051  1
  Rh  Rh13  1  0.554074  0.883794  0.250536  1
  Rh  Rh14  1  0.445763  0.115910  0.749780  1
  Rh  Rh15  1  0.946725  0.384617  0.250311  1
