# generated using pymatgen
data_CsSm10(C2I9)2
_symmetry_space_group_name_H-M   'P 1'
_cell_length_a   11.57172493
_cell_length_b   11.62238881
_cell_length_c   11.71325019
_cell_angle_alpha   113.18243351
_cell_angle_beta   87.20452898
_cell_angle_gamma   119.43274175
_symmetry_Int_Tables_number   1
_chemical_formula_structural   CsSm10(C2I9)2
_chemical_formula_sum   'Cs1 Sm10 C4 I18'
_cell_volume   1240.46095575
_cell_formula_units_Z   1
loop_
 _symmetry_equiv_pos_site_id
 _symmetry_equiv_pos_as_xyz
  1  'x, y, z'
loop_
 _atom_site_type_symbol
 _atom_site_label
 _atom_site_symmetry_multiplicity
 _atom_site_fract_x
 _atom_site_fract_y
 _atom_site_fract_z
 _atom_site_occupancy
  Cs  Cs0  1  0.500000  0.000000  0.500000  1
  Sm  Sm1  1  0.672067  0.722034  0.707738  1
  Sm  Sm2  1  0.277030  0.353450  0.016053  1
  Sm  Sm3  1  0.093030  0.395998  0.294906  1
  Sm  Sm4  1  0.965525  0.038772  0.324288  1
  Sm  Sm5  1  0.906970  0.604002  0.705094  1
  Sm  Sm6  1  0.107179  0.944114  0.000751  1
  Sm  Sm7  1  0.034475  0.961228  0.675712  1
  Sm  Sm8  1  0.327933  0.277966  0.292262  1
  Sm  Sm9  1  0.722970  0.646550  0.983947  1
  Sm  Sm10  1  0.892821  0.055886  0.999249  1
  C  C11  1  0.152070  0.221486  0.123848  1
  C  C12  1  0.847930  0.778514  0.876152  1
  C  C13  1  0.921419  0.852730  0.802397  1
  C  C14  1  0.078581  0.147270  0.197603  1
  I  I15  1  0.448917  0.530406  0.830564  1
  I  I16  1  0.385549  0.038124  0.157974  1
  I  I17  1  0.775103  0.855079  0.501172  1
  I  I18  1  0.835147  0.311209  0.153467  1
  I  I19  1  0.551083  0.469594  0.169436  1
  I  I20  1  0.224897  0.144921  0.498828  1
  I  I21  1  0.316996  0.094992  0.831565  1
  I  I22  1  0.683004  0.905008  0.168435  1
  I  I23  1  0.978198  0.757977  0.168888  1
  I  I24  1  0.932681  0.299249  0.501951  1
  I  I25  1  0.021802  0.242023  0.831112  1
  I  I26  1  0.067319  0.700751  0.498049  1
  I  I27  1  0.261648  0.623801  0.184003  1
  I  I28  1  0.738352  0.376199  0.815997  1
  I  I29  1  0.640011  0.431098  0.497712  1
  I  I30  1  0.164853  0.688791  0.846533  1
  I  I31  1  0.614451  0.961876  0.842026  1
  I  I32  1  0.359989  0.568902  0.502288  1
