# generated using pymatgen
data_Tm12Co3SnOs2
_symmetry_space_group_name_H-M   'P 1'
_cell_length_a   8.20059903
_cell_length_b   8.20059984
_cell_length_c   8.20059848
_cell_angle_alpha   111.13131515
_cell_angle_beta   112.01508706
_cell_angle_gamma   105.34571794
_symmetry_Int_Tables_number   1
_chemical_formula_structural   Tm12Co3SnOs2
_chemical_formula_sum   'Tm12 Co3 Sn1 Os2'
_cell_volume   422.87387077
_cell_formula_units_Z   1
loop_
 _symmetry_equiv_pos_site_id
 _symmetry_equiv_pos_as_xyz
  1  'x, y, z'
loop_
 _atom_site_type_symbol
 _atom_site_label
 _atom_site_symmetry_multiplicity
 _atom_site_fract_x
 _atom_site_fract_y
 _atom_site_fract_z
 _atom_site_occupancy
  Tm  Tm0  1  0.275738  0.183001  0.458739  1
  Tm  Tm1  1  0.723192  0.817380  0.540572  1
  Tm  Tm2  1  0.276808  0.817380  0.094187  1
  Tm  Tm3  1  0.724262  0.183001  0.907264  1
  Tm  Tm4  1  0.618231  0.309408  0.304562  1
  Tm  Tm5  1  0.381769  0.686331  0.691177  1
  Tm  Tm6  1  0.004846  0.309408  0.691177  1
  Tm  Tm7  1  0.995154  0.686331  0.304562  1
  Tm  Tm8  1  0.225590  0.417726  0.192137  1
  Tm  Tm9  1  0.777931  0.582021  0.804089  1
  Tm  Tm10  1  0.222069  0.026158  0.804089  1
  Tm  Tm11  1  0.774410  0.966547  0.192137  1
  Co  Co12  1  0.000000  0.641189  0.641189  1
  Co  Co13  1  0.389475  0.889334  0.499857  1
  Co  Co14  1  0.610525  0.110382  0.499857  1
  Sn  Sn15  1  0.500000  0.498246  0.998246  1
  Os  Os16  1  0.000000  0.376414  0.376414  1
  Os  Os17  1  0.000000  0.999742  0.999742  1
