# generated using pymatgen
data_Ac3Nd3Zn4Pd12Rh
_symmetry_space_group_name_H-M   'P 1'
_cell_length_a   8.48342301
_cell_length_b   8.48342216
_cell_length_c   8.48689500
_cell_angle_alpha   109.47950629
_cell_angle_beta   109.47950426
_cell_angle_gamma   109.46293438
_symmetry_Int_Tables_number   1
_chemical_formula_structural   Ac3Nd3Zn4Pd12Rh
_chemical_formula_sum   'Ac3 Nd3 Zn4 Pd12 Rh1'
_cell_volume   470.13732130
_cell_formula_units_Z   1
loop_
 _symmetry_equiv_pos_site_id
 _symmetry_equiv_pos_as_xyz
  1  'x, y, z'
loop_
 _atom_site_type_symbol
 _atom_site_label
 _atom_site_symmetry_multiplicity
 _atom_site_fract_x
 _atom_site_fract_y
 _atom_site_fract_z
 _atom_site_occupancy
  Ac  Ac0  1  0.703170  0.703170  0.998548  1
  Ac  Ac1  1  0.296830  0.000000  0.295377  1
  Ac  Ac2  1  0.000000  0.296830  0.295377  1
  Nd  Nd3  1  0.301213  0.301213  0.998618  1
  Nd  Nd4  1  0.698787  0.000000  0.697404  1
  Nd  Nd5  1  0.000000  0.698787  0.697404  1
  Zn  Zn6  1  0.000000  0.000000  0.516138  1
  Zn  Zn7  1  0.000000  0.493962  0.997698  1
  Zn  Zn8  1  0.493962  0.000000  0.997698  1
  Zn  Zn9  1  0.506038  0.506038  0.503736  1
  Pd  Pd10  1  0.330367  0.330367  0.663694  1
  Pd  Pd11  1  0.669633  0.000000  0.333327  1
  Pd  Pd12  1  0.000000  0.669633  0.333327  1
  Pd  Pd13  1  0.667760  0.329225  0.999565  1
  Pd  Pd14  1  0.332240  0.661463  0.331805  1
  Pd  Pd15  1  0.000000  0.330734  0.671354  1
  Pd  Pd16  1  0.329225  0.667760  0.999565  1
  Pd  Pd17  1  0.330734  0.000000  0.671354  1
  Pd  Pd18  1  0.661463  0.332240  0.331805  1
  Pd  Pd19  1  0.669266  0.669266  0.340621  1
  Pd  Pd20  1  0.670775  0.338537  0.670340  1
  Pd  Pd21  1  0.338537  0.670775  0.670340  1
  Rh  Rh22  1  0.000000  0.000000  0.984900  1
