# generated using pymatgen
data_Li3Yb4ZnAu4
_symmetry_space_group_name_H-M   'P 1'
_cell_length_a   4.34277400
_cell_length_b   7.26143921
_cell_length_c   8.28341165
_cell_angle_alpha   90.40028398
_cell_angle_beta   90.00000000
_cell_angle_gamma   90.00000000
_symmetry_Int_Tables_number   1
_chemical_formula_structural   Li3Yb4ZnAu4
_chemical_formula_sum   'Li3 Yb4 Zn1 Au4'
_cell_volume   261.20926700
_cell_formula_units_Z   1
loop_
 _symmetry_equiv_pos_site_id
 _symmetry_equiv_pos_as_xyz
  1  'x, y, z'
loop_
 _atom_site_type_symbol
 _atom_site_label
 _atom_site_symmetry_multiplicity
 _atom_site_fract_x
 _atom_site_fract_y
 _atom_site_fract_z
 _atom_site_occupancy
  Li  Li0  1  0.250000  0.642915  0.567337  1
  Li  Li1  1  0.250000  0.140849  0.935286  1
  Li  Li2  1  0.750000  0.359729  0.434273  1
  Yb  Yb3  1  0.750000  0.479518  0.816319  1
  Yb  Yb4  1  0.250000  0.023260  0.309509  1
  Yb  Yb5  1  0.750000  0.972574  0.689634  1
  Yb  Yb6  1  0.250000  0.531901  0.182152  1
  Zn  Zn7  1  0.750000  0.850520  0.064874  1
  Au  Au8  1  0.250000  0.769822  0.886168  1
  Au  Au9  1  0.250000  0.264103  0.615608  1
  Au  Au10  1  0.750000  0.733728  0.384759  1
  Au  Au11  1  0.750000  0.231080  0.114081  1
