# generated using pymatgen
data_Tb3Al3Cr2O12
_symmetry_space_group_name_H-M   'P 1'
_cell_length_a   10.63772998
_cell_length_b   10.63772985
_cell_length_c   10.63773000
_cell_angle_alpha   109.47122092
_cell_angle_beta   109.47122068
_cell_angle_gamma   109.47122082
_symmetry_Int_Tables_number   1
_chemical_formula_structural   Tb3Al3Cr2O12
_chemical_formula_sum   'Tb12 Al12 Cr8 O48'
_cell_volume   926.66975559
_cell_formula_units_Z   4
loop_
 _symmetry_equiv_pos_site_id
 _symmetry_equiv_pos_as_xyz
  1  'x, y, z'
loop_
 _atom_site_type_symbol
 _atom_site_label
 _atom_site_symmetry_multiplicity
 _atom_site_fract_x
 _atom_site_fract_y
 _atom_site_fract_z
 _atom_site_occupancy
  Tb  Tb0  1  0.250000  0.375000  0.125000  1
  Tb  Tb1  1  0.750000  0.625000  0.875000  1
  Tb  Tb2  1  0.750000  0.125000  0.375000  1
  Tb  Tb3  1  0.125000  0.250000  0.375000  1
  Tb  Tb4  1  0.375000  0.750000  0.125000  1
  Tb  Tb5  1  0.250000  0.875000  0.625000  1
  Tb  Tb6  1  0.875000  0.750000  0.625000  1
  Tb  Tb7  1  0.625000  0.250000  0.875000  1
  Tb  Tb8  1  0.375000  0.125000  0.250000  1
  Tb  Tb9  1  0.625000  0.875000  0.750000  1
  Tb  Tb10  1  0.125000  0.375000  0.750000  1
  Tb  Tb11  1  0.875000  0.625000  0.250000  1
  Al  Al12  1  0.250000  0.625000  0.375000  1
  Al  Al13  1  0.750000  0.375000  0.625000  1
  Al  Al14  1  0.750000  0.875000  0.125000  1
  Al  Al15  1  0.375000  0.250000  0.625000  1
  Al  Al16  1  0.625000  0.750000  0.375000  1
  Al  Al17  1  0.250000  0.125000  0.875000  1
  Al  Al18  1  0.125000  0.750000  0.875000  1
  Al  Al19  1  0.875000  0.250000  0.125000  1
  Al  Al20  1  0.625000  0.375000  0.250000  1
  Al  Al21  1  0.375000  0.625000  0.750000  1
  Al  Al22  1  0.875000  0.125000  0.750000  1
  Al  Al23  1  0.125000  0.875000  0.250000  1
  Cr  Cr24  1  0.000000  0.000000  0.000000  1
  Cr  Cr25  1  0.500000  0.000000  0.500000  1
  Cr  Cr26  1  0.000000  0.500000  0.500000  1
  Cr  Cr27  1  0.500000  0.000000  0.000000  1
  Cr  Cr28  1  0.500000  0.500000  0.000000  1
  Cr  Cr29  1  0.500000  0.500000  0.500000  1
  Cr  Cr30  1  0.000000  0.000000  0.500000  1
  Cr  Cr31  1  0.000000  0.500000  0.000000  1
  O  O32  1  0.476948  0.378004  0.292618  1
  O  O33  1  0.523052  0.621996  0.707382  1
  O  O34  1  0.585386  0.184330  0.207382  1
  O  O35  1  0.914614  0.121996  0.598944  1
  O  O36  1  0.292618  0.476948  0.378004  1
  O  O37  1  0.315670  0.914614  0.292618  1
  O  O38  1  0.414614  0.815670  0.792618  1
  O  O39  1  0.085386  0.878004  0.401056  1
  O  O40  1  0.707382  0.523052  0.621996  1
  O  O41  1  0.684330  0.085386  0.707382  1
  O  O42  1  0.023052  0.315670  0.901056  1
  O  O43  1  0.207382  0.585386  0.184330  1
  O  O44  1  0.121996  0.023052  0.207382  1
  O  O45  1  0.976948  0.684330  0.098944  1
  O  O46  1  0.792618  0.414614  0.815670  1
  O  O47  1  0.878004  0.976948  0.792618  1
  O  O48  1  0.598944  0.914614  0.121996  1
  O  O49  1  0.184330  0.476948  0.598944  1
  O  O50  1  0.401056  0.085386  0.878004  1
  O  O51  1  0.815670  0.523052  0.401056  1
  O  O52  1  0.901056  0.023052  0.315670  1
  O  O53  1  0.378004  0.585386  0.901056  1
  O  O54  1  0.098944  0.976948  0.684330  1
  O  O55  1  0.621996  0.414614  0.098944  1
  O  O56  1  0.378004  0.292618  0.476948  1
  O  O57  1  0.585386  0.901056  0.378004  1
  O  O58  1  0.621996  0.707382  0.523052  1
  O  O59  1  0.414614  0.098944  0.621996  1
  O  O60  1  0.121996  0.598944  0.914614  1
  O  O61  1  0.023052  0.207382  0.121996  1
  O  O62  1  0.878004  0.401056  0.085386  1
  O  O63  1  0.976948  0.792618  0.878004  1
  O  O64  1  0.315670  0.901056  0.023052  1
  O  O65  1  0.914614  0.292618  0.315670  1
  O  O66  1  0.684330  0.098944  0.976948  1
  O  O67  1  0.085386  0.707382  0.684330  1
  O  O68  1  0.184330  0.207382  0.585386  1
  O  O69  1  0.476948  0.598944  0.184330  1
  O  O70  1  0.815670  0.792618  0.414614  1
  O  O71  1  0.523052  0.401056  0.815670  1
  O  O72  1  0.292618  0.315670  0.914614  1
  O  O73  1  0.707382  0.684330  0.085386  1
  O  O74  1  0.207382  0.121996  0.023052  1
  O  O75  1  0.792618  0.878004  0.976948  1
  O  O76  1  0.901056  0.378004  0.585386  1
  O  O77  1  0.098944  0.621996  0.414614  1
  O  O78  1  0.598944  0.184330  0.476948  1
  O  O79  1  0.401056  0.815670  0.523052  1
