# generated using pymatgen
data_TbY(AlC)6
_symmetry_space_group_name_H-M   'P 1'
_cell_length_a   3.43978900
_cell_length_b   3.43978868
_cell_length_c   17.36235400
_cell_angle_alpha   90.00000000
_cell_angle_beta   90.00000000
_cell_angle_gamma   120.00001269
_symmetry_Int_Tables_number   1
_chemical_formula_structural   TbY(AlC)6
_chemical_formula_sum   'Tb1 Y1 Al6 C6'
_cell_volume   177.91097891
_cell_formula_units_Z   1
loop_
 _symmetry_equiv_pos_site_id
 _symmetry_equiv_pos_as_xyz
  1  'x, y, z'
loop_
 _atom_site_type_symbol
 _atom_site_label
 _atom_site_symmetry_multiplicity
 _atom_site_fract_x
 _atom_site_fract_y
 _atom_site_fract_z
 _atom_site_occupancy
  Tb  Tb0  1  0.000000  0.000000  0.500000  1
  Y  Y1  1  0.000000  0.000000  0.000000  1
  Al  Al2  1  0.333333  0.666667  0.133861  1
  Al  Al3  1  0.666667  0.333333  0.249964  1
  Al  Al4  1  0.333333  0.666667  0.365937  1
  Al  Al5  1  0.666667  0.333333  0.634063  1
  Al  Al6  1  0.333333  0.666667  0.750036  1
  Al  Al7  1  0.666667  0.333333  0.866139  1
  C  C8  1  0.666667  0.333333  0.093516  1
  C  C9  1  0.333333  0.666667  0.249930  1
  C  C10  1  0.666667  0.333333  0.406285  1
  C  C11  1  0.333333  0.666667  0.593715  1
  C  C12  1  0.666667  0.333333  0.750070  1
  C  C13  1  0.333333  0.666667  0.906484  1
