# generated using pymatgen
data_Yb3Ce(HgPd2)2
_symmetry_space_group_name_H-M   'P 1'
_cell_length_a   7.70303787
_cell_length_b   7.70303787
_cell_length_c   3.80769600
_cell_angle_alpha   90.00000000
_cell_angle_beta   90.00000000
_cell_angle_gamma   88.26799298
_symmetry_Int_Tables_number   1
_chemical_formula_structural   Yb3Ce(HgPd2)2
_chemical_formula_sum   'Yb3 Ce1 Hg2 Pd4'
_cell_volume   225.83324390
_cell_formula_units_Z   1
loop_
 _symmetry_equiv_pos_site_id
 _symmetry_equiv_pos_as_xyz
  1  'x, y, z'
loop_
 _atom_site_type_symbol
 _atom_site_label
 _atom_site_symmetry_multiplicity
 _atom_site_fract_x
 _atom_site_fract_y
 _atom_site_fract_z
 _atom_site_occupancy
  Yb  Yb0  1  0.327116  0.172885  0.500001  1
  Yb  Yb1  1  0.832656  0.328733  0.500001  1
  Yb  Yb2  1  0.171268  0.667345  0.500001  1
  Ce  Ce3  1  0.669427  0.830574  0.500001  1
  Hg  Hg4  1  0.003105  0.003720  0.000000  1
  Hg  Hg5  1  0.496280  0.496895  0.000000  1
  Pd  Pd6  1  0.630545  0.128242  0.000000  1
  Pd  Pd7  1  0.129431  0.370569  0.000000  1
  Pd  Pd8  1  0.868416  0.631584  0.000000  1
  Pd  Pd9  1  0.371758  0.869455  0.000000  1
