# generated using pymatgen
data_TbBi3(AuO3)4
_symmetry_space_group_name_H-M   'P 1'
_cell_length_a   3.98519890
_cell_length_b   5.65521300
_cell_length_c   13.31165803
_cell_angle_alpha   90.00000000
_cell_angle_beta   91.26636882
_cell_angle_gamma   90.00000000
_symmetry_Int_Tables_number   1
_chemical_formula_structural   TbBi3(AuO3)4
_chemical_formula_sum   'Tb1 Bi3 Au4 O12'
_cell_volume   299.93353999
_cell_formula_units_Z   1
loop_
 _symmetry_equiv_pos_site_id
 _symmetry_equiv_pos_as_xyz
  1  'x, y, z'
loop_
 _atom_site_type_symbol
 _atom_site_label
 _atom_site_symmetry_multiplicity
 _atom_site_fract_x
 _atom_site_fract_y
 _atom_site_fract_z
 _atom_site_occupancy
  Tb  Tb0  1  0.750831  0.750000  0.578704  1
  Bi  Bi1  1  0.266971  0.750000  0.074496  1
  Bi  Bi2  1  0.281682  0.250000  0.427676  1
  Bi  Bi3  1  0.719577  0.250000  0.925876  1
  Au  Au4  1  0.072574  0.750000  0.825178  1
  Au  Au5  1  0.083477  0.250000  0.666933  1
  Au  Au6  1  0.916453  0.250000  0.172118  1
  Au  Au7  1  0.916381  0.750000  0.333507  1
  O  O8  1  0.161468  0.498826  0.254040  1
  O  O9  1  0.827655  0.989760  0.737548  1
  O  O10  1  0.827655  0.510240  0.737548  1
  O  O11  1  0.161468  0.001174  0.254040  1
  O  O12  1  0.739059  0.490266  0.070693  1
  O  O13  1  0.746792  0.508013  0.431594  1
  O  O14  1  0.247630  0.990302  0.926868  1
  O  O15  1  0.273424  0.998840  0.577011  1
  O  O16  1  0.746792  0.991987  0.431594  1
  O  O17  1  0.739059  0.009734  0.070693  1
  O  O18  1  0.273424  0.501160  0.577011  1
  O  O19  1  0.247630  0.509698  0.926868  1
