# generated using pymatgen
data_Gd2H4BrCl
_symmetry_space_group_name_H-M   'P 1'
_cell_length_a   11.46604534
_cell_length_b   11.46604522
_cell_length_c   11.46604612
_cell_angle_alpha   19.03359286
_cell_angle_beta   19.03359334
_cell_angle_gamma   19.03359049
_symmetry_Int_Tables_number   1
_chemical_formula_structural   Gd2H4BrCl
_chemical_formula_sum   'Gd2 H4 Br1 Cl1'
_cell_volume   140.12247107
_cell_formula_units_Z   1
loop_
 _symmetry_equiv_pos_site_id
 _symmetry_equiv_pos_as_xyz
  1  'x, y, z'
loop_
 _atom_site_type_symbol
 _atom_site_label
 _atom_site_symmetry_multiplicity
 _atom_site_fract_x
 _atom_site_fract_y
 _atom_site_fract_z
 _atom_site_occupancy
  Gd  Gd0  1  0.119204  0.119204  0.119204  1
  Gd  Gd1  1  0.882479  0.882479  0.882480  1
  H  H2  1  0.185803  0.185803  0.185803  1
  H  H3  1  0.458829  0.458829  0.458829  1
  H  H4  1  0.541974  0.541974  0.541974  1
  H  H5  1  0.815543  0.815543  0.815544  1
  Br  Br6  1  0.727887  0.727887  0.727887  1
  Cl  Cl7  1  0.268281  0.268281  0.268281  1
