# generated using pymatgen
data_RbNd2(H6Ir)2
_symmetry_space_group_name_H-M   'P 1'
_cell_length_a   5.13544700
_cell_length_b   5.13544763
_cell_length_c   9.40292500
_cell_angle_alpha   90.00000000
_cell_angle_beta   90.00000000
_cell_angle_gamma   120.00000239
_symmetry_Int_Tables_number   1
_chemical_formula_structural   RbNd2(H6Ir)2
_chemical_formula_sum   'Rb1 Nd2 H12 Ir2'
_cell_volume   214.75839496
_cell_formula_units_Z   1
loop_
 _symmetry_equiv_pos_site_id
 _symmetry_equiv_pos_as_xyz
  1  'x, y, z'
loop_
 _atom_site_type_symbol
 _atom_site_label
 _atom_site_symmetry_multiplicity
 _atom_site_fract_x
 _atom_site_fract_y
 _atom_site_fract_z
 _atom_site_occupancy
  Rb  Rb0  1  0.000000  0.000000  0.000000  1
  Nd  Nd1  1  0.666667  0.333333  0.369562  1
  Nd  Nd2  1  0.333333  0.666667  0.630438  1
  H  H3  1  0.174108  0.825892  0.387550  1
  H  H4  1  0.651783  0.825892  0.387550  1
  H  H5  1  0.174108  0.348217  0.387550  1
  H  H6  1  0.825892  0.174108  0.612450  1
  H  H7  1  0.348217  0.174108  0.612450  1
  H  H8  1  0.825892  0.651783  0.612450  1
  H  H9  1  0.517000  0.033999  0.823627  1
  H  H10  1  0.517000  0.483000  0.823627  1
  H  H11  1  0.966001  0.483000  0.823627  1
  H  H12  1  0.483000  0.966001  0.176373  1
  H  H13  1  0.483000  0.517000  0.176373  1
  H  H14  1  0.033999  0.517000  0.176373  1
  Ir  Ir15  1  0.666667  0.333333  0.714481  1
  Ir  Ir16  1  0.333333  0.666667  0.285519  1
