# generated using pymatgen
data_YTm2(FeCo2)3
_symmetry_space_group_name_H-M   'P 1'
_cell_length_a   5.08260975
_cell_length_b   5.08261034
_cell_length_c   8.38991189
_cell_angle_alpha   72.36813117
_cell_angle_beta   72.36812879
_cell_angle_gamma   59.99999954
_symmetry_Int_Tables_number   1
_chemical_formula_structural   YTm2(FeCo2)3
_chemical_formula_sum   'Y1 Tm2 Fe3 Co6'
_cell_volume   175.84374668
_cell_formula_units_Z   1
loop_
 _symmetry_equiv_pos_site_id
 _symmetry_equiv_pos_as_xyz
  1  'x, y, z'
loop_
 _atom_site_type_symbol
 _atom_site_label
 _atom_site_symmetry_multiplicity
 _atom_site_fract_x
 _atom_site_fract_y
 _atom_site_fract_z
 _atom_site_occupancy
  Y  Y0  1  0.000000  0.000000  0.000000  1
  Tm  Tm1  1  0.141172  0.141172  0.576483  1
  Tm  Tm2  1  0.858828  0.858828  0.423517  1
  Fe  Fe3  1  0.333943  0.333943  0.998169  1
  Fe  Fe4  1  0.666057  0.666057  0.001831  1
  Fe  Fe5  1  0.500000  0.500000  0.500000  1
  Co  Co6  1  0.079388  0.584146  0.752318  1
  Co  Co7  1  0.584146  0.584146  0.752318  1
  Co  Co8  1  0.584146  0.079388  0.752318  1
  Co  Co9  1  0.920612  0.415854  0.247682  1
  Co  Co10  1  0.415854  0.415854  0.247682  1
  Co  Co11  1  0.415854  0.920612  0.247682  1
