# generated using pymatgen
data_RbPaWO6
_symmetry_space_group_name_H-M   'P 1'
_cell_length_a   7.77777355
_cell_length_b   7.77777419
_cell_length_c   7.77777354
_cell_angle_alpha   121.99800227
_cell_angle_beta   118.61572445
_cell_angle_gamma   89.49450465
_symmetry_Int_Tables_number   1
_chemical_formula_structural   RbPaWO6
_chemical_formula_sum   'Rb2 Pa2 W2 O12'
_cell_volume   330.77679859
_cell_formula_units_Z   2
loop_
 _symmetry_equiv_pos_site_id
 _symmetry_equiv_pos_as_xyz
  1  'x, y, z'
loop_
 _atom_site_type_symbol
 _atom_site_label
 _atom_site_symmetry_multiplicity
 _atom_site_fract_x
 _atom_site_fract_y
 _atom_site_fract_z
 _atom_site_occupancy
  Rb  Rb0  1  0.622088  0.872088  0.750000  1
  Rb  Rb1  1  0.377912  0.127912  0.250000  1
  Pa  Pa2  1  0.500000  0.500000  0.000000  1
  Pa  Pa3  1  0.000000  0.500000  0.500000  1
  W  W4  1  0.000000  0.500000  0.000000  1
  W  W5  1  0.000000  0.000000  0.500000  1
  O  O6  1  0.046575  0.796575  0.250000  1
  O  O7  1  0.673493  0.423493  0.250000  1
  O  O8  1  0.054397  0.834507  0.628079  1
  O  O9  1  0.706427  0.426318  0.871921  1
  O  O10  1  0.706427  0.834507  0.280109  1
  O  O11  1  0.054397  0.426318  0.219891  1
  O  O12  1  0.953425  0.203425  0.750000  1
  O  O13  1  0.326507  0.576507  0.750000  1
  O  O14  1  0.945603  0.165493  0.371921  1
  O  O15  1  0.293573  0.573682  0.128079  1
  O  O16  1  0.293573  0.165493  0.719891  1
  O  O17  1  0.945603  0.573682  0.780109  1
