# generated using pymatgen
data_Yb6Lu2BiSb5
_symmetry_space_group_name_H-M   'P 1'
_cell_length_a   7.98274622
_cell_length_b   8.17903629
_cell_length_c   8.18680009
_cell_angle_alpha   109.97997786
_cell_angle_beta   108.96645795
_cell_angle_gamma   108.98201765
_symmetry_Int_Tables_number   1
_chemical_formula_structural   Yb6Lu2BiSb5
_chemical_formula_sum   'Yb6 Lu2 Bi1 Sb5'
_cell_volume   413.89172792
_cell_formula_units_Z   1
loop_
 _symmetry_equiv_pos_site_id
 _symmetry_equiv_pos_as_xyz
  1  'x, y, z'
loop_
 _atom_site_type_symbol
 _atom_site_label
 _atom_site_symmetry_multiplicity
 _atom_site_fract_x
 _atom_site_fract_y
 _atom_site_fract_z
 _atom_site_occupancy
  Yb  Yb0  1  0.498970  0.996646  0.646518  1
  Yb  Yb1  1  0.351751  0.352245  0.351944  1
  Yb  Yb2  1  0.500767  0.999918  0.145596  1
  Yb  Yb3  1  0.003135  0.649058  0.500335  1
  Yb  Yb4  1  0.854784  0.855770  0.853647  1
  Yb  Yb5  1  0.001724  0.145309  0.498387  1
  Lu  Lu6  1  0.146538  0.501053  0.003417  1
  Lu  Lu7  1  0.641966  0.500682  0.002045  1
  Bi  Bi8  1  0.754571  0.377779  0.635848  1
  Sb  Sb9  1  0.377315  0.621441  0.759420  1
  Sb  Sb10  1  0.877181  0.259616  0.121706  1
  Sb  Sb11  1  0.617839  0.740720  0.362371  1
  Sb  Sb12  1  0.117791  0.861973  0.240359  1
  Sb  Sb13  1  0.255668  0.137789  0.878404  1
