# generated using pymatgen
data_YIn(NiPt)2
_symmetry_space_group_name_H-M   'P 1'
_cell_length_a   5.18130370
_cell_length_b   5.18130356
_cell_length_c   5.05292200
_cell_angle_alpha   60.81631493
_cell_angle_beta   60.81631579
_cell_angle_gamma   63.31253795
_symmetry_Int_Tables_number   1
_chemical_formula_structural   YIn(NiPt)2
_chemical_formula_sum   'Y1 In1 Ni2 Pt2'
_cell_volume   99.34290051
_cell_formula_units_Z   1
loop_
 _symmetry_equiv_pos_site_id
 _symmetry_equiv_pos_as_xyz
  1  'x, y, z'
loop_
 _atom_site_type_symbol
 _atom_site_label
 _atom_site_symmetry_multiplicity
 _atom_site_fract_x
 _atom_site_fract_y
 _atom_site_fract_z
 _atom_site_occupancy
  Y  Y0  1  0.251447  0.251447  0.248553  1
  In  In1  1  0.988077  0.988077  0.011923  1
  Ni  Ni2  1  0.628791  0.628791  0.621517  1
  Ni  Ni3  1  0.628791  0.628791  0.120900  1
  Pt  Pt4  1  0.627007  0.125889  0.623552  1
  Pt  Pt5  1  0.125889  0.627007  0.623552  1
