# generated using pymatgen
data_Y2ErRuI3
_symmetry_space_group_name_H-M   'P 1'
_cell_length_a   4.22923100
_cell_length_b   8.88147916
_cell_length_c   12.24479819
_cell_angle_alpha   85.90164390
_cell_angle_beta   90.00000000
_cell_angle_gamma   90.00000000
_symmetry_Int_Tables_number   1
_chemical_formula_structural   Y2ErRuI3
_chemical_formula_sum   'Y4 Er2 Ru2 I6'
_cell_volume   458.76085576
_cell_formula_units_Z   2
loop_
 _symmetry_equiv_pos_site_id
 _symmetry_equiv_pos_as_xyz
  1  'x, y, z'
loop_
 _atom_site_type_symbol
 _atom_site_label
 _atom_site_symmetry_multiplicity
 _atom_site_fract_x
 _atom_site_fract_y
 _atom_site_fract_z
 _atom_site_occupancy
  Y  Y0  1  0.750000  0.098448  0.684042  1
  Y  Y1  1  0.250000  0.901552  0.315958  1
  Y  Y2  1  0.250000  0.261384  0.897520  1
  Y  Y3  1  0.750000  0.738616  0.102480  1
  Er  Er4  1  0.750000  0.129646  0.124998  1
  Er  Er5  1  0.250000  0.870354  0.875002  1
  Ru  Ru6  1  0.750000  0.051590  0.908180  1
  Ru  Ru7  1  0.250000  0.948410  0.091820  1
  I  I8  1  0.250000  0.353552  0.636274  1
  I  I9  1  0.750000  0.646448  0.363726  1
  I  I10  1  0.750000  0.143043  0.392622  1
  I  I11  1  0.250000  0.856957  0.607378  1
  I  I12  1  0.250000  0.425945  0.133123  1
  I  I13  1  0.750000  0.574055  0.866877  1
