# generated using pymatgen
data_Tm12CoTcNi3Sb
_symmetry_space_group_name_H-M   'P 1'
_cell_length_a   8.19723659
_cell_length_b   8.19723624
_cell_length_c   8.19723622
_cell_angle_alpha   111.58093728
_cell_angle_beta   109.91618809
_cell_angle_gamma   106.95015323
_symmetry_Int_Tables_number   1
_chemical_formula_structural   Tm12CoTcNi3Sb
_chemical_formula_sum   'Tm12 Co1 Tc1 Ni3 Sb1'
_cell_volume   423.30828436
_cell_formula_units_Z   1
loop_
 _symmetry_equiv_pos_site_id
 _symmetry_equiv_pos_as_xyz
  1  'x, y, z'
loop_
 _atom_site_type_symbol
 _atom_site_label
 _atom_site_symmetry_multiplicity
 _atom_site_fract_x
 _atom_site_fract_y
 _atom_site_fract_z
 _atom_site_occupancy
  Tm  Tm0  1  0.415369  0.221538  0.193831  1
  Tm  Tm1  1  0.584129  0.777619  0.806510  1
  Tm  Tm2  1  0.027708  0.221538  0.806169  1
  Tm  Tm3  1  0.971108  0.777619  0.193490  1
  Tm  Tm4  1  0.178241  0.277942  0.459444  1
  Tm  Tm5  1  0.818498  0.718797  0.540556  1
  Tm  Tm6  1  0.178241  0.718797  0.900300  1
  Tm  Tm7  1  0.818498  0.277942  0.099700  1
  Tm  Tm8  1  0.318425  0.625185  0.306761  1
  Tm  Tm9  1  0.685845  0.377019  0.691174  1
  Tm  Tm10  1  0.318425  0.011664  0.693239  1
  Tm  Tm11  1  0.685845  0.994671  0.308826  1
  Co  Co12  1  0.884782  0.384782  0.500000  1
  Tc  Tc13  1  0.998780  0.998780  0.000000  1
  Ni  Ni14  1  0.358832  0.999298  0.359534  1
  Ni  Ni15  1  0.639764  0.999298  0.640466  1
  Ni  Ni16  1  0.117901  0.617901  0.500000  1
  Sb  Sb17  1  0.499608  0.499608  0.000000  1
