# generated using pymatgen
data_Hf2Tc5(NiP)7
_symmetry_space_group_name_H-M   'P 1'
_cell_length_a   9.15468835
_cell_length_b   9.22334588
_cell_length_c   3.65574400
_cell_angle_alpha   90.00000000
_cell_angle_beta   90.00000000
_cell_angle_gamma   119.95285672
_symmetry_Int_Tables_number   1
_chemical_formula_structural   Hf2Tc5(NiP)7
_chemical_formula_sum   'Hf2 Tc5 Ni7 P7'
_cell_volume   267.45121875
_cell_formula_units_Z   1
loop_
 _symmetry_equiv_pos_site_id
 _symmetry_equiv_pos_as_xyz
  1  'x, y, z'
loop_
 _atom_site_type_symbol
 _atom_site_label
 _atom_site_symmetry_multiplicity
 _atom_site_fract_x
 _atom_site_fract_y
 _atom_site_fract_z
 _atom_site_occupancy
  Hf  Hf0  1  0.664910  0.334561  0.500000  1
  Hf  Hf1  1  0.333005  0.670714  0.000000  1
  Tc  Tc2  1  0.608092  0.558710  0.000000  1
  Tc  Tc3  1  0.947617  0.388333  0.000000  1
  Tc  Tc4  1  0.119476  0.206171  0.000000  1
  Tc  Tc5  1  0.100262  0.875689  0.000000  1
  Tc  Tc6  1  0.784821  0.909433  0.000000  1
  Ni  Ni7  1  0.842126  0.723930  0.500000  1
  Ni  Ni8  1  0.288527  0.118761  0.500000  1
  Ni  Ni9  1  0.363591  0.433885  0.500000  1
  Ni  Ni10  1  0.557472  0.930652  0.500000  1
  Ni  Ni11  1  0.069173  0.633982  0.500000  1
  Ni  Ni12  1  0.876290  0.159416  0.500000  1
  Ni  Ni13  1  0.446638  0.054511  0.000000  1
  P  P14  1  0.003589  0.001674  0.500000  1
  P  P15  1  0.709361  0.119193  0.000000  1
  P  P16  1  0.121516  0.418628  0.500000  1
  P  P17  1  0.581901  0.706223  0.500000  1
  P  P18  1  0.295307  0.880513  0.500000  1
  P  P19  1  0.879175  0.594902  0.000000  1
  P  P20  1  0.407147  0.280118  0.000000  1
