# generated using pymatgen
data_YbPr7(HoRu2)2
_symmetry_space_group_name_H-M   'P 1'
_cell_length_a   6.57909004
_cell_length_b   7.36580535
_cell_length_c   8.81986504
_cell_angle_alpha   96.15857919
_cell_angle_beta   111.70427105
_cell_angle_gamma   89.81262982
_symmetry_Int_Tables_number   1
_chemical_formula_structural   YbPr7(HoRu2)2
_chemical_formula_sum   'Yb1 Pr7 Ho2 Ru4'
_cell_volume   394.51328311
_cell_formula_units_Z   1
loop_
 _symmetry_equiv_pos_site_id
 _symmetry_equiv_pos_as_xyz
  1  'x, y, z'
loop_
 _atom_site_type_symbol
 _atom_site_label
 _atom_site_symmetry_multiplicity
 _atom_site_fract_x
 _atom_site_fract_y
 _atom_site_fract_z
 _atom_site_occupancy
  Yb  Yb0  1  0.980717  0.917573  0.182666  1
  Pr  Pr1  1  0.796055  0.583745  0.819070  1
  Pr  Pr2  1  0.020334  0.082976  0.817640  1
  Pr  Pr3  1  0.205403  0.415681  0.184837  1
  Pr  Pr4  1  0.638110  0.812924  0.427147  1
  Pr  Pr5  1  0.207590  0.689229  0.570146  1
  Pr  Pr6  1  0.362463  0.188123  0.570945  1
  Pr  Pr7  1  0.791131  0.313967  0.427369  1
  Ho  Ho8  1  0.433416  0.751652  0.001295  1
  Ho  Ho9  1  0.570532  0.249001  0.000842  1
  Ru  Ru10  1  0.810234  0.566744  0.213268  1
  Ru  Ru11  1  0.596553  0.927808  0.782161  1
  Ru  Ru12  1  0.188579  0.428780  0.789427  1
  Ru  Ru13  1  0.398883  0.071798  0.213188  1
