# generated using pymatgen
data_Zr12SiP3
_symmetry_space_group_name_H-M   'P 1'
_cell_length_a   10.89539247
_cell_length_b   10.89612405
_cell_length_c   5.40185810
_cell_angle_alpha   90.16246514
_cell_angle_beta   90.05786158
_cell_angle_gamma   89.98647071
_symmetry_Int_Tables_number   1
_chemical_formula_structural   Zr12SiP3
_chemical_formula_sum   'Zr24 Si2 P6'
_cell_volume   641.29242560
_cell_formula_units_Z   2
loop_
 _symmetry_equiv_pos_site_id
 _symmetry_equiv_pos_as_xyz
  1  'x, y, z'
loop_
 _atom_site_type_symbol
 _atom_site_label
 _atom_site_symmetry_multiplicity
 _atom_site_fract_x
 _atom_site_fract_y
 _atom_site_fract_z
 _atom_site_occupancy
  Zr  Zr0  1  0.029874  0.861469  0.280078  1
  Zr  Zr1  1  0.360233  0.475803  0.779171  1
  Zr  Zr2  1  0.637766  0.529635  0.779345  1
  Zr  Zr3  1  0.976018  0.139072  0.278700  1
  Zr  Zr4  1  0.472658  0.637292  0.220918  1
  Zr  Zr5  1  0.137286  0.025761  0.721120  1
  Zr  Zr6  1  0.864321  0.972806  0.720742  1
  Zr  Zr7  1  0.525812  0.364372  0.220826  1
  Zr  Zr8  1  0.284167  0.819811  0.984518  1
  Zr  Zr9  1  0.317772  0.215557  0.485522  1
  Zr  Zr10  1  0.678649  0.783347  0.487644  1
  Zr  Zr11  1  0.716622  0.180777  0.988717  1
  Zr  Zr12  1  0.215047  0.679547  0.513415  1
  Zr  Zr13  1  0.180477  0.284735  0.012332  1
  Zr  Zr14  1  0.821855  0.713940  0.014374  1
  Zr  Zr15  1  0.785742  0.321113  0.513502  1
  Zr  Zr16  1  0.892424  0.416073  0.036957  1
  Zr  Zr17  1  0.916101  0.608006  0.535818  1
  Zr  Zr18  1  0.083811  0.392630  0.537014  1
  Zr  Zr19  1  0.108078  0.583804  0.035788  1
  Zr  Zr20  1  0.606859  0.082581  0.463365  1
  Zr  Zr21  1  0.582596  0.890521  0.963309  1
  Zr  Zr22  1  0.415065  0.106306  0.963656  1
  Zr  Zr23  1  0.391040  0.915194  0.463015  1
  Si  Si24  1  0.540192  0.295238  0.713452  1
  Si  Si25  1  0.795203  0.958351  0.213531  1
  P  P26  1  0.206393  0.040287  0.212726  1
  P  P27  1  0.458068  0.706496  0.712808  1
  P  P28  1  0.959412  0.206824  0.786767  1
  P  P29  1  0.706856  0.540793  0.286846  1
  P  P30  1  0.292635  0.459200  0.287048  1
  P  P31  1  0.040970  0.792656  0.786975  1
