# generated using pymatgen
data_Mg2Cu(PdO4)2
_symmetry_space_group_name_H-M   'P 1'
_cell_length_a   6.08679299
_cell_length_b   6.08679400
_cell_length_c   5.93414854
_cell_angle_alpha   60.61679619
_cell_angle_beta   60.61678114
_cell_angle_gamma   59.84595942
_symmetry_Int_Tables_number   1
_chemical_formula_structural   Mg2Cu(PdO4)2
_chemical_formula_sum   'Mg2 Cu1 Pd2 O8'
_cell_volume   156.70749511
_cell_formula_units_Z   1
loop_
 _symmetry_equiv_pos_site_id
 _symmetry_equiv_pos_as_xyz
  1  'x, y, z'
loop_
 _atom_site_type_symbol
 _atom_site_label
 _atom_site_symmetry_multiplicity
 _atom_site_fract_x
 _atom_site_fract_y
 _atom_site_fract_z
 _atom_site_occupancy
  Mg  Mg0  1  0.000000  0.000000  0.000000  1
  Mg  Mg1  1  0.500000  0.500000  0.500000  1
  Cu  Cu2  1  0.500000  0.500000  0.000000  1
  Pd  Pd3  1  0.000000  0.500000  0.000000  1
  Pd  Pd4  1  0.500000  0.000000  0.000000  1
  O  O5  1  0.294343  0.742081  0.206295  1
  O  O6  1  0.705657  0.257919  0.793705  1
  O  O7  1  0.745683  0.745683  0.781195  1
  O  O8  1  0.254317  0.254317  0.218805  1
  O  O9  1  0.750996  0.750996  0.225949  1
  O  O10  1  0.249004  0.249004  0.774051  1
  O  O11  1  0.742081  0.294343  0.206295  1
  O  O12  1  0.257919  0.705657  0.793705  1
