# generated using pymatgen
data_RbLa6AuBr12
_symmetry_space_group_name_H-M   'P 1'
_cell_length_a   9.77356299
_cell_length_b   9.77246530
_cell_length_c   9.77429412
_cell_angle_alpha   104.90514410
_cell_angle_beta   104.92763872
_cell_angle_gamma   104.88095521
_symmetry_Int_Tables_number   1
_chemical_formula_structural   RbLa6AuBr12
_chemical_formula_sum   'Rb1 La6 Au1 Br12'
_cell_volume   817.86308272
_cell_formula_units_Z   1
loop_
 _symmetry_equiv_pos_site_id
 _symmetry_equiv_pos_as_xyz
  1  'x, y, z'
loop_
 _atom_site_type_symbol
 _atom_site_label
 _atom_site_symmetry_multiplicity
 _atom_site_fract_x
 _atom_site_fract_y
 _atom_site_fract_z
 _atom_site_occupancy
  Rb  Rb0  1  0.500000  0.500000  0.500000  1
  La  La1  1  0.107322  0.318090  0.013927  1
  La  La2  1  0.318183  0.013933  0.107131  1
  La  La3  1  0.014527  0.107532  0.318333  1
  La  La4  1  0.985472  0.892468  0.681667  1
  La  La5  1  0.681817  0.986066  0.892868  1
  La  La6  1  0.892678  0.681910  0.986073  1
  Au  Au7  1  0.000000  0.000000  0.000000  1
  Br  Br8  1  0.212935  0.674238  0.072106  1
  Br  Br9  1  0.428564  0.338107  0.119037  1
  Br  Br10  1  0.674714  0.072289  0.213293  1
  Br  Br11  1  0.928319  0.787163  0.325897  1
  Br  Br12  1  0.119174  0.428752  0.338045  1
  Br  Br13  1  0.338409  0.118919  0.428496  1
  Br  Br14  1  0.661591  0.881081  0.571504  1
  Br  Br15  1  0.880825  0.571248  0.661955  1
  Br  Br16  1  0.071682  0.212838  0.674104  1
  Br  Br17  1  0.325287  0.927712  0.786707  1
  Br  Br18  1  0.571435  0.661892  0.880963  1
  Br  Br19  1  0.787065  0.325763  0.927894  1
