# generated using pymatgen
data_La3NdTi4Cr4O20
_symmetry_space_group_name_H-M   'P 1'
_cell_length_a   7.72966919
_cell_length_b   8.77901521
_cell_length_c   5.91657200
_cell_angle_alpha   90.00000000
_cell_angle_beta   90.00000000
_cell_angle_gamma   89.97482857
_symmetry_Int_Tables_number   1
_chemical_formula_structural   La3NdTi4Cr4O20
_chemical_formula_sum   'La3 Nd1 Ti4 Cr4 O20'
_cell_volume   401.49193056
_cell_formula_units_Z   1
loop_
 _symmetry_equiv_pos_site_id
 _symmetry_equiv_pos_as_xyz
  1  'x, y, z'
loop_
 _atom_site_type_symbol
 _atom_site_label
 _atom_site_symmetry_multiplicity
 _atom_site_fract_x
 _atom_site_fract_y
 _atom_site_fract_z
 _atom_site_occupancy
  La  La0  1  0.141500  0.171912  0.000000  1
  La  La1  1  0.642275  0.327487  0.000000  1
  La  La2  1  0.358199  0.672514  0.000000  1
  Nd  Nd3  1  0.858274  0.827894  0.000000  1
  Ti  Ti4  1  0.880320  0.142197  0.499999  1
  Ti  Ti5  1  0.380798  0.357605  0.499999  1
  Ti  Ti6  1  0.620329  0.643359  0.499999  1
  Ti  Ti7  1  0.117983  0.856963  0.499999  1
  Cr  Cr8  1  0.500884  0.999604  0.250060  1
  Cr  Cr9  1  0.999566  0.500471  0.249834  1
  Cr  Cr10  1  0.500884  0.999604  0.749939  1
  Cr  Cr11  1  0.999566  0.500471  0.750165  1
  O  O12  1  0.662173  0.052552  0.000000  1
  O  O13  1  0.160152  0.446016  0.000000  1
  O  O14  1  0.839461  0.556435  0.000000  1
  O  O15  1  0.340274  0.945688  0.000000  1
  O  O16  1  0.397715  0.212848  0.257791  1
  O  O17  1  0.897396  0.286951  0.257991  1
  O  O18  1  0.100198  0.713897  0.256339  1
  O  O19  1  0.605946  0.787389  0.256649  1
  O  O20  1  0.997740  0.998519  0.286435  1
  O  O21  1  0.500005  0.500464  0.287895  1
  O  O22  1  0.660916  0.073094  0.499999  1
  O  O23  1  0.161108  0.427455  0.499999  1
  O  O24  1  0.838902  0.572247  0.499999  1
  O  O25  1  0.338432  0.926297  0.499999  1
  O  O26  1  0.997740  0.998519  0.713564  1
  O  O27  1  0.500005  0.500464  0.712104  1
  O  O28  1  0.397715  0.212848  0.742208  1
  O  O29  1  0.897396  0.286951  0.742008  1
  O  O30  1  0.100198  0.713897  0.743660  1
  O  O31  1  0.605946  0.787389  0.743350  1
