# generated using pymatgen
data_NdTh5NiBr15
_symmetry_space_group_name_H-M   'P 1'
_cell_length_a   10.19693385
_cell_length_b   10.19692833
_cell_length_c   10.19693900
_cell_angle_alpha   109.39943774
_cell_angle_beta   109.50734860
_cell_angle_gamma   109.50732739
_symmetry_Int_Tables_number   1
_chemical_formula_structural   NdTh5NiBr15
_chemical_formula_sum   'Nd1 Th5 Ni1 Br15'
_cell_volume   816.17651290
_cell_formula_units_Z   1
loop_
 _symmetry_equiv_pos_site_id
 _symmetry_equiv_pos_as_xyz
  1  'x, y, z'
loop_
 _atom_site_type_symbol
 _atom_site_label
 _atom_site_symmetry_multiplicity
 _atom_site_fract_x
 _atom_site_fract_y
 _atom_site_fract_z
 _atom_site_occupancy
  Nd  Nd0  1  0.000001  0.245649  0.245649  1
  Th  Th1  1  0.000002  0.758639  0.758640  1
  Th  Th2  1  0.239307  0.001784  0.241091  1
  Th  Th3  1  0.760695  0.001784  0.762480  1
  Th  Th4  1  0.239309  0.241094  0.001785  1
  Th  Th5  1  0.760692  0.762476  0.001786  1
  Ni  Ni6  1  0.000002  0.994087  0.994092  1
  Br  Br7  1  0.497928  0.248633  0.248631  1
  Br  Br8  1  0.502072  0.750704  0.750704  1
  Br  Br9  1  0.000000  0.248632  0.750704  1
  Br  Br10  1  0.999998  0.750703  0.248631  1
  Br  Br11  1  0.250503  0.497511  0.247005  1
  Br  Br12  1  0.749495  0.996503  0.247004  1
  Br  Br13  1  0.750694  0.502503  0.751807  1
  Br  Br14  1  0.249305  0.001114  0.751808  1
  Br  Br15  1  0.250503  0.247008  0.497511  1
  Br  Br16  1  0.750695  0.751808  0.502503  1
  Br  Br17  1  0.749496  0.247005  0.996502  1
  Br  Br18  1  0.249305  0.751808  0.001112  1
  Br  Br19  1  0.999999  0.504139  0.504138  1
  Br  Br20  1  0.500001  0.998208  0.498209  1
  Br  Br21  1  0.499999  0.498208  0.998207  1
