# generated using pymatgen
data_BaYb2(SnAu)3
_symmetry_space_group_name_H-M   'P 1'
_cell_length_a   4.84642100
_cell_length_b   4.84642014
_cell_length_c   11.48732800
_cell_angle_alpha   90.00000000
_cell_angle_beta   90.00000000
_cell_angle_gamma   119.99999904
_symmetry_Int_Tables_number   1
_chemical_formula_structural   BaYb2(SnAu)3
_chemical_formula_sum   'Ba1 Yb2 Sn3 Au3'
_cell_volume   233.66402657
_cell_formula_units_Z   1
loop_
 _symmetry_equiv_pos_site_id
 _symmetry_equiv_pos_as_xyz
  1  'x, y, z'
loop_
 _atom_site_type_symbol
 _atom_site_label
 _atom_site_symmetry_multiplicity
 _atom_site_fract_x
 _atom_site_fract_y
 _atom_site_fract_z
 _atom_site_occupancy
  Ba  Ba0  1  0.666667  0.333333  0.666604  1
  Yb  Yb1  1  0.666667  0.333333  0.009583  1
  Yb  Yb2  1  0.666667  0.333333  0.317377  1
  Sn  Sn3  1  0.333333  0.666667  0.875974  1
  Sn  Sn4  1  0.000000  0.000000  0.458250  1
  Sn  Sn5  1  0.333333  0.666667  0.145811  1
  Au  Au6  1  0.000000  0.000000  0.863763  1
  Au  Au7  1  0.000000  0.000000  0.194829  1
  Au  Au8  1  0.333333  0.666667  0.467809  1
