# generated using pymatgen
data_Y3Tm17Cd3Ag3Ru2
_symmetry_space_group_name_H-M   'P 1'
_cell_length_a   9.47135800
_cell_length_b   9.47135745
_cell_length_c   9.56000800
_cell_angle_alpha   90.00000000
_cell_angle_beta   90.00000000
_cell_angle_gamma   120.00000192
_symmetry_Int_Tables_number   1
_chemical_formula_structural   Y3Tm17Cd3Ag3Ru2
_chemical_formula_sum   'Y3 Tm17 Cd3 Ag3 Ru2'
_cell_volume   742.69988834
_cell_formula_units_Z   1
loop_
 _symmetry_equiv_pos_site_id
 _symmetry_equiv_pos_as_xyz
  1  'x, y, z'
loop_
 _atom_site_type_symbol
 _atom_site_label
 _atom_site_symmetry_multiplicity
 _atom_site_fract_x
 _atom_site_fract_y
 _atom_site_fract_z
 _atom_site_occupancy
  Y  Y0  1  0.459437  0.540563  0.750000  1
  Y  Y1  1  0.459437  0.918873  0.750000  1
  Y  Y2  1  0.081127  0.540563  0.750000  1
  Tm  Tm3  1  0.000000  0.000000  0.477080  1
  Tm  Tm4  1  0.000000  0.000000  0.022920  1
  Tm  Tm5  1  0.210210  0.789790  0.440563  1
  Tm  Tm6  1  0.210210  0.420421  0.440563  1
  Tm  Tm7  1  0.579579  0.789790  0.440563  1
  Tm  Tm8  1  0.790854  0.209146  0.558391  1
  Tm  Tm9  1  0.790854  0.581707  0.558391  1
  Tm  Tm10  1  0.418293  0.209146  0.558391  1
  Tm  Tm11  1  0.790854  0.209146  0.941609  1
  Tm  Tm12  1  0.790854  0.581707  0.941609  1
  Tm  Tm13  1  0.418293  0.209146  0.941609  1
  Tm  Tm14  1  0.210210  0.789790  0.059437  1
  Tm  Tm15  1  0.210210  0.420421  0.059437  1
  Tm  Tm16  1  0.579579  0.789790  0.059437  1
  Tm  Tm17  1  0.540449  0.459551  0.250000  1
  Tm  Tm18  1  0.540449  0.080898  0.250000  1
  Tm  Tm19  1  0.919102  0.459551  0.250000  1
  Cd  Cd20  1  0.111128  0.888872  0.750000  1
  Cd  Cd21  1  0.111128  0.222255  0.750000  1
  Cd  Cd22  1  0.777745  0.888872  0.750000  1
  Ag  Ag23  1  0.876491  0.123509  0.250000  1
  Ag  Ag24  1  0.876491  0.752983  0.250000  1
  Ag  Ag25  1  0.247017  0.123509  0.250000  1
  Ru  Ru26  1  0.333333  0.666667  0.250000  1
  Ru  Ru27  1  0.666667  0.333333  0.750000  1
