# generated using pymatgen
data_Y3ThMgIr
_symmetry_space_group_name_H-M   'P 1'
_cell_length_a   9.84048389
_cell_length_b   9.84048436
_cell_length_c   9.84048400
_cell_angle_alpha   60.00000122
_cell_angle_beta   59.99999962
_cell_angle_gamma   60.00000134
_symmetry_Int_Tables_number   1
_chemical_formula_structural   Y3ThMgIr
_chemical_formula_sum   'Y12 Th4 Mg4 Ir4'
_cell_volume   673.80526324
_cell_formula_units_Z   4
loop_
 _symmetry_equiv_pos_site_id
 _symmetry_equiv_pos_as_xyz
  1  'x, y, z'
loop_
 _atom_site_type_symbol
 _atom_site_label
 _atom_site_symmetry_multiplicity
 _atom_site_fract_x
 _atom_site_fract_y
 _atom_site_fract_z
 _atom_site_occupancy
  Y  Y0  1  0.062360  0.437640  0.437640  1
  Y  Y1  1  0.437640  0.062360  0.062360  1
  Y  Y2  1  0.437640  0.062360  0.437640  1
  Y  Y3  1  0.062360  0.437640  0.062360  1
  Y  Y4  1  0.437640  0.437640  0.062360  1
  Y  Y5  1  0.062360  0.062360  0.437640  1
  Y  Y6  1  0.185652  0.814348  0.814348  1
  Y  Y7  1  0.814348  0.185652  0.185652  1
  Y  Y8  1  0.814348  0.185652  0.814348  1
  Y  Y9  1  0.185652  0.814348  0.185652  1
  Y  Y10  1  0.814348  0.814348  0.185652  1
  Y  Y11  1  0.185652  0.185652  0.814348  1
  Th  Th12  1  0.597804  0.597804  0.597804  1
  Th  Th13  1  0.597804  0.597804  0.206587  1
  Th  Th14  1  0.597804  0.206587  0.597804  1
  Th  Th15  1  0.206587  0.597804  0.597804  1
  Mg  Mg16  1  0.830119  0.830119  0.830119  1
  Mg  Mg17  1  0.830119  0.830119  0.509644  1
  Mg  Mg18  1  0.830119  0.509644  0.830119  1
  Mg  Mg19  1  0.509644  0.830119  0.830119  1
  Ir  Ir20  1  0.393831  0.393831  0.393831  1
  Ir  Ir21  1  0.393831  0.393831  0.818508  1
  Ir  Ir22  1  0.393831  0.818508  0.393831  1
  Ir  Ir23  1  0.818508  0.393831  0.393831  1
