# generated using pymatgen
data_DyTm11TcRu3
_symmetry_space_group_name_H-M   'P 1'
_cell_length_a   6.23709700
_cell_length_b   7.29255453
_cell_length_c   9.00280600
_cell_angle_alpha   90.00000000
_cell_angle_beta   90.00000000
_cell_angle_gamma   90.13922961
_symmetry_Int_Tables_number   1
_chemical_formula_structural   DyTm11TcRu3
_chemical_formula_sum   'Dy1 Tm11 Tc1 Ru3'
_cell_volume   409.48575004
_cell_formula_units_Z   1
loop_
 _symmetry_equiv_pos_site_id
 _symmetry_equiv_pos_as_xyz
  1  'x, y, z'
loop_
 _atom_site_type_symbol
 _atom_site_label
 _atom_site_symmetry_multiplicity
 _atom_site_fract_x
 _atom_site_fract_y
 _atom_site_fract_z
 _atom_site_occupancy
  Dy  Dy0  1  0.629929  0.039754  0.250000  1
  Tm  Tm1  1  0.367186  0.957828  0.750000  1
  Tm  Tm2  1  0.132949  0.457567  0.750000  1
  Tm  Tm3  1  0.873435  0.542040  0.250000  1
  Tm  Tm4  1  0.165697  0.176659  0.063484  1
  Tm  Tm5  1  0.832940  0.822887  0.935910  1
  Tm  Tm6  1  0.665415  0.325645  0.937226  1
  Tm  Tm7  1  0.832940  0.822887  0.564090  1
  Tm  Tm8  1  0.332162  0.675480  0.063206  1
  Tm  Tm9  1  0.165697  0.176659  0.436516  1
  Tm  Tm10  1  0.332162  0.675480  0.436794  1
  Tm  Tm11  1  0.665415  0.325645  0.562774  1
  Tc  Tc12  1  0.463923  0.384899  0.250000  1
  Ru  Ru13  1  0.537487  0.617496  0.750000  1
  Ru  Ru14  1  0.962850  0.115752  0.750000  1
  Ru  Ru15  1  0.039816  0.883322  0.250000  1
