# generated using pymatgen
data_CaEr6Sn23Ru6
_symmetry_space_group_name_H-M   'P 1'
_cell_length_a   9.82727800
_cell_length_b   9.82727816
_cell_length_c   10.10319600
_cell_angle_alpha   90.00000000
_cell_angle_beta   90.00000000
_cell_angle_gamma   120.00000621
_symmetry_Int_Tables_number   1
_chemical_formula_structural   CaEr6Sn23Ru6
_chemical_formula_sum   'Ca1 Er6 Sn23 Ru6'
_cell_volume   844.99837410
_cell_formula_units_Z   1
loop_
 _symmetry_equiv_pos_site_id
 _symmetry_equiv_pos_as_xyz
  1  'x, y, z'
loop_
 _atom_site_type_symbol
 _atom_site_label
 _atom_site_symmetry_multiplicity
 _atom_site_fract_x
 _atom_site_fract_y
 _atom_site_fract_z
 _atom_site_occupancy
  Ca  Ca0  1  0.000000  0.000000  0.000000  1
  Er  Er1  1  0.485248  0.514752  0.301889  1
  Er  Er2  1  0.514752  0.485248  0.698111  1
  Er  Er3  1  0.485248  0.970497  0.301889  1
  Er  Er4  1  0.514752  0.029503  0.698111  1
  Er  Er5  1  0.029503  0.514752  0.301889  1
  Er  Er6  1  0.970497  0.485248  0.698111  1
  Sn  Sn7  1  0.119222  0.880778  0.273493  1
  Sn  Sn8  1  0.880778  0.119222  0.726507  1
  Sn  Sn9  1  0.119222  0.238445  0.273493  1
  Sn  Sn10  1  0.880778  0.761555  0.726507  1
  Sn  Sn11  1  0.761555  0.880778  0.273493  1
  Sn  Sn12  1  0.238445  0.119222  0.726507  1
  Sn  Sn13  1  0.780009  0.219991  0.464095  1
  Sn  Sn14  1  0.219991  0.780009  0.535905  1
  Sn  Sn15  1  0.780009  0.560019  0.464095  1
  Sn  Sn16  1  0.219991  0.439981  0.535905  1
  Sn  Sn17  1  0.439981  0.219991  0.464095  1
  Sn  Sn18  1  0.560019  0.780009  0.535905  1
  Sn  Sn19  1  0.348457  0.000000  0.000000  1
  Sn  Sn20  1  0.651543  0.000000  0.000000  1
  Sn  Sn21  1  0.000000  0.348457  0.000000  1
  Sn  Sn22  1  0.000000  0.651543  0.000000  1
  Sn  Sn23  1  0.651543  0.651543  0.000000  1
  Sn  Sn24  1  0.348457  0.348457  0.000000  1
  Sn  Sn25  1  0.333333  0.666667  0.129904  1
  Sn  Sn26  1  0.666667  0.333333  0.870096  1
  Sn  Sn27  1  0.333333  0.666667  0.824041  1
  Sn  Sn28  1  0.666667  0.333333  0.175959  1
  Sn  Sn29  1  0.000000  0.000000  0.500000  1
  Ru  Ru30  1  0.828495  0.171505  0.204871  1
  Ru  Ru31  1  0.171505  0.828495  0.795129  1
  Ru  Ru32  1  0.828495  0.656991  0.204871  1
  Ru  Ru33  1  0.171505  0.343009  0.795129  1
  Ru  Ru34  1  0.343009  0.171505  0.204871  1
  Ru  Ru35  1  0.656991  0.828495  0.795129  1
