# generated using pymatgen
data_Ce4Ni3Sn2Pd
_symmetry_space_group_name_H-M   'P 1'
_cell_length_a   7.55026479
_cell_length_b   7.55026466
_cell_length_c   3.70483200
_cell_angle_alpha   90.00000000
_cell_angle_beta   90.00000000
_cell_angle_gamma   90.40583371
_symmetry_Int_Tables_number   1
_chemical_formula_structural   Ce4Ni3Sn2Pd
_chemical_formula_sum   'Ce4 Ni3 Sn2 Pd1'
_cell_volume   211.19419794
_cell_formula_units_Z   1
loop_
 _symmetry_equiv_pos_site_id
 _symmetry_equiv_pos_as_xyz
  1  'x, y, z'
loop_
 _atom_site_type_symbol
 _atom_site_label
 _atom_site_symmetry_multiplicity
 _atom_site_fract_x
 _atom_site_fract_y
 _atom_site_fract_z
 _atom_site_occupancy
  Ce  Ce0  1  0.684106  0.176347  0.500000  1
  Ce  Ce1  1  0.323653  0.815894  0.500000  1
  Ce  Ce2  1  0.164583  0.335417  0.500000  1
  Ce  Ce3  1  0.822918  0.677082  0.500000  1
  Ni  Ni4  1  0.121522  0.626529  0.000000  1
  Ni  Ni5  1  0.873471  0.378478  0.000000  1
  Ni  Ni6  1  0.631778  0.868222  0.000000  1
  Sn  Sn7  1  0.000119  0.998606  0.000000  1
  Sn  Sn8  1  0.501394  0.499881  0.000000  1
  Pd  Pd9  1  0.376457  0.123543  0.000000  1
