# generated using pymatgen
data_Ho3Al3SiGeRh
_symmetry_space_group_name_H-M   'P 1'
_cell_length_a   6.91238300
_cell_length_b   6.91238387
_cell_length_c   4.21903200
_cell_angle_alpha   90.00000000
_cell_angle_beta   90.00000000
_cell_angle_gamma   120.00000060
_symmetry_Int_Tables_number   1
_chemical_formula_structural   Ho3Al3SiGeRh
_chemical_formula_sum   'Ho3 Al3 Si1 Ge1 Rh1'
_cell_volume   174.58184960
_cell_formula_units_Z   1
loop_
 _symmetry_equiv_pos_site_id
 _symmetry_equiv_pos_as_xyz
  1  'x, y, z'
loop_
 _atom_site_type_symbol
 _atom_site_label
 _atom_site_symmetry_multiplicity
 _atom_site_fract_x
 _atom_site_fract_y
 _atom_site_fract_z
 _atom_site_occupancy
  Ho  Ho0  1  0.413109  0.997420  0.000000  1
  Ho  Ho1  1  0.002580  0.415690  0.000000  1
  Ho  Ho2  1  0.584311  0.586891  0.000000  1
  Al  Al3  1  0.766031  0.997533  0.500000  1
  Al  Al4  1  0.231503  0.233969  0.500000  1
  Al  Al5  1  0.002467  0.768498  0.500000  1
  Si  Si6  1  0.333333  0.666666  0.500000  1
  Ge  Ge7  1  0.666668  0.333334  0.500000  1
  Rh  Rh8  1  0.000000  0.000000  0.000000  1
