# generated using pymatgen
data_Sc6Mn6Al13InSi10
_symmetry_space_group_name_H-M   'P 1'
_cell_length_a   8.34895700
_cell_length_b   8.34895737
_cell_length_c   8.99912500
_cell_angle_alpha   90.00000000
_cell_angle_beta   90.00000000
_cell_angle_gamma   120.00000248
_symmetry_Int_Tables_number   1
_chemical_formula_structural   Sc6Mn6Al13InSi10
_chemical_formula_sum   'Sc6 Mn6 Al13 In1 Si10'
_cell_volume   543.24454392
_cell_formula_units_Z   1
loop_
 _symmetry_equiv_pos_site_id
 _symmetry_equiv_pos_as_xyz
  1  'x, y, z'
loop_
 _atom_site_type_symbol
 _atom_site_label
 _atom_site_symmetry_multiplicity
 _atom_site_fract_x
 _atom_site_fract_y
 _atom_site_fract_z
 _atom_site_occupancy
  Sc  Sc0  1  0.202401  0.797599  0.250000  1
  Sc  Sc1  1  0.202401  0.404802  0.250000  1
  Sc  Sc2  1  0.595198  0.797599  0.250000  1
  Sc  Sc3  1  0.799980  0.200020  0.750000  1
  Sc  Sc4  1  0.799980  0.599960  0.750000  1
  Sc  Sc5  1  0.400040  0.200020  0.750000  1
  Mn  Mn6  1  0.499575  0.500425  0.500006  1
  Mn  Mn7  1  0.499575  0.999149  0.500006  1
  Mn  Mn8  1  0.000851  0.500425  0.500006  1
  Mn  Mn9  1  0.499575  0.500425  0.999994  1
  Mn  Mn10  1  0.499575  0.999149  0.999994  1
  Mn  Mn11  1  0.000851  0.500425  0.999994  1
  Al  Al12  1  0.164178  0.835822  0.919626  1
  Al  Al13  1  0.164178  0.328355  0.919626  1
  Al  Al14  1  0.671645  0.835822  0.919626  1
  Al  Al15  1  0.833177  0.166823  0.076988  1
  Al  Al16  1  0.833177  0.666355  0.076988  1
  Al  Al17  1  0.333645  0.166823  0.076988  1
  Al  Al18  1  0.833177  0.166823  0.423012  1
  Al  Al19  1  0.833177  0.666355  0.423012  1
  Al  Al20  1  0.333645  0.166823  0.423012  1
  Al  Al21  1  0.164178  0.835822  0.580374  1
  Al  Al22  1  0.164178  0.328355  0.580374  1
  Al  Al23  1  0.671645  0.835822  0.580374  1
  Al  Al24  1  0.000000  0.000000  0.750000  1
  In  In25  1  0.000000  0.000000  0.250000  1
  Si  Si26  1  0.559702  0.440298  0.250000  1
  Si  Si27  1  0.559702  0.119404  0.250000  1
  Si  Si28  1  0.880596  0.440298  0.250000  1
  Si  Si29  1  0.440341  0.559659  0.750000  1
  Si  Si30  1  0.440341  0.880682  0.750000  1
  Si  Si31  1  0.119318  0.559659  0.750000  1
  Si  Si32  1  0.333333  0.666667  0.461648  1
  Si  Si33  1  0.666667  0.333333  0.541717  1
  Si  Si34  1  0.666667  0.333333  0.958283  1
  Si  Si35  1  0.333333  0.666667  0.038352  1
