# generated using pymatgen
data_DyEr3Lu2FeBi2
_symmetry_space_group_name_H-M   'P 1'
_cell_length_a   8.24936984
_cell_length_b   8.23717365
_cell_length_c   4.15989400
_cell_angle_alpha   90.00000000
_cell_angle_beta   90.00000000
_cell_angle_gamma   120.10492699
_symmetry_Int_Tables_number   1
_chemical_formula_structural   DyEr3Lu2FeBi2
_chemical_formula_sum   'Dy1 Er3 Lu2 Fe1 Bi2'
_cell_volume   244.54102851
_cell_formula_units_Z   1
loop_
 _symmetry_equiv_pos_site_id
 _symmetry_equiv_pos_as_xyz
  1  'x, y, z'
loop_
 _atom_site_type_symbol
 _atom_site_label
 _atom_site_symmetry_multiplicity
 _atom_site_fract_x
 _atom_site_fract_y
 _atom_site_fract_z
 _atom_site_occupancy
  Dy  Dy0  1  0.610982  0.999919  0.000000  1
  Er  Er1  1  0.771512  0.770688  0.500000  1
  Er  Er2  1  0.999826  0.611806  0.000000  1
  Er  Er3  1  0.385288  0.385462  0.000000  1
  Lu  Lu4  1  0.229174  0.000136  0.500000  1
  Lu  Lu5  1  0.000999  0.229749  0.500000  1
  Fe  Fe6  1  0.004781  0.003618  0.000000  1
  Bi  Bi7  1  0.330972  0.665359  0.500000  1
  Bi  Bi8  1  0.666466  0.333262  0.500000  1
