# generated using pymatgen
data_LiMg11Os8
_symmetry_space_group_name_H-M   'P 1'
_cell_length_a   6.99430181
_cell_length_b   6.91964941
_cell_length_c   6.91964941
_cell_angle_alpha   90.17979368
_cell_angle_beta   90.25842875
_cell_angle_gamma   89.74157125
_symmetry_Int_Tables_number   1
_chemical_formula_structural   LiMg11Os8
_chemical_formula_sum   'Li1 Mg11 Os8'
_cell_volume   334.88955707
_cell_formula_units_Z   1
loop_
 _symmetry_equiv_pos_site_id
 _symmetry_equiv_pos_as_xyz
  1  'x, y, z'
loop_
 _atom_site_type_symbol
 _atom_site_label
 _atom_site_symmetry_multiplicity
 _atom_site_fract_x
 _atom_site_fract_y
 _atom_site_fract_z
 _atom_site_occupancy
  Li  Li0  1  0.625000  0.294296  0.544296  1
  Mg  Mg1  1  0.704885  0.045700  0.868975  1
  Mg  Mg2  1  0.545115  0.618975  0.295700  1
  Mg  Mg3  1  0.952030  0.374709  0.787452  1
  Mg  Mg4  1  0.297970  0.537452  0.624709  1
  Mg  Mg5  1  0.460100  0.129917  0.213807  1
  Mg  Mg6  1  0.043494  0.872773  0.708135  1
  Mg  Mg7  1  0.789900  0.963807  0.379917  1
  Mg  Mg8  1  0.125000  0.206735  0.456735  1
  Mg  Mg9  1  0.376496  0.793393  0.958489  1
  Mg  Mg10  1  0.873504  0.708489  0.043393  1
  Mg  Mg11  1  0.206506  0.458135  0.122773  1
  Os  Os12  1  0.675973  0.674590  0.675674  1
  Os  Os13  1  0.923922  0.573958  0.424952  1
  Os  Os14  1  0.574027  0.425674  0.924590  1
  Os  Os15  1  0.422498  0.922034  0.575388  1
  Os  Os16  1  0.173651  0.824019  0.325004  1
  Os  Os17  1  0.827502  0.325388  0.172034  1
  Os  Os18  1  0.326078  0.174952  0.823958  1
  Os  Os19  1  0.076349  0.075004  0.074019  1
