# generated using pymatgen
data_Tb7Ce(AlCo)2
_symmetry_space_group_name_H-M   'P 1'
_cell_length_a   9.30881228
_cell_length_b   9.53037302
_cell_length_c   9.53037357
_cell_angle_alpha   58.46779308
_cell_angle_beta   60.76610187
_cell_angle_gamma   60.76609673
_symmetry_Int_Tables_number   1
_chemical_formula_structural   Tb7Ce(AlCo)2
_chemical_formula_sum   'Tb14 Ce2 Al4 Co4'
_cell_volume   597.22776823
_cell_formula_units_Z   2
loop_
 _symmetry_equiv_pos_site_id
 _symmetry_equiv_pos_as_xyz
  1  'x, y, z'
loop_
 _atom_site_type_symbol
 _atom_site_label
 _atom_site_symmetry_multiplicity
 _atom_site_fract_x
 _atom_site_fract_y
 _atom_site_fract_z
 _atom_site_occupancy
  Tb  Tb0  1  0.194342  0.805658  0.194342  1
  Tb  Tb1  1  0.805658  0.194342  0.805658  1
  Tb  Tb2  1  0.194342  0.194342  0.805658  1
  Tb  Tb3  1  0.805658  0.805658  0.194342  1
  Tb  Tb4  1  0.926603  0.573396  0.573397  1
  Tb  Tb5  1  0.573396  0.926603  0.926604  1
  Tb  Tb6  1  0.558349  0.941651  0.558349  1
  Tb  Tb7  1  0.941651  0.558348  0.941652  1
  Tb  Tb8  1  0.558349  0.558348  0.941652  1
  Tb  Tb9  1  0.941651  0.941651  0.558349  1
  Tb  Tb10  1  0.338823  0.353368  0.353368  1
  Tb  Tb11  1  0.353368  0.338823  0.954438  1
  Tb  Tb12  1  0.353368  0.954438  0.338823  1
  Tb  Tb13  1  0.954438  0.353368  0.353368  1
  Ce  Ce14  1  0.813725  0.186275  0.186275  1
  Ce  Ce15  1  0.186275  0.813725  0.813725  1
  Al  Al16  1  0.579793  0.574345  0.574345  1
  Al  Al17  1  0.574345  0.579793  0.271517  1
  Al  Al18  1  0.574345  0.271517  0.579793  1
  Al  Al19  1  0.271517  0.574345  0.574345  1
  Co  Co20  1  0.094807  0.156096  0.156096  1
  Co  Co21  1  0.156096  0.094807  0.593002  1
  Co  Co22  1  0.156096  0.593002  0.094807  1
  Co  Co23  1  0.593002  0.156096  0.156096  1
