# generated using pymatgen
data_Li2(TaSe2)3
_symmetry_space_group_name_H-M   'P 1'
_cell_length_a   6.04932200
_cell_length_b   6.04932254
_cell_length_c   13.78595700
_cell_angle_alpha   90.00000000
_cell_angle_beta   90.00000000
_cell_angle_gamma   120.00001890
_symmetry_Int_Tables_number   1
_chemical_formula_structural   Li2(TaSe2)3
_chemical_formula_sum   'Li4 Ta6 Se12'
_cell_volume   436.89886045
_cell_formula_units_Z   2
loop_
 _symmetry_equiv_pos_site_id
 _symmetry_equiv_pos_as_xyz
  1  'x, y, z'
loop_
 _atom_site_type_symbol
 _atom_site_label
 _atom_site_symmetry_multiplicity
 _atom_site_fract_x
 _atom_site_fract_y
 _atom_site_fract_z
 _atom_site_occupancy
  Li  Li0  1  0.000000  0.000000  0.250000  1
  Li  Li1  1  0.000000  0.000000  0.750000  1
  Li  Li2  1  0.333333  0.666667  0.250000  1
  Li  Li3  1  0.666667  0.333333  0.750000  1
  Ta  Ta4  1  0.000000  0.000000  0.000000  1
  Ta  Ta5  1  0.000000  0.000000  0.500000  1
  Ta  Ta6  1  0.333333  0.666667  0.500242  1
  Ta  Ta7  1  0.333333  0.666667  0.999758  1
  Ta  Ta8  1  0.666667  0.333333  0.000242  1
  Ta  Ta9  1  0.666667  0.333333  0.499758  1
  Se  Se10  1  0.001365  0.334978  0.878587  1
  Se  Se11  1  0.998635  0.333614  0.121413  1
  Se  Se12  1  0.001365  0.666386  0.621413  1
  Se  Se13  1  0.998635  0.665022  0.378587  1
  Se  Se14  1  0.333614  0.998635  0.878587  1
  Se  Se15  1  0.333614  0.334978  0.621413  1
  Se  Se16  1  0.334978  0.333614  0.378587  1
  Se  Se17  1  0.334978  0.001365  0.121413  1
  Se  Se18  1  0.665022  0.666386  0.878587  1
  Se  Se19  1  0.666386  0.665022  0.121413  1
  Se  Se20  1  0.665022  0.998635  0.621413  1
  Se  Se21  1  0.666386  0.001365  0.378587  1
