# generated using pymatgen
data_CaDy5HoCo6Sn23
_symmetry_space_group_name_H-M   'P 1'
_cell_length_a   9.72112200
_cell_length_b   9.72113125
_cell_length_c   9.95576000
_cell_angle_alpha   89.99953752
_cell_angle_beta   90.00047172
_cell_angle_gamma   120.00161038
_symmetry_Int_Tables_number   1
_chemical_formula_structural   CaDy5HoCo6Sn23
_chemical_formula_sum   'Ca1 Dy5 Ho1 Co6 Sn23'
_cell_volume   814.76282068
_cell_formula_units_Z   1
loop_
 _symmetry_equiv_pos_site_id
 _symmetry_equiv_pos_as_xyz
  1  'x, y, z'
loop_
 _atom_site_type_symbol
 _atom_site_label
 _atom_site_symmetry_multiplicity
 _atom_site_fract_x
 _atom_site_fract_y
 _atom_site_fract_z
 _atom_site_occupancy
  Ca  Ca0  1  0.000000  0.999995  0.000019  1
  Dy  Dy1  1  0.520938  0.479063  0.693660  1
  Dy  Dy2  1  0.520901  0.041885  0.693697  1
  Dy  Dy3  1  0.958116  0.479100  0.693698  1
  Dy  Dy4  1  0.041889  0.520913  0.306297  1
  Dy  Dy5  1  0.479086  0.958111  0.306297  1
  Ho  Ho6  1  0.479145  0.520848  0.306297  1
  Co  Co7  1  0.168610  0.831392  0.801472  1
  Co  Co8  1  0.168612  0.337254  0.801450  1
  Co  Co9  1  0.662747  0.831389  0.801451  1
  Co  Co10  1  0.337298  0.168741  0.198580  1
  Co  Co11  1  0.831259  0.662702  0.198581  1
  Co  Co12  1  0.831400  0.168601  0.198542  1
  Sn  Sn13  1  0.666647  0.333353  0.183336  1
  Sn  Sn14  1  0.666664  0.333336  0.881293  1
  Sn  Sn15  1  0.333452  0.666549  0.118884  1
  Sn  Sn16  1  0.346094  0.346099  0.000049  1
  Sn  Sn17  1  0.999975  0.653860  0.999999  1
  Sn  Sn18  1  0.653864  0.999984  0.000006  1
  Sn  Sn19  1  0.653900  0.653906  0.000046  1
  Sn  Sn20  1  0.333330  0.666673  0.816675  1
  Sn  Sn21  1  0.437193  0.218745  0.451883  1
  Sn  Sn22  1  0.218610  0.781391  0.548021  1
  Sn  Sn23  1  0.218642  0.437179  0.547946  1
  Sn  Sn24  1  0.562821  0.781359  0.547949  1
  Sn  Sn25  1  0.117375  0.882627  0.274000  1
  Sn  Sn26  1  0.781255  0.562808  0.451884  1
  Sn  Sn27  1  0.781387  0.218614  0.451969  1
  Sn  Sn28  1  0.346141  0.000025  0.000001  1
  Sn  Sn29  1  0.117574  0.234970  0.274071  1
  Sn  Sn30  1  0.765032  0.882427  0.274072  1
  Sn  Sn31  1  0.234863  0.117450  0.725935  1
  Sn  Sn32  1  0.882547  0.765135  0.725936  1
  Sn  Sn33  1  0.882626  0.117369  0.726000  1
  Sn  Sn34  1  0.999992  0.000008  0.499997  1
  Sn  Sn35  1  0.000015  0.346138  0.000008  1
