# generated using pymatgen
data_CeHo3(Si5Os3)2
_symmetry_space_group_name_H-M   'P 1'
_cell_length_a   8.13427187
_cell_length_b   8.13662222
_cell_length_c   5.80987176
_cell_angle_alpha   70.61198536
_cell_angle_beta   70.52877292
_cell_angle_gamma   94.01761911
_symmetry_Int_Tables_number   1
_chemical_formula_structural   CeHo3(Si5Os3)2
_chemical_formula_sum   'Ce1 Ho3 Si10 Os6'
_cell_volume   334.84403183
_cell_formula_units_Z   1
loop_
 _symmetry_equiv_pos_site_id
 _symmetry_equiv_pos_as_xyz
  1  'x, y, z'
loop_
 _atom_site_type_symbol
 _atom_site_label
 _atom_site_symmetry_multiplicity
 _atom_site_fract_x
 _atom_site_fract_y
 _atom_site_fract_z
 _atom_site_occupancy
  Ce  Ce0  1  0.868349  0.599782  0.756414  1
  Ho  Ho1  1  0.398659  0.131722  0.745826  1
  Ho  Ho2  1  0.132232  0.398900  0.244197  1
  Ho  Ho3  1  0.601269  0.869083  0.253238  1
  Si  Si4  1  0.067848  0.261858  0.833724  1
  Si  Si5  1  0.737588  0.934681  0.665671  1
  Si  Si6  1  0.933688  0.738822  0.165723  1
  Si  Si7  1  0.260694  0.067765  0.334620  1
  Si  Si8  1  0.208072  0.795585  0.750929  1
  Si  Si9  1  0.793930  0.206109  0.248079  1
  Si  Si10  1  0.510724  0.485476  0.752572  1
  Si  Si11  1  0.486041  0.513180  0.250408  1
  Si  Si12  1  0.774848  0.224178  0.751224  1
  Si  Si13  1  0.227669  0.774069  0.246785  1
  Os  Os14  1  0.255922  0.545809  0.631078  1
  Os  Os15  1  0.457249  0.743974  0.866085  1
  Os  Os16  1  0.743728  0.454838  0.369056  1
  Os  Os17  1  0.542580  0.255118  0.132003  1
  Os  Os18  1  0.002011  0.996953  0.751264  1
  Os  Os19  1  0.996899  0.002098  0.251105  1
