# generated using pymatgen
data_Cs2FeCo(SeS)2
_symmetry_space_group_name_H-M   'P 1'
_cell_length_a   7.61968854
_cell_length_b   7.61968987
_cell_length_c   7.61968913
_cell_angle_alpha   138.29941147
_cell_angle_beta   122.90617834
_cell_angle_gamma   73.14824829
_symmetry_Int_Tables_number   1
_chemical_formula_structural   Cs2FeCo(SeS)2
_chemical_formula_sum   'Cs2 Fe1 Co1 Se2 S2'
_cell_volume   241.72010191
_cell_formula_units_Z   1
loop_
 _symmetry_equiv_pos_site_id
 _symmetry_equiv_pos_as_xyz
  1  'x, y, z'
loop_
 _atom_site_type_symbol
 _atom_site_label
 _atom_site_symmetry_multiplicity
 _atom_site_fract_x
 _atom_site_fract_y
 _atom_site_fract_z
 _atom_site_occupancy
  Cs  Cs0  1  0.322302  0.822374  0.500072  1
  Cs  Cs1  1  0.677698  0.177770  0.500072  1
  Fe  Fe2  1  0.000000  0.243482  0.243482  1
  Co  Co3  1  0.000000  0.756083  0.756083  1
  Se  Se4  1  0.256710  0.499861  0.756571  1
  Se  Se5  1  0.743290  0.499861  0.243151  1
  S  S6  1  0.142562  0.142847  0.000284  1
  S  S7  1  0.857438  0.857722  0.000284  1
