# generated using pymatgen
data_Tb3In3HgRuRh
_symmetry_space_group_name_H-M   'P 1'
_cell_length_a   7.87627300
_cell_length_b   7.87627331
_cell_length_c   3.82401700
_cell_angle_alpha   90.00000000
_cell_angle_beta   90.00000000
_cell_angle_gamma   120.00001129
_symmetry_Int_Tables_number   1
_chemical_formula_structural   Tb3In3HgRuRh
_chemical_formula_sum   'Tb3 In3 Hg1 Ru1 Rh1'
_cell_volume   205.44327780
_cell_formula_units_Z   1
loop_
 _symmetry_equiv_pos_site_id
 _symmetry_equiv_pos_as_xyz
  1  'x, y, z'
loop_
 _atom_site_type_symbol
 _atom_site_label
 _atom_site_symmetry_multiplicity
 _atom_site_fract_x
 _atom_site_fract_y
 _atom_site_fract_z
 _atom_site_occupancy
  Tb  Tb0  1  0.966322  0.580841  0.500000  1
  Tb  Tb1  1  0.419159  0.385481  0.500000  1
  Tb  Tb2  1  0.614519  0.033678  0.500000  1
  In  In3  1  0.746552  0.742146  0.000000  1
  In  In4  1  0.995595  0.253448  0.000000  1
  In  In5  1  0.257854  0.004405  0.000000  1
  Hg  Hg6  1  0.333333  0.666667  0.000000  1
  Ru  Ru7  1  0.666667  0.333333  0.000000  1
  Rh  Rh8  1  0.000000  0.000000  0.500000  1
