# generated using pymatgen
data_K12In3FeS12
_symmetry_space_group_name_H-M   'P 1'
_cell_length_a   7.65886188
_cell_length_b   7.89250986
_cell_length_c   15.95670500
_cell_angle_alpha   61.32105845
_cell_angle_beta   89.72241721
_cell_angle_gamma   90.12351801
_symmetry_Int_Tables_number   1
_chemical_formula_structural   K12In3FeS12
_chemical_formula_sum   'K12 In3 Fe1 S12'
_cell_volume   846.19634513
_cell_formula_units_Z   1
loop_
 _symmetry_equiv_pos_site_id
 _symmetry_equiv_pos_as_xyz
  1  'x, y, z'
loop_
 _atom_site_type_symbol
 _atom_site_label
 _atom_site_symmetry_multiplicity
 _atom_site_fract_x
 _atom_site_fract_y
 _atom_site_fract_z
 _atom_site_occupancy
  K  K0  1  0.041286  0.920621  0.292943  1
  K  K1  1  0.535439  0.058224  0.217915  1
  K  K2  1  0.956265  0.077882  0.707324  1
  K  K3  1  0.458923  0.931675  0.788028  1
  K  K4  1  0.983366  0.724433  0.116406  1
  K  K5  1  0.495684  0.271487  0.387171  1
  K  K6  1  0.011642  0.273126  0.887080  1
  K  K7  1  0.510580  0.728524  0.609870  1
  K  K8  1  0.983502  0.302059  0.404338  1
  K  K9  1  0.490168  0.693471  0.100691  1
  K  K10  1  0.005392  0.690575  0.595569  1
  K  K11  1  0.508818  0.307347  0.902048  1
  In  In12  1  0.140653  0.332766  0.084168  1
  In  In13  1  0.365948  0.343702  0.577013  1
  In  In14  1  0.857746  0.666060  0.917949  1
  Fe  Fe15  1  0.639926  0.660782  0.419172  1
  S  S16  1  0.806231  0.354351  0.069131  1
  S  S17  1  0.330716  0.656660  0.426432  1
  S  S18  1  0.191501  0.644111  0.932852  1
  S  S19  1  0.700002  0.374525  0.557341  1
  S  S20  1  0.231687  0.343795  0.227909  1
  S  S21  1  0.730317  0.655175  0.285880  1
  S  S22  1  0.765693  0.658175  0.773303  1
  S  S23  1  0.267676  0.348261  0.722003  1
  S  S24  1  0.744336  0.924674  0.422822  1
  S  S25  1  0.251674  0.050681  0.076472  1
  S  S26  1  0.249586  0.058786  0.572920  1
  S  S27  1  0.745243  0.948069  0.925252  1
