# generated using pymatgen
data_Zr6Al16Co2Pt5
_symmetry_space_group_name_H-M   'P 1'
_cell_length_a   8.74621716
_cell_length_b   8.70203511
_cell_length_c   8.70203374
_cell_angle_alpha   60.33619866
_cell_angle_beta   59.83189887
_cell_angle_gamma   59.83190020
_symmetry_Int_Tables_number   1
_chemical_formula_structural   Zr6Al16Co2Pt5
_chemical_formula_sum   'Zr6 Al16 Co2 Pt5'
_cell_volume   468.30019428
_cell_formula_units_Z   1
loop_
 _symmetry_equiv_pos_site_id
 _symmetry_equiv_pos_as_xyz
  1  'x, y, z'
loop_
 _atom_site_type_symbol
 _atom_site_label
 _atom_site_symmetry_multiplicity
 _atom_site_fract_x
 _atom_site_fract_y
 _atom_site_fract_z
 _atom_site_occupancy
  Zr  Zr0  1  0.687598  0.312402  0.312402  1
  Zr  Zr1  1  0.687432  0.312568  0.687432  1
  Zr  Zr2  1  0.687432  0.687432  0.312568  1
  Zr  Zr3  1  0.312402  0.687598  0.687598  1
  Zr  Zr4  1  0.312568  0.687432  0.312568  1
  Zr  Zr5  1  0.312568  0.312568  0.687432  1
  Al  Al6  1  0.636714  0.117085  0.117085  1
  Al  Al7  1  0.117085  0.636714  0.129117  1
  Al  Al8  1  0.117085  0.129117  0.636714  1
  Al  Al9  1  0.129117  0.117085  0.117085  1
  Al  Al10  1  0.363286  0.882915  0.882915  1
  Al  Al11  1  0.882915  0.363286  0.870883  1
  Al  Al12  1  0.882915  0.870883  0.363286  1
  Al  Al13  1  0.870883  0.882915  0.882915  1
  Al  Al14  1  0.991774  0.341040  0.341040  1
  Al  Al15  1  0.341040  0.991774  0.326147  1
  Al  Al16  1  0.341040  0.326147  0.991774  1
  Al  Al17  1  0.326147  0.341040  0.341040  1
  Al  Al18  1  0.008226  0.658960  0.658960  1
  Al  Al19  1  0.658960  0.008226  0.673853  1
  Al  Al20  1  0.658960  0.673853  0.008226  1
  Al  Al21  1  0.673853  0.658960  0.658960  1
  Co  Co22  1  0.500000  0.000000  0.000000  1
  Co  Co23  1  0.000000  0.500000  0.500000  1
  Pt  Pt24  1  0.000000  0.000000  0.000000  1
  Pt  Pt25  1  0.500000  0.000000  0.500000  1
  Pt  Pt26  1  0.500000  0.500000  0.000000  1
  Pt  Pt27  1  0.000000  0.500000  0.000000  1
  Pt  Pt28  1  0.000000  0.000000  0.500000  1
