# generated using pymatgen
data_Eu2CdAgAs3
_symmetry_space_group_name_H-M   'P 1'
_cell_length_a   8.27125038
_cell_length_b   8.27125042
_cell_length_c   12.23410253
_cell_angle_alpha   55.14101487
_cell_angle_beta   55.14101471
_cell_angle_gamma   30.43371878
_symmetry_Int_Tables_number   1
_chemical_formula_structural   Eu2CdAgAs3
_chemical_formula_sum   'Eu4 Cd2 Ag2 As6'
_cell_volume   341.58736029
_cell_formula_units_Z   2
loop_
 _symmetry_equiv_pos_site_id
 _symmetry_equiv_pos_as_xyz
  1  'x, y, z'
loop_
 _atom_site_type_symbol
 _atom_site_label
 _atom_site_symmetry_multiplicity
 _atom_site_fract_x
 _atom_site_fract_y
 _atom_site_fract_z
 _atom_site_occupancy
  Eu  Eu0  1  0.268922  0.268922  0.330823  1
  Eu  Eu1  1  0.731078  0.731078  0.669177  1
  Eu  Eu2  1  0.397657  0.397657  0.945485  1
  Eu  Eu3  1  0.602343  0.602343  0.054515  1
  Cd  Cd4  1  0.412095  0.412095  0.657988  1
  Cd  Cd5  1  0.587905  0.587905  0.342012  1
  Ag  Ag6  1  0.048294  0.048294  0.685118  1
  Ag  Ag7  1  0.951706  0.951706  0.314882  1
  As  As8  1  0.080953  0.080953  0.880122  1
  As  As9  1  0.919047  0.919047  0.119878  1
  As  As10  1  0.167638  0.167638  0.175930  1
  As  As11  1  0.832362  0.832362  0.824070  1
  As  As12  1  0.370000  0.370000  0.473889  1
  As  As13  1  0.630000  0.630000  0.526111  1
