# generated using pymatgen
data_Yb2(ZnAu3)3
_symmetry_space_group_name_H-M   'P 1'
_cell_length_a   5.70765232
_cell_length_b   5.70765139
_cell_length_c   9.83826000
_cell_angle_alpha   90.00000000
_cell_angle_beta   90.00000000
_cell_angle_gamma   123.82684124
_symmetry_Int_Tables_number   1
_chemical_formula_structural   Yb2(ZnAu3)3
_chemical_formula_sum   'Yb2 Zn3 Au9'
_cell_volume   266.25016361
_cell_formula_units_Z   1
loop_
 _symmetry_equiv_pos_site_id
 _symmetry_equiv_pos_as_xyz
  1  'x, y, z'
loop_
 _atom_site_type_symbol
 _atom_site_label
 _atom_site_symmetry_multiplicity
 _atom_site_fract_x
 _atom_site_fract_y
 _atom_site_fract_z
 _atom_site_occupancy
  Yb  Yb0  1  0.000000  0.500000  0.756398  1
  Yb  Yb1  1  0.500000  0.000000  0.243602  1
  Zn  Zn2  1  0.000000  0.000000  0.500000  1
  Zn  Zn3  1  0.000000  0.000000  0.000000  1
  Zn  Zn4  1  0.500000  0.500000  0.500000  1
  Au  Au5  1  0.000000  0.500000  0.056989  1
  Au  Au6  1  0.500000  0.000000  0.542721  1
  Au  Au7  1  0.500000  0.000000  0.943011  1
  Au  Au8  1  0.000000  0.500000  0.457279  1
  Au  Au9  1  0.704198  0.802196  0.742573  1
  Au  Au10  1  0.197804  0.295802  0.257427  1
  Au  Au11  1  0.802196  0.704198  0.257427  1
  Au  Au12  1  0.295802  0.197804  0.742573  1
  Au  Au13  1  0.500000  0.500000  0.000000  1
