# generated using pymatgen
data_Ce6Cd23Pt
_symmetry_space_group_name_H-M   'P 1'
_cell_length_a   10.10960410
_cell_length_b   10.10960412
_cell_length_c   10.10960400
_cell_angle_alpha   60.00000040
_cell_angle_beta   60.00000032
_cell_angle_gamma   59.99999651
_symmetry_Int_Tables_number   1
_chemical_formula_structural   Ce6Cd23Pt
_chemical_formula_sum   'Ce6 Cd23 Pt1'
_cell_volume   730.61306730
_cell_formula_units_Z   1
loop_
 _symmetry_equiv_pos_site_id
 _symmetry_equiv_pos_as_xyz
  1  'x, y, z'
loop_
 _atom_site_type_symbol
 _atom_site_label
 _atom_site_symmetry_multiplicity
 _atom_site_fract_x
 _atom_site_fract_y
 _atom_site_fract_z
 _atom_site_occupancy
  Ce  Ce0  1  0.794693  0.794693  0.205307  1
  Ce  Ce1  1  0.205307  0.794693  0.205307  1
  Ce  Ce2  1  0.794693  0.205307  0.205307  1
  Ce  Ce3  1  0.205307  0.205307  0.794693  1
  Ce  Ce4  1  0.794693  0.205307  0.794693  1
  Ce  Ce5  1  0.205307  0.794693  0.794693  1
  Cd  Cd6  1  0.832623  0.832623  0.502133  1
  Cd  Cd7  1  0.832623  0.502133  0.832623  1
  Cd  Cd8  1  0.502133  0.832623  0.832623  1
  Cd  Cd9  1  0.832623  0.832623  0.832623  1
  Cd  Cd10  1  0.167377  0.167377  0.497867  1
  Cd  Cd11  1  0.167377  0.497867  0.167377  1
  Cd  Cd12  1  0.497867  0.167377  0.167377  1
  Cd  Cd13  1  0.167377  0.167377  0.167377  1
  Cd  Cd14  1  0.621058  0.621058  0.136826  1
  Cd  Cd15  1  0.621058  0.136826  0.621058  1
  Cd  Cd16  1  0.136826  0.621058  0.621058  1
  Cd  Cd17  1  0.621058  0.621058  0.621058  1
  Cd  Cd18  1  0.378942  0.378942  0.863174  1
  Cd  Cd19  1  0.378942  0.863174  0.378942  1
  Cd  Cd20  1  0.863174  0.378942  0.378942  1
  Cd  Cd21  1  0.378942  0.378942  0.378942  1
  Cd  Cd22  1  0.000000  0.000000  0.500000  1
  Cd  Cd23  1  0.500000  0.000000  0.500000  1
  Cd  Cd24  1  0.000000  0.500000  0.500000  1
  Cd  Cd25  1  0.500000  0.500000  0.000000  1
  Cd  Cd26  1  0.000000  0.500000  0.000000  1
  Cd  Cd27  1  0.500000  0.000000  0.000000  1
  Cd  Cd28  1  0.500000  0.500000  0.500000  1
  Pt  Pt29  1  0.000000  0.000000  0.000000  1
