# generated using pymatgen
data_CaYMgNi7B2
_symmetry_space_group_name_H-M   'P 1'
_cell_length_a   7.56164383
_cell_length_b   7.56164427
_cell_length_c   7.56164401
_cell_angle_alpha   39.09043011
_cell_angle_beta   39.09043779
_cell_angle_gamma   39.09042487
_symmetry_Int_Tables_number   1
_chemical_formula_structural   CaYMgNi7B2
_chemical_formula_sum   'Ca1 Y1 Mg1 Ni7 B2'
_cell_volume   154.62104005
_cell_formula_units_Z   1
loop_
 _symmetry_equiv_pos_site_id
 _symmetry_equiv_pos_as_xyz
  1  'x, y, z'
loop_
 _atom_site_type_symbol
 _atom_site_label
 _atom_site_symmetry_multiplicity
 _atom_site_fract_x
 _atom_site_fract_y
 _atom_site_fract_z
 _atom_site_occupancy
  Ca  Ca0  1  0.496129  0.496129  0.496129  1
  Y  Y1  1  0.646623  0.646623  0.646623  1
  Mg  Mg2  1  0.354544  0.354544  0.354544  1
  Ni  Ni3  1  0.570258  0.066194  0.066194  1
  Ni  Ni4  1  0.066194  0.066194  0.570258  1
  Ni  Ni5  1  0.066194  0.570258  0.066194  1
  Ni  Ni6  1  0.934832  0.428662  0.934832  1
  Ni  Ni7  1  0.934832  0.934832  0.428662  1
  Ni  Ni8  1  0.428662  0.934832  0.934832  1
  Ni  Ni9  1  0.000705  0.000705  0.000705  1
  B  B10  1  0.832552  0.832552  0.832552  1
  B  B11  1  0.168476  0.168476  0.168476  1
