# generated using pymatgen
data_Hf3Ta(NbN2)6
_symmetry_space_group_name_H-M   'P 1'
_cell_length_a   5.30782000
_cell_length_b   5.30781917
_cell_length_c   10.52598900
_cell_angle_alpha   90.00000000
_cell_angle_beta   90.00000000
_cell_angle_gamma   120.00000517
_symmetry_Int_Tables_number   1
_chemical_formula_structural   Hf3Ta(NbN2)6
_chemical_formula_sum   'Hf3 Ta1 Nb6 N12'
_cell_volume   256.81821674
_cell_formula_units_Z   1
loop_
 _symmetry_equiv_pos_site_id
 _symmetry_equiv_pos_as_xyz
  1  'x, y, z'
loop_
 _atom_site_type_symbol
 _atom_site_label
 _atom_site_symmetry_multiplicity
 _atom_site_fract_x
 _atom_site_fract_y
 _atom_site_fract_z
 _atom_site_occupancy
  Hf  Hf0  1  0.666667  0.333333  0.000000  1
  Hf  Hf1  1  0.333333  0.666667  0.000000  1
  Hf  Hf2  1  0.333333  0.666667  0.500000  1
  Ta  Ta3  1  0.666667  0.333333  0.500000  1
  Nb  Nb4  1  0.677902  0.679078  0.748128  1
  Nb  Nb5  1  0.320922  0.998824  0.748128  1
  Nb  Nb6  1  0.001176  0.322098  0.748128  1
  Nb  Nb7  1  0.320922  0.322098  0.251872  1
  Nb  Nb8  1  0.677902  0.998824  0.251872  1
  Nb  Nb9  1  0.001176  0.679078  0.251872  1
  N  N10  1  0.657697  0.651038  0.378845  1
  N  N11  1  0.348962  0.006659  0.378845  1
  N  N12  1  0.993341  0.342303  0.378845  1
  N  N13  1  0.348962  0.342303  0.621155  1
  N  N14  1  0.657697  0.006659  0.621155  1
  N  N15  1  0.993341  0.651038  0.621155  1
  N  N16  1  0.345962  0.345823  0.873658  1
  N  N17  1  0.654177  0.000139  0.873658  1
  N  N18  1  0.999861  0.654038  0.873658  1
  N  N19  1  0.654177  0.654038  0.126342  1
  N  N20  1  0.345962  0.000139  0.126342  1
  N  N21  1  0.999861  0.345823  0.126342  1
