# generated using pymatgen
data_Zr12Zn5Si3(PtN)4
_symmetry_space_group_name_H-M   'P 1'
_cell_length_a   8.56939409
_cell_length_b   8.55689757
_cell_length_c   8.56939500
_cell_angle_alpha   59.95167882
_cell_angle_beta   60.00000034
_cell_angle_gamma   59.95167200
_symmetry_Int_Tables_number   1
_chemical_formula_structural   Zr12Zn5Si3(PtN)4
_chemical_formula_sum   'Zr12 Zn5 Si3 Pt4 N4'
_cell_volume   444.00106033
_cell_formula_units_Z   1
loop_
 _symmetry_equiv_pos_site_id
 _symmetry_equiv_pos_as_xyz
  1  'x, y, z'
loop_
 _atom_site_type_symbol
 _atom_site_label
 _atom_site_symmetry_multiplicity
 _atom_site_fract_x
 _atom_site_fract_y
 _atom_site_fract_z
 _atom_site_occupancy
  Zr  Zr0  1  0.809918  0.189634  0.190530  1
  Zr  Zr1  1  0.192659  0.808139  0.192659  1
  Zr  Zr2  1  0.806542  0.808139  0.192659  1
  Zr  Zr3  1  0.192659  0.808139  0.806542  1
  Zr  Zr4  1  0.809918  0.189634  0.809918  1
  Zr  Zr5  1  0.190530  0.189634  0.809918  1
  Zr  Zr6  1  0.441251  0.063013  0.054485  1
  Zr  Zr7  1  0.059670  0.439581  0.059670  1
  Zr  Zr8  1  0.441080  0.439581  0.059670  1
  Zr  Zr9  1  0.059670  0.439581  0.441080  1
  Zr  Zr10  1  0.441251  0.063013  0.441251  1
  Zr  Zr11  1  0.054485  0.063013  0.441251  1
  Zn  Zn12  1  0.413004  0.760985  0.413004  1
  Zn  Zn13  1  0.829559  0.830149  0.510734  1
  Zn  Zn14  1  0.829559  0.830149  0.829559  1
  Zn  Zn15  1  0.510734  0.830149  0.829559  1
  Zn  Zn16  1  0.830703  0.507893  0.830703  1
  Si  Si17  1  0.411829  0.419474  0.756867  1
  Si  Si18  1  0.411829  0.419474  0.411829  1
  Si  Si19  1  0.756867  0.419474  0.411829  1
  Pt  Pt20  1  0.623174  0.610237  0.143414  1
  Pt  Pt21  1  0.623174  0.610237  0.623174  1
  Pt  Pt22  1  0.143414  0.610237  0.623174  1
  Pt  Pt23  1  0.614850  0.155450  0.614850  1
  N  N24  1  0.125340  0.123030  0.626290  1
  N  N25  1  0.125340  0.123030  0.125340  1
  N  N26  1  0.626290  0.123030  0.125340  1
  N  N27  1  0.124699  0.625903  0.124699  1
