# generated using pymatgen
data_Ho6Tm4Si5Ge
_symmetry_space_group_name_H-M   'P 1'
_cell_length_a   8.38387203
_cell_length_b   8.38387212
_cell_length_c   6.27985600
_cell_angle_alpha   90.00000000
_cell_angle_beta   90.00000000
_cell_angle_gamma   120.00901707
_symmetry_Int_Tables_number   1
_chemical_formula_structural   Ho6Tm4Si5Ge
_chemical_formula_sum   'Ho6 Tm4 Si5 Ge1'
_cell_volume   382.23472135
_cell_formula_units_Z   1
loop_
 _symmetry_equiv_pos_site_id
 _symmetry_equiv_pos_as_xyz
  1  'x, y, z'
loop_
 _atom_site_type_symbol
 _atom_site_label
 _atom_site_symmetry_multiplicity
 _atom_site_fract_x
 _atom_site_fract_y
 _atom_site_fract_z
 _atom_site_occupancy
  Ho  Ho0  1  0.757412  0.757412  0.250000  1
  Ho  Ho1  1  0.243123  0.998934  0.250000  1
  Ho  Ho2  1  0.998934  0.243123  0.250000  1
  Ho  Ho3  1  0.243051  0.243051  0.750000  1
  Ho  Ho4  1  0.756559  0.999931  0.750000  1
  Ho  Ho5  1  0.999931  0.756559  0.750000  1
  Tm  Tm6  1  0.667359  0.333199  0.500646  1
  Tm  Tm7  1  0.333199  0.667359  0.500646  1
  Tm  Tm8  1  0.333199  0.667359  0.999354  1
  Tm  Tm9  1  0.667359  0.333199  0.999354  1
  Si  Si10  1  0.605508  0.999985  0.250000  1
  Si  Si11  1  0.999985  0.605508  0.250000  1
  Si  Si12  1  0.605690  0.605690  0.750000  1
  Si  Si13  1  0.394475  0.000042  0.750000  1
  Si  Si14  1  0.000042  0.394475  0.750000  1
  Ge  Ge15  1  0.394174  0.394174  0.250000  1
