# generated using pymatgen
data_Tb3HoNi4(SnH)4
_symmetry_space_group_name_H-M   'P 1'
_cell_length_a   4.25591500
_cell_length_b   7.10181649
_cell_length_c   8.33273814
_cell_angle_alpha   90.01066743
_cell_angle_beta   90.00000000
_cell_angle_gamma   90.00000000
_symmetry_Int_Tables_number   1
_chemical_formula_structural   Tb3HoNi4(SnH)4
_chemical_formula_sum   'Tb3 Ho1 Ni4 Sn4 H4'
_cell_volume   251.85473391
_cell_formula_units_Z   1
loop_
 _symmetry_equiv_pos_site_id
 _symmetry_equiv_pos_as_xyz
  1  'x, y, z'
loop_
 _atom_site_type_symbol
 _atom_site_label
 _atom_site_symmetry_multiplicity
 _atom_site_fract_x
 _atom_site_fract_y
 _atom_site_fract_z
 _atom_site_occupancy
  Tb  Tb0  1  0.750000  0.515778  0.812848  1
  Tb  Tb1  1  0.250000  0.483962  0.186013  1
  Tb  Tb2  1  0.250000  0.984014  0.312901  1
  Ho  Ho3  1  0.750000  0.016012  0.684994  1
  Ni  Ni4  1  0.750000  0.273538  0.394803  1
  Ni  Ni5  1  0.250000  0.729542  0.609401  1
  Ni  Ni6  1  0.250000  0.222500  0.888194  1
  Ni  Ni7  1  0.750000  0.775106  0.109395  1
  Sn  Sn8  1  0.750000  0.156134  0.069471  1
  Sn  Sn9  1  0.250000  0.843320  0.926834  1
  Sn  Sn10  1  0.250000  0.343216  0.571824  1
  Sn  Sn11  1  0.750000  0.656723  0.429805  1
  H  H12  1  0.250000  0.954397  0.580141  1
  H  H13  1  0.750000  0.048664  0.424641  1
  H  H14  1  0.750000  0.549747  0.078477  1
  H  H15  1  0.250000  0.447349  0.920258  1
