# generated using pymatgen
data_Mn3Be(VTe)16
_symmetry_space_group_name_H-M   'P 1'
_cell_length_a   4.57618200
_cell_length_b   10.49015407
_cell_length_c   18.32684316
_cell_angle_alpha   89.95705430
_cell_angle_beta   90.00000000
_cell_angle_gamma   90.00000000
_symmetry_Int_Tables_number   1
_chemical_formula_structural   Mn3Be(VTe)16
_chemical_formula_sum   'Mn3 Be1 V16 Te16'
_cell_volume   879.77718681
_cell_formula_units_Z   1
loop_
 _symmetry_equiv_pos_site_id
 _symmetry_equiv_pos_as_xyz
  1  'x, y, z'
loop_
 _atom_site_type_symbol
 _atom_site_label
 _atom_site_symmetry_multiplicity
 _atom_site_fract_x
 _atom_site_fract_y
 _atom_site_fract_z
 _atom_site_occupancy
  Mn  Mn0  1  0.750087  0.000000  0.000000  1
  Mn  Mn1  1  0.749929  0.500000  0.500000  1
  Mn  Mn2  1  0.250145  0.000000  0.000000  1
  Be  Be3  1  0.249782  0.500000  0.500000  1
  V  V4  1  0.494965  0.561001  0.389600  1
  V  V5  1  0.494965  0.438999  0.610400  1
  V  V6  1  0.500128  0.063195  0.114287  1
  V  V7  1  0.500128  0.936805  0.885713  1
  V  V8  1  0.493312  0.694493  0.534422  1
  V  V9  1  0.493312  0.305507  0.465578  1
  V  V10  1  0.499683  0.201251  0.964045  1
  V  V11  1  0.499683  0.798749  0.035955  1
  V  V12  1  0.007378  0.680612  0.445793  1
  V  V13  1  0.007378  0.319388  0.554207  1
  V  V14  1  0.000084  0.186883  0.055812  1
  V  V15  1  0.000084  0.813117  0.944188  1
  V  V16  1  0.004728  0.406038  0.397580  1
  V  V17  1  0.004728  0.593962  0.602420  1
  V  V18  1  0.999587  0.902865  0.106329  1
  V  V19  1  0.999587  0.097135  0.893671  1
  Te  Te20  1  0.995913  0.842182  0.561134  1
  Te  Te21  1  0.995913  0.157818  0.438866  1
  Te  Te22  1  0.999752  0.344589  0.937860  1
  Te  Te23  1  0.999752  0.655411  0.062140  1
  Te  Te24  1  0.502465  0.334640  0.319080  1
  Te  Te25  1  0.502465  0.665360  0.680920  1
  Te  Te26  1  0.499314  0.833453  0.182583  1
  Te  Te27  1  0.499314  0.166547  0.817417  1
  Te  Te28  1  0.504565  0.818183  0.404576  1
  Te  Te29  1  0.504565  0.181817  0.595424  1
  Te  Te30  1  0.500067  0.320635  0.095645  1
  Te  Te31  1  0.500067  0.679365  0.904355  1
  Te  Te32  1  0.997622  0.606509  0.304619  1
  Te  Te33  1  0.997622  0.393491  0.695381  1
  Te  Te34  1  0.000467  0.107699  0.196784  1
  Te  Te35  1  0.000467  0.892301  0.803216  1
