# generated using pymatgen
data_CaZrNiAs2
_symmetry_space_group_name_H-M   'P 1'
_cell_length_a   4.12148900
_cell_length_b   4.12148946
_cell_length_c   13.86141200
_cell_angle_alpha   90.00000000
_cell_angle_beta   90.00000000
_cell_angle_gamma   119.99998825
_symmetry_Int_Tables_number   1
_chemical_formula_structural   CaZrNiAs2
_chemical_formula_sum   'Ca2 Zr2 Ni2 As4'
_cell_volume   203.91374197
_cell_formula_units_Z   2
loop_
 _symmetry_equiv_pos_site_id
 _symmetry_equiv_pos_as_xyz
  1  'x, y, z'
loop_
 _atom_site_type_symbol
 _atom_site_label
 _atom_site_symmetry_multiplicity
 _atom_site_fract_x
 _atom_site_fract_y
 _atom_site_fract_z
 _atom_site_occupancy
  Ca  Ca0  1  0.666667  0.333333  0.390002  1
  Ca  Ca1  1  0.333333  0.666667  0.890002  1
  Zr  Zr2  1  0.333333  0.666667  0.623149  1
  Zr  Zr3  1  0.666667  0.333333  0.123149  1
  Ni  Ni4  1  0.000000  0.000000  0.707318  1
  Ni  Ni5  1  0.000000  0.000000  0.207318  1
  As  As6  1  0.333333  0.666667  0.255331  1
  As  As7  1  0.000000  0.000000  0.024199  1
  As  As8  1  0.000000  0.000000  0.524199  1
  As  As9  1  0.666667  0.333333  0.755331  1
