# generated using pymatgen
data_Rb2Er10Fe2Br17
_symmetry_space_group_name_H-M   'P 1'
_cell_length_a   9.07646622
_cell_length_b   10.68999799
_cell_length_c   10.69068400
_cell_angle_alpha   107.61356015
_cell_angle_beta   93.40043446
_cell_angle_gamma   93.40716028
_symmetry_Int_Tables_number   1
_chemical_formula_structural   Rb2Er10Fe2Br17
_chemical_formula_sum   'Rb2 Er10 Fe2 Br17'
_cell_volume   983.65028078
_cell_formula_units_Z   1
loop_
 _symmetry_equiv_pos_site_id
 _symmetry_equiv_pos_as_xyz
  1  'x, y, z'
loop_
 _atom_site_type_symbol
 _atom_site_label
 _atom_site_symmetry_multiplicity
 _atom_site_fract_x
 _atom_site_fract_y
 _atom_site_fract_z
 _atom_site_occupancy
  Rb  Rb0  1  0.997929  0.818046  0.179812  1
  Rb  Rb1  1  0.997909  0.179786  0.818062  1
  Er  Er2  1  0.441574  0.170710  0.170697  1
  Er  Er3  1  0.572688  0.503609  0.209758  1
  Er  Er4  1  0.820274  0.291918  0.291927  1
  Er  Er5  1  0.314600  0.440526  0.440443  1
  Er  Er6  1  0.427352  0.798320  0.491672  1
  Er  Er7  1  0.572709  0.209814  0.503665  1
  Er  Er8  1  0.683644  0.567643  0.567655  1
  Er  Er9  1  0.186781  0.705362  0.705444  1
  Er  Er10  1  0.427370  0.491730  0.798403  1
  Er  Er11  1  0.556766  0.826125  0.826126  1
  Fe  Fe12  1  0.568559  0.361599  0.361588  1
  Fe  Fe13  1  0.432960  0.638972  0.638990  1
  Br  Br14  1  0.580879  0.684541  0.023681  1
  Br  Br15  1  0.712166  0.065155  0.065152  1
  Br  Br16  1  0.856811  0.448698  0.120182  1
  Br  Br17  1  0.131163  0.209677  0.209649  1
  Br  Br18  1  0.282763  0.605147  0.255351  1
  Br  Br19  1  0.419718  0.979322  0.312559  1
  Br  Br20  1  0.717575  0.744566  0.395206  1
  Br  Br21  1  0.856740  0.120198  0.448666  1
  Br  Br22  1  0.999801  0.500633  0.500650  1
  Br  Br23  1  0.142113  0.879768  0.549335  1
  Br  Br24  1  0.282699  0.255293  0.605177  1
  Br  Br25  1  0.580831  0.023720  0.684493  1
  Br  Br26  1  0.717508  0.395232  0.744485  1
  Br  Br27  1  0.868361  0.789722  0.789671  1
  Br  Br28  1  0.142108  0.549357  0.879896  1
  Br  Br29  1  0.287898  0.932230  0.932244  1
  Br  Br30  1  0.419751  0.312577  0.979363  1
