# generated using pymatgen
data_Rb4ThUI12
_symmetry_space_group_name_H-M   'P 1'
_cell_length_a   8.52745300
_cell_length_b   8.52745300
_cell_length_c   12.37130700
_cell_angle_alpha   90.00000000
_cell_angle_beta   90.00000000
_cell_angle_gamma   90.00000000
_symmetry_Int_Tables_number   1
_chemical_formula_structural   Rb4ThUI12
_chemical_formula_sum   'Rb4 Th1 U1 I12'
_cell_volume   899.60995622
_cell_formula_units_Z   1
loop_
 _symmetry_equiv_pos_site_id
 _symmetry_equiv_pos_as_xyz
  1  'x, y, z'
loop_
 _atom_site_type_symbol
 _atom_site_label
 _atom_site_symmetry_multiplicity
 _atom_site_fract_x
 _atom_site_fract_y
 _atom_site_fract_z
 _atom_site_occupancy
  Rb  Rb0  1  0.000000  0.500000  0.252544  1
  Rb  Rb1  1  0.500000  0.000000  0.252544  1
  Rb  Rb2  1  0.000000  0.500000  0.747456  1
  Rb  Rb3  1  0.500000  0.000000  0.747456  1
  Th  Th4  1  0.000000  0.000000  0.000000  1
  U  U5  1  0.500000  0.500000  0.500000  1
  I  I6  1  0.000000  0.000000  0.248758  1
  I  I7  1  0.500000  0.500000  0.256240  1
  I  I8  1  0.000000  0.000000  0.751241  1
  I  I9  1  0.500000  0.500000  0.743760  1
  I  I10  1  0.185412  0.309640  0.000000  1
  I  I11  1  0.690360  0.185412  0.000000  1
  I  I12  1  0.309640  0.814588  0.000000  1
  I  I13  1  0.685123  0.197190  0.500000  1
  I  I14  1  0.314877  0.802810  0.500000  1
  I  I15  1  0.814588  0.690360  0.000000  1
  I  I16  1  0.802810  0.685123  0.500000  1
  I  I17  1  0.197190  0.314877  0.500000  1
