# generated using pymatgen
data_PrDySn5IrRh2
_symmetry_space_group_name_H-M   'P 1'
_cell_length_a   13.53444516
_cell_length_b   13.53444483
_cell_length_c   7.28065500
_cell_angle_alpha   90.00000000
_cell_angle_beta   90.00000000
_cell_angle_gamma   160.88948298
_symmetry_Int_Tables_number   1
_chemical_formula_structural   PrDySn5IrRh2
_chemical_formula_sum   'Pr2 Dy2 Sn10 Ir2 Rh4'
_cell_volume   436.63500408
_cell_formula_units_Z   2
loop_
 _symmetry_equiv_pos_site_id
 _symmetry_equiv_pos_as_xyz
  1  'x, y, z'
loop_
 _atom_site_type_symbol
 _atom_site_label
 _atom_site_symmetry_multiplicity
 _atom_site_fract_x
 _atom_site_fract_y
 _atom_site_fract_z
 _atom_site_occupancy
  Pr  Pr0  1  0.172203  0.827797  0.752564  1
  Pr  Pr1  1  0.827797  0.172203  0.252564  1
  Dy  Dy2  1  0.476589  0.523411  0.738070  1
  Dy  Dy3  1  0.523411  0.476589  0.238070  1
  Sn  Sn4  1  0.881374  0.118626  0.731721  1
  Sn  Sn5  1  0.118626  0.881374  0.231721  1
  Sn  Sn6  1  0.704298  0.295702  0.050669  1
  Sn  Sn7  1  0.295702  0.704298  0.550669  1
  Sn  Sn8  1  0.595048  0.404952  0.614359  1
  Sn  Sn9  1  0.404952  0.595048  0.114359  1
  Sn  Sn10  1  0.953116  0.046884  0.399475  1
  Sn  Sn11  1  0.046884  0.953116  0.899475  1
  Sn  Sn12  1  0.290298  0.709702  0.973674  1
  Sn  Sn13  1  0.709702  0.290298  0.473674  1
  Ir  Ir14  1  0.049573  0.950427  0.518584  1
  Ir  Ir15  1  0.950427  0.049573  0.018584  1
  Rh  Rh16  1  0.778165  0.221835  0.762054  1
  Rh  Rh17  1  0.221835  0.778165  0.262054  1
  Rh  Rh18  1  0.395522  0.604478  0.486828  1
  Rh  Rh19  1  0.604478  0.395522  0.986828  1
