# generated using pymatgen
data_TaCo2ReB2
_symmetry_space_group_name_H-M   'P 1'
_cell_length_a   3.28316100
_cell_length_b   5.73651462
_cell_length_c   6.65661264
_cell_angle_alpha   88.83331913
_cell_angle_beta   90.00000000
_cell_angle_gamma   90.00000000
_symmetry_Int_Tables_number   1
_chemical_formula_structural   TaCo2ReB2
_chemical_formula_sum   'Ta2 Co4 Re2 B4'
_cell_volume   125.34399395
_cell_formula_units_Z   2
loop_
 _symmetry_equiv_pos_site_id
 _symmetry_equiv_pos_as_xyz
  1  'x, y, z'
loop_
 _atom_site_type_symbol
 _atom_site_label
 _atom_site_symmetry_multiplicity
 _atom_site_fract_x
 _atom_site_fract_y
 _atom_site_fract_z
 _atom_site_occupancy
  Ta  Ta0  1  0.250000  0.528818  0.680881  1
  Ta  Ta1  1  0.750000  0.471182  0.319119  1
  Co  Co2  1  0.750000  0.857475  0.555659  1
  Co  Co3  1  0.250000  0.142525  0.444341  1
  Co  Co4  1  0.750000  0.354155  0.944477  1
  Co  Co5  1  0.250000  0.645845  0.055523  1
  Re  Re6  1  0.250000  0.028342  0.825104  1
  Re  Re7  1  0.750000  0.971658  0.174896  1
  B  B8  1  0.250000  0.262558  0.117581  1
  B  B9  1  0.750000  0.737442  0.882419  1
  B  B10  1  0.250000  0.776575  0.370525  1
  B  B11  1  0.750000  0.223425  0.629475  1
