# generated using pymatgen
data_HoTm3Lu4(ReB6)4
_symmetry_space_group_name_H-M   'P 1'
_cell_length_a   3.63228200
_cell_length_b   9.08630400
_cell_length_c   11.45164900
_cell_angle_alpha   90.00204372
_cell_angle_beta   90.00000000
_cell_angle_gamma   90.00000000
_symmetry_Int_Tables_number   1
_chemical_formula_structural   HoTm3Lu4(ReB6)4
_chemical_formula_sum   'Ho1 Tm3 Lu4 Re4 B24'
_cell_volume   377.95043497
_cell_formula_units_Z   1
loop_
 _symmetry_equiv_pos_site_id
 _symmetry_equiv_pos_as_xyz
  1  'x, y, z'
loop_
 _atom_site_type_symbol
 _atom_site_label
 _atom_site_symmetry_multiplicity
 _atom_site_fract_x
 _atom_site_fract_y
 _atom_site_fract_z
 _atom_site_occupancy
  Ho  Ho0  1  0.000000  0.177040  0.913891  1
  Tm  Tm1  1  0.000000  0.323070  0.413912  1
  Tm  Tm2  1  0.000000  0.676940  0.586085  1
  Tm  Tm3  1  0.000000  0.823023  0.086132  1
  Lu  Lu4  1  0.000000  0.943400  0.370491  1
  Lu  Lu5  1  0.000000  0.056523  0.629481  1
  Lu  Lu6  1  0.000000  0.443537  0.129682  1
  Lu  Lu7  1  0.000000  0.556664  0.870399  1
  Re  Re8  1  0.000000  0.639284  0.320380  1
  Re  Re9  1  0.000000  0.360913  0.679367  1
  Re  Re10  1  0.000000  0.139358  0.179937  1
  Re  Re11  1  0.000000  0.860364  0.820207  1
  B  B12  1  0.500000  0.553239  0.433271  1
  B  B13  1  0.500000  0.446788  0.566700  1
  B  B14  1  0.500000  0.053133  0.067034  1
  B  B15  1  0.500000  0.946349  0.933249  1
  B  B16  1  0.500000  0.750687  0.419145  1
  B  B17  1  0.500000  0.249286  0.580789  1
  B  B18  1  0.500000  0.250792  0.081252  1
  B  B19  1  0.500000  0.749202  0.919198  1
  B  B20  1  0.500000  0.793317  0.265001  1
  B  B21  1  0.500000  0.206826  0.734690  1
  B  B22  1  0.500000  0.293355  0.235052  1
  B  B23  1  0.500000  0.706646  0.765005  1
  B  B24  1  0.500000  0.630438  0.184466  1
  B  B25  1  0.500000  0.369885  0.815295  1
  B  B26  1  0.500000  0.130391  0.315570  1
  B  B27  1  0.500000  0.869504  0.684383  1
  B  B28  1  0.500000  0.981177  0.212371  1
  B  B29  1  0.500000  0.018349  0.787479  1
  B  B30  1  0.500000  0.481273  0.287713  1
  B  B31  1  0.500000  0.518818  0.712280  1
  B  B32  1  0.500000  0.598817  0.027499  1
  B  B33  1  0.500000  0.401637  0.972629  1
  B  B34  1  0.500000  0.098827  0.472487  1
  B  B35  1  0.500000  0.901153  0.527475  1
