# generated using pymatgen
data_Tb4Er4Ti9Si16Tc3
_symmetry_space_group_name_H-M   'P 1'
_cell_length_a   6.97710198
_cell_length_b   6.97751571
_cell_length_c   12.80388627
_cell_angle_alpha   90.09641132
_cell_angle_beta   89.93059550
_cell_angle_gamma   90.07676952
_symmetry_Int_Tables_number   1
_chemical_formula_structural   Tb4Er4Ti9Si16Tc3
_chemical_formula_sum   'Tb4 Er4 Ti9 Si16 Tc3'
_cell_volume   623.32763213
_cell_formula_units_Z   1
loop_
 _symmetry_equiv_pos_site_id
 _symmetry_equiv_pos_as_xyz
  1  'x, y, z'
loop_
 _atom_site_type_symbol
 _atom_site_label
 _atom_site_symmetry_multiplicity
 _atom_site_fract_x
 _atom_site_fract_y
 _atom_site_fract_z
 _atom_site_occupancy
  Tb  Tb0  1  0.340030  0.001936  0.467684  1
  Tb  Tb1  1  0.498485  0.841084  0.719637  1
  Tb  Tb2  1  0.500782  0.159088  0.217684  1
  Tb  Tb3  1  0.841381  0.498396  0.280425  1
  Er  Er4  1  0.158317  0.499660  0.782450  1
  Er  Er5  1  0.659029  0.999916  0.968373  1
  Er  Er6  1  0.001016  0.340993  0.532911  1
  Er  Er7  1  0.999917  0.658927  0.031212  1
  Ti  Ti8  1  0.674361  0.673683  0.500239  1
  Ti  Ti9  1  0.151365  0.006348  0.877357  1
  Ti  Ti10  1  0.494184  0.653820  0.123827  1
  Ti  Ti11  1  0.505542  0.347961  0.627735  1
  Ti  Ti12  1  0.653576  0.494444  0.875893  1
  Ti  Ti13  1  0.347451  0.505086  0.372747  1
  Ti  Ti14  1  0.847531  0.991302  0.375971  1
  Ti  Ti15  1  0.006113  0.151394  0.122500  1
  Ti  Ti16  1  0.991679  0.847250  0.624353  1
  Si  Si17  1  0.198976  0.130881  0.684189  1
  Si  Si18  1  0.369640  0.700499  0.933083  1
  Si  Si19  1  0.631800  0.297268  0.435406  1
  Si  Si20  1  0.701545  0.370812  0.065882  1
  Si  Si21  1  0.295820  0.629295  0.565762  1
  Si  Si22  1  0.799709  0.869911  0.182763  1
  Si  Si23  1  0.128402  0.200552  0.316009  1
  Si  Si24  1  0.870956  0.798549  0.817150  1
  Si  Si25  1  0.290484  0.950870  0.066073  1
  Si  Si26  1  0.547290  0.789374  0.315585  1
  Si  Si27  1  0.451699  0.211402  0.817042  1
  Si  Si28  1  0.791546  0.546282  0.684426  1
  Si  Si29  1  0.210454  0.453106  0.182802  1
  Si  Si30  1  0.709726  0.050313  0.567473  1
  Si  Si31  1  0.952092  0.291380  0.933275  1
  Si  Si32  1  0.049022  0.707274  0.433083  1
  Tc  Tc33  1  0.327568  0.328198  0.999360  1
  Tc  Tc34  1  0.173703  0.828051  0.248210  1
  Tc  Tc35  1  0.828808  0.174697  0.751427  1
