# generated using pymatgen
data_Tm9LuSi5Ge
_symmetry_space_group_name_H-M   'P 1'
_cell_length_a   8.31728400
_cell_length_b   8.31739364
_cell_length_c   6.23530600
_cell_angle_alpha   89.99990438
_cell_angle_beta   89.99986679
_cell_angle_gamma   120.01030630
_symmetry_Int_Tables_number   1
_chemical_formula_structural   Tm9LuSi5Ge
_chemical_formula_sum   'Tm9 Lu1 Si5 Ge1'
_cell_volume   373.51846663
_cell_formula_units_Z   1
loop_
 _symmetry_equiv_pos_site_id
 _symmetry_equiv_pos_as_xyz
  1  'x, y, z'
loop_
 _atom_site_type_symbol
 _atom_site_label
 _atom_site_symmetry_multiplicity
 _atom_site_fract_x
 _atom_site_fract_y
 _atom_site_fract_z
 _atom_site_occupancy
  Tm  Tm0  1  0.333175  0.667527  0.500708  1
  Tm  Tm1  1  0.333171  0.667529  0.999293  1
  Tm  Tm2  1  0.667529  0.333175  0.999296  1
  Tm  Tm3  1  0.758325  0.758268  0.250065  1
  Tm  Tm4  1  0.242396  0.998796  0.250063  1
  Tm  Tm5  1  0.998676  0.242338  0.250069  1
  Tm  Tm6  1  0.242328  0.242271  0.749930  1
  Tm  Tm7  1  0.757265  0.999963  0.749929  1
  Tm  Tm8  1  0.999851  0.757211  0.749939  1
  Lu  Lu9  1  0.667543  0.333181  0.500715  1
  Si  Si10  1  0.606080  0.000124  0.250155  1
  Si  Si11  1  0.999777  0.605905  0.250155  1
  Si  Si12  1  0.606337  0.606162  0.749843  1
  Si  Si13  1  0.394020  0.000247  0.749845  1
  Si  Si14  1  0.999899  0.393846  0.749841  1
  Ge  Ge15  1  0.393627  0.393455  0.250154  1
