# generated using pymatgen
data_CaY2Zr(GaO3)4
_symmetry_space_group_name_H-M   'P 1'
_cell_length_a   10.87139584
_cell_length_b   10.92006589
_cell_length_c   10.93197410
_cell_angle_alpha   109.50606359
_cell_angle_beta   109.38933316
_cell_angle_gamma   109.28285382
_symmetry_Int_Tables_number   1
_chemical_formula_structural   CaY2Zr(GaO3)4
_chemical_formula_sum   'Ca4 Y8 Zr4 Ga16 O48'
_cell_volume   1001.93927315
_cell_formula_units_Z   4
loop_
 _symmetry_equiv_pos_site_id
 _symmetry_equiv_pos_as_xyz
  1  'x, y, z'
loop_
 _atom_site_type_symbol
 _atom_site_label
 _atom_site_symmetry_multiplicity
 _atom_site_fract_x
 _atom_site_fract_y
 _atom_site_fract_z
 _atom_site_occupancy
  Ca  Ca0  1  0.622425  0.240291  0.373739  1
  Ca  Ca1  1  0.874321  0.121116  0.244164  1
  Ca  Ca2  1  0.125679  0.878884  0.755836  1
  Ca  Ca3  1  0.377575  0.759709  0.626261  1
  Y  Y4  1  0.249804  0.623255  0.877597  1
  Y  Y5  1  0.628913  0.370884  0.750686  1
  Y  Y6  1  0.126253  0.252581  0.881597  1
  Y  Y7  1  0.249404  0.122158  0.368872  1
  Y  Y8  1  0.873747  0.747419  0.118403  1
  Y  Y9  1  0.750596  0.877842  0.631128  1
  Y  Y10  1  0.371087  0.629116  0.249314  1
  Y  Y11  1  0.750196  0.376745  0.122403  1
  Zr  Zr12  1  0.000000  0.000000  0.500000  1
  Zr  Zr13  1  0.500000  0.000000  0.000000  1
  Zr  Zr14  1  0.000000  0.500000  0.500000  1
  Zr  Zr15  1  0.500000  0.500000  0.500000  1
  Ga  Ga16  1  0.882379  0.635475  0.762453  1
  Ga  Ga17  1  0.626490  0.749265  0.875615  1
  Ga  Ga18  1  0.869231  0.252975  0.630395  1
  Ga  Ga19  1  0.246346  0.870143  0.128990  1
  Ga  Ga20  1  0.254958  0.374733  0.633520  1
  Ga  Ga21  1  0.500000  0.500000  0.000000  1
  Ga  Ga22  1  0.000000  0.000000  0.000000  1
  Ga  Ga23  1  0.623099  0.872325  0.249245  1
  Ga  Ga24  1  0.376901  0.127675  0.750755  1
  Ga  Ga25  1  0.500000  0.000000  0.500000  1
  Ga  Ga26  1  0.753654  0.129857  0.871009  1
  Ga  Ga27  1  0.745042  0.625267  0.366480  1
  Ga  Ga28  1  0.130769  0.747025  0.369605  1
  Ga  Ga29  1  0.000000  0.500000  0.000000  1
  Ga  Ga30  1  0.373510  0.250735  0.124385  1
  Ga  Ga31  1  0.117621  0.364525  0.237547  1
  O  O32  1  0.292263  0.871844  0.978942  1
  O  O33  1  0.412106  0.287650  0.317541  1
  O  O34  1  0.687513  0.480791  0.607998  1
  O  O35  1  0.029853  0.623531  0.714798  1
  O  O36  1  0.471935  0.786724  0.878841  1
  O  O37  1  0.209669  0.523642  0.629168  1
  O  O38  1  0.879018  0.292779  0.480311  1
  O  O39  1  0.027053  0.404060  0.823959  1
  O  O40  1  0.674538  0.206138  0.588668  1
  O  O41  1  0.397245  0.021470  0.323018  1
  O  O42  1  0.622871  0.023319  0.207872  1
  O  O43  1  0.622492  0.594247  0.916650  1
  O  O44  1  0.085782  0.175230  0.203446  1
  O  O45  1  0.405351  0.373406  0.587232  1
  O  O46  1  0.295492  0.418717  0.827151  1
  O  O47  1  0.105316  0.183270  0.476057  1
  O  O48  1  0.877947  0.583337  0.908225  1
  O  O49  1  0.822502  0.898490  0.023173  1
  O  O50  1  0.914733  0.099377  0.628647  1
  O  O51  1  0.203369  0.673741  0.081039  1
  O  O52  1  0.583634  0.876516  0.404357  1
  O  O53  1  0.816085  0.906888  0.287140  1
  O  O54  1  0.530009  0.323860  0.903413  1
  O  O55  1  0.093564  0.915585  0.122838  1
  O  O56  1  0.906436  0.084415  0.877162  1
  O  O57  1  0.469991  0.676140  0.096587  1
  O  O58  1  0.183915  0.093112  0.712860  1
  O  O59  1  0.416366  0.123484  0.595643  1
  O  O60  1  0.796631  0.326259  0.918961  1
  O  O61  1  0.085267  0.900623  0.371353  1
  O  O62  1  0.177498  0.101510  0.976827  1
  O  O63  1  0.122053  0.416663  0.091775  1
  O  O64  1  0.894684  0.816730  0.523943  1
  O  O65  1  0.704508  0.581283  0.172849  1
  O  O66  1  0.594649  0.626594  0.412768  1
  O  O67  1  0.914218  0.824770  0.796554  1
  O  O68  1  0.377508  0.405753  0.083350  1
  O  O69  1  0.377129  0.976681  0.792128  1
  O  O70  1  0.602755  0.978530  0.676982  1
  O  O71  1  0.325462  0.793862  0.411332  1
  O  O72  1  0.972947  0.595940  0.176041  1
  O  O73  1  0.120982  0.707221  0.519689  1
  O  O74  1  0.790331  0.476358  0.370832  1
  O  O75  1  0.528065  0.213276  0.121159  1
  O  O76  1  0.970147  0.376469  0.285202  1
  O  O77  1  0.312487  0.519209  0.392002  1
  O  O78  1  0.587894  0.712350  0.682459  1
  O  O79  1  0.707737  0.128156  0.021058  1
