# generated using pymatgen
data_NaSmCr2O8
_symmetry_space_group_name_H-M   'P 1'
_cell_length_a   6.08292463
_cell_length_b   6.08292481
_cell_length_c   6.08292530
_cell_angle_alpha   105.68363327
_cell_angle_beta   105.68362456
_cell_angle_gamma   117.34512060
_symmetry_Int_Tables_number   1
_chemical_formula_structural   NaSmCr2O8
_chemical_formula_sum   'Na1 Sm1 Cr2 O8'
_cell_volume   170.78119134
_cell_formula_units_Z   1
loop_
 _symmetry_equiv_pos_site_id
 _symmetry_equiv_pos_as_xyz
  1  'x, y, z'
loop_
 _atom_site_type_symbol
 _atom_site_label
 _atom_site_symmetry_multiplicity
 _atom_site_fract_x
 _atom_site_fract_y
 _atom_site_fract_z
 _atom_site_occupancy
  Na  Na0  1  0.750000  0.250000  0.500000  1
  Sm  Sm1  1  0.500000  0.500000  0.000000  1
  Cr  Cr2  1  0.250000  0.750000  0.500000  1
  Cr  Cr3  1  0.000000  0.000000  0.000000  1
  O  O4  1  0.833391  0.009141  0.175750  1
  O  O5  1  0.911760  0.595252  0.316509  1
  O  O6  1  0.278744  0.595252  0.683491  1
  O  O7  1  0.833391  0.657640  0.824250  1
  O  O8  1  0.342360  0.166609  0.175750  1
  O  O9  1  0.404748  0.721256  0.316509  1
  O  O10  1  0.404748  0.088240  0.683491  1
  O  O11  1  0.990859  0.166609  0.824250  1
