# generated using pymatgen
data_Tb20Ru4Pt3Rh5
_symmetry_space_group_name_H-M   'P 1'
_cell_length_a   10.90971387
_cell_length_b   10.90971442
_cell_length_c   6.48299600
_cell_angle_alpha   90.02282963
_cell_angle_beta   90.02282963
_cell_angle_gamma   90.13108151
_symmetry_Int_Tables_number   1
_chemical_formula_structural   Tb20Ru4Pt3Rh5
_chemical_formula_sum   'Tb20 Ru4 Pt3 Rh5'
_cell_volume   771.61611762
_cell_formula_units_Z   1
loop_
 _symmetry_equiv_pos_site_id
 _symmetry_equiv_pos_as_xyz
  1  'x, y, z'
loop_
 _atom_site_type_symbol
 _atom_site_label
 _atom_site_symmetry_multiplicity
 _atom_site_fract_x
 _atom_site_fract_y
 _atom_site_fract_z
 _atom_site_occupancy
  Tb  Tb0  1  0.295490  0.085643  0.374282  1
  Tb  Tb1  1  0.295043  0.911253  0.878845  1
  Tb  Tb2  1  0.703951  0.087445  0.875518  1
  Tb  Tb3  1  0.702854  0.911830  0.375348  1
  Tb  Tb4  1  0.584883  0.793298  0.878487  1
  Tb  Tb5  1  0.584807  0.206420  0.378798  1
  Tb  Tb6  1  0.412241  0.793398  0.379330  1
  Tb  Tb7  1  0.414581  0.206551  0.878781  1
  Tb  Tb8  1  0.206702  0.415117  0.621513  1
  Tb  Tb9  1  0.206602  0.587759  0.120670  1
  Tb  Tb10  1  0.793580  0.415193  0.121202  1
  Tb  Tb11  1  0.793449  0.585419  0.621219  1
  Tb  Tb12  1  0.914357  0.704510  0.125718  1
  Tb  Tb13  1  0.912555  0.296049  0.624482  1
  Tb  Tb14  1  0.088747  0.704957  0.621155  1
  Tb  Tb15  1  0.088170  0.297146  0.124652  1
  Tb  Tb16  1  0.001088  0.998342  0.499103  1
  Tb  Tb17  1  0.001658  0.998912  0.000897  1
  Tb  Tb18  1  0.499787  0.500081  0.000466  1
  Tb  Tb19  1  0.499919  0.500213  0.499534  1
  Ru  Ru20  1  0.499890  0.999721  0.123720  1
  Ru  Ru21  1  0.499858  0.999820  0.624690  1
  Ru  Ru22  1  0.000180  0.500142  0.875310  1
  Ru  Ru23  1  0.000279  0.500110  0.376280  1
  Pt  Pt24  1  0.847447  0.152553  0.250000  1
  Pt  Pt25  1  0.846692  0.846761  0.750241  1
  Pt  Pt26  1  0.153239  0.153308  0.749759  1
  Rh  Rh27  1  0.151365  0.848635  0.250000  1
  Rh  Rh28  1  0.652923  0.347077  0.750000  1
  Rh  Rh29  1  0.653082  0.653174  0.249877  1
  Rh  Rh30  1  0.346826  0.346918  0.250123  1
  Rh  Rh31  1  0.347758  0.652242  0.750000  1
