# generated using pymatgen
data_Er3TmCdRu
_symmetry_space_group_name_H-M   'P 1'
_cell_length_a   9.52105432
_cell_length_b   9.52105328
_cell_length_c   9.52105300
_cell_angle_alpha   59.99999751
_cell_angle_beta   60.00000110
_cell_angle_gamma   59.99999514
_symmetry_Int_Tables_number   1
_chemical_formula_structural   Er3TmCdRu
_chemical_formula_sum   'Er12 Tm4 Cd4 Ru4'
_cell_volume   610.29526825
_cell_formula_units_Z   4
loop_
 _symmetry_equiv_pos_site_id
 _symmetry_equiv_pos_as_xyz
  1  'x, y, z'
loop_
 _atom_site_type_symbol
 _atom_site_label
 _atom_site_symmetry_multiplicity
 _atom_site_fract_x
 _atom_site_fract_y
 _atom_site_fract_z
 _atom_site_occupancy
  Er  Er0  1  0.061095  0.438905  0.438905  1
  Er  Er1  1  0.438905  0.061095  0.061095  1
  Er  Er2  1  0.438905  0.061095  0.438905  1
  Er  Er3  1  0.061095  0.438905  0.061095  1
  Er  Er4  1  0.438905  0.438905  0.061095  1
  Er  Er5  1  0.061095  0.061095  0.438905  1
  Er  Er6  1  0.188783  0.811217  0.811217  1
  Er  Er7  1  0.811217  0.188783  0.188783  1
  Er  Er8  1  0.811217  0.188783  0.811217  1
  Er  Er9  1  0.188783  0.811217  0.188783  1
  Er  Er10  1  0.811217  0.811217  0.188783  1
  Er  Er11  1  0.188783  0.188783  0.811217  1
  Tm  Tm12  1  0.597311  0.597311  0.597311  1
  Tm  Tm13  1  0.597311  0.597311  0.208068  1
  Tm  Tm14  1  0.597311  0.208068  0.597311  1
  Tm  Tm15  1  0.208068  0.597311  0.597311  1
  Cd  Cd16  1  0.830701  0.830701  0.830701  1
  Cd  Cd17  1  0.830701  0.830701  0.507896  1
  Cd  Cd18  1  0.830701  0.507896  0.830701  1
  Cd  Cd19  1  0.507896  0.830701  0.830701  1
  Ru  Ru20  1  0.390385  0.390385  0.390385  1
  Ru  Ru21  1  0.390385  0.390385  0.828845  1
  Ru  Ru22  1  0.390385  0.828845  0.390385  1
  Ru  Ru23  1  0.828845  0.390385  0.390385  1
