# generated using pymatgen
data_Sm8Dy11ScSi15Os
_symmetry_space_group_name_H-M   'P 1'
_cell_length_a   7.39026808
_cell_length_b   7.82323383
_cell_length_c   14.67505700
_cell_angle_alpha   90.00000000
_cell_angle_beta   90.00000000
_cell_angle_gamma   90.14170762
_symmetry_Int_Tables_number   1
_chemical_formula_structural   Sm8Dy11ScSi15Os
_chemical_formula_sum   'Sm8 Dy11 Sc1 Si15 Os1'
_cell_volume   848.44749575
_cell_formula_units_Z   1
loop_
 _symmetry_equiv_pos_site_id
 _symmetry_equiv_pos_as_xyz
  1  'x, y, z'
loop_
 _atom_site_type_symbol
 _atom_site_label
 _atom_site_symmetry_multiplicity
 _atom_site_fract_x
 _atom_site_fract_y
 _atom_site_fract_z
 _atom_site_occupancy
  Sm  Sm0  1  0.021018  0.182936  0.098321  1
  Sm  Sm1  1  0.983769  0.825862  0.904939  1
  Sm  Sm2  1  0.481511  0.680343  0.905052  1
  Sm  Sm3  1  0.983769  0.825862  0.595061  1
  Sm  Sm4  1  0.517317  0.317930  0.097340  1
  Sm  Sm5  1  0.021018  0.182936  0.401679  1
  Sm  Sm6  1  0.517317  0.317930  0.402660  1
  Sm  Sm7  1  0.481511  0.680343  0.594948  1
  Dy  Dy8  1  0.152179  0.511046  0.750000  1
  Dy  Dy9  1  0.843595  0.486055  0.250000  1
  Dy  Dy10  1  0.665637  0.987911  0.750000  1
  Dy  Dy11  1  0.312957  0.174672  0.626266  1
  Dy  Dy12  1  0.676723  0.824280  0.374136  1
  Dy  Dy13  1  0.178371  0.681763  0.374473  1
  Dy  Dy14  1  0.676723  0.824280  0.125864  1
  Dy  Dy15  1  0.832540  0.314670  0.625308  1
  Dy  Dy16  1  0.312957  0.174672  0.873734  1
  Dy  Dy17  1  0.832540  0.314670  0.874692  1
  Dy  Dy18  1  0.178371  0.681763  0.125527  1
  Sc  Sc19  1  0.341777  0.018075  0.250000  1
  Si  Si20  1  0.976579  0.900805  0.250000  1
  Si  Si21  1  0.473166  0.603284  0.250000  1
  Si  Si22  1  0.527692  0.396470  0.750000  1
  Si  Si23  1  0.273227  0.868219  0.750000  1
  Si  Si24  1  0.717171  0.126716  0.250000  1
  Si  Si25  1  0.226676  0.367196  0.250000  1
  Si  Si26  1  0.765992  0.620960  0.750000  1
  Si  Si27  1  0.153903  0.472917  0.536399  1
  Si  Si28  1  0.850157  0.532052  0.461351  1
  Si  Si29  1  0.349482  0.970093  0.459340  1
  Si  Si30  1  0.850157  0.532052  0.038649  1
  Si  Si31  1  0.647363  0.030331  0.536745  1
  Si  Si32  1  0.153903  0.472917  0.963601  1
  Si  Si33  1  0.647363  0.030331  0.963255  1
  Si  Si34  1  0.349482  0.970093  0.040660  1
  Os  Os35  1  0.026090  0.097565  0.750000  1
