# generated using pymatgen
data_Ce10CuPb7
_symmetry_space_group_name_H-M   'P 1'
_cell_length_a   6.64263511
_cell_length_b   9.67771012
_cell_length_c   9.67770989
_cell_angle_alpha   119.97725500
_cell_angle_beta   89.99803085
_cell_angle_gamma   89.99801537
_symmetry_Int_Tables_number   1
_chemical_formula_structural   Ce10CuPb7
_chemical_formula_sum   'Ce10 Cu1 Pb7'
_cell_volume   538.90936190
_cell_formula_units_Z   1
loop_
 _symmetry_equiv_pos_site_id
 _symmetry_equiv_pos_as_xyz
  1  'x, y, z'
loop_
 _atom_site_type_symbol
 _atom_site_label
 _atom_site_symmetry_multiplicity
 _atom_site_fract_x
 _atom_site_fract_y
 _atom_site_fract_z
 _atom_site_occupancy
  Ce  Ce0  1  0.740856  0.726682  0.726682  1
  Ce  Ce1  1  0.741062  0.273039  0.000045  1
  Ce  Ce2  1  0.741062  0.000045  0.273039  1
  Ce  Ce3  1  0.259144  0.273318  0.273318  1
  Ce  Ce4  1  0.258938  0.726961  0.999955  1
  Ce  Ce5  1  0.258938  0.999955  0.726961  1
  Ce  Ce6  1  0.000000  0.666640  0.333360  1
  Ce  Ce7  1  0.000000  0.333360  0.666640  1
  Ce  Ce8  1  0.500000  0.333335  0.666665  1
  Ce  Ce9  1  0.500000  0.666665  0.333335  1
  Cu  Cu10  1  0.500000  0.000000  0.000000  1
  Pb  Pb11  1  0.000000  0.000000  0.000000  1
  Pb  Pb12  1  0.752551  0.377960  0.377960  1
  Pb  Pb13  1  0.752572  0.622130  0.000005  1
  Pb  Pb14  1  0.752572  0.000005  0.622130  1
  Pb  Pb15  1  0.247449  0.622040  0.622040  1
  Pb  Pb16  1  0.247428  0.377870  0.999995  1
  Pb  Pb17  1  0.247428  0.999995  0.377870  1
