# generated using pymatgen
data_ErTh2(InNi)3
_symmetry_space_group_name_H-M   'P 1'
_cell_length_a   7.36614100
_cell_length_b   7.45427923
_cell_length_c   4.00120900
_cell_angle_alpha   90.00000000
_cell_angle_beta   90.00000000
_cell_angle_gamma   119.60963075
_symmetry_Int_Tables_number   1
_chemical_formula_structural   ErTh2(InNi)3
_chemical_formula_sum   'Er1 Th2 In3 Ni3'
_cell_volume   191.01281167
_cell_formula_units_Z   1
loop_
 _symmetry_equiv_pos_site_id
 _symmetry_equiv_pos_as_xyz
  1  'x, y, z'
loop_
 _atom_site_type_symbol
 _atom_site_label
 _atom_site_symmetry_multiplicity
 _atom_site_fract_x
 _atom_site_fract_y
 _atom_site_fract_z
 _atom_site_occupancy
  Er  Er0  1  0.412736  0.000000  0.500000  1
  Th  Th1  1  0.999278  0.416172  0.500000  1
  Th  Th2  1  0.583106  0.583828  0.500000  1
  In  In3  1  0.742455  0.000000  0.000000  1
  In  In4  1  0.011201  0.762199  0.000000  1
  In  In5  1  0.249002  0.237801  0.000000  1
  Ni  Ni6  1  0.333074  0.657677  0.000000  1
  Ni  Ni7  1  0.675398  0.342323  0.000000  1
  Ni  Ni8  1  0.993750  0.000000  0.500000  1
