# generated using pymatgen
data_La4YbIr3
_symmetry_space_group_name_H-M   'P 1'
_cell_length_a   11.38957200
_cell_length_b   11.38957200
_cell_length_c   6.49268800
_cell_angle_alpha   90.00000000
_cell_angle_beta   90.00000000
_cell_angle_gamma   90.00000000
_symmetry_Int_Tables_number   1
_chemical_formula_structural   La4YbIr3
_chemical_formula_sum   'La16 Yb4 Ir12'
_cell_volume   842.24674740
_cell_formula_units_Z   4
loop_
 _symmetry_equiv_pos_site_id
 _symmetry_equiv_pos_as_xyz
  1  'x, y, z'
loop_
 _atom_site_type_symbol
 _atom_site_label
 _atom_site_symmetry_multiplicity
 _atom_site_fract_x
 _atom_site_fract_y
 _atom_site_fract_z
 _atom_site_occupancy
  La  La0  1  0.287857  0.089853  0.387452  1
  La  La1  1  0.287857  0.910147  0.887452  1
  La  La2  1  0.712143  0.089853  0.887452  1
  La  La3  1  0.712143  0.910147  0.387452  1
  La  La4  1  0.589853  0.787857  0.887452  1
  La  La5  1  0.589853  0.212143  0.387452  1
  La  La6  1  0.410147  0.787857  0.387452  1
  La  La7  1  0.410147  0.212143  0.887452  1
  La  La8  1  0.212143  0.410147  0.612548  1
  La  La9  1  0.212143  0.589853  0.112548  1
  La  La10  1  0.787857  0.410147  0.112548  1
  La  La11  1  0.787857  0.589853  0.612548  1
  La  La12  1  0.910147  0.712143  0.112548  1
  La  La13  1  0.910147  0.287857  0.612548  1
  La  La14  1  0.089853  0.712143  0.612548  1
  La  La15  1  0.089853  0.287857  0.112548  1
  Yb  Yb16  1  0.000000  0.000000  0.500000  1
  Yb  Yb17  1  0.000000  0.000000  0.000000  1
  Yb  Yb18  1  0.500000  0.500000  0.000000  1
  Yb  Yb19  1  0.500000  0.500000  0.500000  1
  Ir  Ir20  1  0.844713  0.155287  0.250000  1
  Ir  Ir21  1  0.844713  0.844713  0.750000  1
  Ir  Ir22  1  0.155287  0.155287  0.750000  1
  Ir  Ir23  1  0.155287  0.844713  0.250000  1
  Ir  Ir24  1  0.655287  0.344713  0.750000  1
  Ir  Ir25  1  0.655287  0.655287  0.250000  1
  Ir  Ir26  1  0.344713  0.344713  0.250000  1
  Ir  Ir27  1  0.344713  0.655287  0.750000  1
  Ir  Ir28  1  0.500000  0.000000  0.115049  1
  Ir  Ir29  1  0.500000  0.000000  0.615049  1
  Ir  Ir30  1  0.000000  0.500000  0.884951  1
  Ir  Ir31  1  0.000000  0.500000  0.384951  1
