# generated using pymatgen
data_HfZr3TiSi4W3
_symmetry_space_group_name_H-M   'P 1'
_cell_length_a   3.55263900
_cell_length_b   6.97122850
_cell_length_c   8.28248802
_cell_angle_alpha   90.21005820
_cell_angle_beta   90.00000000
_cell_angle_gamma   90.00000000
_symmetry_Int_Tables_number   1
_chemical_formula_structural   HfZr3TiSi4W3
_chemical_formula_sum   'Hf1 Zr3 Ti1 Si4 W3'
_cell_volume   205.12485860
_cell_formula_units_Z   1
loop_
 _symmetry_equiv_pos_site_id
 _symmetry_equiv_pos_as_xyz
  1  'x, y, z'
loop_
 _atom_site_type_symbol
 _atom_site_label
 _atom_site_symmetry_multiplicity
 _atom_site_fract_x
 _atom_site_fract_y
 _atom_site_fract_z
 _atom_site_occupancy
  Hf  Hf0  1  0.250000  0.043678  0.333974  1
  Zr  Zr1  1  0.250000  0.543261  0.167354  1
  Zr  Zr2  1  0.750000  0.456758  0.833118  1
  Zr  Zr3  1  0.750000  0.961946  0.669302  1
  Ti  Ti4  1  0.250000  0.627145  0.559548  1
  Si  Si5  1  0.250000  0.756864  0.860233  1
  Si  Si6  1  0.250000  0.256724  0.636594  1
  Si  Si7  1  0.750000  0.241836  0.139958  1
  Si  Si8  1  0.750000  0.743599  0.360685  1
  W  W9  1  0.250000  0.130752  0.940297  1
  W  W10  1  0.750000  0.366378  0.438450  1
  W  W11  1  0.750000  0.871059  0.060487  1
