# generated using pymatgen
data_Tb2Ho2InPt
_symmetry_space_group_name_H-M   'P 1'
_cell_length_a   9.72731154
_cell_length_b   9.74138807
_cell_length_c   9.72618575
_cell_angle_alpha   59.94826726
_cell_angle_beta   59.87411508
_cell_angle_gamma   59.95212839
_symmetry_Int_Tables_number   1
_chemical_formula_structural   Tb2Ho2InPt
_chemical_formula_sum   'Tb8 Ho8 In4 Pt4'
_cell_volume   650.57840254
_cell_formula_units_Z   4
loop_
 _symmetry_equiv_pos_site_id
 _symmetry_equiv_pos_as_xyz
  1  'x, y, z'
loop_
 _atom_site_type_symbol
 _atom_site_label
 _atom_site_symmetry_multiplicity
 _atom_site_fract_x
 _atom_site_fract_y
 _atom_site_fract_z
 _atom_site_occupancy
  Tb  Tb0  1  0.186257  0.188792  0.812788  1
  Tb  Tb1  1  0.601268  0.600918  0.196894  1
  Tb  Tb2  1  0.440583  0.059664  0.440090  1
  Tb  Tb3  1  0.440806  0.440018  0.060058  1
  Tb  Tb4  1  0.813507  0.186716  0.813063  1
  Tb  Tb5  1  0.186374  0.812504  0.188618  1
  Tb  Tb6  1  0.440806  0.059118  0.060058  1
  Tb  Tb7  1  0.186257  0.812163  0.812788  1
  Ho  Ho8  1  0.058958  0.440693  0.059654  1
  Ho  Ho9  1  0.812977  0.811797  0.187568  1
  Ho  Ho10  1  0.196847  0.601336  0.600481  1
  Ho  Ho11  1  0.059493  0.440522  0.440698  1
  Ho  Ho12  1  0.059492  0.059288  0.440698  1
  Ho  Ho13  1  0.812977  0.187659  0.187568  1
  Ho  Ho14  1  0.600537  0.199024  0.599678  1
  Ho  Ho15  1  0.600538  0.600760  0.599678  1
  In  In16  1  0.833685  0.833077  0.832675  1
  In  In17  1  0.832688  0.832805  0.501703  1
  In  In18  1  0.503247  0.832554  0.831644  1
  In  In19  1  0.833686  0.500561  0.832675  1
  Pt  Pt20  1  0.391997  0.820242  0.394126  1
  Pt  Pt21  1  0.391997  0.393635  0.394126  1
  Pt  Pt22  1  0.823248  0.392175  0.392402  1
  Pt  Pt23  1  0.391776  0.393978  0.820269  1
