# generated using pymatgen
data_Ba2Sr(LiSb)4
_symmetry_space_group_name_H-M   'P 1'
_cell_length_a   9.33325777
_cell_length_b   9.33325745
_cell_length_c   9.33325742
_cell_angle_alpha   148.54951777
_cell_angle_beta   132.85056499
_cell_angle_gamma   57.77942975
_symmetry_Int_Tables_number   1
_chemical_formula_structural   Ba2Sr(LiSb)4
_chemical_formula_sum   'Ba2 Sr1 Li4 Sb4'
_cell_volume   308.63828048
_cell_formula_units_Z   1
loop_
 _symmetry_equiv_pos_site_id
 _symmetry_equiv_pos_as_xyz
  1  'x, y, z'
loop_
 _atom_site_type_symbol
 _atom_site_label
 _atom_site_symmetry_multiplicity
 _atom_site_fract_x
 _atom_site_fract_y
 _atom_site_fract_z
 _atom_site_occupancy
  Ba  Ba0  1  0.632082  0.132082  0.500000  1
  Ba  Ba1  1  0.367918  0.867918  0.500000  1
  Sr  Sr2  1  0.000000  0.000000  0.000000  1
  Li  Li3  1  0.981624  0.674882  0.306742  1
  Li  Li4  1  0.018376  0.325118  0.693258  1
  Li  Li5  1  0.631861  0.325118  0.306742  1
  Li  Li6  1  0.368139  0.674882  0.693258  1
  Sb  Sb7  1  0.789853  0.789853  0.000000  1
  Sb  Sb8  1  0.210147  0.210147  0.000000  1
  Sb  Sb9  1  0.693788  0.500000  0.193788  1
  Sb  Sb10  1  0.306212  0.500000  0.806212  1
