# generated using pymatgen
data_Sc4Tc24Sn
_symmetry_space_group_name_H-M   'P 1'
_cell_length_a   8.39575808
_cell_length_b   8.39575759
_cell_length_c   8.39575702
_cell_angle_alpha   109.47003267
_cell_angle_beta   109.47003838
_cell_angle_gamma   109.47004778
_symmetry_Int_Tables_number   1
_chemical_formula_structural   Sc4Tc24Sn
_chemical_formula_sum   'Sc4 Tc24 Sn1'
_cell_volume   455.59270970
_cell_formula_units_Z   1
loop_
 _symmetry_equiv_pos_site_id
 _symmetry_equiv_pos_as_xyz
  1  'x, y, z'
loop_
 _atom_site_type_symbol
 _atom_site_label
 _atom_site_symmetry_multiplicity
 _atom_site_fract_x
 _atom_site_fract_y
 _atom_site_fract_z
 _atom_site_occupancy
  Sc  Sc0  1  0.999484  0.627486  0.999484  1
  Sc  Sc1  1  0.627486  0.999484  0.999484  1
  Sc  Sc2  1  0.999484  0.999484  0.627486  1
  Sc  Sc3  1  0.997283  0.997283  0.997283  1
  Tc  Tc4  1  0.003053  0.393796  0.676363  1
  Tc  Tc5  1  0.279660  0.606892  0.606892  1
  Tc  Tc6  1  0.723725  0.325408  0.325408  1
  Tc  Tc7  1  0.325408  0.723725  0.325408  1
  Tc  Tc8  1  0.676363  0.003053  0.393796  1
  Tc  Tc9  1  0.003053  0.676363  0.393796  1
  Tc  Tc10  1  0.606892  0.606892  0.279660  1
  Tc  Tc11  1  0.806664  0.806664  0.179897  1
  Tc  Tc12  1  0.376301  0.192424  0.000737  1
  Tc  Tc13  1  0.192424  0.376301  0.000737  1
  Tc  Tc14  1  0.624101  0.817816  0.624101  1
  Tc  Tc15  1  0.376301  0.000737  0.192424  1
  Tc  Tc16  1  0.000737  0.376301  0.192424  1
  Tc  Tc17  1  0.817816  0.624101  0.624101  1
  Tc  Tc18  1  0.179897  0.806664  0.806664  1
  Tc  Tc19  1  0.806664  0.179897  0.806664  1
  Tc  Tc20  1  0.192424  0.000737  0.376301  1
  Tc  Tc21  1  0.000737  0.192424  0.376301  1
  Tc  Tc22  1  0.624101  0.624101  0.817816  1
  Tc  Tc23  1  0.393796  0.003053  0.676363  1
  Tc  Tc24  1  0.606892  0.279660  0.606892  1
  Tc  Tc25  1  0.676363  0.393796  0.003053  1
  Tc  Tc26  1  0.393796  0.676363  0.003053  1
  Tc  Tc27  1  0.325408  0.325408  0.723725  1
  Sn  Sn28  1  0.363687  0.363687  0.363687  1
