# generated using pymatgen
data_VBi(NF10)2
_symmetry_space_group_name_H-M   'P 1'
_cell_length_a   5.61750584
_cell_length_b   7.57880280
_cell_length_c   8.98435400
_cell_angle_alpha   88.78016168
_cell_angle_beta   109.33118577
_cell_angle_gamma   96.68679073
_symmetry_Int_Tables_number   1
_chemical_formula_structural   VBi(NF10)2
_chemical_formula_sum   'V1 Bi1 N2 F20'
_cell_volume   358.41860454
_cell_formula_units_Z   1
loop_
 _symmetry_equiv_pos_site_id
 _symmetry_equiv_pos_as_xyz
  1  'x, y, z'
loop_
 _atom_site_type_symbol
 _atom_site_label
 _atom_site_symmetry_multiplicity
 _atom_site_fract_x
 _atom_site_fract_y
 _atom_site_fract_z
 _atom_site_occupancy
  V  V0  1  0.994591  0.753466  0.294193  1
  Bi  Bi1  1  0.004189  0.245206  0.701579  1
  N  N2  1  0.299816  0.273301  0.214074  1
  N  N3  1  0.704247  0.726929  0.790182  1
  F  F4  1  0.062595  0.232504  0.213681  1
  F  F5  1  0.939392  0.767775  0.785373  1
  F  F6  1  0.375244  0.136351  0.155508  1
  F  F7  1  0.635155  0.862274  0.853959  1
  F  F8  1  0.922487  0.189978  0.905788  1
  F  F9  1  0.067640  0.801467  0.111342  1
  F  F10  1  0.085463  0.307546  0.501904  1
  F  F11  1  0.922159  0.701710  0.471725  1
  F  F12  1  0.763880  0.029244  0.591398  1
  F  F13  1  0.204517  0.948147  0.388591  1
  F  F14  1  0.300524  0.097217  0.789535  1
  F  F15  1  0.730924  0.884541  0.220566  1
  F  F16  1  0.222115  0.472174  0.813705  1
  F  F17  1  0.792697  0.552909  0.196590  1
  F  F18  1  0.701234  0.389733  0.632397  1
  F  F19  1  0.263538  0.624375  0.357945  1
  F  F20  1  0.701153  0.584054  0.879678  1
  F  F21  1  0.309724  0.415526  0.124481  1
  F  F22  1  0.540689  0.694567  0.644177  1
  F  F23  1  0.456029  0.309009  0.361633  1
