# generated using pymatgen
data_Ce5V3(Co4P3)4
_symmetry_space_group_name_H-M   'P 1'
_cell_length_a   12.10192000
_cell_length_b   12.10192023
_cell_length_c   3.72431500
_cell_angle_alpha   90.00000000
_cell_angle_beta   90.00000000
_cell_angle_gamma   119.99999390
_symmetry_Int_Tables_number   1
_chemical_formula_structural   Ce5V3(Co4P3)4
_chemical_formula_sum   'Ce5 V3 Co16 P12'
_cell_volume   472.37361144
_cell_formula_units_Z   1
loop_
 _symmetry_equiv_pos_site_id
 _symmetry_equiv_pos_as_xyz
  1  'x, y, z'
loop_
 _atom_site_type_symbol
 _atom_site_label
 _atom_site_symmetry_multiplicity
 _atom_site_fract_x
 _atom_site_fract_y
 _atom_site_fract_z
 _atom_site_occupancy
  Ce  Ce0  1  0.666667  0.333333  0.000000  1
  Ce  Ce1  1  0.333333  0.666667  0.000000  1
  Ce  Ce2  1  0.186728  0.186728  0.500000  1
  Ce  Ce3  1  0.813272  0.000000  0.500000  1
  Ce  Ce4  1  0.000000  0.813272  0.500000  1
  V  V5  1  0.557780  0.557780  0.000000  1
  V  V6  1  0.442220  0.000000  0.000000  1
  V  V7  1  0.000000  0.442220  0.000000  1
  Co  Co8  1  0.821572  0.198801  0.000000  1
  Co  Co9  1  0.801199  0.622771  0.000000  1
  Co  Co10  1  0.377229  0.178428  0.000000  1
  Co  Co11  1  0.198801  0.821572  0.000000  1
  Co  Co12  1  0.622771  0.801199  0.000000  1
  Co  Co13  1  0.178428  0.377229  0.000000  1
  Co  Co14  1  0.642697  0.125736  0.500000  1
  Co  Co15  1  0.874264  0.516961  0.500000  1
  Co  Co16  1  0.483039  0.357303  0.500000  1
  Co  Co17  1  0.125736  0.642697  0.500000  1
  Co  Co18  1  0.516961  0.874264  0.500000  1
  Co  Co19  1  0.357303  0.483039  0.500000  1
  Co  Co20  1  0.718556  0.718556  0.500000  1
  Co  Co21  1  0.281444  0.000000  0.500000  1
  Co  Co22  1  0.000000  0.281444  0.500000  1
  Co  Co23  1  0.000000  0.000000  0.000000  1
  P  P24  1  0.368612  0.368612  0.000000  1
  P  P25  1  0.631388  0.000000  0.000000  1
  P  P26  1  0.000000  0.631388  0.000000  1
  P  P27  1  0.837543  0.314574  0.500000  1
  P  P28  1  0.685426  0.522969  0.500000  1
  P  P29  1  0.477031  0.162457  0.500000  1
  P  P30  1  0.314574  0.837543  0.500000  1
  P  P31  1  0.522969  0.685426  0.500000  1
  P  P32  1  0.162457  0.477031  0.500000  1
  P  P33  1  0.817744  0.817744  0.000000  1
  P  P34  1  0.182256  0.000000  0.000000  1
  P  P35  1  0.000000  0.182256  0.000000  1
