# generated using pymatgen
data_TaNb7Fe5Co2Si14Rh
_symmetry_space_group_name_H-M   'P 1'
_cell_length_a   9.27047048
_cell_length_b   9.28386855
_cell_length_c   9.28140200
_cell_angle_alpha   94.33235879
_cell_angle_beta   94.25561762
_cell_angle_gamma   148.23163381
_symmetry_Int_Tables_number   1
_chemical_formula_structural   TaNb7Fe5Co2Si14Rh
_chemical_formula_sum   'Ta1 Nb7 Fe5 Co2 Si14 Rh1'
_cell_volume   404.51989921
_cell_formula_units_Z   1
loop_
 _symmetry_equiv_pos_site_id
 _symmetry_equiv_pos_as_xyz
  1  'x, y, z'
loop_
 _atom_site_type_symbol
 _atom_site_label
 _atom_site_symmetry_multiplicity
 _atom_site_fract_x
 _atom_site_fract_y
 _atom_site_fract_z
 _atom_site_occupancy
  Ta  Ta0  1  0.309179  0.499150  0.808469  1
  Nb  Nb1  1  0.692767  0.502089  0.192666  1
  Nb  Nb2  1  0.499743  0.690486  0.192331  1
  Nb  Nb3  1  0.498881  0.309461  0.808487  1
  Nb  Nb4  1  0.134601  0.134765  0.269505  1
  Nb  Nb5  1  0.865055  0.865429  0.730613  1
  Nb  Nb6  1  0.135792  0.866843  0.001609  1
  Nb  Nb7  1  0.865776  0.134437  0.001362  1
  Fe  Fe8  1  0.104363  0.604385  0.208917  1
  Fe  Fe9  1  0.899618  0.096210  0.497502  1
  Fe  Fe10  1  0.597908  0.401254  0.496959  1
  Fe  Fe11  1  0.598027  0.098014  0.195858  1
  Fe  Fe12  1  0.901908  0.401180  0.802938  1
  Co  Co13  1  0.103759  0.898805  0.501233  1
  Co  Co14  1  0.397592  0.602579  0.501775  1
  Si  Si15  1  0.290657  0.290317  0.581165  1
  Si  Si16  1  0.709056  0.709042  0.417795  1
  Si  Si17  1  0.283131  0.698940  0.004558  1
  Si  Si18  1  0.721252  0.305576  0.004254  1
  Si  Si19  1  0.061741  0.465095  0.589698  1
  Si  Si20  1  0.896922  0.491105  0.405297  1
  Si  Si21  1  0.508369  0.914402  0.405328  1
  Si  Si22  1  0.527803  0.124703  0.589861  1
  Si  Si23  1  0.248975  0.248936  0.000237  1
  Si  Si24  1  0.751276  0.751329  0.000222  1
  Si  Si25  1  0.301750  0.004483  0.297534  1
  Si  Si26  1  0.720577  0.012305  0.702184  1
  Si  Si27  1  0.981658  0.689827  0.702030  1
  Si  Si28  1  0.995570  0.292927  0.297475  1
  Rh  Rh29  1  0.396297  0.895920  0.792133  1
