# generated using pymatgen
data_Pa6FeCo17P12
_symmetry_space_group_name_H-M   'P 1'
_cell_length_a   3.78154100
_cell_length_b   10.41721500
_cell_length_c   12.28937700
_cell_angle_alpha   90.00000000
_cell_angle_beta   90.00000000
_cell_angle_gamma   90.00000000
_symmetry_Int_Tables_number   1
_chemical_formula_structural   Pa6FeCo17P12
_chemical_formula_sum   'Pa6 Fe1 Co17 P12'
_cell_volume   484.11697205
_cell_formula_units_Z   1
loop_
 _symmetry_equiv_pos_site_id
 _symmetry_equiv_pos_as_xyz
  1  'x, y, z'
loop_
 _atom_site_type_symbol
 _atom_site_label
 _atom_site_symmetry_multiplicity
 _atom_site_fract_x
 _atom_site_fract_y
 _atom_site_fract_z
 _atom_site_occupancy
  Pa  Pa0  1  0.000000  0.500000  0.521609  1
  Pa  Pa1  1  0.500000  0.000000  0.477644  1
  Pa  Pa2  1  0.500000  0.815824  0.208409  1
  Pa  Pa3  1  0.500000  0.184176  0.208409  1
  Pa  Pa4  1  0.000000  0.684409  0.792638  1
  Pa  Pa5  1  0.000000  0.315591  0.792638  1
  Fe  Fe6  1  0.500000  0.500000  0.153875  1
  Co  Co7  1  0.000000  0.500000  0.980324  1
  Co  Co8  1  0.500000  0.000000  0.021940  1
  Co  Co9  1  0.500000  0.303172  0.430123  1
  Co  Co10  1  0.500000  0.696828  0.430123  1
  Co  Co11  1  0.000000  0.195678  0.571791  1
  Co  Co12  1  0.000000  0.804322  0.571791  1
  Co  Co13  1  0.500000  0.876808  0.713474  1
  Co  Co14  1  0.500000  0.123192  0.713474  1
  Co  Co15  1  0.000000  0.623094  0.285744  1
  Co  Co16  1  0.000000  0.376906  0.285744  1
  Co  Co17  1  0.500000  0.331446  0.993295  1
  Co  Co18  1  0.500000  0.668554  0.993295  1
  Co  Co19  1  0.000000  0.166523  0.006292  1
  Co  Co20  1  0.000000  0.833477  0.006292  1
  Co  Co21  1  0.000000  0.000000  0.841755  1
  Co  Co22  1  0.500000  0.500000  0.699258  1
  Co  Co23  1  0.000000  0.000000  0.300642  1
  P  P24  1  0.500000  0.308786  0.612825  1
  P  P25  1  0.500000  0.691214  0.612825  1
  P  P26  1  0.000000  0.191161  0.387490  1
  P  P27  1  0.000000  0.808839  0.387490  1
  P  P28  1  0.500000  0.500000  0.880442  1
  P  P29  1  0.000000  0.000000  0.120236  1
  P  P30  1  0.500000  0.851257  0.896847  1
  P  P31  1  0.500000  0.148743  0.896847  1
  P  P32  1  0.000000  0.650896  0.102645  1
  P  P33  1  0.000000  0.349104  0.102645  1
  P  P34  1  0.500000  0.500000  0.338196  1
  P  P35  1  0.000000  0.000000  0.660932  1
