# generated using pymatgen
data_Hf5Zr5Ga2(Sn2Bi)2
_symmetry_space_group_name_H-M   'P 1'
_cell_length_a   8.75174601
_cell_length_b   8.73895358
_cell_length_c   5.88223800
_cell_angle_alpha   90.00000000
_cell_angle_beta   90.00000000
_cell_angle_gamma   119.95166462
_symmetry_Int_Tables_number   1
_chemical_formula_structural   Hf5Zr5Ga2(Sn2Bi)2
_chemical_formula_sum   'Hf5 Zr5 Ga2 Sn4 Bi2'
_cell_volume   389.79717150
_cell_formula_units_Z   1
loop_
 _symmetry_equiv_pos_site_id
 _symmetry_equiv_pos_as_xyz
  1  'x, y, z'
loop_
 _atom_site_type_symbol
 _atom_site_label
 _atom_site_symmetry_multiplicity
 _atom_site_fract_x
 _atom_site_fract_y
 _atom_site_fract_z
 _atom_site_occupancy
  Hf  Hf0  1  0.000000  0.729698  0.250000  1
  Hf  Hf1  1  0.670378  0.336458  0.003789  1
  Hf  Hf2  1  0.329622  0.666081  0.003789  1
  Hf  Hf3  1  0.329622  0.666081  0.496211  1
  Hf  Hf4  1  0.670378  0.336458  0.496211  1
  Zr  Zr5  1  0.740896  0.734577  0.750000  1
  Zr  Zr6  1  0.259104  0.993681  0.750000  1
  Zr  Zr7  1  0.000000  0.264947  0.750000  1
  Zr  Zr8  1  0.268229  0.269837  0.250000  1
  Zr  Zr9  1  0.731771  0.001607  0.250000  1
  Ga  Ga10  1  0.000000  0.999525  0.007918  1
  Ga  Ga11  1  0.000000  0.999525  0.492082  1
  Sn  Sn12  1  0.000000  0.607626  0.750000  1
  Sn  Sn13  1  0.613228  0.613928  0.250000  1
  Sn  Sn14  1  0.386772  0.000700  0.250000  1
  Sn  Sn15  1  0.000000  0.389203  0.250000  1
  Bi  Bi16  1  0.391451  0.390760  0.750000  1
  Bi  Bi17  1  0.608549  0.999309  0.750000  1
