# generated using pymatgen
data_Tb2Dy3Sn3Bi
_symmetry_space_group_name_H-M   'P 1'
_cell_length_a   8.14976300
_cell_length_b   8.17081300
_cell_length_c   15.41522900
_cell_angle_alpha   90.00000000
_cell_angle_beta   90.00000000
_cell_angle_gamma   90.00000000
_symmetry_Int_Tables_number   1
_chemical_formula_structural   Tb2Dy3Sn3Bi
_chemical_formula_sum   'Tb8 Dy12 Sn12 Bi4'
_cell_volume   1026.50301979
_cell_formula_units_Z   4
loop_
 _symmetry_equiv_pos_site_id
 _symmetry_equiv_pos_as_xyz
  1  'x, y, z'
loop_
 _atom_site_type_symbol
 _atom_site_label
 _atom_site_symmetry_multiplicity
 _atom_site_fract_x
 _atom_site_fract_y
 _atom_site_fract_z
 _atom_site_occupancy
  Tb  Tb0  1  0.538575  0.324743  0.897064  1
  Tb  Tb1  1  0.038575  0.175257  0.602936  1
  Tb  Tb2  1  0.461425  0.675257  0.397064  1
  Tb  Tb3  1  0.961425  0.824743  0.102936  1
  Tb  Tb4  1  0.479183  0.675498  0.101317  1
  Tb  Tb5  1  0.979183  0.824502  0.398683  1
  Tb  Tb6  1  0.520817  0.324502  0.601317  1
  Tb  Tb7  1  0.020817  0.175498  0.898683  1
  Dy  Dy8  1  0.373789  0.839737  0.875089  1
  Dy  Dy9  1  0.873789  0.660263  0.624911  1
  Dy  Dy10  1  0.626211  0.160263  0.375089  1
  Dy  Dy11  1  0.126211  0.339737  0.124911  1
  Dy  Dy12  1  0.634884  0.162929  0.123322  1
  Dy  Dy13  1  0.134884  0.337071  0.376678  1
  Dy  Dy14  1  0.365116  0.837071  0.623322  1
  Dy  Dy15  1  0.865116  0.662929  0.876678  1
  Dy  Dy16  1  0.198428  0.500636  0.747066  1
  Dy  Dy17  1  0.698428  0.999364  0.752934  1
  Dy  Dy18  1  0.801572  0.499364  0.247066  1
  Dy  Dy19  1  0.301572  0.000636  0.252934  1
  Sn  Sn20  1  0.710900  0.965540  0.957894  1
  Sn  Sn21  1  0.210900  0.534460  0.542106  1
  Sn  Sn22  1  0.289100  0.034460  0.457894  1
  Sn  Sn23  1  0.789100  0.465540  0.042106  1
  Sn  Sn24  1  0.565038  0.621028  0.748541  1
  Sn  Sn25  1  0.065038  0.878972  0.751459  1
  Sn  Sn26  1  0.434962  0.378972  0.248541  1
  Sn  Sn27  1  0.934962  0.121028  0.251459  1
  Sn  Sn28  1  0.335378  0.147994  0.751242  1
  Sn  Sn29  1  0.835378  0.352006  0.748758  1
  Sn  Sn30  1  0.664622  0.852006  0.251242  1
  Sn  Sn31  1  0.164622  0.647994  0.248758  1
  Bi  Bi32  1  0.285286  0.033391  0.042418  1
  Bi  Bi33  1  0.785286  0.466609  0.457582  1
  Bi  Bi34  1  0.714714  0.966609  0.542418  1
  Bi  Bi35  1  0.214714  0.533391  0.957582  1
