# generated using pymatgen
data_Zr4Ta2C5
_symmetry_space_group_name_H-M   'P 1'
_cell_length_a   5.66517271
_cell_length_b   5.66517370
_cell_length_c   5.70401007
_cell_angle_alpha   79.60561636
_cell_angle_beta   79.60562004
_cell_angle_gamma   119.19252093
_symmetry_Int_Tables_number   1
_chemical_formula_structural   Zr4Ta2C5
_chemical_formula_sum   'Zr4 Ta2 C5'
_cell_volume   149.31293755
_cell_formula_units_Z   1
loop_
 _symmetry_equiv_pos_site_id
 _symmetry_equiv_pos_as_xyz
  1  'x, y, z'
loop_
 _atom_site_type_symbol
 _atom_site_label
 _atom_site_symmetry_multiplicity
 _atom_site_fract_x
 _atom_site_fract_y
 _atom_site_fract_z
 _atom_site_occupancy
  Zr  Zr0  1  0.079444  0.428709  0.750821  1
  Zr  Zr1  1  0.571291  0.920556  0.249179  1
  Zr  Zr2  1  0.920556  0.571291  0.249179  1
  Zr  Zr3  1  0.428709  0.079444  0.750821  1
  Ta  Ta4  1  0.729803  0.729803  0.728061  1
  Ta  Ta5  1  0.270197  0.270197  0.271939  1
  C  C6  1  0.500000  0.500000  0.500000  1
  C  C7  1  0.658320  0.341680  0.000000  1
  C  C8  1  0.341680  0.658320  0.000000  1
  C  C9  1  0.839392  0.160608  0.500000  1
  C  C10  1  0.160608  0.839392  0.500000  1
