# generated using pymatgen
data_Pr3Nd3Co17MoP12
_symmetry_space_group_name_H-M   'P 1'
_cell_length_a   3.78469300
_cell_length_b   10.70000504
_cell_length_c   12.45149905
_cell_angle_alpha   89.99021435
_cell_angle_beta   90.00000000
_cell_angle_gamma   90.00000000
_symmetry_Int_Tables_number   1
_chemical_formula_structural   Pr3Nd3Co17MoP12
_chemical_formula_sum   'Pr3 Nd3 Co17 Mo1 P12'
_cell_volume   504.23881377
_cell_formula_units_Z   1
loop_
 _symmetry_equiv_pos_site_id
 _symmetry_equiv_pos_as_xyz
  1  'x, y, z'
loop_
 _atom_site_type_symbol
 _atom_site_label
 _atom_site_symmetry_multiplicity
 _atom_site_fract_x
 _atom_site_fract_y
 _atom_site_fract_z
 _atom_site_occupancy
  Pr  Pr0  1  0.000000  0.500123  0.523637  1
  Pr  Pr1  1  0.500000  0.999920  0.479398  1
  Pr  Pr2  1  0.000000  0.316994  0.795200  1
  Nd  Nd3  1  0.500000  0.818362  0.206490  1
  Nd  Nd4  1  0.500000  0.181579  0.206302  1
  Nd  Nd5  1  0.000000  0.683389  0.795232  1
  Co  Co6  1  0.000000  0.999843  0.842293  1
  Co  Co7  1  0.500000  0.500662  0.704368  1
  Co  Co8  1  0.000000  0.999938  0.294309  1
  Co  Co9  1  0.000000  0.500272  0.987453  1
  Co  Co10  1  0.500000  0.999757  0.012827  1
  Co  Co11  1  0.500000  0.331464  0.992646  1
  Co  Co12  1  0.500000  0.668761  0.992364  1
  Co  Co13  1  0.000000  0.165277  0.004930  1
  Co  Co14  1  0.000000  0.834535  0.004744  1
  Co  Co15  1  0.500000  0.295987  0.430511  1
  Co  Co16  1  0.500000  0.704031  0.430762  1
  Co  Co17  1  0.000000  0.203338  0.569540  1
  Co  Co18  1  0.000000  0.796481  0.569960  1
  Co  Co19  1  0.500000  0.881593  0.710873  1
  Co  Co20  1  0.500000  0.117819  0.710580  1
  Co  Co21  1  0.000000  0.619525  0.290425  1
  Co  Co22  1  0.000000  0.380495  0.290325  1
  Mo  Mo23  1  0.500000  0.500049  0.154028  1
  P  P24  1  0.500000  0.500645  0.885807  1
  P  P25  1  0.000000  0.999887  0.112936  1
  P  P26  1  0.500000  0.499978  0.343779  1
  P  P27  1  0.000000  0.999954  0.661791  1
  P  P28  1  0.500000  0.304946  0.614270  1
  P  P29  1  0.500000  0.694923  0.615098  1
  P  P30  1  0.000000  0.193978  0.386035  1
  P  P31  1  0.000000  0.805935  0.386222  1
  P  P32  1  0.500000  0.850355  0.894381  1
  P  P33  1  0.500000  0.149101  0.894778  1
  P  P34  1  0.000000  0.655123  0.102921  1
  P  P35  1  0.000000  0.344981  0.102789  1
