# generated using pymatgen
data_Ta3Nb(Si4Pt3)4
_symmetry_space_group_name_H-M   'P 1'
_cell_length_a   3.59876900
_cell_length_b   5.56001999
_cell_length_c   24.78994546
_cell_angle_alpha   90.00382042
_cell_angle_beta   90.00000000
_cell_angle_gamma   90.00000000
_symmetry_Int_Tables_number   1
_chemical_formula_structural   Ta3Nb(Si4Pt3)4
_chemical_formula_sum   'Ta3 Nb1 Si16 Pt12'
_cell_volume   496.02765954
_cell_formula_units_Z   1
loop_
 _symmetry_equiv_pos_site_id
 _symmetry_equiv_pos_as_xyz
  1  'x, y, z'
loop_
 _atom_site_type_symbol
 _atom_site_label
 _atom_site_symmetry_multiplicity
 _atom_site_fract_x
 _atom_site_fract_y
 _atom_site_fract_z
 _atom_site_occupancy
  Ta  Ta0  1  0.250000  0.502876  0.710825  1
  Ta  Ta1  1  0.750000  0.996675  0.211093  1
  Ta  Ta2  1  0.250000  0.003091  0.789009  1
  Nb  Nb3  1  0.750000  0.496472  0.288862  1
  Si  Si4  1  0.250000  0.180170  0.519926  1
  Si  Si5  1  0.750000  0.319534  0.020673  1
  Si  Si6  1  0.250000  0.679653  0.980189  1
  Si  Si7  1  0.750000  0.820071  0.479391  1
  Si  Si8  1  0.750000  0.315607  0.644607  1
  Si  Si9  1  0.250000  0.184047  0.145311  1
  Si  Si10  1  0.750000  0.815062  0.855233  1
  Si  Si11  1  0.250000  0.686677  0.354518  1
  Si  Si12  1  0.250000  0.657040  0.608312  1
  Si  Si13  1  0.750000  0.843356  0.108851  1
  Si  Si14  1  0.250000  0.157424  0.891662  1
  Si  Si15  1  0.750000  0.343220  0.391305  1
  Si  Si16  1  0.750000  0.837838  0.723507  1
  Si  Si17  1  0.250000  0.660179  0.223614  1
  Si  Si18  1  0.750000  0.337869  0.776401  1
  Si  Si19  1  0.250000  0.162724  0.276714  1
  Pt  Pt20  1  0.750000  0.002615  0.572480  1
  Pt  Pt21  1  0.250000  0.496906  0.073143  1
  Pt  Pt22  1  0.750000  0.502884  0.927597  1
  Pt  Pt23  1  0.250000  0.997541  0.427066  1
  Pt  Pt24  1  0.250000  0.005357  0.667340  1
  Pt  Pt25  1  0.750000  0.494573  0.167493  1
  Pt  Pt26  1  0.250000  0.505560  0.832592  1
  Pt  Pt27  1  0.750000  0.995015  0.332553  1
  Pt  Pt28  1  0.750000  0.504676  0.547223  1
  Pt  Pt29  1  0.250000  0.995011  0.047971  1
  Pt  Pt30  1  0.750000  0.004902  0.952580  1
  Pt  Pt31  1  0.250000  0.495373  0.451960  1
