# generated using pymatgen
data_Hf4Al5Tc2Au
_symmetry_space_group_name_H-M   'P 1'
_cell_length_a   5.30465500
_cell_length_b   5.22984310
_cell_length_c   8.65559300
_cell_angle_alpha   90.00000000
_cell_angle_beta   90.00000000
_cell_angle_gamma   120.47433187
_symmetry_Int_Tables_number   1
_chemical_formula_structural   Hf4Al5Tc2Au
_chemical_formula_sum   'Hf4 Al5 Tc2 Au1'
_cell_volume   206.95578281
_cell_formula_units_Z   1
loop_
 _symmetry_equiv_pos_site_id
 _symmetry_equiv_pos_as_xyz
  1  'x, y, z'
loop_
 _atom_site_type_symbol
 _atom_site_label
 _atom_site_symmetry_multiplicity
 _atom_site_fract_x
 _atom_site_fract_y
 _atom_site_fract_z
 _atom_site_occupancy
  Hf  Hf0  1  0.335561  0.671123  0.429309  1
  Hf  Hf1  1  0.663514  0.327028  0.947366  1
  Hf  Hf2  1  0.663514  0.327028  0.552634  1
  Hf  Hf3  1  0.335561  0.671123  0.070691  1
  Al  Al4  1  0.653876  0.821460  0.750000  1
  Al  Al5  1  0.004017  0.008035  0.001858  1
  Al  Al6  1  0.004017  0.008035  0.498142  1
  Al  Al7  1  0.831105  0.662210  0.250000  1
  Al  Al8  1  0.167582  0.821460  0.750000  1
  Tc  Tc9  1  0.836967  0.174380  0.250000  1
  Tc  Tc10  1  0.337414  0.174380  0.250000  1
  Au  Au11  1  0.166870  0.333741  0.750000  1
