# generated using pymatgen
data_CaNd4Si2Ge
_symmetry_space_group_name_H-M   'P 1'
_cell_length_a   7.76420000
_cell_length_b   8.96206409
_cell_length_c   7.76420000
_cell_angle_alpha   115.66893141
_cell_angle_beta   90.00000000
_cell_angle_gamma   115.66893141
_symmetry_Int_Tables_number   1
_chemical_formula_structural   CaNd4Si2Ge
_chemical_formula_sum   'Ca2 Nd8 Si4 Ge2'
_cell_volume   427.01834946
_cell_formula_units_Z   2
loop_
 _symmetry_equiv_pos_site_id
 _symmetry_equiv_pos_as_xyz
  1  'x, y, z'
loop_
 _atom_site_type_symbol
 _atom_site_label
 _atom_site_symmetry_multiplicity
 _atom_site_fract_x
 _atom_site_fract_y
 _atom_site_fract_z
 _atom_site_occupancy
  Ca  Ca0  1  0.000000  0.000000  0.000000  1
  Ca  Ca1  1  0.500000  0.000000  0.500000  1
  Nd  Nd2  1  0.532006  0.710370  0.678364  1
  Nd  Nd3  1  0.178364  0.710370  0.032006  1
  Nd  Nd4  1  0.678364  0.710370  0.178364  1
  Nd  Nd5  1  0.032006  0.710370  0.532006  1
  Nd  Nd6  1  0.467994  0.289630  0.321636  1
  Nd  Nd7  1  0.821636  0.289630  0.967994  1
  Nd  Nd8  1  0.321636  0.289630  0.821636  1
  Nd  Nd9  1  0.967994  0.289630  0.467994  1
  Si  Si10  1  0.885487  0.000000  0.614513  1
  Si  Si11  1  0.114513  0.000000  0.385487  1
  Si  Si12  1  0.614513  0.000000  0.114513  1
  Si  Si13  1  0.385487  0.000000  0.885487  1
  Ge  Ge14  1  0.750000  0.500000  0.750000  1
  Ge  Ge15  1  0.250000  0.500000  0.250000  1
