# generated using pymatgen
data_La9Nd(Si2Pb)2
_symmetry_space_group_name_H-M   'P 1'
_cell_length_a   9.44519573
_cell_length_b   9.44519642
_cell_length_c   9.44519700
_cell_angle_alpha   129.16011365
_cell_angle_beta   129.16011705
_cell_angle_gamma   74.75307710
_symmetry_Int_Tables_number   1
_chemical_formula_structural   La9Nd(Si2Pb)2
_chemical_formula_sum   'La9 Nd1 Si4 Pb2'
_cell_volume   493.50975628
_cell_formula_units_Z   1
loop_
 _symmetry_equiv_pos_site_id
 _symmetry_equiv_pos_as_xyz
  1  'x, y, z'
loop_
 _atom_site_type_symbol
 _atom_site_label
 _atom_site_symmetry_multiplicity
 _atom_site_fract_x
 _atom_site_fract_y
 _atom_site_fract_z
 _atom_site_occupancy
  La  La0  1  0.535015  0.036143  0.847207  1
  La  La1  1  0.188935  0.687806  0.152793  1
  La  La2  1  0.036143  0.188935  0.501128  1
  La  La3  1  0.687806  0.535015  0.498872  1
  La  La4  1  0.464985  0.963857  0.152793  1
  La  La5  1  0.811065  0.312194  0.847207  1
  La  La6  1  0.963857  0.811065  0.498872  1
  La  La7  1  0.312194  0.464985  0.501128  1
  La  La8  1  0.000000  0.000000  0.000000  1
  Nd  Nd9  1  0.500000  0.500000  0.000000  1
  Si  Si10  1  0.882786  0.382875  0.265661  1
  Si  Si11  1  0.117214  0.617125  0.734339  1
  Si  Si12  1  0.382875  0.117214  0.500090  1
  Si  Si13  1  0.617125  0.882786  0.499910  1
  Pb  Pb14  1  0.249053  0.249053  0.000000  1
  Pb  Pb15  1  0.750947  0.750947  0.000000  1
