# generated using pymatgen
data_Pr5GdTl5InO18
_symmetry_space_group_name_H-M   'P 1'
_cell_length_a   6.71395522
_cell_length_b   6.71259183
_cell_length_c   12.60101173
_cell_angle_alpha   90.12326233
_cell_angle_beta   89.75352478
_cell_angle_gamma   120.00670918
_symmetry_Int_Tables_number   1
_chemical_formula_structural   Pr5GdTl5InO18
_chemical_formula_sum   'Pr5 Gd1 Tl5 In1 O18'
_cell_volume   491.78054618
_cell_formula_units_Z   1
loop_
 _symmetry_equiv_pos_site_id
 _symmetry_equiv_pos_as_xyz
  1  'x, y, z'
loop_
 _atom_site_type_symbol
 _atom_site_label
 _atom_site_symmetry_multiplicity
 _atom_site_fract_x
 _atom_site_fract_y
 _atom_site_fract_z
 _atom_site_occupancy
  Pr  Pr0  1  0.665596  0.329984  0.961288  1
  Pr  Pr1  1  0.338274  0.670355  0.459716  1
  Pr  Pr2  1  0.667921  0.329645  0.459716  1
  Pr  Pr3  1  0.335611  0.670016  0.961288  1
  Pr  Pr4  1  0.995370  0.000000  0.998463  1
  Gd  Gd5  1  0.997009  0.000000  0.493649  1
  Tl  Tl6  1  0.668095  0.667030  0.724935  1
  Tl  Tl7  1  0.001065  0.332970  0.724935  1
  Tl  Tl8  1  0.332698  0.332244  0.227555  1
  Tl  Tl9  1  0.000454  0.667756  0.227555  1
  Tl  Tl10  1  0.331188  0.000000  0.724706  1
  In  In11  1  0.667211  0.000000  0.227950  1
  O  O12  1  0.692243  0.691594  0.899503  1
  O  O13  1  0.000649  0.308406  0.899503  1
  O  O14  1  0.301961  0.301840  0.398773  1
  O  O15  1  0.000121  0.698160  0.398773  1
  O  O16  1  0.306081  0.000000  0.899192  1
  O  O17  1  0.702283  0.000000  0.399118  1
  O  O18  1  0.648015  0.646801  0.552372  1
  O  O19  1  0.001214  0.353199  0.552372  1
  O  O20  1  0.358852  0.359253  0.057778  1
  O  O21  1  0.999600  0.640747  0.057778  1
  O  O22  1  0.351942  0.000000  0.552056  1
  O  O23  1  0.636727  0.000000  0.058807  1
  O  O24  1  0.999345  0.000000  0.687587  1
  O  O25  1  0.984046  0.000000  0.195013  1
  O  O26  1  0.666640  0.332479  0.757392  1
  O  O27  1  0.348898  0.682169  0.258310  1
  O  O28  1  0.666730  0.317831  0.258310  1
  O  O29  1  0.334160  0.667521  0.757392  1
