# generated using pymatgen
data_LaHo4(MnB3)2
_symmetry_space_group_name_H-M   'P 1'
_cell_length_a   5.42709382
_cell_length_b   5.42709441
_cell_length_c   8.32598300
_cell_angle_alpha   70.97910235
_cell_angle_beta   70.97910134
_cell_angle_gamma   60.00000764
_symmetry_Int_Tables_number   1
_chemical_formula_structural   LaHo4(MnB3)2
_chemical_formula_sum   'La1 Ho4 Mn2 B6'
_cell_volume   196.76109814
_cell_formula_units_Z   1
loop_
 _symmetry_equiv_pos_site_id
 _symmetry_equiv_pos_as_xyz
  1  'x, y, z'
loop_
 _atom_site_type_symbol
 _atom_site_label
 _atom_site_symmetry_multiplicity
 _atom_site_fract_x
 _atom_site_fract_y
 _atom_site_fract_z
 _atom_site_occupancy
  La  La0  1  0.000000  0.000000  0.000000  1
  Ho  Ho1  1  0.249264  0.249264  0.252208  1
  Ho  Ho2  1  0.750736  0.750736  0.747792  1
  Ho  Ho3  1  0.417964  0.417964  0.746109  1
  Ho  Ho4  1  0.582036  0.582036  0.253891  1
  Mn  Mn5  1  0.114585  0.114585  0.656246  1
  Mn  Mn6  1  0.885415  0.885415  0.343754  1
  B  B7  1  0.166442  0.833558  0.500000  1
  B  B8  1  0.833558  0.500000  0.500000  1
  B  B9  1  0.500000  0.166442  0.500000  1
  B  B10  1  0.166442  0.500000  0.500000  1
  B  B11  1  0.500000  0.833558  0.500000  1
  B  B12  1  0.833558  0.166442  0.500000  1
