# generated using pymatgen
data_Li2Y2Co9As7Ru
_symmetry_space_group_name_H-M   'P 1'
_cell_length_a   3.79757000
_cell_length_b   9.37246556
_cell_length_c   9.40476861
_cell_angle_alpha   119.59564420
_cell_angle_beta   90.00000000
_cell_angle_gamma   90.00000000
_symmetry_Int_Tables_number   1
_chemical_formula_structural   Li2Y2Co9As7Ru
_chemical_formula_sum   'Li2 Y2 Co9 As7 Ru1'
_cell_volume   291.06739827
_cell_formula_units_Z   1
loop_
 _symmetry_equiv_pos_site_id
 _symmetry_equiv_pos_as_xyz
  1  'x, y, z'
loop_
 _atom_site_type_symbol
 _atom_site_label
 _atom_site_symmetry_multiplicity
 _atom_site_fract_x
 _atom_site_fract_y
 _atom_site_fract_z
 _atom_site_occupancy
  Li  Li0  1  0.500000  0.783872  0.892158  1
  Li  Li1  1  0.500000  0.110936  0.215339  1
  Y  Y2  1  0.000000  0.662674  0.328041  1
  Y  Y3  1  0.500000  0.331472  0.667624  1
  Co  Co4  1  0.000000  0.564801  0.944253  1
  Co  Co5  1  0.000000  0.379779  0.435809  1
  Co  Co6  1  0.000000  0.057253  0.626939  1
  Co  Co7  1  0.000000  0.877156  0.160127  1
  Co  Co8  1  0.000000  0.285112  0.123459  1
  Co  Co9  1  0.000000  0.842460  0.717935  1
  Co  Co10  1  0.500000  0.952518  0.386649  1
  Co  Co11  1  0.500000  0.435761  0.054532  1
  Co  Co12  1  0.500000  0.617651  0.568056  1
  As  As13  1  0.000000  0.003615  0.999013  1
  As  As14  1  0.500000  0.710616  0.112525  1
  As  As15  1  0.500000  0.403982  0.294365  1
  As  As16  1  0.500000  0.881996  0.591525  1
  As  As17  1  0.000000  0.588628  0.704989  1
  As  As18  1  0.000000  0.116151  0.411719  1
  As  As19  1  0.000000  0.294995  0.885923  1
  Ru  Ru20  1  0.500000  0.098572  0.879022  1
