# generated using pymatgen
data_La3Zn3Pd2Ru
_symmetry_space_group_name_H-M   'P 1'
_cell_length_a   7.43804600
_cell_length_b   7.43804705
_cell_length_c   4.07626100
_cell_angle_alpha   90.00000000
_cell_angle_beta   90.00000000
_cell_angle_gamma   119.99999534
_symmetry_Int_Tables_number   1
_chemical_formula_structural   La3Zn3Pd2Ru
_chemical_formula_sum   'La3 Zn3 Pd2 Ru1'
_cell_volume   195.30367562
_cell_formula_units_Z   1
loop_
 _symmetry_equiv_pos_site_id
 _symmetry_equiv_pos_as_xyz
  1  'x, y, z'
loop_
 _atom_site_type_symbol
 _atom_site_label
 _atom_site_symmetry_multiplicity
 _atom_site_fract_x
 _atom_site_fract_y
 _atom_site_fract_z
 _atom_site_occupancy
  La  La0  1  0.423562  0.410354  0.000000  1
  La  La1  1  0.589646  0.013208  0.000000  1
  La  La2  1  0.986792  0.576438  0.000000  1
  Zn  Zn3  1  0.761409  0.760461  0.500000  1
  Zn  Zn4  1  0.239539  0.000948  0.500000  1
  Zn  Zn5  1  0.999052  0.238591  0.500000  1
  Pd  Pd6  1  0.000000  0.000000  0.000000  1
  Pd  Pd7  1  0.333333  0.666667  0.500000  1
  Ru  Ru8  1  0.666667  0.333333  0.500000  1
