# generated using pymatgen
data_Sm2Sc3Si7(Pt2Rh)3
_symmetry_space_group_name_H-M   'P 1'
_cell_length_a   10.07225700
_cell_length_b   10.07225774
_cell_length_c   3.95279100
_cell_angle_alpha   90.00000000
_cell_angle_beta   90.00000000
_cell_angle_gamma   120.00000086
_symmetry_Int_Tables_number   1
_chemical_formula_structural   Sm2Sc3Si7(Pt2Rh)3
_chemical_formula_sum   'Sm2 Sc3 Si7 Pt6 Rh3'
_cell_volume   347.28666596
_cell_formula_units_Z   1
loop_
 _symmetry_equiv_pos_site_id
 _symmetry_equiv_pos_as_xyz
  1  'x, y, z'
loop_
 _atom_site_type_symbol
 _atom_site_label
 _atom_site_symmetry_multiplicity
 _atom_site_fract_x
 _atom_site_fract_y
 _atom_site_fract_z
 _atom_site_occupancy
  Sm  Sm0  1  0.000000  0.000000  0.000000  1
  Sm  Sm1  1  0.333333  0.666667  0.500000  1
  Sc  Sc2  1  0.893301  0.453315  0.500000  1
  Sc  Sc3  1  0.560014  0.106699  0.500000  1
  Sc  Sc4  1  0.546685  0.439986  0.500000  1
  Si  Si5  1  0.248148  0.200681  0.500000  1
  Si  Si6  1  0.799319  0.047469  0.500000  1
  Si  Si7  1  0.952531  0.751852  0.500000  1
  Si  Si8  1  0.561510  0.650470  0.000000  1
  Si  Si9  1  0.349530  0.911039  0.000000  1
  Si  Si10  1  0.088961  0.438490  0.000000  1
  Si  Si11  1  0.666667  0.333333  0.000000  1
  Pt  Pt12  1  0.312164  0.408136  0.000000  1
  Pt  Pt13  1  0.591864  0.904028  0.000000  1
  Pt  Pt14  1  0.095972  0.687836  0.000000  1
  Pt  Pt15  1  0.385411  0.172988  0.000000  1
  Pt  Pt16  1  0.827012  0.212423  0.000000  1
  Pt  Pt17  1  0.787577  0.614589  0.000000  1
  Rh  Rh18  1  0.222729  0.939128  0.500000  1
  Rh  Rh19  1  0.060872  0.283601  0.500000  1
  Rh  Rh20  1  0.716399  0.777271  0.500000  1
