# generated using pymatgen
data_SrLa(Si2Ni9)2
_symmetry_space_group_name_H-M   'P 1'
_cell_length_a   7.63175037
_cell_length_b   7.63174931
_cell_length_c   7.63174956
_cell_angle_alpha   99.56611538
_cell_angle_beta   99.56611564
_cell_angle_gamma   131.88431645
_symmetry_Int_Tables_number   1
_chemical_formula_structural   SrLa(Si2Ni9)2
_chemical_formula_sum   'Sr1 La1 Si4 Ni18'
_cell_volume   302.18190057
_cell_formula_units_Z   1
loop_
 _symmetry_equiv_pos_site_id
 _symmetry_equiv_pos_as_xyz
  1  'x, y, z'
loop_
 _atom_site_type_symbol
 _atom_site_label
 _atom_site_symmetry_multiplicity
 _atom_site_fract_x
 _atom_site_fract_y
 _atom_site_fract_z
 _atom_site_occupancy
  Sr  Sr0  1  0.000000  0.000000  0.000000  1
  La  La1  1  0.250000  0.750000  0.500000  1
  Si  Si2  1  0.124836  0.374896  0.749940  1
  Si  Si3  1  0.625104  0.875164  0.250060  1
  Si  Si4  1  0.625104  0.375044  0.749940  1
  Si  Si5  1  0.624956  0.374896  0.250060  1
  Ni  Ni6  1  0.750000  0.250000  0.500000  1
  Ni  Ni7  1  0.500000  0.500000  0.000000  1
  Ni  Ni8  1  0.189310  0.518204  0.079005  1
  Ni  Ni9  1  0.189310  0.110305  0.671106  1
  Ni  Ni10  1  0.767406  0.938787  0.578585  1
  Ni  Ni11  1  0.767406  0.188822  0.828620  1
  Ni  Ni12  1  0.439199  0.518204  0.328894  1
  Ni  Ni13  1  0.439199  0.110305  0.920995  1
  Ni  Ni14  1  0.360202  0.938787  0.171380  1
  Ni  Ni15  1  0.360202  0.188822  0.421415  1
  Ni  Ni16  1  0.061213  0.232594  0.421415  1
  Ni  Ni17  1  0.061213  0.639798  0.828620  1
  Ni  Ni18  1  0.481796  0.810690  0.920995  1
  Ni  Ni19  1  0.481796  0.560801  0.671106  1
  Ni  Ni20  1  0.811178  0.232594  0.171380  1
  Ni  Ni21  1  0.811178  0.639798  0.578585  1
  Ni  Ni22  1  0.889695  0.810690  0.328894  1
  Ni  Ni23  1  0.889695  0.560801  0.079005  1
