# generated using pymatgen
data_LiHf7Si16(Mo5W)2
_symmetry_space_group_name_H-M   'P 1'
_cell_length_a   6.54820372
_cell_length_b   6.75639439
_cell_length_c   12.63236518
_cell_angle_alpha   90.02057221
_cell_angle_beta   89.92569715
_cell_angle_gamma   90.16430276
_symmetry_Int_Tables_number   1
_chemical_formula_structural   LiHf7Si16(Mo5W)2
_chemical_formula_sum   'Li1 Hf7 Si16 Mo10 W2'
_cell_volume   558.88141580
_cell_formula_units_Z   1
loop_
 _symmetry_equiv_pos_site_id
 _symmetry_equiv_pos_as_xyz
  1  'x, y, z'
loop_
 _atom_site_type_symbol
 _atom_site_label
 _atom_site_symmetry_multiplicity
 _atom_site_fract_x
 _atom_site_fract_y
 _atom_site_fract_z
 _atom_site_occupancy
  Li  Li0  1  0.977286  0.163812  0.086425  1
  Hf  Hf1  1  0.007498  0.826135  0.907907  1
  Hf  Hf2  1  0.503486  0.670995  0.909444  1
  Hf  Hf3  1  0.005674  0.830967  0.593297  1
  Hf  Hf4  1  0.499923  0.329698  0.094960  1
  Hf  Hf5  1  0.997386  0.170834  0.407982  1
  Hf  Hf6  1  0.494447  0.329427  0.405249  1
  Hf  Hf7  1  0.506939  0.669884  0.591752  1
  Si  Si8  1  0.033325  0.125585  0.752053  1
  Si  Si9  1  0.970078  0.881784  0.246829  1
  Si  Si10  1  0.464293  0.622817  0.250506  1
  Si  Si11  1  0.533558  0.377810  0.749920  1
  Si  Si12  1  0.302985  0.862503  0.750046  1
  Si  Si13  1  0.708005  0.138361  0.246013  1
  Si  Si14  1  0.189252  0.352974  0.242971  1
  Si  Si15  1  0.800705  0.640078  0.751913  1
  Si  Si16  1  0.168570  0.459463  0.542796  1
  Si  Si17  1  0.833043  0.541066  0.457793  1
  Si  Si18  1  0.333395  0.958687  0.456808  1
  Si  Si19  1  0.838039  0.531977  0.046524  1
  Si  Si20  1  0.669316  0.041806  0.542436  1
  Si  Si21  1  0.166062  0.454735  0.958539  1
  Si  Si22  1  0.666413  0.039624  0.958445  1
  Si  Si23  1  0.322490  0.970407  0.045909  1
  Mo  Mo24  1  0.336686  0.012129  0.251113  1
  Mo  Mo25  1  0.670127  0.988296  0.750264  1
  Mo  Mo26  1  0.332612  0.163548  0.622458  1
  Mo  Mo27  1  0.669707  0.836095  0.376477  1
  Mo  Mo28  1  0.168154  0.662721  0.375930  1
  Mo  Mo29  1  0.664377  0.831228  0.123099  1
  Mo  Mo30  1  0.831803  0.339099  0.624128  1
  Mo  Mo31  1  0.334905  0.163090  0.875234  1
  Mo  Mo32  1  0.827817  0.337879  0.876901  1
  Mo  Mo33  1  0.171069  0.666199  0.123791  1
  W  W34  1  0.168951  0.514597  0.752403  1
  W  W35  1  0.831623  0.493689  0.251684  1
