# generated using pymatgen
data_K(NO3)2
_symmetry_space_group_name_H-M   'P 1'
_cell_length_a   8.49763284
_cell_length_b   8.49763323
_cell_length_c   8.49763244
_cell_angle_alpha   89.97818258
_cell_angle_beta   89.97817801
_cell_angle_gamma   89.97818630
_symmetry_Int_Tables_number   1
_chemical_formula_structural   K(NO3)2
_chemical_formula_sum   'K4 N8 O24'
_cell_volume   613.61192727
_cell_formula_units_Z   4
loop_
 _symmetry_equiv_pos_site_id
 _symmetry_equiv_pos_as_xyz
  1  'x, y, z'
loop_
 _atom_site_type_symbol
 _atom_site_label
 _atom_site_symmetry_multiplicity
 _atom_site_fract_x
 _atom_site_fract_y
 _atom_site_fract_z
 _atom_site_occupancy
  K  K0  1  0.500000  0.500000  0.500000  1
  K  K1  1  0.500000  0.000000  0.000000  1
  K  K2  1  0.000000  0.000000  0.500000  1
  K  K3  1  0.000000  0.500000  0.000000  1
  N  N4  1  0.652039  0.852464  0.348558  1
  N  N5  1  0.347961  0.147536  0.651442  1
  N  N6  1  0.150052  0.150052  0.150052  1
  N  N7  1  0.852464  0.348558  0.652039  1
  N  N8  1  0.348558  0.652039  0.852464  1
  N  N9  1  0.849948  0.849948  0.849948  1
  N  N10  1  0.147536  0.651442  0.347961  1
  N  N11  1  0.651442  0.347961  0.147536  1
  O  O12  1  0.029057  0.206835  0.214175  1
  O  O13  1  0.789566  0.470237  0.708841  1
  O  O14  1  0.290375  0.716377  0.972811  1
  O  O15  1  0.970943  0.793165  0.785825  1
  O  O16  1  0.210434  0.529763  0.291159  1
  O  O17  1  0.709625  0.283623  0.027189  1
  O  O18  1  0.214175  0.029057  0.206835  1
  O  O19  1  0.795059  0.284815  0.531156  1
  O  O20  1  0.470237  0.708841  0.789566  1
  O  O21  1  0.785825  0.970943  0.793165  1
  O  O22  1  0.204941  0.715185  0.468844  1
  O  O23  1  0.529763  0.291159  0.210434  1
  O  O24  1  0.206835  0.214175  0.029057  1
  O  O25  1  0.972811  0.290375  0.716377  1
  O  O26  1  0.284815  0.531156  0.795059  1
  O  O27  1  0.793165  0.785825  0.970943  1
  O  O28  1  0.027189  0.709625  0.283623  1
  O  O29  1  0.715185  0.468844  0.204941  1
  O  O30  1  0.716377  0.972811  0.290375  1
  O  O31  1  0.708841  0.789566  0.470237  1
  O  O32  1  0.531156  0.795059  0.284815  1
  O  O33  1  0.283623  0.027189  0.709625  1
  O  O34  1  0.291159  0.210434  0.529763  1
  O  O35  1  0.468844  0.204941  0.715185  1
