# generated using pymatgen
data_Y2LuGa5Co
_symmetry_space_group_name_H-M   'P 1'
_cell_length_a   6.87649637
_cell_length_b   6.87649735
_cell_length_c   4.20607000
_cell_angle_alpha   90.00000000
_cell_angle_beta   90.00000000
_cell_angle_gamma   119.48900923
_symmetry_Int_Tables_number   1
_chemical_formula_structural   Y2LuGa5Co
_chemical_formula_sum   'Y2 Lu1 Ga5 Co1'
_cell_volume   173.12304930
_cell_formula_units_Z   1
loop_
 _symmetry_equiv_pos_site_id
 _symmetry_equiv_pos_as_xyz
  1  'x, y, z'
loop_
 _atom_site_type_symbol
 _atom_site_label
 _atom_site_symmetry_multiplicity
 _atom_site_fract_x
 _atom_site_fract_y
 _atom_site_fract_z
 _atom_site_occupancy
  Y  Y0  1  0.596837  0.999092  0.000000  1
  Y  Y1  1  0.999092  0.596837  0.000000  1
  Lu  Lu2  1  0.397185  0.397185  0.000000  1
  Ga  Ga3  1  0.231557  0.000378  0.500000  1
  Ga  Ga4  1  0.000378  0.231557  0.500000  1
  Ga  Ga5  1  0.769266  0.769266  0.500000  1
  Ga  Ga6  1  0.334957  0.663682  0.500000  1
  Ga  Ga7  1  0.663682  0.334957  0.500000  1
  Co  Co8  1  0.007046  0.007046  0.000000  1
