# generated using pymatgen
data_Sc5Ti3(V3Si4)4
_symmetry_space_group_name_H-M   'P 1'
_cell_length_a   6.57094335
_cell_length_b   6.57297001
_cell_length_c   12.14414571
_cell_angle_alpha   90.10274936
_cell_angle_beta   89.93760188
_cell_angle_gamma   89.96117950
_symmetry_Int_Tables_number   1
_chemical_formula_structural   Sc5Ti3(V3Si4)4
_chemical_formula_sum   'Sc5 Ti3 V12 Si16'
_cell_volume   524.51182896
_cell_formula_units_Z   1
loop_
 _symmetry_equiv_pos_site_id
 _symmetry_equiv_pos_as_xyz
  1  'x, y, z'
loop_
 _atom_site_type_symbol
 _atom_site_label
 _atom_site_symmetry_multiplicity
 _atom_site_fract_x
 _atom_site_fract_y
 _atom_site_fract_z
 _atom_site_occupancy
  Sc  Sc0  1  0.500062  0.835402  0.721621  1
  Sc  Sc1  1  0.500909  0.163663  0.220046  1
  Sc  Sc2  1  0.998942  0.337828  0.529013  1
  Sc  Sc3  1  0.664480  0.999307  0.970730  1
  Sc  Sc4  1  0.337647  0.998918  0.469683  1
  Ti  Ti5  1  0.006077  0.658857  0.029487  1
  Ti  Ti6  1  0.840679  0.506680  0.279821  1
  Ti  Ti7  1  0.158118  0.493264  0.780101  1
  V  V8  1  0.329375  0.335120  0.000432  1
  V  V9  1  0.165197  0.829838  0.249267  1
  V  V10  1  0.835069  0.169410  0.751212  1
  V  V11  1  0.668939  0.666918  0.500343  1
  V  V12  1  0.003000  0.157303  0.126139  1
  V  V13  1  0.342667  0.505360  0.375335  1
  V  V14  1  0.657138  0.496925  0.877666  1
  V  V15  1  0.507856  0.346523  0.624266  1
  V  V16  1  0.490877  0.654971  0.123042  1
  V  V17  1  0.995156  0.843183  0.627709  1
  V  V18  1  0.155075  0.007872  0.874337  1
  V  V19  1  0.843399  0.991390  0.371893  1
  Si  Si20  1  0.291513  0.958089  0.064480  1
  Si  Si21  1  0.541766  0.791711  0.314074  1
  Si  Si22  1  0.459435  0.208459  0.815267  1
  Si  Si23  1  0.798822  0.539843  0.686198  1
  Si  Si24  1  0.199460  0.461410  0.184753  1
  Si  Si25  1  0.705988  0.040152  0.564527  1
  Si  Si26  1  0.960901  0.300172  0.935033  1
  Si  Si27  1  0.038858  0.703960  0.434229  1
  Si  Si28  1  0.708904  0.374618  0.073046  1
  Si  Si29  1  0.126492  0.206816  0.319954  1
  Si  Si30  1  0.874260  0.791103  0.823385  1
  Si  Si31  1  0.204712  0.133694  0.680264  1
  Si  Si32  1  0.798276  0.862088  0.176821  1
  Si  Si33  1  0.293975  0.629345  0.572405  1
  Si  Si34  1  0.362307  0.701302  0.927100  1
  Si  Si35  1  0.633669  0.298508  0.426323  1
