# generated using pymatgen
data_Er3In4AgIr
_symmetry_space_group_name_H-M   'P 1'
_cell_length_a   8.05871400
_cell_length_b   8.05871346
_cell_length_c   3.73161500
_cell_angle_alpha   90.00000000
_cell_angle_beta   90.00000000
_cell_angle_gamma   119.99999401
_symmetry_Int_Tables_number   1
_chemical_formula_structural   Er3In4AgIr
_chemical_formula_sum   'Er3 In4 Ag1 Ir1'
_cell_volume   209.87414760
_cell_formula_units_Z   1
loop_
 _symmetry_equiv_pos_site_id
 _symmetry_equiv_pos_as_xyz
  1  'x, y, z'
loop_
 _atom_site_type_symbol
 _atom_site_label
 _atom_site_symmetry_multiplicity
 _atom_site_fract_x
 _atom_site_fract_y
 _atom_site_fract_z
 _atom_site_occupancy
  Er  Er0  1  0.709648  0.954749  0.500000  1
  Er  Er1  1  0.245100  0.290352  0.500000  1
  Er  Er2  1  0.045251  0.754900  0.500000  1
  In  In3  1  0.937924  0.335431  0.000000  1
  In  In4  1  0.397508  0.062076  0.000000  1
  In  In5  1  0.664569  0.602492  0.000000  1
  In  In6  1  0.333333  0.666667  0.000000  1
  Ag  Ag7  1  0.666667  0.333333  0.500000  1
  Ir  Ir8  1  0.000000  0.000000  0.000000  1
