# generated using pymatgen
data_Er16Ni3Ag4Os
_symmetry_space_group_name_H-M   'P 1'
_cell_length_a   9.43816894
_cell_length_b   9.43850906
_cell_length_c   9.43842125
_cell_angle_alpha   59.32346985
_cell_angle_beta   59.32438029
_cell_angle_gamma   59.32516244
_symmetry_Int_Tables_number   1
_chemical_formula_structural   Er16Ni3Ag4Os
_chemical_formula_sum   'Er16 Ni3 Ag4 Os1'
_cell_volume   585.38688127
_cell_formula_units_Z   1
loop_
 _symmetry_equiv_pos_site_id
 _symmetry_equiv_pos_as_xyz
  1  'x, y, z'
loop_
 _atom_site_type_symbol
 _atom_site_label
 _atom_site_symmetry_multiplicity
 _atom_site_fract_x
 _atom_site_fract_y
 _atom_site_fract_z
 _atom_site_occupancy
  Er  Er0  1  0.185482  0.814826  0.814850  1
  Er  Er1  1  0.807753  0.188050  0.188042  1
  Er  Er2  1  0.814836  0.185478  0.814835  1
  Er  Er3  1  0.188006  0.807784  0.188034  1
  Er  Er4  1  0.814853  0.814819  0.185487  1
  Er  Er5  1  0.188033  0.188008  0.807786  1
  Er  Er6  1  0.599365  0.599444  0.599458  1
  Er  Er7  1  0.603154  0.603261  0.197624  1
  Er  Er8  1  0.603195  0.197574  0.603256  1
  Er  Er9  1  0.197675  0.603247  0.603160  1
  Er  Er10  1  0.059884  0.438223  0.438223  1
  Er  Er11  1  0.438406  0.061206  0.061121  1
  Er  Er12  1  0.438219  0.059869  0.438246  1
  Er  Er13  1  0.061232  0.438415  0.061086  1
  Er  Er14  1  0.438218  0.438213  0.059891  1
  Er  Er15  1  0.061171  0.061129  0.438436  1
  Ni  Ni16  1  0.393168  0.393128  0.821667  1
  Ni  Ni17  1  0.393135  0.821769  0.393122  1
  Ni  Ni18  1  0.821642  0.393142  0.393179  1
  Ag  Ag19  1  0.832203  0.832184  0.832203  1
  Ag  Ag20  1  0.832054  0.832001  0.503311  1
  Ag  Ag21  1  0.832031  0.503303  0.832044  1
  Ag  Ag22  1  0.503333  0.831998  0.832017  1
  Os  Os23  1  0.392953  0.392928  0.392921  1
