# generated using pymatgen
data_Zr5NbB4(IrRu4)2
_symmetry_space_group_name_H-M   'P 1'
_cell_length_a   9.58930706
_cell_length_b   9.57469406
_cell_length_c   3.12318800
_cell_angle_alpha   90.00000000
_cell_angle_beta   90.00000000
_cell_angle_gamma   90.01300546
_symmetry_Int_Tables_number   1
_chemical_formula_structural   Zr5NbB4(IrRu4)2
_chemical_formula_sum   'Zr5 Nb1 B4 Ir2 Ru8'
_cell_volume   286.75450372
_cell_formula_units_Z   1
loop_
 _symmetry_equiv_pos_site_id
 _symmetry_equiv_pos_as_xyz
  1  'x, y, z'
loop_
 _atom_site_type_symbol
 _atom_site_label
 _atom_site_symmetry_multiplicity
 _atom_site_fract_x
 _atom_site_fract_y
 _atom_site_fract_z
 _atom_site_occupancy
  Zr  Zr0  1  0.829011  0.675547  0.000000  1
  Zr  Zr1  1  0.170989  0.324453  0.000000  1
  Zr  Zr2  1  0.319468  0.825074  0.000000  1
  Zr  Zr3  1  0.680532  0.174926  0.000000  1
  Zr  Zr4  1  0.500000  0.500000  0.000000  1
  Nb  Nb5  1  0.000000  0.000000  0.000000  1
  B  B6  1  0.624367  0.884539  0.000000  1
  B  B7  1  0.375633  0.115461  0.000000  1
  B  B8  1  0.121652  0.620839  0.000000  1
  B  B9  1  0.878348  0.379161  0.000000  1
  Ir  Ir10  1  0.573423  0.724334  0.500000  1
  Ir  Ir11  1  0.426577  0.275666  0.500000  1
  Ru  Ru12  1  0.069146  0.782078  0.500000  1
  Ru  Ru13  1  0.930854  0.217922  0.500000  1
  Ru  Ru14  1  0.277617  0.572927  0.500000  1
  Ru  Ru15  1  0.722383  0.427073  0.500000  1
  Ru  Ru16  1  0.217826  0.069644  0.500000  1
  Ru  Ru17  1  0.782174  0.930356  0.500000  1
  Ru  Ru18  1  0.500000  0.000000  0.500000  1
  Ru  Ru19  1  0.000000  0.500000  0.500000  1
