# generated using pymatgen
data_Dy4ReIrRu6
_symmetry_space_group_name_H-M   'P 1'
_cell_length_a   5.20821248
_cell_length_b   5.43581615
_cell_length_c   9.00470089
_cell_angle_alpha   89.99999653
_cell_angle_beta   90.10400984
_cell_angle_gamma   121.45645959
_symmetry_Int_Tables_number   1
_chemical_formula_structural   Dy4ReIrRu6
_chemical_formula_sum   'Dy4 Re1 Ir1 Ru6'
_cell_volume   217.46512465
_cell_formula_units_Z   1
loop_
 _symmetry_equiv_pos_site_id
 _symmetry_equiv_pos_as_xyz
  1  'x, y, z'
loop_
 _atom_site_type_symbol
 _atom_site_label
 _atom_site_symmetry_multiplicity
 _atom_site_fract_x
 _atom_site_fract_y
 _atom_site_fract_z
 _atom_site_occupancy
  Dy  Dy0  1  0.327886  0.663944  0.432773  1
  Dy  Dy1  1  0.658065  0.329032  0.565303  1
  Dy  Dy2  1  0.654967  0.327483  0.934184  1
  Dy  Dy3  1  0.326381  0.663191  0.067978  1
  Re  Re4  1  0.682643  0.841322  0.751932  1
  Ir  Ir5  1  0.985426  0.992714  0.499466  1
  Ru  Ru6  1  0.979250  0.989626  0.000130  1
  Ru  Ru7  1  0.832146  0.164737  0.250035  1
  Ru  Ru8  1  0.832146  0.667409  0.250035  1
  Ru  Ru9  1  0.353891  0.176946  0.249316  1
  Ru  Ru10  1  0.183599  0.830465  0.749425  1
  Ru  Ru11  1  0.183599  0.353134  0.749425  1
