# generated using pymatgen
data_Rb4Zr6AlI18
_symmetry_space_group_name_H-M   'P 1'
_cell_length_a   11.49019833
_cell_length_b   11.75213158
_cell_length_c   11.86885235
_cell_angle_alpha   118.66913937
_cell_angle_beta   100.25217959
_cell_angle_gamma   104.10735438
_symmetry_Int_Tables_number   1
_chemical_formula_structural   Rb4Zr6AlI18
_chemical_formula_sum   'Rb4 Zr6 Al1 I18'
_cell_volume   1279.28254142
_cell_formula_units_Z   1
loop_
 _symmetry_equiv_pos_site_id
 _symmetry_equiv_pos_as_xyz
  1  'x, y, z'
loop_
 _atom_site_type_symbol
 _atom_site_label
 _atom_site_symmetry_multiplicity
 _atom_site_fract_x
 _atom_site_fract_y
 _atom_site_fract_z
 _atom_site_occupancy
  Rb  Rb0  1  0.188765  0.725718  0.564183  1
  Rb  Rb1  1  0.845714  0.962743  0.772099  1
  Rb  Rb2  1  0.154286  0.037257  0.227901  1
  Rb  Rb3  1  0.811235  0.274282  0.435817  1
  Zr  Zr4  1  0.350950  0.446298  0.770195  1
  Zr  Zr5  1  0.361686  0.626597  0.133092  1
  Zr  Zr6  1  0.644283  0.738497  0.043084  1
  Zr  Zr7  1  0.649050  0.553702  0.229805  1
  Zr  Zr8  1  0.355717  0.261503  0.956916  1
  Zr  Zr9  1  0.638314  0.373403  0.866908  1
  Al  Al10  1  0.500000  0.500000  0.000000  1
  I  I11  1  0.818845  0.425511  0.109330  1
  I  I12  1  0.515533  0.702716  0.403627  1
  I  I13  1  0.181646  0.983878  0.900961  1
  I  I14  1  0.181155  0.574489  0.890670  1
  I  I15  1  0.825730  0.827922  0.305908  1
  I  I16  1  0.503748  0.296734  0.207875  1
  I  I17  1  0.794002  0.229836  0.716963  1
  I  I18  1  0.174270  0.172078  0.694092  1
  I  I19  1  0.508524  0.905043  0.194996  1
  I  I20  1  0.815185  0.626971  0.905997  1
  I  I21  1  0.205998  0.770164  0.283037  1
  I  I22  1  0.170273  0.379906  0.504561  1
  I  I23  1  0.496252  0.703266  0.792125  1
  I  I24  1  0.818354  0.016122  0.099039  1
  I  I25  1  0.484467  0.297284  0.596373  1
  I  I26  1  0.184815  0.373029  0.094003  1
  I  I27  1  0.829727  0.620094  0.495439  1
  I  I28  1  0.491476  0.094957  0.805004  1
