# generated using pymatgen
data_Tb9HoTl7InPt4
_symmetry_space_group_name_H-M   'P 1'
_cell_length_a   3.63899900
_cell_length_b   8.28223089
_cell_length_c   18.52155095
_cell_angle_alpha   89.92353761
_cell_angle_beta   90.00000000
_cell_angle_gamma   90.00000000
_symmetry_Int_Tables_number   1
_chemical_formula_structural   Tb9HoTl7InPt4
_chemical_formula_sum   'Tb9 Ho1 Tl7 In1 Pt4'
_cell_volume   558.22108126
_cell_formula_units_Z   1
loop_
 _symmetry_equiv_pos_site_id
 _symmetry_equiv_pos_as_xyz
  1  'x, y, z'
loop_
 _atom_site_type_symbol
 _atom_site_label
 _atom_site_symmetry_multiplicity
 _atom_site_fract_x
 _atom_site_fract_y
 _atom_site_fract_z
 _atom_site_occupancy
  Tb  Tb0  1  0.000000  0.114324  0.412777  1
  Tb  Tb1  1  0.000000  0.884834  0.585692  1
  Tb  Tb2  1  0.000000  0.385380  0.912756  1
  Tb  Tb3  1  0.000000  0.614712  0.087949  1
  Tb  Tb4  1  0.000000  0.243167  0.220750  1
  Tb  Tb5  1  0.000000  0.757318  0.779826  1
  Tb  Tb6  1  0.000000  0.256386  0.719500  1
  Tb  Tb7  1  0.000000  0.000192  0.000365  1
  Tb  Tb8  1  0.000000  0.502599  0.499535  1
  Ho  Ho9  1  0.000000  0.742849  0.280211  1
  Tl  Tl10  1  0.500000  0.424240  0.353276  1
  Tl  Tl11  1  0.500000  0.579722  0.647308  1
  Tl  Tl12  1  0.500000  0.079141  0.852460  1
  Tl  Tl13  1  0.500000  0.921065  0.148009  1
  Tl  Tl14  1  0.500000  0.293050  0.065489  1
  Tl  Tl15  1  0.500000  0.707301  0.934986  1
  Tl  Tl16  1  0.500000  0.207162  0.564559  1
  In  In17  1  0.500000  0.793750  0.433036  1
  Pt  Pt18  1  0.500000  0.019174  0.304066  1
  Pt  Pt19  1  0.500000  0.973321  0.696677  1
  Pt  Pt20  1  0.500000  0.473280  0.802459  1
  Pt  Pt21  1  0.500000  0.527031  0.198313  1
