# generated using pymatgen
data_Bi4IrRh3S4
_symmetry_space_group_name_H-M   'P 1'
_cell_length_a   6.22317146
_cell_length_b   6.22317146
_cell_length_c   6.22317146
_cell_angle_alpha   90.07200172
_cell_angle_beta   90.07200172
_cell_angle_gamma   89.92799828
_symmetry_Int_Tables_number   1
_chemical_formula_structural   Bi4IrRh3S4
_chemical_formula_sum   'Bi4 Ir1 Rh3 S4'
_cell_volume   241.00956089
_cell_formula_units_Z   1
loop_
 _symmetry_equiv_pos_site_id
 _symmetry_equiv_pos_as_xyz
  1  'x, y, z'
loop_
 _atom_site_type_symbol
 _atom_site_label
 _atom_site_symmetry_multiplicity
 _atom_site_fract_x
 _atom_site_fract_y
 _atom_site_fract_z
 _atom_site_occupancy
  Bi  Bi0  1  0.128212  0.628212  0.871788  1
  Bi  Bi1  1  0.629143  0.870718  0.127164  1
  Bi  Bi2  1  0.872836  0.129143  0.629282  1
  Bi  Bi3  1  0.370718  0.372836  0.370857  1
  Ir  Ir4  1  0.477365  0.977365  0.522635  1
  Rh  Rh5  1  0.977354  0.523159  0.478287  1
  Rh  Rh6  1  0.521713  0.477354  0.976841  1
  Rh  Rh7  1  0.023159  0.021713  0.022646  1
  S  S8  1  0.880915  0.380915  0.119085  1
  S  S9  1  0.380867  0.115856  0.878135  1
  S  S10  1  0.121865  0.880867  0.384144  1
  S  S11  1  0.615856  0.621865  0.619133  1
