# generated using pymatgen
data_Tm6LuCo17P12
_symmetry_space_group_name_H-M   'P 1'
_cell_length_a   3.69596400
_cell_length_b   10.56021500
_cell_length_c   12.26161600
_cell_angle_alpha   90.00000000
_cell_angle_beta   90.00000000
_cell_angle_gamma   90.00000000
_symmetry_Int_Tables_number   1
_chemical_formula_structural   Tm6LuCo17P12
_chemical_formula_sum   'Tm6 Lu1 Co17 P12'
_cell_volume   478.57301179
_cell_formula_units_Z   1
loop_
 _symmetry_equiv_pos_site_id
 _symmetry_equiv_pos_as_xyz
  1  'x, y, z'
loop_
 _atom_site_type_symbol
 _atom_site_label
 _atom_site_symmetry_multiplicity
 _atom_site_fract_x
 _atom_site_fract_y
 _atom_site_fract_z
 _atom_site_occupancy
  Tm  Tm0  1  0.000000  0.500000  0.531061  1
  Tm  Tm1  1  0.500000  0.000000  0.477444  1
  Tm  Tm2  1  0.500000  0.823346  0.208087  1
  Tm  Tm3  1  0.500000  0.176654  0.208087  1
  Tm  Tm4  1  0.000000  0.682676  0.795374  1
  Tm  Tm5  1  0.000000  0.317324  0.795374  1
  Lu  Lu6  1  0.500000  0.500000  0.155013  1
  Co  Co7  1  0.000000  0.000000  0.834403  1
  Co  Co8  1  0.500000  0.500000  0.702999  1
  Co  Co9  1  0.000000  0.000000  0.295806  1
  Co  Co10  1  0.000000  0.500000  0.982270  1
  Co  Co11  1  0.500000  0.000000  0.013535  1
  Co  Co12  1  0.500000  0.324557  0.986819  1
  Co  Co13  1  0.500000  0.675443  0.986819  1
  Co  Co14  1  0.000000  0.159962  0.999388  1
  Co  Co15  1  0.000000  0.840038  0.999388  1
  Co  Co16  1  0.500000  0.293337  0.436169  1
  Co  Co17  1  0.500000  0.706663  0.436169  1
  Co  Co18  1  0.000000  0.200973  0.570888  1
  Co  Co19  1  0.000000  0.799027  0.570888  1
  Co  Co20  1  0.500000  0.880147  0.706842  1
  Co  Co21  1  0.500000  0.119853  0.706842  1
  Co  Co22  1  0.000000  0.623910  0.301029  1
  Co  Co23  1  0.000000  0.376090  0.301029  1
  P  P24  1  0.500000  0.500000  0.881427  1
  P  P25  1  0.000000  0.000000  0.116609  1
  P  P26  1  0.500000  0.500000  0.364897  1
  P  P27  1  0.000000  0.000000  0.652612  1
  P  P28  1  0.500000  0.309673  0.619114  1
  P  P29  1  0.500000  0.690327  0.619114  1
  P  P30  1  0.000000  0.186741  0.386687  1
  P  P31  1  0.000000  0.813259  0.386687  1
  P  P32  1  0.500000  0.852933  0.886588  1
  P  P33  1  0.500000  0.147067  0.886588  1
  P  P34  1  0.000000  0.668377  0.098977  1
  P  P35  1  0.000000  0.331623  0.098977  1
