# generated using pymatgen
data_Y6TlGaSi
_symmetry_space_group_name_H-M   'P 1'
_cell_length_a   8.61591270
_cell_length_b   8.61591389
_cell_length_c   8.61591300
_cell_angle_alpha   111.59313795
_cell_angle_beta   111.71826792
_cell_angle_gamma   105.18543107
_symmetry_Int_Tables_number   1
_chemical_formula_structural   Y6TlGaSi
_chemical_formula_sum   'Y12 Tl2 Ga2 Si2'
_cell_volume   490.31268367
_cell_formula_units_Z   2
loop_
 _symmetry_equiv_pos_site_id
 _symmetry_equiv_pos_as_xyz
  1  'x, y, z'
loop_
 _atom_site_type_symbol
 _atom_site_label
 _atom_site_symmetry_multiplicity
 _atom_site_fract_x
 _atom_site_fract_y
 _atom_site_fract_z
 _atom_site_occupancy
  Y  Y0  1  0.445248  0.242591  0.202656  1
  Y  Y1  1  0.554752  0.757409  0.797344  1
  Y  Y2  1  0.039935  0.242591  0.797344  1
  Y  Y3  1  0.960065  0.757409  0.202656  1
  Y  Y4  1  0.182641  0.278989  0.461632  1
  Y  Y5  1  0.817359  0.721011  0.538368  1
  Y  Y6  1  0.182641  0.721011  0.903653  1
  Y  Y7  1  0.817359  0.278989  0.096347  1
  Y  Y8  1  0.318977  0.616639  0.297664  1
  Y  Y9  1  0.681023  0.383361  0.702336  1
  Y  Y10  1  0.318977  0.021312  0.702336  1
  Y  Y11  1  0.681023  0.978688  0.297664  1
  Tl  Tl12  1  0.500000  0.500000  0.000000  1
  Tl  Tl13  1  0.000000  0.000000  0.000000  1
  Ga  Ga14  1  0.353950  0.000000  0.353950  1
  Ga  Ga15  1  0.646050  0.000000  0.646050  1
  Si  Si16  1  0.116034  0.616034  0.500000  1
  Si  Si17  1  0.883966  0.383966  0.500000  1
