# generated using pymatgen
data_YbTa3TiO8
_symmetry_space_group_name_H-M   'P 1'
_cell_length_a   7.05422730
_cell_length_b   7.03722047
_cell_length_c   9.65885986
_cell_angle_alpha   86.76937803
_cell_angle_beta   93.25315434
_cell_angle_gamma   86.66673063
_symmetry_Int_Tables_number   1
_chemical_formula_structural   YbTa3TiO8
_chemical_formula_sum   'Yb3 Ta9 Ti3 O24'
_cell_volume   477.04728757
_cell_formula_units_Z   3
loop_
 _symmetry_equiv_pos_site_id
 _symmetry_equiv_pos_as_xyz
  1  'x, y, z'
loop_
 _atom_site_type_symbol
 _atom_site_label
 _atom_site_symmetry_multiplicity
 _atom_site_fract_x
 _atom_site_fract_y
 _atom_site_fract_z
 _atom_site_occupancy
  Yb  Yb0  1  0.625620  0.373315  0.118545  1
  Yb  Yb1  1  0.896813  0.097685  0.392998  1
  Yb  Yb2  1  0.372292  0.631473  0.875785  1
  Ta  Ta3  1  0.100215  0.899770  0.100688  1
  Ta  Ta4  1  0.601044  0.400986  0.601664  1
  Ta  Ta5  1  0.398901  0.603551  0.397983  1
  Ta  Ta6  1  0.898110  0.102048  0.899073  1
  Ta  Ta7  1  0.163474  0.398499  0.615373  1
  Ta  Ta8  1  0.334492  0.104503  0.885708  1
  Ta  Ta9  1  0.836965  0.605134  0.382330  1
  Ta  Ta10  1  0.399877  0.158849  0.384150  1
  Ta  Ta11  1  0.888802  0.669291  0.884873  1
  Ti  Ti12  1  0.602236  0.838859  0.616237  1
  Ti  Ti13  1  0.110137  0.333534  0.113705  1
  Ti  Ti14  1  0.666535  0.890087  0.113005  1
  O  O15  1  0.599403  0.091547  0.253396  1
  O  O16  1  0.084083  0.581764  0.753026  1
  O  O17  1  0.419152  0.917961  0.754952  1
  O  O18  1  0.908327  0.400401  0.253432  1
  O  O19  1  0.818909  0.819236  0.500948  1
  O  O20  1  0.332220  0.335340  0.999000  1
  O  O21  1  0.175905  0.175491  0.500890  1
  O  O22  1  0.663677  0.666456  0.999346  1
  O  O23  1  0.174158  0.092629  0.237548  1
  O  O24  1  0.667806  0.595610  0.736359  1
  O  O25  1  0.129495  0.593295  0.452067  1
  O  O26  1  0.630696  0.105356  0.966867  1
  O  O27  1  0.093278  0.186911  0.768697  1
  O  O28  1  0.596276  0.666281  0.261504  1
  O  O29  1  0.606612  0.131868  0.539977  1
  O  O30  1  0.102280  0.631759  0.036244  1
  O  O31  1  0.815009  0.907979  0.769066  1
  O  O32  1  0.333995  0.401707  0.263279  1
  O  O33  1  0.870492  0.396586  0.541051  1
  O  O34  1  0.369080  0.894548  0.038563  1
  O  O35  1  0.906135  0.826519  0.237554  1
  O  O36  1  0.405867  0.331343  0.737066  1
  O  O37  1  0.409166  0.870038  0.453352  1
  O  O38  1  0.894968  0.369287  0.966198  1
