# generated using pymatgen
data_Yb12TmLu7Ge16
_symmetry_space_group_name_H-M   'P 1'
_cell_length_a   7.32764405
_cell_length_b   7.84811103
_cell_length_c   15.02400304
_cell_angle_alpha   89.99760870
_cell_angle_beta   90.00758312
_cell_angle_gamma   90.01033733
_symmetry_Int_Tables_number   1
_chemical_formula_structural   Yb12TmLu7Ge16
_chemical_formula_sum   'Yb12 Tm1 Lu7 Ge16'
_cell_volume   864.00280946
_cell_formula_units_Z   1
loop_
 _symmetry_equiv_pos_site_id
 _symmetry_equiv_pos_as_xyz
  1  'x, y, z'
loop_
 _atom_site_type_symbol
 _atom_site_label
 _atom_site_symmetry_multiplicity
 _atom_site_fract_x
 _atom_site_fract_y
 _atom_site_fract_z
 _atom_site_occupancy
  Yb  Yb0  1  0.983412  0.813944  0.405797  1
  Yb  Yb1  1  0.483454  0.686020  0.094215  1
  Yb  Yb2  1  0.516585  0.313965  0.594212  1
  Yb  Yb3  1  0.016549  0.186057  0.905778  1
  Yb  Yb4  1  0.016582  0.186047  0.594212  1
  Yb  Yb5  1  0.516619  0.313978  0.905757  1
  Yb  Yb6  1  0.483415  0.686045  0.405799  1
  Yb  Yb7  1  0.983364  0.813926  0.094198  1
  Yb  Yb8  1  0.341941  0.019498  0.749996  1
  Yb  Yb9  1  0.841933  0.480494  0.750007  1
  Yb  Yb10  1  0.158036  0.519575  0.250032  1
  Yb  Yb11  1  0.658135  0.980458  0.250027  1
  Tm  Tm12  1  0.319541  0.171416  0.121329  1
  Lu  Lu13  1  0.819543  0.328689  0.378670  1
  Lu  Lu14  1  0.180482  0.671325  0.878646  1
  Lu  Lu15  1  0.680472  0.828679  0.621352  1
  Lu  Lu16  1  0.319506  0.171296  0.378686  1
  Lu  Lu17  1  0.819533  0.328737  0.121323  1
  Lu  Lu18  1  0.180475  0.671331  0.621349  1
  Lu  Lu19  1  0.680487  0.828665  0.878638  1
  Ge  Ge20  1  0.842206  0.534402  0.539854  1
  Ge  Ge21  1  0.342253  0.965447  0.960026  1
  Ge  Ge22  1  0.657783  0.034380  0.460142  1
  Ge  Ge23  1  0.157578  0.465754  0.039770  1
  Ge  Ge24  1  0.157799  0.465595  0.460146  1
  Ge  Ge25  1  0.658005  0.034302  0.039794  1
  Ge  Ge26  1  0.342201  0.965601  0.539860  1
  Ge  Ge27  1  0.842199  0.534423  0.960139  1
  Ge  Ge28  1  0.975777  0.873660  0.750001  1
  Ge  Ge29  1  0.475773  0.626324  0.749996  1
  Ge  Ge30  1  0.524386  0.373840  0.250053  1
  Ge  Ge31  1  0.024066  0.126274  0.250100  1
  Ge  Ge32  1  0.235357  0.387144  0.749998  1
  Ge  Ge33  1  0.735358  0.112852  0.749998  1
  Ge  Ge34  1  0.264558  0.886998  0.250086  1
  Ge  Ge35  1  0.764637  0.612857  0.250018  1
