# generated using pymatgen
data_Sc8Re(TcB8)3
_symmetry_space_group_name_H-M   'P 1'
_cell_length_a   3.50843800
_cell_length_b   8.91588284
_cell_length_c   11.19585706
_cell_angle_alpha   90.04975134
_cell_angle_beta   90.00000000
_cell_angle_gamma   90.00000000
_symmetry_Int_Tables_number   1
_chemical_formula_structural   Sc8Re(TcB8)3
_chemical_formula_sum   'Sc8 Re1 Tc3 B24'
_cell_volume   350.21548145
_cell_formula_units_Z   1
loop_
 _symmetry_equiv_pos_site_id
 _symmetry_equiv_pos_as_xyz
  1  'x, y, z'
loop_
 _atom_site_type_symbol
 _atom_site_label
 _atom_site_symmetry_multiplicity
 _atom_site_fract_x
 _atom_site_fract_y
 _atom_site_fract_z
 _atom_site_occupancy
  Sc  Sc0  1  0.000000  0.322242  0.413674  1
  Sc  Sc1  1  0.000000  0.677891  0.586195  1
  Sc  Sc2  1  0.000000  0.821747  0.086718  1
  Sc  Sc3  1  0.000000  0.178664  0.913778  1
  Sc  Sc4  1  0.000000  0.943651  0.370274  1
  Sc  Sc5  1  0.000000  0.056559  0.629030  1
  Sc  Sc6  1  0.000000  0.443665  0.129912  1
  Sc  Sc7  1  0.000000  0.555655  0.870517  1
  Re  Re8  1  0.000000  0.860307  0.819818  1
  Tc  Tc9  1  0.000000  0.639774  0.320393  1
  Tc  Tc10  1  0.000000  0.360124  0.679627  1
  Tc  Tc11  1  0.000000  0.140027  0.180363  1
  B  B12  1  0.500000  0.553479  0.434901  1
  B  B13  1  0.500000  0.446708  0.565036  1
  B  B14  1  0.500000  0.053525  0.065352  1
  B  B15  1  0.500000  0.946947  0.935165  1
  B  B16  1  0.500000  0.753469  0.421467  1
  B  B17  1  0.500000  0.246698  0.578291  1
  B  B18  1  0.500000  0.253430  0.078524  1
  B  B19  1  0.500000  0.745974  0.921797  1
  B  B20  1  0.500000  0.795308  0.263374  1
  B  B21  1  0.500000  0.204870  0.736358  1
  B  B22  1  0.500000  0.295319  0.236591  1
  B  B23  1  0.500000  0.704139  0.763521  1
  B  B24  1  0.500000  0.630064  0.182170  1
  B  B25  1  0.500000  0.369744  0.817892  1
  B  B26  1  0.500000  0.130136  0.317894  1
  B  B27  1  0.500000  0.869984  0.681776  1
  B  B28  1  0.500000  0.979270  0.212010  1
  B  B29  1  0.500000  0.021156  0.787757  1
  B  B30  1  0.500000  0.479583  0.287877  1
  B  B31  1  0.500000  0.520209  0.712143  1
  B  B32  1  0.500000  0.597379  0.027166  1
  B  B33  1  0.500000  0.402082  0.973077  1
  B  B34  1  0.500000  0.097389  0.472829  1
  B  B35  1  0.500000  0.902831  0.526733  1
