# generated using pymatgen
data_Y5Pd2Ru
_symmetry_space_group_name_H-M   'P 1'
_cell_length_a   6.41302400
_cell_length_b   11.10778300
_cell_length_c   11.10778300
_cell_angle_alpha   90.00000000
_cell_angle_beta   90.00000000
_cell_angle_gamma   90.00000000
_symmetry_Int_Tables_number   1
_chemical_formula_structural   Y5Pd2Ru
_chemical_formula_sum   'Y20 Pd8 Ru4'
_cell_volume   791.25713447
_cell_formula_units_Z   4
loop_
 _symmetry_equiv_pos_site_id
 _symmetry_equiv_pos_as_xyz
  1  'x, y, z'
loop_
 _atom_site_type_symbol
 _atom_site_label
 _atom_site_symmetry_multiplicity
 _atom_site_fract_x
 _atom_site_fract_y
 _atom_site_fract_z
 _atom_site_occupancy
  Y  Y0  1  0.363203  0.834588  0.547164  1
  Y  Y1  1  0.863203  0.665412  0.547164  1
  Y  Y2  1  0.863203  0.834588  0.952836  1
  Y  Y3  1  0.363203  0.665412  0.952836  1
  Y  Y4  1  0.863203  0.547164  0.834588  1
  Y  Y5  1  0.363203  0.952836  0.834588  1
  Y  Y6  1  0.363203  0.547164  0.665412  1
  Y  Y7  1  0.863203  0.952836  0.665412  1
  Y  Y8  1  0.636797  0.165412  0.452837  1
  Y  Y9  1  0.136797  0.334588  0.452837  1
  Y  Y10  1  0.136797  0.165412  0.047164  1
  Y  Y11  1  0.636797  0.334588  0.047164  1
  Y  Y12  1  0.136797  0.452837  0.165412  1
  Y  Y13  1  0.636797  0.047164  0.165412  1
  Y  Y14  1  0.636797  0.452837  0.334588  1
  Y  Y15  1  0.136797  0.047164  0.334588  1
  Y  Y16  1  0.500000  0.750000  0.250000  1
  Y  Y17  1  0.000000  0.750000  0.250000  1
  Y  Y18  1  0.000000  0.250000  0.750000  1
  Y  Y19  1  0.500000  0.250000  0.750000  1
  Pd  Pd20  1  0.250000  0.904286  0.095714  1
  Pd  Pd21  1  0.750000  0.595714  0.095714  1
  Pd  Pd22  1  0.750000  0.904286  0.404286  1
  Pd  Pd23  1  0.250000  0.595714  0.404286  1
  Pd  Pd24  1  0.750000  0.095714  0.904286  1
  Pd  Pd25  1  0.250000  0.404286  0.904286  1
  Pd  Pd26  1  0.250000  0.095714  0.595714  1
  Pd  Pd27  1  0.750000  0.404286  0.595714  1
  Ru  Ru28  1  0.114619  0.750000  0.750000  1
  Ru  Ru29  1  0.614619  0.750000  0.750000  1
  Ru  Ru30  1  0.885381  0.250000  0.250000  1
  Ru  Ru31  1  0.385381  0.250000  0.250000  1
