# generated using pymatgen
data_Dy4Ho6InPb5
_symmetry_space_group_name_H-M   'P 1'
_cell_length_a   9.02255016
_cell_length_b   9.02463877
_cell_length_c   6.65507300
_cell_angle_alpha   90.00000000
_cell_angle_beta   90.00000000
_cell_angle_gamma   119.97079969
_symmetry_Int_Tables_number   1
_chemical_formula_structural   Dy4Ho6InPb5
_chemical_formula_sum   'Dy4 Ho6 In1 Pb5'
_cell_volume   469.42941577
_cell_formula_units_Z   1
loop_
 _symmetry_equiv_pos_site_id
 _symmetry_equiv_pos_as_xyz
  1  'x, y, z'
loop_
 _atom_site_type_symbol
 _atom_site_label
 _atom_site_symmetry_multiplicity
 _atom_site_fract_x
 _atom_site_fract_y
 _atom_site_fract_z
 _atom_site_occupancy
  Dy  Dy0  1  0.238786  0.999946  0.250000  1
  Dy  Dy1  1  0.237320  0.237087  0.750000  1
  Dy  Dy2  1  0.000155  0.762992  0.750000  1
  Dy  Dy3  1  0.995908  0.234364  0.250000  1
  Ho  Ho4  1  0.335823  0.669467  0.001689  1
  Ho  Ho5  1  0.666337  0.330619  0.498332  1
  Ho  Ho6  1  0.666337  0.330619  0.001668  1
  Ho  Ho7  1  0.335823  0.669467  0.498311  1
  Ho  Ho8  1  0.761544  0.765618  0.250000  1
  Ho  Ho9  1  0.762510  0.999939  0.750000  1
  In  In10  1  0.603614  0.999816  0.250000  1
  Pb  Pb11  1  0.605056  0.604258  0.750000  1
  Pb  Pb12  1  0.000738  0.395661  0.750000  1
  Pb  Pb13  1  0.999673  0.605353  0.250000  1
  Pb  Pb14  1  0.394698  0.394826  0.250000  1
  Pb  Pb15  1  0.395678  0.999969  0.750000  1
