# generated using pymatgen
data_LiTm19(Cd3Ru)2
_symmetry_space_group_name_H-M   'P 1'
_cell_length_a   9.37969500
_cell_length_b   9.37969462
_cell_length_c   9.63740600
_cell_angle_alpha   90.00000000
_cell_angle_beta   90.00000000
_cell_angle_gamma   119.99999781
_symmetry_Int_Tables_number   1
_chemical_formula_structural   LiTm19(Cd3Ru)2
_chemical_formula_sum   'Li1 Tm19 Cd6 Ru2'
_cell_volume   734.29101160
_cell_formula_units_Z   1
loop_
 _symmetry_equiv_pos_site_id
 _symmetry_equiv_pos_as_xyz
  1  'x, y, z'
loop_
 _atom_site_type_symbol
 _atom_site_label
 _atom_site_symmetry_multiplicity
 _atom_site_fract_x
 _atom_site_fract_y
 _atom_site_fract_z
 _atom_site_occupancy
  Li  Li0  1  0.000000  0.000000  0.500000  1
  Tm  Tm1  1  0.000000  0.000000  0.000000  1
  Tm  Tm2  1  0.208481  0.791519  0.441023  1
  Tm  Tm3  1  0.208481  0.416961  0.441023  1
  Tm  Tm4  1  0.583039  0.791519  0.441023  1
  Tm  Tm5  1  0.791519  0.208481  0.558977  1
  Tm  Tm6  1  0.791519  0.583039  0.558977  1
  Tm  Tm7  1  0.416961  0.208481  0.558977  1
  Tm  Tm8  1  0.789366  0.210634  0.942145  1
  Tm  Tm9  1  0.789366  0.578731  0.942145  1
  Tm  Tm10  1  0.421269  0.210634  0.942145  1
  Tm  Tm11  1  0.210634  0.789366  0.057855  1
  Tm  Tm12  1  0.210634  0.421269  0.057855  1
  Tm  Tm13  1  0.578731  0.789366  0.057855  1
  Tm  Tm14  1  0.541545  0.458455  0.251942  1
  Tm  Tm15  1  0.541545  0.083090  0.251942  1
  Tm  Tm16  1  0.916910  0.458455  0.251942  1
  Tm  Tm17  1  0.458455  0.541545  0.748058  1
  Tm  Tm18  1  0.458455  0.916910  0.748058  1
  Tm  Tm19  1  0.083090  0.541545  0.748058  1
  Cd  Cd20  1  0.888251  0.111749  0.257978  1
  Cd  Cd21  1  0.888251  0.776504  0.257978  1
  Cd  Cd22  1  0.223496  0.111749  0.257978  1
  Cd  Cd23  1  0.111749  0.888251  0.742022  1
  Cd  Cd24  1  0.111749  0.223496  0.742022  1
  Cd  Cd25  1  0.776504  0.888251  0.742022  1
  Ru  Ru26  1  0.333333  0.666667  0.250485  1
  Ru  Ru27  1  0.666667  0.333333  0.749515  1
