# generated using pymatgen
data_Dy2Ho6ZnIn3
_symmetry_space_group_name_H-M   'P 1'
_cell_length_a   10.62012900
_cell_length_b   10.62073603
_cell_length_c   6.76031302
_cell_angle_alpha   89.99914261
_cell_angle_beta   90.00000000
_cell_angle_gamma   119.99805973
_symmetry_Int_Tables_number   1
_chemical_formula_structural   Dy2Ho6ZnIn3
_chemical_formula_sum   'Dy4 Ho12 Zn2 In6'
_cell_volume   660.37456003
_cell_formula_units_Z   2
loop_
 _symmetry_equiv_pos_site_id
 _symmetry_equiv_pos_as_xyz
  1  'x, y, z'
loop_
 _atom_site_type_symbol
 _atom_site_label
 _atom_site_symmetry_multiplicity
 _atom_site_fract_x
 _atom_site_fract_y
 _atom_site_fract_z
 _atom_site_occupancy
  Dy  Dy0  1  0.521446  0.042893  0.525929  1
  Dy  Dy1  1  0.957266  0.478545  0.526196  1
  Dy  Dy2  1  0.521279  0.478543  0.526198  1
  Dy  Dy3  1  0.478819  0.957637  0.025974  1
  Ho  Ho4  1  0.042365  0.521394  0.026357  1
  Ho  Ho5  1  0.479030  0.521394  0.026359  1
  Ho  Ho6  1  0.172489  0.344980  0.743581  1
  Ho  Ho7  1  0.654649  0.827236  0.742665  1
  Ho  Ho8  1  0.172584  0.827237  0.742663  1
  Ho  Ho9  1  0.827463  0.654927  0.242188  1
  Ho  Ho10  1  0.344807  0.172654  0.242194  1
  Ho  Ho11  1  0.827850  0.172654  0.242193  1
  Ho  Ho12  1  0.666895  0.333794  0.876341  1
  Ho  Ho13  1  0.333271  0.666536  0.375633  1
  Ho  Ho14  1  0.999985  0.999975  0.507945  1
  Ho  Ho15  1  0.999962  0.999921  0.007669  1
  Zn  Zn16  1  0.666565  0.333128  0.308889  1
  Zn  Zn17  1  0.333028  0.666058  0.809340  1
  In  In18  1  0.835814  0.671626  0.759348  1
  In  In19  1  0.328654  0.164165  0.759551  1
  In  In20  1  0.835511  0.164166  0.759548  1
  In  In21  1  0.164643  0.329289  0.259831  1
  In  In22  1  0.671373  0.835623  0.259543  1
  In  In23  1  0.164251  0.835623  0.259544  1
