# generated using pymatgen
data_Dy6ScTa(Co4P3)4
_symmetry_space_group_name_H-M   'P 1'
_cell_length_a   3.71937700
_cell_length_b   10.66267600
_cell_length_c   12.36205100
_cell_angle_alpha   90.00000000
_cell_angle_beta   90.00000000
_cell_angle_gamma   90.00000000
_symmetry_Int_Tables_number   1
_chemical_formula_structural   Dy6ScTa(Co4P3)4
_chemical_formula_sum   'Dy6 Sc1 Ta1 Co16 P12'
_cell_volume   490.26054636
_cell_formula_units_Z   1
loop_
 _symmetry_equiv_pos_site_id
 _symmetry_equiv_pos_as_xyz
  1  'x, y, z'
loop_
 _atom_site_type_symbol
 _atom_site_label
 _atom_site_symmetry_multiplicity
 _atom_site_fract_x
 _atom_site_fract_y
 _atom_site_fract_z
 _atom_site_occupancy
  Dy  Dy0  1  0.000000  0.500000  0.526890  1
  Dy  Dy1  1  0.500000  0.000000  0.472684  1
  Dy  Dy2  1  0.500000  0.820181  0.204903  1
  Dy  Dy3  1  0.500000  0.179819  0.204903  1
  Dy  Dy4  1  0.000000  0.678434  0.795025  1
  Dy  Dy5  1  0.000000  0.321566  0.795025  1
  Sc  Sc6  1  0.000000  0.000000  0.845082  1
  Ta  Ta7  1  0.500000  0.500000  0.157281  1
  Co  Co8  1  0.500000  0.500000  0.702479  1
  Co  Co9  1  0.000000  0.000000  0.296891  1
  Co  Co10  1  0.000000  0.500000  0.987995  1
  Co  Co11  1  0.500000  0.000000  0.014584  1
  Co  Co12  1  0.500000  0.334442  0.993841  1
  Co  Co13  1  0.500000  0.665558  0.993841  1
  Co  Co14  1  0.000000  0.170389  0.007231  1
  Co  Co15  1  0.000000  0.829611  0.007231  1
  Co  Co16  1  0.500000  0.295965  0.431462  1
  Co  Co17  1  0.500000  0.704035  0.431462  1
  Co  Co18  1  0.000000  0.205086  0.566402  1
  Co  Co19  1  0.000000  0.794914  0.566402  1
  Co  Co20  1  0.500000  0.877297  0.703017  1
  Co  Co21  1  0.500000  0.122703  0.703017  1
  Co  Co22  1  0.000000  0.621395  0.295093  1
  Co  Co23  1  0.000000  0.378605  0.295093  1
  P  P24  1  0.500000  0.500000  0.882502  1
  P  P25  1  0.000000  0.000000  0.116147  1
  P  P26  1  0.500000  0.500000  0.357571  1
  P  P27  1  0.000000  0.000000  0.641697  1
  P  P28  1  0.500000  0.310032  0.615252  1
  P  P29  1  0.500000  0.689968  0.615252  1
  P  P30  1  0.000000  0.189791  0.384091  1
  P  P31  1  0.000000  0.810209  0.384091  1
  P  P32  1  0.500000  0.839370  0.894456  1
  P  P33  1  0.500000  0.160630  0.894456  1
  P  P34  1  0.000000  0.658703  0.108327  1
  P  P35  1  0.000000  0.341297  0.108327  1
