# generated using pymatgen
data_Ho4Lu2FeTe2
_symmetry_space_group_name_H-M   'P 1'
_cell_length_a   8.34857300
_cell_length_b   8.34857278
_cell_length_c   3.91199100
_cell_angle_alpha   90.00000000
_cell_angle_beta   90.00000000
_cell_angle_gamma   121.26887251
_symmetry_Int_Tables_number   1
_chemical_formula_structural   Ho4Lu2FeTe2
_chemical_formula_sum   'Ho4 Lu2 Fe1 Te2'
_cell_volume   233.05415112
_cell_formula_units_Z   1
loop_
 _symmetry_equiv_pos_site_id
 _symmetry_equiv_pos_as_xyz
  1  'x, y, z'
loop_
 _atom_site_type_symbol
 _atom_site_label
 _atom_site_symmetry_multiplicity
 _atom_site_fract_x
 _atom_site_fract_y
 _atom_site_fract_z
 _atom_site_occupancy
  Ho  Ho0  1  0.767419  0.767419  0.000000  1
  Ho  Ho1  1  0.600990  0.000210  0.500000  1
  Ho  Ho2  1  0.000210  0.600990  0.500000  1
  Ho  Ho3  1  0.387215  0.387215  0.500000  1
  Lu  Lu4  1  0.231172  0.994933  0.000000  1
  Lu  Lu5  1  0.994933  0.231172  0.000000  1
  Fe  Fe6  1  0.021239  0.021239  0.500000  1
  Te  Te7  1  0.331168  0.665656  0.000000  1
  Te  Te8  1  0.665656  0.331168  0.000000  1
