# generated using pymatgen
data_Sr2Si7(PdPt2)4
_symmetry_space_group_name_H-M   'P 1'
_cell_length_a   9.94627013
_cell_length_b   9.95054529
_cell_length_c   3.99044500
_cell_angle_alpha   89.99444924
_cell_angle_beta   89.99061034
_cell_angle_gamma   119.86875323
_symmetry_Int_Tables_number   1
_chemical_formula_structural   Sr2Si7(PdPt2)4
_chemical_formula_sum   'Sr2 Si7 Pd4 Pt8'
_cell_volume   342.47740671
_cell_formula_units_Z   1
loop_
 _symmetry_equiv_pos_site_id
 _symmetry_equiv_pos_as_xyz
  1  'x, y, z'
loop_
 _atom_site_type_symbol
 _atom_site_label
 _atom_site_symmetry_multiplicity
 _atom_site_fract_x
 _atom_site_fract_y
 _atom_site_fract_z
 _atom_site_occupancy
  Sr  Sr0  1  0.666209  0.332557  0.258454  1
  Sr  Sr1  1  0.999962  0.000579  0.758835  1
  Si  Si2  1  0.332119  0.664249  0.278178  1
  Si  Si3  1  0.741208  0.782313  0.258756  1
  Si  Si4  1  0.038642  0.258413  0.258981  1
  Si  Si5  1  0.220312  0.962165  0.258899  1
  Si  Si6  1  0.936192  0.559042  0.758718  1
  Si  Si7  1  0.622903  0.065638  0.758504  1
  Si  Si8  1  0.443581  0.377476  0.758704  1
  Pd  Pd9  1  0.448807  0.936532  0.257903  1
  Pd  Pd10  1  0.206778  0.763672  0.759017  1
  Pd  Pd11  1  0.556845  0.795406  0.758449  1
  Pd  Pd12  1  0.235014  0.438058  0.759517  1
  Pt  Pt13  1  0.770377  0.038602  0.258628  1
  Pt  Pt14  1  0.264247  0.227841  0.259065  1
  Pt  Pt15  1  0.963699  0.737526  0.258575  1
  Pt  Pt16  1  0.891435  0.281442  0.758726  1
  Pt  Pt17  1  0.392124  0.108429  0.758571  1
  Pt  Pt18  1  0.719786  0.609961  0.758565  1
  Pt  Pt19  1  0.490688  0.550011  0.258108  1
  Pt  Pt20  1  0.059071  0.510086  0.258361  1
