# generated using pymatgen
data_Ac3(AlGe2)2
_symmetry_space_group_name_H-M   'P 1'
_cell_length_a   4.61779376
_cell_length_b   4.57919940
_cell_length_c   22.59279845
_cell_angle_alpha   84.18353042
_cell_angle_beta   95.86565748
_cell_angle_gamma   90.00000491
_symmetry_Int_Tables_number   1
_chemical_formula_structural   Ac3(AlGe2)2
_chemical_formula_sum   'Ac6 Al4 Ge8'
_cell_volume   472.76880643
_cell_formula_units_Z   2
loop_
 _symmetry_equiv_pos_site_id
 _symmetry_equiv_pos_as_xyz
  1  'x, y, z'
loop_
 _atom_site_type_symbol
 _atom_site_label
 _atom_site_symmetry_multiplicity
 _atom_site_fract_x
 _atom_site_fract_y
 _atom_site_fract_z
 _atom_site_occupancy
  Ac  Ac0  1  0.375394  0.874606  0.250788  1
  Ac  Ac1  1  0.040547  0.209453  0.581092  1
  Ac  Ac2  1  0.706425  0.543575  0.912853  1
  Ac  Ac3  1  0.293385  0.456615  0.086770  1
  Ac  Ac4  1  0.959974  0.790026  0.419948  1
  Ac  Ac5  1  0.625146  0.124854  0.750291  1
  Al  Al6  1  0.904809  0.345191  0.309618  1
  Al  Al7  1  0.570529  0.679471  0.641057  1
  Al  Al8  1  0.236111  0.013889  0.972222  1
  Al  Al9  1  0.763406  0.986594  0.026812  1
  Ge  Ge10  1  0.429101  0.320899  0.358202  1
  Ge  Ge11  1  0.094636  0.655364  0.689273  1
  Ge  Ge12  1  0.848253  0.401747  0.196507  1
  Ge  Ge13  1  0.514578  0.735422  0.529155  1
  Ge  Ge14  1  0.179967  0.070033  0.859932  1
  Ge  Ge15  1  0.819754  0.930246  0.139510  1
  Ge  Ge16  1  0.486029  0.263971  0.472057  1
  Ge  Ge17  1  0.151958  0.598042  0.803914  1
