# generated using pymatgen
data_Dy3Er5(TcC2)4
_symmetry_space_group_name_H-M   'P 1'
_cell_length_a   5.06159700
_cell_length_b   6.55194600
_cell_length_c   9.82459117
_cell_angle_alpha   89.90558698
_cell_angle_beta   90.00000000
_cell_angle_gamma   90.00000000
_symmetry_Int_Tables_number   1
_chemical_formula_structural   Dy3Er5(TcC2)4
_chemical_formula_sum   'Dy3 Er5 Tc4 C8'
_cell_volume   325.81552255
_cell_formula_units_Z   1
loop_
 _symmetry_equiv_pos_site_id
 _symmetry_equiv_pos_as_xyz
  1  'x, y, z'
loop_
 _atom_site_type_symbol
 _atom_site_label
 _atom_site_symmetry_multiplicity
 _atom_site_fract_x
 _atom_site_fract_y
 _atom_site_fract_z
 _atom_site_occupancy
  Dy  Dy0  1  0.750000  0.466216  0.784725  1
  Dy  Dy1  1  0.750000  0.966214  0.714987  1
  Dy  Dy2  1  0.250000  0.034129  0.284749  1
  Er  Er3  1  0.250000  0.675113  0.558194  1
  Er  Er4  1  0.750000  0.325404  0.441581  1
  Er  Er5  1  0.750000  0.824742  0.058386  1
  Er  Er6  1  0.250000  0.174523  0.941856  1
  Er  Er7  1  0.250000  0.534231  0.215852  1
  Tc  Tc8  1  0.250000  0.717046  0.867007  1
  Tc  Tc9  1  0.750000  0.282923  0.133269  1
  Tc  Tc10  1  0.750000  0.782377  0.366440  1
  Tc  Tc11  1  0.250000  0.217799  0.633039  1
  C  C12  1  0.250000  0.449665  0.758813  1
  C  C13  1  0.750000  0.550310  0.240722  1
  C  C14  1  0.750000  0.050421  0.258865  1
  C  C15  1  0.250000  0.949646  0.741255  1
  C  C16  1  0.250000  0.822215  0.049958  1
  C  C17  1  0.750000  0.176002  0.950937  1
  C  C18  1  0.750000  0.675874  0.549097  1
  C  C19  1  0.250000  0.325153  0.450269  1
