# generated using pymatgen
data_Tm8Re2B24OsRu
_symmetry_space_group_name_H-M   'P 1'
_cell_length_a   3.62972500
_cell_length_b   9.08609135
_cell_length_c   11.45846457
_cell_angle_alpha   90.16652246
_cell_angle_beta   90.00000000
_cell_angle_gamma   90.00000000
_symmetry_Int_Tables_number   1
_chemical_formula_structural   Tm8Re2B24OsRu
_chemical_formula_sum   'Tm8 Re2 B24 Os1 Ru1'
_cell_volume   377.89871382
_cell_formula_units_Z   1
loop_
 _symmetry_equiv_pos_site_id
 _symmetry_equiv_pos_as_xyz
  1  'x, y, z'
loop_
 _atom_site_type_symbol
 _atom_site_label
 _atom_site_symmetry_multiplicity
 _atom_site_fract_x
 _atom_site_fract_y
 _atom_site_fract_z
 _atom_site_occupancy
  Tm  Tm0  1  0.000000  0.320075  0.412511  1
  Tm  Tm1  1  0.000000  0.679682  0.587533  1
  Tm  Tm2  1  0.000000  0.824146  0.084485  1
  Tm  Tm3  1  0.000000  0.176093  0.915461  1
  Tm  Tm4  1  0.000000  0.943117  0.370844  1
  Tm  Tm5  1  0.000000  0.057355  0.629292  1
  Tm  Tm6  1  0.000000  0.442343  0.128657  1
  Tm  Tm7  1  0.000000  0.557510  0.870942  1
  Re  Re8  1  0.000000  0.138165  0.179753  1
  Re  Re9  1  0.000000  0.861923  0.820282  1
  B  B10  1  0.500000  0.553324  0.433630  1
  B  B11  1  0.500000  0.446404  0.566603  1
  B  B12  1  0.500000  0.052876  0.066377  1
  B  B13  1  0.500000  0.947470  0.933524  1
  B  B14  1  0.500000  0.749148  0.419200  1
  B  B15  1  0.500000  0.250780  0.580727  1
  B  B16  1  0.500000  0.249434  0.080581  1
  B  B17  1  0.500000  0.750655  0.919535  1
  B  B18  1  0.500000  0.791047  0.265386  1
  B  B19  1  0.500000  0.209184  0.734527  1
  B  B20  1  0.500000  0.292045  0.235276  1
  B  B21  1  0.500000  0.707896  0.764850  1
  B  B22  1  0.500000  0.630237  0.185353  1
  B  B23  1  0.500000  0.369675  0.814651  1
  B  B24  1  0.500000  0.130536  0.315581  1
  B  B25  1  0.500000  0.869306  0.684444  1
  B  B26  1  0.500000  0.981270  0.212391  1
  B  B27  1  0.500000  0.018897  0.787513  1
  B  B28  1  0.500000  0.481814  0.288056  1
  B  B29  1  0.500000  0.517893  0.711939  1
  B  B30  1  0.500000  0.602310  0.028536  1
  B  B31  1  0.500000  0.397653  0.971390  1
  B  B32  1  0.500000  0.102479  0.471823  1
  B  B33  1  0.500000  0.897336  0.528259  1
  Os  Os34  1  0.000000  0.637304  0.321676  1
  Ru  Ru35  1  0.000000  0.362617  0.678409  1
