# generated using pymatgen
data_Nd4Er4Re3B24Os
_symmetry_space_group_name_H-M   'P 1'
_cell_length_a   3.71113200
_cell_length_b   9.22680080
_cell_length_c   11.67954710
_cell_angle_alpha   90.06224720
_cell_angle_beta   90.00000000
_cell_angle_gamma   90.00000000
_symmetry_Int_Tables_number   1
_chemical_formula_structural   Nd4Er4Re3B24Os
_chemical_formula_sum   'Nd4 Er4 Re3 B24 Os1'
_cell_volume   399.92936415
_cell_formula_units_Z   1
loop_
 _symmetry_equiv_pos_site_id
 _symmetry_equiv_pos_as_xyz
  1  'x, y, z'
loop_
 _atom_site_type_symbol
 _atom_site_label
 _atom_site_symmetry_multiplicity
 _atom_site_fract_x
 _atom_site_fract_y
 _atom_site_fract_z
 _atom_site_occupancy
  Nd  Nd0  1  0.000000  0.321788  0.414463  1
  Nd  Nd1  1  0.000000  0.677605  0.587277  1
  Nd  Nd2  1  0.000000  0.823784  0.084757  1
  Nd  Nd3  1  0.000000  0.177320  0.913634  1
  Er  Er4  1  0.000000  0.942817  0.369392  1
  Er  Er5  1  0.000000  0.056473  0.630041  1
  Er  Er6  1  0.000000  0.442663  0.130398  1
  Er  Er7  1  0.000000  0.556881  0.870110  1
  Re  Re8  1  0.000000  0.361262  0.679721  1
  Re  Re9  1  0.000000  0.139322  0.181059  1
  Re  Re10  1  0.000000  0.860588  0.819485  1
  B  B11  1  0.500000  0.555479  0.430497  1
  B  B12  1  0.500000  0.445200  0.569265  1
  B  B13  1  0.500000  0.054868  0.069113  1
  B  B14  1  0.500000  0.945197  0.930629  1
  B  B15  1  0.500000  0.749724  0.416094  1
  B  B16  1  0.500000  0.249392  0.583479  1
  B  B17  1  0.500000  0.250442  0.083648  1
  B  B18  1  0.500000  0.749991  0.916491  1
  B  B19  1  0.500000  0.790596  0.266449  1
  B  B20  1  0.500000  0.208561  0.733335  1
  B  B21  1  0.500000  0.291307  0.233814  1
  B  B22  1  0.500000  0.708390  0.766716  1
  B  B23  1  0.500000  0.629955  0.186679  1
  B  B24  1  0.500000  0.370490  0.813356  1
  B  B25  1  0.500000  0.129840  0.314096  1
  B  B26  1  0.500000  0.870106  0.686315  1
  B  B27  1  0.500000  0.984032  0.213314  1
  B  B28  1  0.500000  0.016117  0.786249  1
  B  B29  1  0.500000  0.484834  0.286893  1
  B  B30  1  0.500000  0.516574  0.713450  1
  B  B31  1  0.500000  0.597309  0.027408  1
  B  B32  1  0.500000  0.402803  0.973469  1
  B  B33  1  0.500000  0.096719  0.472814  1
  B  B34  1  0.500000  0.902121  0.526734  1
  Os  Os35  1  0.000000  0.639454  0.319354  1
