# generated using pymatgen
data_Ce12Fe5Si6Os
_symmetry_space_group_name_H-M   'P 1'
_cell_length_a   7.46844248
_cell_length_b   7.46844003
_cell_length_c   9.56923000
_cell_angle_alpha   89.86913569
_cell_angle_beta   89.86913573
_cell_angle_gamma   119.92293675
_symmetry_Int_Tables_number   1
_chemical_formula_structural   Ce12Fe5Si6Os
_chemical_formula_sum   'Ce12 Fe5 Si6 Os1'
_cell_volume   462.59375597
_cell_formula_units_Z   1
loop_
 _symmetry_equiv_pos_site_id
 _symmetry_equiv_pos_as_xyz
  1  'x, y, z'
loop_
 _atom_site_type_symbol
 _atom_site_label
 _atom_site_symmetry_multiplicity
 _atom_site_fract_x
 _atom_site_fract_y
 _atom_site_fract_z
 _atom_site_occupancy
  Ce  Ce0  1  0.998510  0.576427  0.498881  1
  Ce  Ce1  1  0.576427  0.998510  0.498881  1
  Ce  Ce2  1  0.421850  0.421850  0.498958  1
  Ce  Ce3  1  0.998495  0.425065  0.000510  1
  Ce  Ce4  1  0.425065  0.998495  0.000510  1
  Ce  Ce5  1  0.599421  0.599421  0.014819  1
  Ce  Ce6  1  0.004032  0.745037  0.173899  1
  Ce  Ce7  1  0.745037  0.004032  0.173899  1
  Ce  Ce8  1  0.259353  0.259353  0.173057  1
  Ce  Ce9  1  0.989522  0.254605  0.669224  1
  Ce  Ce10  1  0.254605  0.989522  0.669224  1
  Ce  Ce11  1  0.740932  0.740932  0.672054  1
  Fe  Fe12  1  0.999744  0.351923  0.341981  1
  Fe  Fe13  1  0.351923  0.999744  0.341981  1
  Fe  Fe14  1  0.649913  0.649913  0.344119  1
  Fe  Fe15  1  0.000002  0.649433  0.843332  1
  Fe  Fe16  1  0.649433  0.000002  0.843332  1
  Si  Si17  1  0.667471  0.334926  0.273403  1
  Si  Si18  1  0.334926  0.667471  0.273403  1
  Si  Si19  1  0.333108  0.663932  0.775293  1
  Si  Si20  1  0.663932  0.333108  0.775293  1
  Si  Si21  1  0.999604  0.999604  0.416914  1
  Si  Si22  1  0.000277  0.000277  0.916493  1
  Os  Os23  1  0.336420  0.336420  0.839790  1
