# generated using pymatgen
data_Pr8CdInIr2
_symmetry_space_group_name_H-M   'P 1'
_cell_length_a   10.05481639
_cell_length_b   10.05481628
_cell_length_c   10.04317600
_cell_angle_alpha   60.03828842
_cell_angle_beta   60.03828880
_cell_angle_gamma   60.00962983
_symmetry_Int_Tables_number   1
_chemical_formula_structural   Pr8CdInIr2
_chemical_formula_sum   'Pr16 Cd2 In2 Ir4'
_cell_volume   718.43435370
_cell_formula_units_Z   2
loop_
 _symmetry_equiv_pos_site_id
 _symmetry_equiv_pos_as_xyz
  1  'x, y, z'
loop_
 _atom_site_type_symbol
 _atom_site_label
 _atom_site_symmetry_multiplicity
 _atom_site_fract_x
 _atom_site_fract_y
 _atom_site_fract_z
 _atom_site_occupancy
  Pr  Pr0  1  0.348420  0.348420  0.347000  1
  Pr  Pr1  1  0.348420  0.348420  0.956159  1
  Pr  Pr2  1  0.349762  0.954173  0.348032  1
  Pr  Pr3  1  0.954173  0.349762  0.348032  1
  Pr  Pr4  1  0.808689  0.190475  0.191869  1
  Pr  Pr5  1  0.190475  0.808689  0.808967  1
  Pr  Pr6  1  0.190475  0.808689  0.191869  1
  Pr  Pr7  1  0.808689  0.190475  0.808967  1
  Pr  Pr8  1  0.189090  0.189090  0.810910  1
  Pr  Pr9  1  0.807247  0.807247  0.192753  1
  Pr  Pr10  1  0.941133  0.560825  0.560677  1
  Pr  Pr11  1  0.560825  0.941133  0.937365  1
  Pr  Pr12  1  0.560825  0.941133  0.560677  1
  Pr  Pr13  1  0.941133  0.560825  0.937365  1
  Pr  Pr14  1  0.560909  0.560909  0.939091  1
  Pr  Pr15  1  0.939570  0.939570  0.560430  1
  Cd  Cd16  1  0.578885  0.259997  0.580558  1
  Cd  Cd17  1  0.259997  0.578885  0.580558  1
  In  In18  1  0.580019  0.580019  0.581417  1
  In  In19  1  0.580019  0.580019  0.258544  1
  Ir  Ir20  1  0.141767  0.141767  0.140770  1
  Ir  Ir21  1  0.141767  0.141767  0.575695  1
  Ir  Ir22  1  0.142064  0.575644  0.141146  1
  Ir  Ir23  1  0.575644  0.142064  0.141146  1
