# generated using pymatgen
data_Eu2Ho3TmSe8
_symmetry_space_group_name_H-M   'P 1'
_cell_length_a   4.11850100
_cell_length_b   12.48603900
_cell_length_c   14.87090000
_cell_angle_alpha   90.00000000
_cell_angle_beta   90.00000000
_cell_angle_gamma   90.00000000
_symmetry_Int_Tables_number   1
_chemical_formula_structural   Eu2Ho3TmSe8
_chemical_formula_sum   'Eu4 Ho6 Tm2 Se16'
_cell_volume   764.71765367
_cell_formula_units_Z   2
loop_
 _symmetry_equiv_pos_site_id
 _symmetry_equiv_pos_as_xyz
  1  'x, y, z'
loop_
 _atom_site_type_symbol
 _atom_site_label
 _atom_site_symmetry_multiplicity
 _atom_site_fract_x
 _atom_site_fract_y
 _atom_site_fract_z
 _atom_site_occupancy
  Eu  Eu0  1  0.750000  0.741215  0.164833  1
  Eu  Eu1  1  0.750000  0.241215  0.335167  1
  Eu  Eu2  1  0.250000  0.258784  0.835071  1
  Eu  Eu3  1  0.250000  0.758784  0.664929  1
  Ho  Ho4  1  0.250000  0.917784  0.402213  1
  Ho  Ho5  1  0.250000  0.417784  0.097787  1
  Ho  Ho6  1  0.750000  0.064768  0.110556  1
  Ho  Ho7  1  0.750000  0.564768  0.389444  1
  Ho  Ho8  1  0.250000  0.935203  0.889311  1
  Ho  Ho9  1  0.250000  0.435204  0.610689  1
  Tm  Tm10  1  0.750000  0.082055  0.598016  1
  Tm  Tm11  1  0.750000  0.582055  0.901984  1
  Se  Se12  1  0.750000  0.292352  0.675096  1
  Se  Se13  1  0.750000  0.792352  0.824904  1
  Se  Se14  1  0.250000  0.706712  0.324476  1
  Se  Se15  1  0.250000  0.206712  0.175524  1
  Se  Se16  1  0.750000  0.368540  0.968548  1
  Se  Se17  1  0.750000  0.868540  0.531452  1
  Se  Se18  1  0.250000  0.632064  0.029898  1
  Se  Se19  1  0.250000  0.132064  0.470102  1
  Se  Se20  1  0.750000  0.974692  0.284304  1
  Se  Se21  1  0.750000  0.474692  0.215696  1
  Se  Se22  1  0.250000  0.025863  0.714637  1
  Se  Se23  1  0.250000  0.525863  0.785363  1
  Se  Se24  1  0.750000  0.090958  0.920943  1
  Se  Se25  1  0.750000  0.590958  0.579057  1
  Se  Se26  1  0.250000  0.909011  0.078979  1
  Se  Se27  1  0.250000  0.409011  0.421021  1
