# generated using pymatgen
data_Pr6YHoAu4
_symmetry_space_group_name_H-M   'P 1'
_cell_length_a   5.06224500
_cell_length_b   7.40630014
_cell_length_c   9.28945173
_cell_angle_alpha   89.82245029
_cell_angle_beta   90.00000000
_cell_angle_gamma   90.00000000
_symmetry_Int_Tables_number   1
_chemical_formula_structural   Pr6YHoAu4
_chemical_formula_sum   'Pr6 Y1 Ho1 Au4'
_cell_volume   348.28315105
_cell_formula_units_Z   1
loop_
 _symmetry_equiv_pos_site_id
 _symmetry_equiv_pos_as_xyz
  1  'x, y, z'
loop_
 _atom_site_type_symbol
 _atom_site_label
 _atom_site_symmetry_multiplicity
 _atom_site_fract_x
 _atom_site_fract_y
 _atom_site_fract_z
 _atom_site_occupancy
  Pr  Pr0  1  0.250000  0.490319  0.175459  1
  Pr  Pr1  1  0.750000  0.511527  0.824043  1
  Pr  Pr2  1  0.250000  0.991563  0.325580  1
  Pr  Pr3  1  0.750000  0.007874  0.675104  1
  Pr  Pr4  1  0.750000  0.650122  0.410607  1
  Pr  Pr5  1  0.250000  0.349639  0.589389  1
  Y  Y6  1  0.750000  0.149234  0.077280  1
  Ho  Ho7  1  0.250000  0.851541  0.922329  1
  Au  Au8  1  0.250000  0.241932  0.911175  1
  Au  Au9  1  0.750000  0.755819  0.087136  1
  Au  Au10  1  0.250000  0.757018  0.610922  1
  Au  Au11  1  0.750000  0.243411  0.390975  1
