# generated using pymatgen
data_TbSb3F18
_symmetry_space_group_name_H-M   'P 1'
_cell_length_a   9.48716700
_cell_length_b   9.48716757
_cell_length_c   8.65390000
_cell_angle_alpha   90.00000000
_cell_angle_beta   90.00000000
_cell_angle_gamma   120.00000150
_symmetry_Int_Tables_number   1
_chemical_formula_structural   TbSb3F18
_chemical_formula_sum   'Tb2 Sb6 F36'
_cell_volume   674.55227975
_cell_formula_units_Z   2
loop_
 _symmetry_equiv_pos_site_id
 _symmetry_equiv_pos_as_xyz
  1  'x, y, z'
loop_
 _atom_site_type_symbol
 _atom_site_label
 _atom_site_symmetry_multiplicity
 _atom_site_fract_x
 _atom_site_fract_y
 _atom_site_fract_z
 _atom_site_occupancy
  Tb  Tb0  1  0.333333  0.666667  0.576202  1
  Tb  Tb1  1  0.666667  0.333333  0.423798  1
  Sb  Sb2  1  0.982524  0.344462  0.766923  1
  Sb  Sb3  1  0.361938  0.017476  0.766923  1
  Sb  Sb4  1  0.655538  0.638062  0.766923  1
  Sb  Sb5  1  0.017476  0.655538  0.233077  1
  Sb  Sb6  1  0.638062  0.982524  0.233077  1
  Sb  Sb7  1  0.344462  0.361938  0.233077  1
  F  F8  1  0.472890  0.863620  0.397351  1
  F  F9  1  0.390730  0.527110  0.397351  1
  F  F10  1  0.136380  0.609270  0.397351  1
  F  F11  1  0.527110  0.136380  0.602649  1
  F  F12  1  0.609270  0.472890  0.602649  1
  F  F13  1  0.863620  0.390730  0.602649  1
  F  F14  1  0.108784  0.310091  0.912739  1
  F  F15  1  0.201306  0.891216  0.912739  1
  F  F16  1  0.689909  0.798694  0.912739  1
  F  F17  1  0.891216  0.689909  0.087261  1
  F  F18  1  0.798694  0.108784  0.087261  1
  F  F19  1  0.310091  0.201306  0.087261  1
  F  F20  1  0.854747  0.380670  0.909030  1
  F  F21  1  0.525924  0.145253  0.909030  1
  F  F22  1  0.619330  0.474076  0.909030  1
  F  F23  1  0.145253  0.619330  0.090970  1
  F  F24  1  0.474076  0.854747  0.090970  1
  F  F25  1  0.380670  0.525924  0.090970  1
  F  F26  1  0.239476  0.866659  0.599210  1
  F  F27  1  0.627182  0.760524  0.599210  1
  F  F28  1  0.133341  0.372818  0.599210  1
  F  F29  1  0.760524  0.133341  0.400790  1
  F  F30  1  0.372818  0.239476  0.400790  1
  F  F31  1  0.866659  0.627182  0.400790  1
  F  F32  1  0.843588  0.121903  0.725725  1
  F  F33  1  0.278315  0.156412  0.725725  1
  F  F34  1  0.878097  0.721685  0.725725  1
  F  F35  1  0.156412  0.878097  0.274275  1
  F  F36  1  0.721685  0.843588  0.274275  1
  F  F37  1  0.121903  0.278315  0.274275  1
  F  F38  1  0.132602  0.583156  0.762114  1
  F  F39  1  0.450553  0.867398  0.762114  1
  F  F40  1  0.416844  0.549447  0.762114  1
  F  F41  1  0.867398  0.416844  0.237886  1
  F  F42  1  0.549447  0.132602  0.237886  1
  F  F43  1  0.583156  0.450553  0.237886  1
