# generated using pymatgen
data_Dy5BSe4
_symmetry_space_group_name_H-M   'P 1'
_cell_length_a   7.00159090
_cell_length_b   7.00159063
_cell_length_c   7.00159095
_cell_angle_alpha   99.50269333
_cell_angle_beta   99.50268908
_cell_angle_gamma   132.05256448
_symmetry_Int_Tables_number   1
_chemical_formula_structural   Dy5BSe4
_chemical_formula_sum   'Dy5 B1 Se4'
_cell_volume   232.87526990
_cell_formula_units_Z   1
loop_
 _symmetry_equiv_pos_site_id
 _symmetry_equiv_pos_as_xyz
  1  'x, y, z'
loop_
 _atom_site_type_symbol
 _atom_site_label
 _atom_site_symmetry_multiplicity
 _atom_site_fract_x
 _atom_site_fract_y
 _atom_site_fract_z
 _atom_site_occupancy
  Dy  Dy0  1  0.409494  0.769596  0.179090  1
  Dy  Dy1  1  0.000000  0.000000  0.000000  1
  Dy  Dy2  1  0.590506  0.230404  0.820910  1
  Dy  Dy3  1  0.230404  0.409494  0.639898  1
  Dy  Dy4  1  0.769596  0.590506  0.360102  1
  B  B5  1  0.500000  0.500000  0.000000  1
  Se  Se6  1  0.093927  0.695967  0.789893  1
  Se  Se7  1  0.695967  0.906073  0.602041  1
  Se  Se8  1  0.304033  0.093927  0.397959  1
  Se  Se9  1  0.906073  0.304033  0.210107  1
