# generated using pymatgen
data_TbDy5GaTcNi
_symmetry_space_group_name_H-M   'P 1'
_cell_length_a   8.35540668
_cell_length_b   8.35545227
_cell_length_c   8.35540675
_cell_angle_alpha   104.37562778
_cell_angle_beta   110.94915962
_cell_angle_gamma   113.21479596
_symmetry_Int_Tables_number   1
_chemical_formula_structural   TbDy5GaTcNi
_chemical_formula_sum   'Tb2 Dy10 Ga2 Tc2 Ni2'
_cell_volume   446.21497327
_cell_formula_units_Z   2
loop_
 _symmetry_equiv_pos_site_id
 _symmetry_equiv_pos_as_xyz
  1  'x, y, z'
loop_
 _atom_site_type_symbol
 _atom_site_label
 _atom_site_symmetry_multiplicity
 _atom_site_fract_x
 _atom_site_fract_y
 _atom_site_fract_z
 _atom_site_occupancy
  Tb  Tb0  1  0.038765  0.219038  0.819749  1
  Tb  Tb1  1  0.399289  0.219038  0.180275  1
  Dy  Dy2  1  0.690482  0.256935  0.947398  1
  Dy  Dy3  1  0.309564  0.743078  0.052624  1
  Dy  Dy4  1  0.690453  0.743078  0.433514  1
  Dy  Dy5  1  0.309537  0.256935  0.566452  1
  Dy  Dy6  1  0.814760  0.146733  0.331973  1
  Dy  Dy7  1  0.814706  0.482689  0.667982  1
  Dy  Dy8  1  0.185316  0.852919  0.667603  1
  Dy  Dy9  1  0.185263  0.517615  0.332352  1
  Dy  Dy10  1  0.600958  0.780936  0.820044  1
  Dy  Dy11  1  0.960891  0.780936  0.179980  1
  Ga  Ga12  1  0.500605  0.500603  0.999998  1
  Ga  Ga13  1  0.499965  0.999958  0.499993  1
  Tc  Tc14  1  0.821019  0.500106  0.320869  1
  Tc  Tc15  1  0.179238  0.500106  0.679087  1
  Ni  Ni16  1  0.999592  0.116810  0.117217  1
  Ni  Ni17  1  0.999597  0.882486  0.882889  1
