# generated using pymatgen
data_Dy3Y17Ir11Au
_symmetry_space_group_name_H-M   'P 1'
_cell_length_a   10.99235623
_cell_length_b   10.99255125
_cell_length_c   6.37403045
_cell_angle_alpha   89.98440248
_cell_angle_beta   89.99470682
_cell_angle_gamma   89.45033430
_symmetry_Int_Tables_number   1
_chemical_formula_structural   Dy3Y17Ir11Au
_chemical_formula_sum   'Dy3 Y17 Ir11 Au1'
_cell_volume   770.16437121
_cell_formula_units_Z   1
loop_
 _symmetry_equiv_pos_site_id
 _symmetry_equiv_pos_as_xyz
  1  'x, y, z'
loop_
 _atom_site_type_symbol
 _atom_site_label
 _atom_site_symmetry_multiplicity
 _atom_site_fract_x
 _atom_site_fract_y
 _atom_site_fract_z
 _atom_site_occupancy
  Dy  Dy0  1  0.004431  0.996787  0.998659  1
  Dy  Dy1  1  0.498806  0.499152  0.998769  1
  Dy  Dy2  1  0.500829  0.501177  0.501271  1
  Y  Y3  1  0.289924  0.088119  0.377337  1
  Y  Y4  1  0.293104  0.910596  0.876739  1
  Y  Y5  1  0.704008  0.084431  0.865927  1
  Y  Y6  1  0.705046  0.904069  0.381052  1
  Y  Y7  1  0.588028  0.790844  0.879926  1
  Y  Y8  1  0.579153  0.210044  0.378422  1
  Y  Y9  1  0.410449  0.790997  0.378424  1
  Y  Y10  1  0.409497  0.207874  0.878575  1
  Y  Y11  1  0.209160  0.411914  0.620157  1
  Y  Y12  1  0.209003  0.589471  0.121517  1
  Y  Y13  1  0.789964  0.420879  0.121445  1
  Y  Y14  1  0.792134  0.590538  0.621446  1
  Y  Y15  1  0.911971  0.710120  0.122646  1
  Y  Y16  1  0.915556  0.296030  0.634124  1
  Y  Y17  1  0.089467  0.706882  0.623278  1
  Y  Y18  1  0.095857  0.294898  0.119006  1
  Y  Y19  1  0.003134  0.995678  0.501256  1
  Ir  Ir20  1  0.846950  0.848481  0.750049  1
  Ir  Ir21  1  0.151537  0.152960  0.750935  1
  Ir  Ir22  1  0.155349  0.844623  0.249417  1
  Ir  Ir23  1  0.654946  0.345066  0.749962  1
  Ir  Ir24  1  0.653257  0.651557  0.248281  1
  Ir  Ir25  1  0.348458  0.346760  0.251673  1
  Ir  Ir26  1  0.346794  0.653198  0.749988  1
  Ir  Ir27  1  0.500358  0.999943  0.126561  1
  Ir  Ir28  1  0.499340  0.000239  0.622264  1
  Ir  Ir29  1  0.999742  0.500676  0.877723  1
  Ir  Ir30  1  0.000062  0.499636  0.373457  1
  Au  Au31  1  0.843688  0.156358  0.249714  1
