# generated using pymatgen
data_TbDy3(HoAu)4
_symmetry_space_group_name_H-M   'P 1'
_cell_length_a   4.94073700
_cell_length_b   7.13504232
_cell_length_c   8.96051633
_cell_angle_alpha   90.00173165
_cell_angle_beta   90.00000000
_cell_angle_gamma   90.00000000
_symmetry_Int_Tables_number   1
_chemical_formula_structural   TbDy3(HoAu)4
_chemical_formula_sum   'Tb1 Dy3 Ho4 Au4'
_cell_volume   315.87941541
_cell_formula_units_Z   1
loop_
 _symmetry_equiv_pos_site_id
 _symmetry_equiv_pos_as_xyz
  1  'x, y, z'
loop_
 _atom_site_type_symbol
 _atom_site_label
 _atom_site_symmetry_multiplicity
 _atom_site_fract_x
 _atom_site_fract_y
 _atom_site_fract_z
 _atom_site_occupancy
  Tb  Tb0  1  0.750000  0.013262  0.676773  1
  Dy  Dy1  1  0.250000  0.486770  0.176637  1
  Dy  Dy2  1  0.750000  0.513278  0.823354  1
  Dy  Dy3  1  0.250000  0.986715  0.323243  1
  Ho  Ho4  1  0.750000  0.648469  0.419591  1
  Ho  Ho5  1  0.250000  0.351592  0.580383  1
  Ho  Ho6  1  0.750000  0.148594  0.080483  1
  Ho  Ho7  1  0.250000  0.851400  0.919632  1
  Au  Au8  1  0.250000  0.256484  0.900620  1
  Au  Au9  1  0.750000  0.743482  0.099373  1
  Au  Au10  1  0.250000  0.756378  0.599299  1
  Au  Au11  1  0.750000  0.243577  0.400612  1
