# generated using pymatgen
data_Al9GaPtPb3O20
_symmetry_space_group_name_H-M   'P 1'
_cell_length_a   9.64999369
_cell_length_b   9.65116834
_cell_length_c   5.11817874
_cell_angle_alpha   74.72595346
_cell_angle_beta   74.66982180
_cell_angle_gamma   73.35798068
_symmetry_Int_Tables_number   1
_chemical_formula_structural   Al9GaPtPb3O20
_chemical_formula_sum   'Al9 Ga1 Pt1 Pb3 O20'
_cell_volume   431.27288713
_cell_formula_units_Z   1
loop_
 _symmetry_equiv_pos_site_id
 _symmetry_equiv_pos_as_xyz
  1  'x, y, z'
loop_
 _atom_site_type_symbol
 _atom_site_label
 _atom_site_symmetry_multiplicity
 _atom_site_fract_x
 _atom_site_fract_y
 _atom_site_fract_z
 _atom_site_occupancy
  Al  Al0  1  0.637939  0.363086  0.500701  1
  Al  Al1  1  0.364749  0.637585  0.500651  1
  Al  Al2  1  0.283123  0.006125  0.370506  1
  Al  Al3  1  0.990213  0.720267  0.630690  1
  Al  Al4  1  0.715574  0.994339  0.630307  1
  Al  Al5  1  0.006283  0.279234  0.371543  1
  Al  Al6  1  0.579995  0.149686  0.105812  1
  Al  Al7  1  0.851938  0.419399  0.895157  1
  Al  Al8  1  0.419428  0.850581  0.894960  1
  Ga  Ga9  1  0.146896  0.580791  0.105203  1
  Pt  Pt10  1  0.501783  0.499291  0.001246  1
  Pb  Pb11  1  0.998899  0.000714  0.999155  1
  Pb  Pb12  1  0.725484  0.729523  0.212498  1
  Pb  Pb13  1  0.276267  0.271922  0.779777  1
  O  O14  1  0.568142  0.565866  0.282339  1
  O  O15  1  0.434181  0.433685  0.721174  1
  O  O16  1  0.102680  0.099690  0.314731  1
  O  O17  1  0.893058  0.897461  0.697256  1
  O  O18  1  0.402563  0.118025  0.150986  1
  O  O19  1  0.882862  0.597250  0.850845  1
  O  O20  1  0.596792  0.881980  0.848074  1
  O  O21  1  0.119821  0.394558  0.142838  1
  O  O22  1  0.341515  0.830340  0.262043  1
  O  O23  1  0.168746  0.665570  0.722966  1
  O  O24  1  0.659789  0.169637  0.738620  1
  O  O25  1  0.831254  0.337965  0.262196  1
  O  O26  1  0.987211  0.288177  0.720113  1
  O  O27  1  0.712205  0.014210  0.278256  1
  O  O28  1  0.006181  0.723570  0.275941  1
  O  O29  1  0.287579  0.985611  0.722456  1
  O  O30  1  0.698059  0.443548  0.740947  1
  O  O31  1  0.557965  0.303128  0.259020  1
  O  O32  1  0.307796  0.551377  0.266221  1
  O  O33  1  0.443029  0.695809  0.744775  1
