# generated using pymatgen
data_Nd2Mn(Al2Pt)8
_symmetry_space_group_name_H-M   'P 1'
_cell_length_a   11.17122376
_cell_length_b   11.17122481
_cell_length_c   11.17122425
_cell_angle_alpha   158.49329363
_cell_angle_beta   116.25501867
_cell_angle_gamma   68.11518165
_symmetry_Int_Tables_number   1
_chemical_formula_structural   Nd2Mn(Al2Pt)8
_chemical_formula_sum   'Nd2 Mn1 Al16 Pt8'
_cell_volume   455.16572319
_cell_formula_units_Z   1
loop_
 _symmetry_equiv_pos_site_id
 _symmetry_equiv_pos_as_xyz
  1  'x, y, z'
loop_
 _atom_site_type_symbol
 _atom_site_label
 _atom_site_symmetry_multiplicity
 _atom_site_fract_x
 _atom_site_fract_y
 _atom_site_fract_z
 _atom_site_occupancy
  Nd  Nd0  1  0.229333  0.230274  0.999059  1
  Nd  Nd1  1  0.768785  0.769726  0.999059  1
  Mn  Mn2  1  0.778016  0.500000  0.278016  1
  Al  Al3  1  0.275358  0.392056  0.883302  1
  Al  Al4  1  0.090551  0.923822  0.166729  1
  Al  Al5  1  0.506438  0.202470  0.303969  1
  Al  Al6  1  0.242906  0.076178  0.166729  1
  Al  Al7  1  0.910498  0.416193  0.494305  1
  Al  Al8  1  0.722616  0.598238  0.124378  1
  Al  Al9  1  0.900791  0.207295  0.693496  1
  Al  Al10  1  0.486202  0.792705  0.693496  1
  Al  Al11  1  0.388027  0.000000  0.388027  1
  Al  Al12  1  0.625254  0.000000  0.625254  1
  Al  Al13  1  0.491246  0.607944  0.883302  1
  Al  Al14  1  0.101499  0.797530  0.303969  1
  Al  Al15  1  0.903823  0.083251  0.820572  1
  Al  Al16  1  0.737322  0.916749  0.820572  1
  Al  Al17  1  0.526140  0.401762  0.124378  1
  Al  Al18  1  0.078113  0.583807  0.494305  1
  Pt  Pt19  1  0.026103  0.342810  0.683292  1
  Pt  Pt20  1  0.627537  0.124846  0.502691  1
  Pt  Pt21  1  0.255953  0.500000  0.755953  1
  Pt  Pt22  1  0.377845  0.875154  0.502691  1
  Pt  Pt23  1  0.986121  0.000000  0.986121  1
  Pt  Pt24  1  0.649510  0.337989  0.311521  1
  Pt  Pt25  1  0.340482  0.657190  0.683292  1
  Pt  Pt26  1  0.973532  0.662011  0.311521  1
