# generated using pymatgen
data_CaTb2Y4NiI12
_symmetry_space_group_name_H-M   'P 1'
_cell_length_a   9.77119049
_cell_length_b   9.77439287
_cell_length_c   9.77490961
_cell_angle_alpha   106.86126236
_cell_angle_beta   106.83663915
_cell_angle_gamma   106.86767328
_symmetry_Int_Tables_number   1
_chemical_formula_structural   CaTb2Y4NiI12
_chemical_formula_sum   'Ca1 Tb2 Y4 Ni1 I12'
_cell_volume   780.54248176
_cell_formula_units_Z   1
loop_
 _symmetry_equiv_pos_site_id
 _symmetry_equiv_pos_as_xyz
  1  'x, y, z'
loop_
 _atom_site_type_symbol
 _atom_site_label
 _atom_site_symmetry_multiplicity
 _atom_site_fract_x
 _atom_site_fract_y
 _atom_site_fract_z
 _atom_site_occupancy
  Ca  Ca0  1  0.499958  0.499963  0.500000  1
  Tb  Tb1  1  0.294271  0.095649  0.024970  1
  Tb  Tb2  1  0.024728  0.294245  0.095792  1
  Y  Y3  1  0.903984  0.974552  0.705416  1
  Y  Y4  1  0.705525  0.904118  0.974790  1
  Y  Y5  1  0.974642  0.705482  0.904333  1
  Y  Y6  1  0.095637  0.024810  0.294454  1
  Ni  Ni7  1  0.000759  0.000907  0.000204  1
  I  I8  1  0.926649  0.320836  0.776251  1
  I  I9  1  0.776740  0.926778  0.320853  1
  I  I10  1  0.320864  0.776219  0.926631  1
  I  I11  1  0.073182  0.679611  0.223161  1
  I  I12  1  0.223048  0.073101  0.678804  1
  I  I13  1  0.679262  0.223049  0.073131  1
  I  I14  1  0.543077  0.850141  0.620842  1
  I  I15  1  0.620804  0.543081  0.850153  1
  I  I16  1  0.850177  0.620823  0.543136  1
  I  I17  1  0.457022  0.149860  0.379510  1
  I  I18  1  0.379624  0.457542  0.150148  1
  I  I19  1  0.150048  0.379232  0.457420  1
