# generated using pymatgen
data_Ho8Si12IrRh3
_symmetry_space_group_name_H-M   'P 1'
_cell_length_a   8.15655100
_cell_length_b   8.15655093
_cell_length_c   7.84895200
_cell_angle_alpha   90.00000000
_cell_angle_beta   90.00000000
_cell_angle_gamma   120.00000435
_symmetry_Int_Tables_number   1
_chemical_formula_structural   Ho8Si12IrRh3
_chemical_formula_sum   'Ho8 Si12 Ir1 Rh3'
_cell_volume   452.22586066
_cell_formula_units_Z   1
loop_
 _symmetry_equiv_pos_site_id
 _symmetry_equiv_pos_as_xyz
  1  'x, y, z'
loop_
 _atom_site_type_symbol
 _atom_site_label
 _atom_site_symmetry_multiplicity
 _atom_site_fract_x
 _atom_site_fract_y
 _atom_site_fract_z
 _atom_site_occupancy
  Ho  Ho0  1  0.000000  0.000000  0.248889  1
  Ho  Ho1  1  0.000000  0.000000  0.750452  1
  Ho  Ho2  1  0.508761  0.491239  0.250211  1
  Ho  Ho3  1  0.508761  0.017523  0.250211  1
  Ho  Ho4  1  0.982477  0.491239  0.250211  1
  Ho  Ho5  1  0.490519  0.509481  0.749876  1
  Ho  Ho6  1  0.490519  0.981038  0.749876  1
  Ho  Ho7  1  0.018962  0.509481  0.749876  1
  Si  Si8  1  0.166416  0.833584  0.499231  1
  Si  Si9  1  0.166416  0.332831  0.499231  1
  Si  Si10  1  0.667169  0.833584  0.499231  1
  Si  Si11  1  0.832805  0.167195  0.500242  1
  Si  Si12  1  0.832805  0.665611  0.500242  1
  Si  Si13  1  0.334389  0.167195  0.500242  1
  Si  Si14  1  0.832991  0.167009  0.999810  1
  Si  Si15  1  0.832991  0.665984  0.999810  1
  Si  Si16  1  0.334016  0.167009  0.999810  1
  Si  Si17  1  0.166920  0.833080  0.999682  1
  Si  Si18  1  0.166920  0.333838  0.999682  1
  Si  Si19  1  0.666162  0.833080  0.999682  1
  Ir  Ir20  1  0.333333  0.666667  0.467631  1
  Rh  Rh21  1  0.666667  0.333333  0.534021  1
  Rh  Rh22  1  0.666667  0.333333  0.965385  1
  Rh  Rh23  1  0.333333  0.666667  0.036466  1
