# generated using pymatgen
data_Tb6Y6Th4Mg3HgIr4
_symmetry_space_group_name_H-M   'P 1'
_cell_length_a   9.85484241
_cell_length_b   9.85484303
_cell_length_c   9.85484300
_cell_angle_alpha   60.00000345
_cell_angle_beta   60.00000139
_cell_angle_gamma   60.00000298
_symmetry_Int_Tables_number   1
_chemical_formula_structural   Tb6Y6Th4Mg3HgIr4
_chemical_formula_sum   'Tb6 Y6 Th4 Mg3 Hg1 Ir4'
_cell_volume   676.75914431
_cell_formula_units_Z   1
loop_
 _symmetry_equiv_pos_site_id
 _symmetry_equiv_pos_as_xyz
  1  'x, y, z'
loop_
 _atom_site_type_symbol
 _atom_site_label
 _atom_site_symmetry_multiplicity
 _atom_site_fract_x
 _atom_site_fract_y
 _atom_site_fract_z
 _atom_site_occupancy
  Tb  Tb0  1  0.062710  0.437340  0.437340  1
  Tb  Tb1  1  0.437320  0.061603  0.061603  1
  Tb  Tb2  1  0.437340  0.062710  0.437340  1
  Tb  Tb3  1  0.061603  0.437320  0.061603  1
  Tb  Tb4  1  0.437340  0.437340  0.062710  1
  Tb  Tb5  1  0.061603  0.061603  0.437320  1
  Y  Y6  1  0.182631  0.813986  0.813986  1
  Y  Y7  1  0.814710  0.184716  0.184716  1
  Y  Y8  1  0.813986  0.182631  0.813986  1
  Y  Y9  1  0.184716  0.814710  0.184716  1
  Y  Y10  1  0.813986  0.813986  0.182631  1
  Y  Y11  1  0.184716  0.184716  0.814710  1
  Th  Th12  1  0.598070  0.598070  0.598070  1
  Th  Th13  1  0.598433  0.598433  0.205247  1
  Th  Th14  1  0.598433  0.205247  0.598433  1
  Th  Th15  1  0.205247  0.598433  0.598433  1
  Mg  Mg16  1  0.830611  0.830611  0.511391  1
  Mg  Mg17  1  0.830611  0.511391  0.830611  1
  Mg  Mg18  1  0.511391  0.830611  0.830611  1
  Hg  Hg19  1  0.834461  0.834461  0.834461  1
  Ir  Ir20  1  0.393834  0.393834  0.393834  1
  Ir  Ir21  1  0.393781  0.393781  0.818686  1
  Ir  Ir22  1  0.393781  0.818686  0.393781  1
  Ir  Ir23  1  0.818686  0.393781  0.393781  1
