# generated using pymatgen
data_Hf5ZrAl16CoNi6
_symmetry_space_group_name_H-M   'P 1'
_cell_length_a   8.49518322
_cell_length_b   8.49518312
_cell_length_c   8.50877700
_cell_angle_alpha   59.94705601
_cell_angle_beta   59.94705639
_cell_angle_gamma   60.10589019
_symmetry_Int_Tables_number   1
_chemical_formula_structural   Hf5ZrAl16CoNi6
_chemical_formula_sum   'Hf5 Zr1 Al16 Co1 Ni6'
_cell_volume   434.20559942
_cell_formula_units_Z   1
loop_
 _symmetry_equiv_pos_site_id
 _symmetry_equiv_pos_as_xyz
  1  'x, y, z'
loop_
 _atom_site_type_symbol
 _atom_site_label
 _atom_site_symmetry_multiplicity
 _atom_site_fract_x
 _atom_site_fract_y
 _atom_site_fract_z
 _atom_site_occupancy
  Hf  Hf0  1  0.310609  0.688642  0.311358  1
  Hf  Hf1  1  0.688642  0.310609  0.311358  1
  Hf  Hf2  1  0.313432  0.313432  0.686568  1
  Hf  Hf3  1  0.688642  0.310609  0.689391  1
  Hf  Hf4  1  0.310609  0.688642  0.689391  1
  Zr  Zr5  1  0.688773  0.688773  0.311227  1
  Al  Al6  1  0.882215  0.882215  0.353906  1
  Al  Al7  1  0.882218  0.353521  0.882130  1
  Al  Al8  1  0.353521  0.882218  0.882130  1
  Al  Al9  1  0.882215  0.882215  0.881664  1
  Al  Al10  1  0.117870  0.117870  0.646479  1
  Al  Al11  1  0.118336  0.646094  0.117785  1
  Al  Al12  1  0.646094  0.118336  0.117785  1
  Al  Al13  1  0.117870  0.117870  0.117782  1
  Al  Al14  1  0.666164  0.666164  0.000753  1
  Al  Al15  1  0.666328  0.001351  0.666161  1
  Al  Al16  1  0.001351  0.666328  0.666161  1
  Al  Al17  1  0.666164  0.666164  0.666920  1
  Al  Al18  1  0.333839  0.333839  0.998649  1
  Al  Al19  1  0.333080  0.999247  0.333836  1
  Al  Al20  1  0.999247  0.333080  0.333836  1
  Al  Al21  1  0.333839  0.333839  0.333672  1
  Co  Co22  1  0.999682  0.999682  0.000318  1
  Ni  Ni23  1  0.999917  0.999917  0.500083  1
  Ni  Ni24  1  0.499159  0.000553  0.500841  1
  Ni  Ni25  1  0.000553  0.499159  0.500841  1
  Ni  Ni26  1  0.499917  0.499917  0.000083  1
  Ni  Ni27  1  0.000553  0.499159  0.999447  1
  Ni  Ni28  1  0.499159  0.000553  0.999447  1
