# generated using pymatgen
data_Zr16Ni4Os3Ru
_symmetry_space_group_name_H-M   'P 1'
_cell_length_a   8.71451794
_cell_length_b   8.71451778
_cell_length_c   8.71965651
_cell_angle_alpha   60.01949625
_cell_angle_beta   60.01949519
_cell_angle_gamma   60.00000670
_symmetry_Int_Tables_number   1
_chemical_formula_structural   Zr16Ni4Os3Ru
_chemical_formula_sum   'Zr16 Ni4 Os3 Ru1'
_cell_volume   468.38075696
_cell_formula_units_Z   1
loop_
 _symmetry_equiv_pos_site_id
 _symmetry_equiv_pos_as_xyz
  1  'x, y, z'
loop_
 _atom_site_type_symbol
 _atom_site_label
 _atom_site_symmetry_multiplicity
 _atom_site_fract_x
 _atom_site_fract_y
 _atom_site_fract_z
 _atom_site_occupancy
  Zr  Zr0  1  0.185726  0.604713  0.604850  1
  Zr  Zr1  1  0.604713  0.185726  0.604850  1
  Zr  Zr2  1  0.604713  0.604713  0.604850  1
  Zr  Zr3  1  0.604011  0.604011  0.187970  1
  Zr  Zr4  1  0.451529  0.451529  0.048422  1
  Zr  Zr5  1  0.048512  0.048512  0.451988  1
  Zr  Zr6  1  0.451529  0.048520  0.048422  1
  Zr  Zr7  1  0.048512  0.450989  0.451988  1
  Zr  Zr8  1  0.048520  0.451529  0.048422  1
  Zr  Zr9  1  0.450989  0.048512  0.451988  1
  Zr  Zr10  1  0.815518  0.815518  0.182940  1
  Zr  Zr11  1  0.184937  0.184937  0.815038  1
  Zr  Zr12  1  0.815518  0.186024  0.182940  1
  Zr  Zr13  1  0.184937  0.815087  0.815038  1
  Zr  Zr14  1  0.186024  0.815518  0.182940  1
  Zr  Zr15  1  0.815087  0.184937  0.815038  1
  Ni  Ni16  1  0.825083  0.391383  0.392152  1
  Ni  Ni17  1  0.391383  0.825083  0.392152  1
  Ni  Ni18  1  0.391383  0.391383  0.392152  1
  Ni  Ni19  1  0.391909  0.391909  0.824272  1
  Os  Os20  1  0.503510  0.831815  0.832862  1
  Os  Os21  1  0.831815  0.503510  0.832862  1
  Os  Os22  1  0.831815  0.831815  0.832862  1
  Ru  Ru23  1  0.832330  0.832330  0.503010  1
