# generated using pymatgen
data_TbSmB6Os
_symmetry_space_group_name_H-M   'P 1'
_cell_length_a   3.69758600
_cell_length_b   9.24080800
_cell_length_c   11.64402400
_cell_angle_alpha   90.00000000
_cell_angle_beta   90.00000000
_cell_angle_gamma   90.00000000
_symmetry_Int_Tables_number   1
_chemical_formula_structural   TbSmB6Os
_chemical_formula_sum   'Tb4 Sm4 B24 Os4'
_cell_volume   397.86095663
_cell_formula_units_Z   4
loop_
 _symmetry_equiv_pos_site_id
 _symmetry_equiv_pos_as_xyz
  1  'x, y, z'
loop_
 _atom_site_type_symbol
 _atom_site_label
 _atom_site_symmetry_multiplicity
 _atom_site_fract_x
 _atom_site_fract_y
 _atom_site_fract_z
 _atom_site_occupancy
  Tb  Tb0  1  0.000000  0.944165  0.372753  1
  Tb  Tb1  1  0.000000  0.055835  0.627247  1
  Tb  Tb2  1  0.000000  0.444165  0.127247  1
  Tb  Tb3  1  0.000000  0.555835  0.872753  1
  Sm  Sm4  1  0.000000  0.323656  0.413580  1
  Sm  Sm5  1  0.000000  0.676344  0.586420  1
  Sm  Sm6  1  0.000000  0.823656  0.086420  1
  Sm  Sm7  1  0.000000  0.176344  0.913580  1
  B  B8  1  0.500000  0.554981  0.431534  1
  B  B9  1  0.500000  0.445019  0.568466  1
  B  B10  1  0.500000  0.054981  0.068466  1
  B  B11  1  0.500000  0.945019  0.931534  1
  B  B12  1  0.500000  0.747750  0.418912  1
  B  B13  1  0.500000  0.252250  0.581088  1
  B  B14  1  0.500000  0.247750  0.081088  1
  B  B15  1  0.500000  0.752250  0.918912  1
  B  B16  1  0.500000  0.790286  0.267603  1
  B  B17  1  0.500000  0.209714  0.732397  1
  B  B18  1  0.500000  0.290286  0.232397  1
  B  B19  1  0.500000  0.709714  0.767603  1
  B  B20  1  0.500000  0.632179  0.186127  1
  B  B21  1  0.500000  0.367821  0.813873  1
  B  B22  1  0.500000  0.132179  0.313873  1
  B  B23  1  0.500000  0.867821  0.686127  1
  B  B24  1  0.500000  0.985598  0.213574  1
  B  B25  1  0.500000  0.014402  0.786426  1
  B  B26  1  0.500000  0.485598  0.286426  1
  B  B27  1  0.500000  0.514402  0.713574  1
  B  B28  1  0.500000  0.607907  0.029941  1
  B  B29  1  0.500000  0.392093  0.970059  1
  B  B30  1  0.500000  0.107907  0.470059  1
  B  B31  1  0.500000  0.892093  0.529941  1
  Os  Os32  1  0.000000  0.638366  0.320906  1
  Os  Os33  1  0.000000  0.361634  0.679094  1
  Os  Os34  1  0.000000  0.138366  0.179094  1
  Os  Os35  1  0.000000  0.861634  0.820906  1
