# generated using pymatgen
data_HoSc(BeB14)2
_symmetry_space_group_name_H-M   'P 1'
_cell_length_a   7.16365266
_cell_length_b   7.16365582
_cell_length_c   7.16365341
_cell_angle_alpha   132.56643827
_cell_angle_beta   110.49867811
_cell_angle_gamma   88.47400877
_symmetry_Int_Tables_number   1
_chemical_formula_structural   HoSc(BeB14)2
_chemical_formula_sum   'Ho1 Sc1 Be2 B28'
_cell_volume   241.54316058
_cell_formula_units_Z   1
loop_
 _symmetry_equiv_pos_site_id
 _symmetry_equiv_pos_as_xyz
  1  'x, y, z'
loop_
 _atom_site_type_symbol
 _atom_site_label
 _atom_site_symmetry_multiplicity
 _atom_site_fract_x
 _atom_site_fract_y
 _atom_site_fract_z
 _atom_site_occupancy
  Ho  Ho0  1  0.605203  0.250000  0.355203  1
  Sc  Sc1  1  0.390489  0.750000  0.640488  1
  Be  Be2  1  0.000236  0.499969  0.000205  1
  Be  Be3  1  0.000237  0.000031  0.500267  1
  B  B4  1  0.977911  0.343895  0.634016  1
  B  B5  1  0.629305  0.328858  0.795217  1
  B  B6  1  0.797933  0.833233  0.964700  1
  B  B7  1  0.631468  0.666767  0.964701  1
  B  B8  1  0.200378  0.166488  0.033891  1
  B  B9  1  0.777738  0.778400  0.676157  1
  B  B10  1  0.966359  0.665912  0.795217  1
  B  B11  1  0.026757  0.657241  0.369516  1
  B  B12  1  0.966359  0.171142  0.300447  1
  B  B13  1  0.035057  0.828381  0.699650  1
  B  B14  1  0.367403  0.333512  0.033891  1
  B  B15  1  0.076564  0.907541  0.169023  1
  B  B16  1  0.629306  0.834088  0.300447  1
  B  B17  1  0.397757  0.721600  0.999339  1
  B  B18  1  0.239963  0.407818  0.832145  1
  B  B19  1  0.220313  0.223733  0.324559  1
  B  B20  1  0.212276  0.842760  0.369517  1
  B  B21  1  0.924327  0.092182  0.832145  1
  B  B22  1  0.397757  0.398419  0.676158  1
  B  B23  1  0.220313  0.895753  0.996580  1
  B  B24  1  0.777739  0.101581  0.999338  1
  B  B25  1  0.600827  0.276268  0.996580  1
  B  B26  1  0.600827  0.604247  0.324559  1
  B  B27  1  0.035057  0.335407  0.206676  1
  B  B28  1  0.761481  0.592458  0.169023  1
  B  B29  1  0.790121  0.156104  0.634016  1
  B  B30  1  0.371269  0.164593  0.699650  1
  B  B31  1  0.371269  0.671619  0.206676  1
