# generated using pymatgen
data_TbTm13Th2(CdNi)4
_symmetry_space_group_name_H-M   'P 1'
_cell_length_a   9.48946686
_cell_length_b   9.48946693
_cell_length_c   9.49516700
_cell_angle_alpha   59.98012440
_cell_angle_beta   59.98012416
_cell_angle_gamma   60.04759085
_symmetry_Int_Tables_number   1
_chemical_formula_structural   TbTm13Th2(CdNi)4
_chemical_formula_sum   'Tb1 Tm13 Th2 Cd4 Ni4'
_cell_volume   604.63957212
_cell_formula_units_Z   1
loop_
 _symmetry_equiv_pos_site_id
 _symmetry_equiv_pos_as_xyz
  1  'x, y, z'
loop_
 _atom_site_type_symbol
 _atom_site_label
 _atom_site_symmetry_multiplicity
 _atom_site_fract_x
 _atom_site_fract_y
 _atom_site_fract_z
 _atom_site_occupancy
  Tb  Tb0  1  0.935478  0.935478  0.564522  1
  Tm  Tm1  1  0.350628  0.948829  0.350272  1
  Tm  Tm2  1  0.948829  0.350628  0.350272  1
  Tm  Tm3  1  0.812695  0.190381  0.185901  1
  Tm  Tm4  1  0.190381  0.812695  0.811024  1
  Tm  Tm5  1  0.190381  0.812695  0.185901  1
  Tm  Tm6  1  0.812695  0.190381  0.811024  1
  Tm  Tm7  1  0.187129  0.187129  0.812871  1
  Tm  Tm8  1  0.812779  0.812779  0.187221  1
  Tm  Tm9  1  0.935470  0.564300  0.566322  1
  Tm  Tm10  1  0.564300  0.935470  0.933908  1
  Tm  Tm11  1  0.564300  0.935470  0.566322  1
  Tm  Tm12  1  0.935470  0.564300  0.933908  1
  Tm  Tm13  1  0.565371  0.565371  0.934629  1
  Th  Th14  1  0.344032  0.344032  0.351670  1
  Th  Th15  1  0.344032  0.344032  0.960266  1
  Cd  Cd16  1  0.583523  0.583523  0.580050  1
  Cd  Cd17  1  0.583523  0.583523  0.252901  1
  Cd  Cd18  1  0.583544  0.253880  0.581287  1
  Cd  Cd19  1  0.253880  0.583544  0.581287  1
  Ni  Ni20  1  0.142045  0.142045  0.142558  1
  Ni  Ni21  1  0.142045  0.142045  0.573353  1
  Ni  Ni22  1  0.145512  0.571959  0.141265  1
  Ni  Ni23  1  0.571959  0.145512  0.141265  1
