# generated using pymatgen
data_YHo9Cd4(InPd)4
_symmetry_space_group_name_H-M   'P 1'
_cell_length_a   3.59905800
_cell_length_b   8.07099504
_cell_length_c   18.32566809
_cell_angle_alpha   90.01119986
_cell_angle_beta   90.00000000
_cell_angle_gamma   90.00000000
_symmetry_Int_Tables_number   1
_chemical_formula_structural   YHo9Cd4(InPd)4
_chemical_formula_sum   'Y1 Ho9 Cd4 In4 Pd4'
_cell_volume   532.32361639
_cell_formula_units_Z   1
loop_
 _symmetry_equiv_pos_site_id
 _symmetry_equiv_pos_as_xyz
  1  'x, y, z'
loop_
 _atom_site_type_symbol
 _atom_site_label
 _atom_site_symmetry_multiplicity
 _atom_site_fract_x
 _atom_site_fract_y
 _atom_site_fract_z
 _atom_site_occupancy
  Y  Y0  1  0.000000  0.500000  0.500000  1
  Ho  Ho1  1  0.000000  0.000000  0.000000  1
  Ho  Ho2  1  0.000000  0.741623  0.280920  1
  Ho  Ho3  1  0.000000  0.258377  0.719080  1
  Ho  Ho4  1  0.000000  0.758371  0.780984  1
  Ho  Ho5  1  0.000000  0.241629  0.219016  1
  Ho  Ho6  1  0.000000  0.612453  0.083555  1
  Ho  Ho7  1  0.000000  0.387547  0.916445  1
  Ho  Ho8  1  0.000000  0.887949  0.583668  1
  Ho  Ho9  1  0.000000  0.112051  0.416332  1
  Cd  Cd10  1  0.500000  0.712065  0.931536  1
  Cd  Cd11  1  0.500000  0.287935  0.068464  1
  Cd  Cd12  1  0.500000  0.788900  0.431308  1
  Cd  Cd13  1  0.500000  0.211100  0.568692  1
  In  In14  1  0.500000  0.576808  0.648029  1
  In  In15  1  0.500000  0.423192  0.351971  1
  In  In16  1  0.500000  0.923322  0.147691  1
  In  In17  1  0.500000  0.076678  0.852309  1
  Pd  Pd18  1  0.500000  0.525016  0.196632  1
  Pd  Pd19  1  0.500000  0.474984  0.803368  1
  Pd  Pd20  1  0.500000  0.974995  0.696628  1
  Pd  Pd21  1  0.500000  0.025005  0.303372  1
