# generated using pymatgen
data_LaPa3FeNi3P4
_symmetry_space_group_name_H-M   'P 1'
_cell_length_a   3.91759800
_cell_length_b   3.91759730
_cell_length_c   15.68426000
_cell_angle_alpha   90.00000000
_cell_angle_beta   90.00000000
_cell_angle_gamma   120.00002283
_symmetry_Int_Tables_number   1
_chemical_formula_structural   LaPa3FeNi3P4
_chemical_formula_sum   'La1 Pa3 Fe1 Ni3 P4'
_cell_volume   208.46551619
_cell_formula_units_Z   1
loop_
 _symmetry_equiv_pos_site_id
 _symmetry_equiv_pos_as_xyz
  1  'x, y, z'
loop_
 _atom_site_type_symbol
 _atom_site_label
 _atom_site_symmetry_multiplicity
 _atom_site_fract_x
 _atom_site_fract_y
 _atom_site_fract_z
 _atom_site_occupancy
  La  La0  1  0.000000  0.000000  0.748184  1
  Pa  Pa1  1  0.000000  0.000000  0.487947  1
  Pa  Pa2  1  0.000000  0.000000  0.005809  1
  Pa  Pa3  1  0.000000  0.000000  0.255255  1
  Fe  Fe4  1  0.333333  0.666667  0.381570  1
  Ni  Ni5  1  0.666667  0.333333  0.602760  1
  Ni  Ni6  1  0.666667  0.333333  0.896052  1
  Ni  Ni7  1  0.333333  0.666667  0.125451  1
  P  P8  1  0.333333  0.666667  0.882019  1
  P  P9  1  0.666667  0.333333  0.130909  1
  P  P10  1  0.666667  0.333333  0.366208  1
  P  P11  1  0.333333  0.666667  0.617836  1
