# generated using pymatgen
data_Ti2Be8VPd
_symmetry_space_group_name_H-M   'P 1'
_cell_length_a   4.43402300
_cell_length_b   4.43402363
_cell_length_c   7.27895800
_cell_angle_alpha   90.00000000
_cell_angle_beta   90.00000000
_cell_angle_gamma   120.00000275
_symmetry_Int_Tables_number   1
_chemical_formula_structural   Ti2Be8VPd
_chemical_formula_sum   'Ti2 Be8 V1 Pd1'
_cell_volume   123.93551568
_cell_formula_units_Z   1
loop_
 _symmetry_equiv_pos_site_id
 _symmetry_equiv_pos_as_xyz
  1  'x, y, z'
loop_
 _atom_site_type_symbol
 _atom_site_label
 _atom_site_symmetry_multiplicity
 _atom_site_fract_x
 _atom_site_fract_y
 _atom_site_fract_z
 _atom_site_occupancy
  Ti  Ti0  1  0.333333  0.666667  0.067916  1
  Ti  Ti1  1  0.666667  0.333333  0.559209  1
  Be  Be2  1  0.000000  0.000000  0.999197  1
  Be  Be3  1  0.000000  0.000000  0.505488  1
  Be  Be4  1  0.833035  0.666071  0.253855  1
  Be  Be5  1  0.169165  0.830835  0.747364  1
  Be  Be6  1  0.661671  0.830835  0.747364  1
  Be  Be7  1  0.333929  0.166965  0.253855  1
  Be  Be8  1  0.833035  0.166965  0.253855  1
  Be  Be9  1  0.169165  0.338329  0.747364  1
  V  V10  1  0.333333  0.666667  0.432573  1
  Pd  Pd11  1  0.666667  0.333333  0.931959  1
