# generated using pymatgen
data_Ti3(NbSi2)2
_symmetry_space_group_name_H-M   'P 1'
_cell_length_a   6.69009156
_cell_length_b   6.69312850
_cell_length_c   12.25781793
_cell_angle_alpha   89.91603374
_cell_angle_beta   89.91148125
_cell_angle_gamma   89.96961296
_symmetry_Int_Tables_number   1
_chemical_formula_structural   Ti3(NbSi2)2
_chemical_formula_sum   'Ti12 Nb8 Si16'
_cell_volume   548.87486794
_cell_formula_units_Z   4
loop_
 _symmetry_equiv_pos_site_id
 _symmetry_equiv_pos_as_xyz
  1  'x, y, z'
loop_
 _atom_site_type_symbol
 _atom_site_label
 _atom_site_symmetry_multiplicity
 _atom_site_fract_x
 _atom_site_fract_y
 _atom_site_fract_z
 _atom_site_occupancy
  Ti  Ti0  1  0.347551  0.502687  0.378495  1
  Ti  Ti1  1  0.847869  0.996474  0.371945  1
  Ti  Ti2  1  0.002919  0.152199  0.128368  1
  Ti  Ti3  1  0.997050  0.848162  0.627864  1
  Ti  Ti4  1  0.503193  0.347483  0.621476  1
  Ti  Ti5  1  0.152346  0.003168  0.871881  1
  Ti  Ti6  1  0.669837  0.668974  0.499802  1
  Ti  Ti7  1  0.830725  0.169475  0.749872  1
  Ti  Ti8  1  0.169144  0.830240  0.250063  1
  Ti  Ti9  1  0.330639  0.330414  0.000071  1
  Ti  Ti10  1  0.497017  0.652192  0.121910  1
  Ti  Ti11  1  0.652384  0.497296  0.878219  1
  Nb  Nb12  1  0.003918  0.658193  0.028115  1
  Nb  Nb13  1  0.995419  0.341693  0.527958  1
  Nb  Nb14  1  0.658314  0.004196  0.971797  1
  Nb  Nb15  1  0.158351  0.496048  0.778019  1
  Nb  Nb16  1  0.841459  0.504360  0.278190  1
  Nb  Nb17  1  0.495568  0.158297  0.221795  1
  Nb  Nb18  1  0.504846  0.842317  0.722150  1
  Nb  Nb19  1  0.341460  0.995862  0.472008  1
  Si  Si20  1  0.955983  0.298066  0.936369  1
  Si  Si21  1  0.701862  0.043970  0.563474  1
  Si  Si22  1  0.201814  0.455899  0.186461  1
  Si  Si23  1  0.798069  0.544127  0.686262  1
  Si  Si24  1  0.455875  0.202481  0.813538  1
  Si  Si25  1  0.543679  0.798069  0.313698  1
  Si  Si26  1  0.297992  0.955776  0.063677  1
  Si  Si27  1  0.792285  0.862984  0.173037  1
  Si  Si28  1  0.293315  0.637710  0.577418  1
  Si  Si29  1  0.707496  0.362865  0.077021  1
  Si  Si30  1  0.636797  0.291731  0.422612  1
  Si  Si31  1  0.362828  0.707452  0.923018  1
  Si  Si32  1  0.136916  0.207335  0.327082  1
  Si  Si33  1  0.207372  0.137533  0.672946  1
  Si  Si34  1  0.863382  0.792604  0.826886  1
  Si  Si35  1  0.044324  0.701667  0.436496  1
