# generated using pymatgen
data_Tb4MnAl18Pd5
_symmetry_space_group_name_H-M   'P 1'
_cell_length_a   7.62761718
_cell_length_b   7.62761694
_cell_length_c   9.52998761
_cell_angle_alpha   89.97910825
_cell_angle_beta   89.97910534
_cell_angle_gamma   119.55207087
_symmetry_Int_Tables_number   1
_chemical_formula_structural   Tb4MnAl18Pd5
_chemical_formula_sum   'Tb4 Mn1 Al18 Pd5'
_cell_volume   482.32882647
_cell_formula_units_Z   1
loop_
 _symmetry_equiv_pos_site_id
 _symmetry_equiv_pos_as_xyz
  1  'x, y, z'
loop_
 _atom_site_type_symbol
 _atom_site_label
 _atom_site_symmetry_multiplicity
 _atom_site_fract_x
 _atom_site_fract_y
 _atom_site_fract_z
 _atom_site_occupancy
  Tb  Tb0  1  0.994986  0.669869  0.248552  1
  Tb  Tb1  1  0.005014  0.330131  0.751448  1
  Tb  Tb2  1  0.669869  0.994986  0.248552  1
  Tb  Tb3  1  0.330131  0.005014  0.751448  1
  Mn  Mn4  1  0.000000  0.000000  0.000000  1
  Al  Al5  1  0.124529  0.124529  0.241485  1
  Al  Al6  1  0.875471  0.875471  0.758515  1
  Al  Al7  1  0.999370  0.323757  0.071483  1
  Al  Al8  1  0.000630  0.676243  0.928517  1
  Al  Al9  1  0.998047  0.664711  0.577884  1
  Al  Al10  1  0.335289  0.001953  0.422116  1
  Al  Al11  1  0.001953  0.335289  0.422116  1
  Al  Al12  1  0.664711  0.998047  0.577884  1
  Al  Al13  1  0.676243  0.000630  0.928517  1
  Al  Al14  1  0.323757  0.999370  0.071483  1
  Al  Al15  1  0.334148  0.334148  0.557178  1
  Al  Al16  1  0.665852  0.665852  0.442822  1
  Al  Al17  1  0.676558  0.676558  0.051331  1
  Al  Al18  1  0.323442  0.323442  0.948669  1
  Al  Al19  1  0.340130  0.545737  0.248434  1
  Al  Al20  1  0.659870  0.454263  0.751566  1
  Al  Al21  1  0.545737  0.340130  0.248434  1
  Al  Al22  1  0.454263  0.659870  0.751566  1
  Pd  Pd23  1  0.671991  0.328009  0.000000  1
  Pd  Pd24  1  0.328009  0.671991  0.000000  1
  Pd  Pd25  1  0.327879  0.672121  0.500000  1
  Pd  Pd26  1  0.672121  0.327879  0.500000  1
  Pd  Pd27  1  0.000000  0.000000  0.500000  1
