# generated using pymatgen
data_Er12InCo4Ru
_symmetry_space_group_name_H-M   'P 1'
_cell_length_a   8.17411857
_cell_length_b   8.17411846
_cell_length_c   8.17411892
_cell_angle_alpha   111.28392152
_cell_angle_beta   110.82868913
_cell_angle_gamma   106.34588610
_symmetry_Int_Tables_number   1
_chemical_formula_structural   Er12InCo4Ru
_chemical_formula_sum   'Er12 In1 Co4 Ru1'
_cell_volume   419.49824346
_cell_formula_units_Z   1
loop_
 _symmetry_equiv_pos_site_id
 _symmetry_equiv_pos_as_xyz
  1  'x, y, z'
loop_
 _atom_site_type_symbol
 _atom_site_label
 _atom_site_symmetry_multiplicity
 _atom_site_fract_x
 _atom_site_fract_y
 _atom_site_fract_z
 _atom_site_occupancy
  Er  Er0  1  0.183588  0.283425  0.467013  1
  Er  Er1  1  0.816412  0.716575  0.532987  1
  Er  Er2  1  0.183588  0.716575  0.900163  1
  Er  Er3  1  0.816412  0.283425  0.099837  1
  Er  Er4  1  0.314017  0.619259  0.305242  1
  Er  Er5  1  0.685983  0.380741  0.694758  1
  Er  Er6  1  0.314017  0.008775  0.694758  1
  Er  Er7  1  0.685983  0.991225  0.305242  1
  Er  Er8  1  0.413364  0.219536  0.193828  1
  Er  Er9  1  0.586636  0.780464  0.806172  1
  Er  Er10  1  0.025708  0.219536  0.806172  1
  Er  Er11  1  0.974292  0.780464  0.193828  1
  In  In12  1  0.500000  0.500000  0.000000  1
  Co  Co13  1  0.112247  0.612247  0.500000  1
  Co  Co14  1  0.887753  0.387753  0.500000  1
  Co  Co15  1  0.375765  0.000000  0.375765  1
  Co  Co16  1  0.624235  0.000000  0.624235  1
  Ru  Ru17  1  0.000000  0.000000  0.000000  1
