# generated using pymatgen
data_NaTbMn3Ni9As7
_symmetry_space_group_name_H-M   'P 1'
_cell_length_a   9.48235600
_cell_length_b   9.48235634
_cell_length_c   3.81197700
_cell_angle_alpha   90.00000000
_cell_angle_beta   90.00000000
_cell_angle_gamma   120.00000579
_symmetry_Int_Tables_number   1
_chemical_formula_structural   NaTbMn3Ni9As7
_chemical_formula_sum   'Na1 Tb1 Mn3 Ni9 As7'
_cell_volume   296.83383698
_cell_formula_units_Z   1
loop_
 _symmetry_equiv_pos_site_id
 _symmetry_equiv_pos_as_xyz
  1  'x, y, z'
loop_
 _atom_site_type_symbol
 _atom_site_label
 _atom_site_symmetry_multiplicity
 _atom_site_fract_x
 _atom_site_fract_y
 _atom_site_fract_z
 _atom_site_occupancy
  Na  Na0  1  0.666667  0.333333  0.500000  1
  Tb  Tb1  1  0.333333  0.666667  0.000000  1
  Mn  Mn2  1  0.220268  0.118902  0.500000  1
  Mn  Mn3  1  0.881098  0.101366  0.500000  1
  Mn  Mn4  1  0.898634  0.779732  0.500000  1
  Ni  Ni5  1  0.123047  0.281006  0.000000  1
  Ni  Ni6  1  0.718994  0.842041  0.000000  1
  Ni  Ni7  1  0.157959  0.876953  0.000000  1
  Ni  Ni8  1  0.429564  0.374690  0.000000  1
  Ni  Ni9  1  0.625310  0.054875  0.000000  1
  Ni  Ni10  1  0.945125  0.570436  0.000000  1
  Ni  Ni11  1  0.050011  0.429177  0.500000  1
  Ni  Ni12  1  0.570823  0.620834  0.500000  1
  Ni  Ni13  1  0.379166  0.949989  0.500000  1
  As  As14  1  0.294789  0.409627  0.500000  1
  As  As15  1  0.590373  0.885162  0.500000  1
  As  As16  1  0.114838  0.705211  0.500000  1
  As  As17  1  0.415377  0.118837  0.000000  1
  As  As18  1  0.881163  0.296541  0.000000  1
  As  As19  1  0.703459  0.584623  0.000000  1
  As  As20  1  0.000000  0.000000  0.000000  1
