# generated using pymatgen
data_Nd3Zn3IrPd2
_symmetry_space_group_name_H-M   'P 1'
_cell_length_a   7.43967200
_cell_length_b   7.43967291
_cell_length_c   3.97768700
_cell_angle_alpha   90.00000000
_cell_angle_beta   90.00000000
_cell_angle_gamma   119.99999595
_symmetry_Int_Tables_number   1
_chemical_formula_structural   Nd3Zn3IrPd2
_chemical_formula_sum   'Nd3 Zn3 Ir1 Pd2'
_cell_volume   190.66408175
_cell_formula_units_Z   1
loop_
 _symmetry_equiv_pos_site_id
 _symmetry_equiv_pos_as_xyz
  1  'x, y, z'
loop_
 _atom_site_type_symbol
 _atom_site_label
 _atom_site_symmetry_multiplicity
 _atom_site_fract_x
 _atom_site_fract_y
 _atom_site_fract_z
 _atom_site_occupancy
  Nd  Nd0  1  0.414865  0.405155  0.000000  1
  Nd  Nd1  1  0.594845  0.009711  0.000000  1
  Nd  Nd2  1  0.990289  0.585135  0.000000  1
  Zn  Zn3  1  0.754825  0.752672  0.500000  1
  Zn  Zn4  1  0.247328  0.002154  0.500000  1
  Zn  Zn5  1  0.997846  0.245175  0.500000  1
  Ir  Ir6  1  0.666667  0.333333  0.500000  1
  Pd  Pd7  1  0.000000  0.000000  0.000000  1
  Pd  Pd8  1  0.333333  0.666667  0.500000  1
