# generated using pymatgen
data_Ti7SiB4Mo3P
_symmetry_space_group_name_H-M   'P 1'
_cell_length_a   7.11769705
_cell_length_b   7.10013924
_cell_length_c   7.11346656
_cell_angle_alpha   129.68178781
_cell_angle_beta   129.70126163
_cell_angle_gamma   73.85709764
_symmetry_Int_Tables_number   1
_chemical_formula_structural   Ti7SiB4Mo3P
_chemical_formula_sum   'Ti7 Si1 B4 Mo3 P1'
_cell_volume   207.68099299
_cell_formula_units_Z   1
loop_
 _symmetry_equiv_pos_site_id
 _symmetry_equiv_pos_as_xyz
  1  'x, y, z'
loop_
 _atom_site_type_symbol
 _atom_site_label
 _atom_site_symmetry_multiplicity
 _atom_site_fract_x
 _atom_site_fract_y
 _atom_site_fract_z
 _atom_site_occupancy
  Ti  Ti0  1  0.805250  0.959811  0.495620  1
  Ti  Ti1  1  0.312471  0.807011  0.850969  1
  Ti  Ti2  1  0.189448  0.037639  0.496319  1
  Ti  Ti3  1  0.540284  0.691019  0.504083  1
  Ti  Ti4  1  0.037677  0.542675  0.848035  1
  Ti  Ti5  1  0.693763  0.190379  0.151679  1
  Ti  Ti6  1  0.956910  0.460714  0.148797  1
  Si  Si7  1  0.251150  0.250873  0.001926  1
  B  B8  1  0.390385  0.890451  0.281563  1
  B  B9  1  0.891715  0.610765  0.500084  1
  B  B10  1  0.609138  0.108515  0.718785  1
  B  B11  1  0.110444  0.390074  0.499862  1
  Mo  Mo12  1  0.001634  0.001160  0.999696  1
  Mo  Mo13  1  0.499598  0.499521  0.000664  1
  Mo  Mo14  1  0.460688  0.309264  0.503091  1
  P  P15  1  0.749447  0.750130  0.998828  1
