# generated using pymatgen
data_Tb2Y2HoRu2
_symmetry_space_group_name_H-M   'P 1'
_cell_length_a   6.37104142
_cell_length_b   7.29197406
_cell_length_c   8.54126464
_cell_angle_alpha   96.61991670
_cell_angle_beta   111.89807659
_cell_angle_gamma   89.99999418
_symmetry_Int_Tables_number   1
_chemical_formula_structural   Tb2Y2HoRu2
_chemical_formula_sum   'Tb4 Y4 Ho2 Ru4'
_cell_volume   365.32265595
_cell_formula_units_Z   2
loop_
 _symmetry_equiv_pos_site_id
 _symmetry_equiv_pos_as_xyz
  1  'x, y, z'
loop_
 _atom_site_type_symbol
 _atom_site_label
 _atom_site_symmetry_multiplicity
 _atom_site_fract_x
 _atom_site_fract_y
 _atom_site_fract_z
 _atom_site_occupancy
  Tb  Tb0  1  0.978239  0.915030  0.186342  1
  Tb  Tb1  1  0.791897  0.584970  0.813658  1
  Tb  Tb2  1  0.021761  0.084970  0.813658  1
  Tb  Tb3  1  0.208103  0.415030  0.186342  1
  Y  Y4  1  0.640627  0.814742  0.434003  1
  Y  Y5  1  0.206625  0.685258  0.565997  1
  Y  Y6  1  0.359373  0.185258  0.565997  1
  Y  Y7  1  0.793375  0.314742  0.434003  1
  Ho  Ho8  1  0.421172  0.750000  0.000000  1
  Ho  Ho9  1  0.578828  0.250000  0.000000  1
  Ru  Ru10  1  0.822555  0.575468  0.217922  1
  Ru  Ru11  1  0.604632  0.924532  0.782078  1
  Ru  Ru12  1  0.177445  0.424532  0.782078  1
  Ru  Ru13  1  0.395368  0.075468  0.217922  1
