# generated using pymatgen
data_CdBi3Ir2(RuO7)2
_symmetry_space_group_name_H-M   'P 1'
_cell_length_a   7.27313042
_cell_length_b   7.26043875
_cell_length_c   7.27313090
_cell_angle_alpha   61.04739279
_cell_angle_beta   61.02312433
_cell_angle_gamma   61.04738808
_symmetry_Int_Tables_number   1
_chemical_formula_structural   CdBi3Ir2(RuO7)2
_chemical_formula_sum   'Cd1 Bi3 Ir2 Ru2 O14'
_cell_volume   277.93143326
_cell_formula_units_Z   1
loop_
 _symmetry_equiv_pos_site_id
 _symmetry_equiv_pos_as_xyz
  1  'x, y, z'
loop_
 _atom_site_type_symbol
 _atom_site_label
 _atom_site_symmetry_multiplicity
 _atom_site_fract_x
 _atom_site_fract_y
 _atom_site_fract_z
 _atom_site_occupancy
  Cd  Cd0  1  0.125000  0.125000  0.125000  1
  Bi  Bi1  1  0.125000  0.625000  0.125000  1
  Bi  Bi2  1  0.125000  0.125000  0.625000  1
  Bi  Bi3  1  0.625000  0.125000  0.125000  1
  Ir  Ir4  1  0.625000  0.125000  0.625000  1
  Ir  Ir5  1  0.625000  0.625000  0.625000  1
  Ru  Ru6  1  0.625000  0.625000  0.125000  1
  Ru  Ru7  1  0.125000  0.625000  0.625000  1
  O  O8  1  0.706841  0.704184  0.297057  1
  O  O9  1  0.952943  0.545816  0.543159  1
  O  O10  1  0.552936  0.951287  0.951483  1
  O  O11  1  0.951483  0.951287  0.552936  1
  O  O12  1  0.941774  0.571590  0.941774  1
  O  O13  1  0.542952  0.955175  0.542952  1
  O  O14  1  0.308226  0.678410  0.308226  1
  O  O15  1  0.297057  0.704184  0.706841  1
  O  O16  1  0.697064  0.298713  0.298517  1
  O  O17  1  0.707048  0.294825  0.707048  1
  O  O18  1  0.543159  0.545816  0.952943  1
  O  O19  1  0.298517  0.298713  0.697064  1
  O  O20  1  0.245376  0.245333  0.245376  1
  O  O21  1  0.004624  0.004667  0.004624  1
