# generated using pymatgen
data_YTh2(AlNi)3
_symmetry_space_group_name_H-M   'P 1'
_cell_length_a   7.07646324
_cell_length_b   7.07646420
_cell_length_c   4.00746100
_cell_angle_alpha   90.00000000
_cell_angle_beta   90.00000000
_cell_angle_gamma   120.93833035
_symmetry_Int_Tables_number   1
_chemical_formula_structural   YTh2(AlNi)3
_chemical_formula_sum   'Y1 Th2 Al3 Ni3'
_cell_volume   172.12660297
_cell_formula_units_Z   1
loop_
 _symmetry_equiv_pos_site_id
 _symmetry_equiv_pos_as_xyz
  1  'x, y, z'
loop_
 _atom_site_type_symbol
 _atom_site_label
 _atom_site_symmetry_multiplicity
 _atom_site_fract_x
 _atom_site_fract_y
 _atom_site_fract_z
 _atom_site_occupancy
  Y  Y0  1  0.418178  0.418178  0.000000  1
  Th  Th1  1  0.998665  0.577704  0.000000  1
  Th  Th2  1  0.577704  0.998665  0.000000  1
  Al  Al3  1  0.231014  0.007185  0.500000  1
  Al  Al4  1  0.764136  0.764136  0.500000  1
  Al  Al5  1  0.007185  0.231014  0.500000  1
  Ni  Ni6  1  0.676448  0.331826  0.500000  1
  Ni  Ni7  1  0.994843  0.994843  0.000000  1
  Ni  Ni8  1  0.331826  0.676448  0.500000  1
