# generated using pymatgen
data_Hf12Zr6Co2Re7W
_symmetry_space_group_name_H-M   'P 1'
_cell_length_a   8.65946300
_cell_length_b   8.65946193
_cell_length_c   8.44330700
_cell_angle_alpha   90.00000000
_cell_angle_beta   90.00000000
_cell_angle_gamma   120.00000025
_symmetry_Int_Tables_number   1
_chemical_formula_structural   Hf12Zr6Co2Re7W
_chemical_formula_sum   'Hf12 Zr6 Co2 Re7 W1'
_cell_volume   548.30862768
_cell_formula_units_Z   1
loop_
 _symmetry_equiv_pos_site_id
 _symmetry_equiv_pos_as_xyz
  1  'x, y, z'
loop_
 _atom_site_type_symbol
 _atom_site_label
 _atom_site_symmetry_multiplicity
 _atom_site_fract_x
 _atom_site_fract_y
 _atom_site_fract_z
 _atom_site_occupancy
  Hf  Hf0  1  0.199267  0.800733  0.440644  1
  Hf  Hf1  1  0.199267  0.398534  0.440644  1
  Hf  Hf2  1  0.601466  0.800733  0.440644  1
  Hf  Hf3  1  0.800733  0.199267  0.559356  1
  Hf  Hf4  1  0.800733  0.601466  0.559356  1
  Hf  Hf5  1  0.398534  0.199267  0.559356  1
  Hf  Hf6  1  0.801175  0.198825  0.940346  1
  Hf  Hf7  1  0.801175  0.602348  0.940346  1
  Hf  Hf8  1  0.397652  0.198825  0.940346  1
  Hf  Hf9  1  0.198825  0.801175  0.059654  1
  Hf  Hf10  1  0.198825  0.397652  0.059654  1
  Hf  Hf11  1  0.602348  0.801175  0.059654  1
  Zr  Zr12  1  0.541354  0.458646  0.249693  1
  Zr  Zr13  1  0.541354  0.082707  0.249693  1
  Zr  Zr14  1  0.917293  0.458646  0.249693  1
  Zr  Zr15  1  0.458646  0.541354  0.750307  1
  Zr  Zr16  1  0.458646  0.917293  0.750307  1
  Zr  Zr17  1  0.082707  0.541354  0.750307  1
  Co  Co18  1  0.333333  0.666667  0.249682  1
  Co  Co19  1  0.666667  0.333333  0.750318  1
  Re  Re20  1  0.889659  0.110341  0.250225  1
  Re  Re21  1  0.889659  0.779319  0.250225  1
  Re  Re22  1  0.220681  0.110341  0.250225  1
  Re  Re23  1  0.110341  0.889659  0.749775  1
  Re  Re24  1  0.110341  0.220681  0.749775  1
  Re  Re25  1  0.779319  0.889659  0.749775  1
  Re  Re26  1  0.000000  0.000000  0.000000  1
  W  W27  1  0.000000  0.000000  0.500000  1
