# generated using pymatgen
data_Yb3Pr8In9Pd4
_symmetry_space_group_name_H-M   'P 1'
_cell_length_a   13.42620479
_cell_length_b   13.44655999
_cell_length_c   3.86087300
_cell_angle_alpha   90.00000000
_cell_angle_beta   90.00000000
_cell_angle_gamma   111.41232884
_symmetry_Int_Tables_number   1
_chemical_formula_structural   Yb3Pr8In9Pd4
_chemical_formula_sum   'Yb3 Pr8 In9 Pd4'
_cell_volume   648.91686219
_cell_formula_units_Z   1
loop_
 _symmetry_equiv_pos_site_id
 _symmetry_equiv_pos_as_xyz
  1  'x, y, z'
loop_
 _atom_site_type_symbol
 _atom_site_label
 _atom_site_symmetry_multiplicity
 _atom_site_fract_x
 _atom_site_fract_y
 _atom_site_fract_z
 _atom_site_occupancy
  Yb  Yb0  1  0.418007  0.073114  0.000000  1
  Yb  Yb1  1  0.581459  0.925856  0.000000  1
  Yb  Yb2  1  0.076083  0.417524  0.000000  1
  Pr  Pr3  1  0.930118  0.581036  0.000000  1
  Pr  Pr4  1  0.161754  0.842762  0.000000  1
  Pr  Pr5  1  0.840064  0.159237  0.000000  1
  Pr  Pr6  1  0.369409  0.629677  0.000000  1
  Pr  Pr7  1  0.627599  0.369901  0.000000  1
  Pr  Pr8  1  0.308396  0.307925  0.000000  1
  Pr  Pr9  1  0.690607  0.693937  0.000000  1
  Pr  Pr10  1  0.000375  0.000635  0.000000  1
  In  In11  1  0.367808  0.840626  0.500000  1
  In  In12  1  0.631146  0.158288  0.500000  1
  In  In13  1  0.839586  0.363909  0.500000  1
  In  In14  1  0.162487  0.632340  0.500000  1
  In  In15  1  0.222006  0.076195  0.500000  1
  In  In16  1  0.777993  0.924667  0.500000  1
  In  In17  1  0.076241  0.222018  0.500000  1
  In  In18  1  0.923345  0.781424  0.500000  1
  In  In19  1  0.500349  0.500593  0.500000  1
  Pd  Pd20  1  0.450193  0.240905  0.500000  1
  Pd  Pd21  1  0.549611  0.759695  0.500000  1
  Pd  Pd22  1  0.242319  0.449581  0.500000  1
  Pd  Pd23  1  0.753043  0.548154  0.500000  1
