# generated using pymatgen
data_Lu4Sc2TcHg2
_symmetry_space_group_name_H-M   'P 1'
_cell_length_a   8.04327800
_cell_length_b   7.91266454
_cell_length_c   4.01017600
_cell_angle_alpha   90.00000000
_cell_angle_beta   90.00000000
_cell_angle_gamma   120.54755396
_symmetry_Int_Tables_number   1
_chemical_formula_structural   Lu4Sc2TcHg2
_chemical_formula_sum   'Lu4 Sc2 Tc1 Hg2'
_cell_volume   219.79971811
_cell_formula_units_Z   1
loop_
 _symmetry_equiv_pos_site_id
 _symmetry_equiv_pos_as_xyz
  1  'x, y, z'
loop_
 _atom_site_type_symbol
 _atom_site_label
 _atom_site_symmetry_multiplicity
 _atom_site_fract_x
 _atom_site_fract_y
 _atom_site_fract_z
 _atom_site_occupancy
  Lu  Lu0  1  0.613741  0.000000  0.500000  1
  Lu  Lu1  1  0.402016  0.413703  0.500000  1
  Lu  Lu2  1  0.988314  0.586297  0.500000  1
  Lu  Lu3  1  0.239475  0.000000  0.000000  1
  Sc  Sc4  1  0.000826  0.236484  0.000000  1
  Sc  Sc5  1  0.764342  0.763516  0.000000  1
  Tc  Tc6  1  0.990784  0.000000  0.500000  1
  Hg  Hg7  1  0.666447  0.332390  0.000000  1
  Hg  Hg8  1  0.334057  0.667610  0.000000  1
