# generated using pymatgen
data_Ba6DyHo(Ir2O9)2
_symmetry_space_group_name_H-M   'P 1'
_cell_length_a   5.94855300
_cell_length_b   5.94855684
_cell_length_c   14.70270400
_cell_angle_alpha   89.99999753
_cell_angle_beta   90.00002132
_cell_angle_gamma   120.00003537
_symmetry_Int_Tables_number   1
_chemical_formula_structural   Ba6DyHo(Ir2O9)2
_chemical_formula_sum   'Ba6 Dy1 Ho1 Ir4 O18'
_cell_volume   450.55793401
_cell_formula_units_Z   1
loop_
 _symmetry_equiv_pos_site_id
 _symmetry_equiv_pos_as_xyz
  1  'x, y, z'
loop_
 _atom_site_type_symbol
 _atom_site_label
 _atom_site_symmetry_multiplicity
 _atom_site_fract_x
 _atom_site_fract_y
 _atom_site_fract_z
 _atom_site_occupancy
  Ba  Ba0  1  0.000000  0.000000  0.249824  1
  Ba  Ba1  1  0.000000  0.000000  0.750176  1
  Ba  Ba2  1  0.333333  0.666666  0.592352  1
  Ba  Ba3  1  0.666667  0.333334  0.407648  1
  Ba  Ba4  1  0.666667  0.333333  0.092185  1
  Ba  Ba5  1  0.333333  0.666667  0.907815  1
  Dy  Dy6  1  0.000000  0.000000  0.500000  1
  Ho  Ho7  1  0.000000  0.000000  0.000000  1
  Ir  Ir8  1  0.333334  0.666667  0.335707  1
  Ir  Ir9  1  0.666666  0.333333  0.664293  1
  Ir  Ir10  1  0.666667  0.333333  0.836065  1
  Ir  Ir11  1  0.333333  0.666667  0.163935  1
  O  O12  1  0.490913  0.509087  0.249885  1
  O  O13  1  0.490913  0.981827  0.249885  1
  O  O14  1  0.018173  0.509087  0.249885  1
  O  O15  1  0.509087  0.490913  0.750115  1
  O  O16  1  0.509087  0.018173  0.750115  1
  O  O17  1  0.981827  0.490913  0.750115  1
  O  O18  1  0.175713  0.824287  0.086470  1
  O  O19  1  0.175713  0.351426  0.086470  1
  O  O20  1  0.648574  0.824287  0.086470  1
  O  O21  1  0.824287  0.175713  0.913530  1
  O  O22  1  0.824287  0.648574  0.913530  1
  O  O23  1  0.351426  0.175713  0.913530  1
  O  O24  1  0.823819  0.176181  0.586728  1
  O  O25  1  0.823819  0.647638  0.586729  1
  O  O26  1  0.352362  0.176182  0.586728  1
  O  O27  1  0.176181  0.823819  0.413272  1
  O  O28  1  0.176181  0.352362  0.413271  1
  O  O29  1  0.647638  0.823818  0.413272  1
