# generated using pymatgen
data_CePa3(CdRh2)2
_symmetry_space_group_name_H-M   'P 1'
_cell_length_a   7.72193500
_cell_length_b   7.72193539
_cell_length_c   3.59753800
_cell_angle_alpha   90.00000000
_cell_angle_beta   90.00000000
_cell_angle_gamma   91.40827044
_symmetry_Int_Tables_number   1
_chemical_formula_structural   CePa3(CdRh2)2
_chemical_formula_sum   'Ce1 Pa3 Cd2 Rh4'
_cell_volume   214.45022084
_cell_formula_units_Z   1
loop_
 _symmetry_equiv_pos_site_id
 _symmetry_equiv_pos_as_xyz
  1  'x, y, z'
loop_
 _atom_site_type_symbol
 _atom_site_label
 _atom_site_symmetry_multiplicity
 _atom_site_fract_x
 _atom_site_fract_y
 _atom_site_fract_z
 _atom_site_occupancy
  Ce  Ce0  1  0.669522  0.830479  0.499999  1
  Pa  Pa1  1  0.330471  0.169529  0.499999  1
  Pa  Pa2  1  0.829510  0.332144  0.499999  1
  Pa  Pa3  1  0.167856  0.670491  0.499999  1
  Cd  Cd4  1  0.994485  0.000531  0.000000  1
  Cd  Cd5  1  0.499469  0.505515  0.000000  1
  Rh  Rh6  1  0.630595  0.144480  0.000000  1
  Rh  Rh7  1  0.141970  0.358031  0.000000  1
  Rh  Rh8  1  0.880601  0.619399  0.000000  1
  Rh  Rh9  1  0.355521  0.869405  0.000000  1
