# generated using pymatgen
data_NdHo3Al16(SiIr3)2
_symmetry_space_group_name_H-M   'P 1'
_cell_length_a   7.55030501
_cell_length_b   7.55592778
_cell_length_c   9.37640000
_cell_angle_alpha   90.00000000
_cell_angle_beta   90.00000000
_cell_angle_gamma   119.64465518
_symmetry_Int_Tables_number   1
_chemical_formula_structural   NdHo3Al16(SiIr3)2
_chemical_formula_sum   'Nd1 Ho3 Al16 Si2 Ir6'
_cell_volume   464.90371446
_cell_formula_units_Z   1
loop_
 _symmetry_equiv_pos_site_id
 _symmetry_equiv_pos_as_xyz
  1  'x, y, z'
loop_
 _atom_site_type_symbol
 _atom_site_label
 _atom_site_symmetry_multiplicity
 _atom_site_fract_x
 _atom_site_fract_y
 _atom_site_fract_z
 _atom_site_occupancy
  Nd  Nd0  1  0.994943  0.674574  0.250000  1
  Ho  Ho1  1  0.004872  0.324391  0.750000  1
  Ho  Ho2  1  0.675436  0.995067  0.250000  1
  Ho  Ho3  1  0.325081  0.005490  0.750000  1
  Al  Al4  1  0.001381  0.334709  0.074390  1
  Al  Al5  1  0.998900  0.663478  0.921145  1
  Al  Al6  1  0.998900  0.663478  0.578855  1
  Al  Al7  1  0.338123  0.002808  0.425771  1
  Al  Al8  1  0.001381  0.334709  0.425610  1
  Al  Al9  1  0.663480  0.998844  0.576668  1
  Al  Al10  1  0.663480  0.998844  0.923332  1
  Al  Al11  1  0.338123  0.002808  0.074229  1
  Al  Al12  1  0.335401  0.335446  0.558226  1
  Al  Al13  1  0.662888  0.664504  0.445507  1
  Al  Al14  1  0.662888  0.664504  0.054493  1
  Al  Al15  1  0.335401  0.335446  0.941774  1
  Al  Al16  1  0.337499  0.548797  0.250000  1
  Al  Al17  1  0.663447  0.450284  0.750000  1
  Al  Al18  1  0.546472  0.333167  0.250000  1
  Al  Al19  1  0.450884  0.664426  0.750000  1
  Si  Si20  1  0.129850  0.131487  0.250000  1
  Si  Si21  1  0.870879  0.871556  0.750000  1
  Ir  Ir22  1  0.671389  0.327882  0.999218  1
  Ir  Ir23  1  0.328416  0.671654  0.999333  1
  Ir  Ir24  1  0.328416  0.671654  0.500667  1
  Ir  Ir25  1  0.671389  0.327882  0.500782  1
  Ir  Ir26  1  0.000340  0.001055  0.998489  1
  Ir  Ir27  1  0.000340  0.001055  0.501511  1
