# generated using pymatgen
data_Dy3Y2Si10P2Ir19
_symmetry_space_group_name_H-M   'P 1'
_cell_length_a   12.84365717
_cell_length_b   12.84365817
_cell_length_c   3.96067100
_cell_angle_alpha   90.00000000
_cell_angle_beta   90.00000000
_cell_angle_gamma   120.13355065
_symmetry_Int_Tables_number   1
_chemical_formula_structural   Dy3Y2Si10P2Ir19
_chemical_formula_sum   'Dy3 Y2 Si10 P2 Ir19'
_cell_volume   565.05512642
_cell_formula_units_Z   1
loop_
 _symmetry_equiv_pos_site_id
 _symmetry_equiv_pos_as_xyz
  1  'x, y, z'
loop_
 _atom_site_type_symbol
 _atom_site_label
 _atom_site_symmetry_multiplicity
 _atom_site_fract_x
 _atom_site_fract_y
 _atom_site_fract_z
 _atom_site_occupancy
  Dy  Dy0  1  0.812665  0.812665  0.500000  1
  Dy  Dy1  1  0.186379  0.001155  0.500000  1
  Dy  Dy2  1  0.001155  0.186379  0.500000  1
  Y  Y3  1  0.666589  0.333650  0.000000  1
  Y  Y4  1  0.333650  0.666589  0.000000  1
  Si  Si5  1  0.686354  0.167244  0.500000  1
  Si  Si6  1  0.832399  0.518840  0.500000  1
  Si  Si7  1  0.480607  0.312627  0.500000  1
  Si  Si8  1  0.167244  0.686354  0.500000  1
  Si  Si9  1  0.518840  0.832399  0.500000  1
  Si  Si10  1  0.312627  0.480607  0.500000  1
  Si  Si11  1  0.632876  0.632876  0.000000  1
  Si  Si12  1  0.367452  0.000189  0.000000  1
  Si  Si13  1  0.000189  0.367452  0.000000  1
  Si  Si14  1  0.178703  0.178703  0.000000  1
  P  P15  1  0.820877  0.000866  0.000000  1
  P  P16  1  0.000866  0.820877  0.000000  1
  Ir  Ir17  1  0.806736  0.179959  0.000000  1
  Ir  Ir18  1  0.820504  0.627324  0.000000  1
  Ir  Ir19  1  0.375384  0.193691  0.000000  1
  Ir  Ir20  1  0.179959  0.806736  0.000000  1
  Ir  Ir21  1  0.627324  0.820504  0.000000  1
  Ir  Ir22  1  0.193691  0.375384  0.000000  1
  Ir  Ir23  1  0.447662  0.447662  0.000000  1
  Ir  Ir24  1  0.552659  0.998983  0.000000  1
  Ir  Ir25  1  0.998983  0.552659  0.000000  1
  Ir  Ir26  1  0.281426  0.281426  0.500000  1
  Ir  Ir27  1  0.721315  0.000224  0.500000  1
  Ir  Ir28  1  0.000224  0.721315  0.500000  1
  Ir  Ir29  1  0.872462  0.359652  0.500000  1
  Ir  Ir30  1  0.640347  0.513004  0.500000  1
  Ir  Ir31  1  0.487104  0.126023  0.500000  1
  Ir  Ir32  1  0.359652  0.872462  0.500000  1
  Ir  Ir33  1  0.513004  0.640347  0.500000  1
  Ir  Ir34  1  0.126023  0.487104  0.500000  1
  Ir  Ir35  1  0.996068  0.996068  0.000000  1
