# generated using pymatgen
data_Yb2Eu2Mn3FeB16
_symmetry_space_group_name_H-M   'P 1'
_cell_length_a   3.37744300
_cell_length_b   5.95152030
_cell_length_c   11.51799468
_cell_angle_alpha   90.15787087
_cell_angle_beta   90.00000000
_cell_angle_gamma   90.00000000
_symmetry_Int_Tables_number   1
_chemical_formula_structural   Yb2Eu2Mn3FeB16
_chemical_formula_sum   'Yb2 Eu2 Mn3 Fe1 B16'
_cell_volume   231.52141748
_cell_formula_units_Z   1
loop_
 _symmetry_equiv_pos_site_id
 _symmetry_equiv_pos_as_xyz
  1  'x, y, z'
loop_
 _atom_site_type_symbol
 _atom_site_label
 _atom_site_symmetry_multiplicity
 _atom_site_fract_x
 _atom_site_fract_y
 _atom_site_fract_z
 _atom_site_occupancy
  Yb  Yb0  1  0.000000  0.624229  0.849459  1
  Yb  Yb1  1  0.000000  0.375549  0.151562  1
  Eu  Eu2  1  0.000000  0.125927  0.651991  1
  Eu  Eu3  1  0.000000  0.875771  0.348586  1
  Mn  Mn4  1  0.000000  0.124777  0.919050  1
  Mn  Mn5  1  0.000000  0.874551  0.081230  1
  Mn  Mn6  1  0.000000  0.626365  0.583953  1
  Fe  Fe7  1  0.000000  0.374738  0.416648  1
  B  B8  1  0.500000  0.362353  0.967845  1
  B  B9  1  0.500000  0.637435  0.031805  1
  B  B10  1  0.500000  0.859979  0.532609  1
  B  B11  1  0.500000  0.141144  0.466360  1
  B  B12  1  0.500000  0.475616  0.691031  1
  B  B13  1  0.500000  0.522754  0.309174  1
  B  B14  1  0.500000  0.973854  0.811076  1
  B  B15  1  0.500000  0.026596  0.188883  1
  B  B16  1  0.500000  0.280230  0.818191  1
  B  B17  1  0.500000  0.718717  0.181656  1
  B  B18  1  0.500000  0.777980  0.684672  1
  B  B19  1  0.500000  0.224506  0.316758  1
  B  B20  1  0.500000  0.387292  0.545219  1
  B  B21  1  0.500000  0.609248  0.452549  1
  B  B22  1  0.500000  0.885916  0.953547  1
  B  B23  1  0.500000  0.114475  0.046148  1
