# generated using pymatgen
data_Tb5Dy5(NiTe)4
_symmetry_space_group_name_H-M   'P 1'
_cell_length_a   7.76419435
_cell_length_b   7.76419398
_cell_length_c   14.93775440
_cell_angle_alpha   89.96884428
_cell_angle_beta   90.03115634
_cell_angle_gamma   149.96325601
_symmetry_Int_Tables_number   1
_chemical_formula_structural   Tb5Dy5(NiTe)4
_chemical_formula_sum   'Tb5 Dy5 Ni4 Te4'
_cell_volume   450.74411991
_cell_formula_units_Z   1
loop_
 _symmetry_equiv_pos_site_id
 _symmetry_equiv_pos_as_xyz
  1  'x, y, z'
loop_
 _atom_site_type_symbol
 _atom_site_label
 _atom_site_symmetry_multiplicity
 _atom_site_fract_x
 _atom_site_fract_y
 _atom_site_fract_z
 _atom_site_occupancy
  Tb  Tb0  1  0.959454  0.040546  0.124607  1
  Tb  Tb1  1  0.040685  0.959315  0.874837  1
  Tb  Tb2  1  0.039896  0.960104  0.624750  1
  Tb  Tb3  1  0.959549  0.040451  0.375141  1
  Tb  Tb4  1  0.741083  0.258917  0.628048  1
  Dy  Dy5  1  0.259086  0.740914  0.371735  1
  Dy  Dy6  1  0.259156  0.740844  0.128162  1
  Dy  Dy7  1  0.741136  0.258864  0.872260  1
  Dy  Dy8  1  0.605816  0.394184  0.249802  1
  Dy  Dy9  1  0.394243  0.605757  0.750143  1
  Ni  Ni10  1  0.411238  0.588762  0.249881  1
  Ni  Ni11  1  0.588295  0.411705  0.750163  1
  Ni  Ni12  1  0.812774  0.187226  0.249972  1
  Ni  Ni13  1  0.187319  0.812681  0.750908  1
  Te  Te14  1  0.615277  0.384723  0.040437  1
  Te  Te15  1  0.384985  0.615015  0.959512  1
  Te  Te16  1  0.384908  0.615092  0.540336  1
  Te  Te17  1  0.615099  0.384901  0.459305  1
