# generated using pymatgen
data_Nd3ThN4
_symmetry_space_group_name_H-M   'P 1'
_cell_length_a   6.25473423
_cell_length_b   6.25473490
_cell_length_c   6.25473600
_cell_angle_alpha   131.73046439
_cell_angle_beta   131.73046991
_cell_angle_gamma   70.65506267
_symmetry_Int_Tables_number   1
_chemical_formula_structural   Nd3ThN4
_chemical_formula_sum   'Nd3 Th1 N4'
_cell_volume   133.50671999
_cell_formula_units_Z   1
loop_
 _symmetry_equiv_pos_site_id
 _symmetry_equiv_pos_as_xyz
  1  'x, y, z'
loop_
 _atom_site_type_symbol
 _atom_site_label
 _atom_site_symmetry_multiplicity
 _atom_site_fract_x
 _atom_site_fract_y
 _atom_site_fract_z
 _atom_site_occupancy
  Nd  Nd0  1  0.250000  0.750000  0.500000  1
  Nd  Nd1  1  0.500000  0.500000  0.000000  1
  Nd  Nd2  1  0.750000  0.250000  0.500000  1
  Th  Th3  1  0.000000  0.000000  0.000000  1
  N  N4  1  0.000000  0.500000  0.500000  1
  N  N5  1  0.240234  0.240234  0.000000  1
  N  N6  1  0.500000  0.000000  0.500000  1
  N  N7  1  0.759766  0.759766  0.000000  1
