# generated using pymatgen
data_Th2Si(PRu2)6
_symmetry_space_group_name_H-M   'P 1'
_cell_length_a   9.52635900
_cell_length_b   9.52635834
_cell_length_c   3.97507500
_cell_angle_alpha   90.00000000
_cell_angle_beta   90.00000000
_cell_angle_gamma   119.99999790
_symmetry_Int_Tables_number   1
_chemical_formula_structural   Th2Si(PRu2)6
_chemical_formula_sum   'Th2 Si1 P6 Ru12'
_cell_volume   312.41352385
_cell_formula_units_Z   1
loop_
 _symmetry_equiv_pos_site_id
 _symmetry_equiv_pos_as_xyz
  1  'x, y, z'
loop_
 _atom_site_type_symbol
 _atom_site_label
 _atom_site_symmetry_multiplicity
 _atom_site_fract_x
 _atom_site_fract_y
 _atom_site_fract_z
 _atom_site_occupancy
  Th  Th0  1  0.666667  0.333333  0.500000  1
  Th  Th1  1  0.333333  0.666667  0.000000  1
  Si  Si2  1  0.000000  0.000000  0.000000  1
  P  P3  1  0.607800  0.717728  0.500000  1
  P  P4  1  0.282272  0.890072  0.500000  1
  P  P5  1  0.109928  0.392200  0.500000  1
  P  P6  1  0.893209  0.580893  0.000000  1
  P  P7  1  0.419107  0.312315  0.000000  1
  P  P8  1  0.687685  0.106791  0.000000  1
  Ru  Ru9  1  0.555385  0.948735  0.500000  1
  Ru  Ru10  1  0.393352  0.444615  0.500000  1
  Ru  Ru11  1  0.910273  0.118662  0.500000  1
  Ru  Ru12  1  0.208388  0.089727  0.500000  1
  Ru  Ru13  1  0.881338  0.791612  0.500000  1
  Ru  Ru14  1  0.721476  0.885186  0.000000  1
  Ru  Ru15  1  0.114814  0.836289  0.000000  1
  Ru  Ru16  1  0.163711  0.278524  0.000000  1
  Ru  Ru17  1  0.425634  0.070432  0.000000  1
  Ru  Ru18  1  0.929568  0.355203  0.000000  1
  Ru  Ru19  1  0.644797  0.574366  0.000000  1
  Ru  Ru20  1  0.051265  0.606648  0.500000  1
