# generated using pymatgen
data_PrDy4(In2Pt)2
_symmetry_space_group_name_H-M   'P 1'
_cell_length_a   3.65443400
_cell_length_b   8.21296200
_cell_length_c   18.45018900
_cell_angle_alpha   90.00000000
_cell_angle_beta   90.00000000
_cell_angle_gamma   90.00000000
_symmetry_Int_Tables_number   1
_chemical_formula_structural   PrDy4(In2Pt)2
_chemical_formula_sum   'Pr2 Dy8 In8 Pt4'
_cell_volume   553.75894633
_cell_formula_units_Z   2
loop_
 _symmetry_equiv_pos_site_id
 _symmetry_equiv_pos_as_xyz
  1  'x, y, z'
loop_
 _atom_site_type_symbol
 _atom_site_label
 _atom_site_symmetry_multiplicity
 _atom_site_fract_x
 _atom_site_fract_y
 _atom_site_fract_z
 _atom_site_occupancy
  Pr  Pr0  1  0.000000  0.000000  0.000000  1
  Pr  Pr1  1  0.000000  0.500000  0.500000  1
  Dy  Dy2  1  0.000000  0.118576  0.413714  1
  Dy  Dy3  1  0.000000  0.881424  0.586286  1
  Dy  Dy4  1  0.000000  0.381424  0.913714  1
  Dy  Dy5  1  0.000000  0.618576  0.086286  1
  Dy  Dy6  1  0.000000  0.243484  0.220316  1
  Dy  Dy7  1  0.000000  0.756516  0.779684  1
  Dy  Dy8  1  0.000000  0.256516  0.720316  1
  Dy  Dy9  1  0.000000  0.743484  0.279684  1
  In  In10  1  0.500000  0.423795  0.348480  1
  In  In11  1  0.500000  0.576205  0.651520  1
  In  In12  1  0.500000  0.076205  0.848480  1
  In  In13  1  0.500000  0.923795  0.151520  1
  In  In14  1  0.500000  0.298531  0.068380  1
  In  In15  1  0.500000  0.701469  0.931620  1
  In  In16  1  0.500000  0.201469  0.568380  1
  In  In17  1  0.500000  0.798531  0.431620  1
  Pt  Pt18  1  0.500000  0.024591  0.303281  1
  Pt  Pt19  1  0.500000  0.975409  0.696719  1
  Pt  Pt20  1  0.500000  0.475409  0.803281  1
  Pt  Pt21  1  0.500000  0.524591  0.196719  1
