# generated using pymatgen
data_Er16Al4Ru3Rh
_symmetry_space_group_name_H-M   'P 1'
_cell_length_a   9.46683337
_cell_length_b   9.46683391
_cell_length_c   9.46683294
_cell_angle_alpha   59.70691328
_cell_angle_beta   59.70691699
_cell_angle_gamma   59.70691534
_symmetry_Int_Tables_number   1
_chemical_formula_structural   Er16Al4Ru3Rh
_chemical_formula_sum   'Er16 Al4 Ru3 Rh1'
_cell_volume   595.93431684
_cell_formula_units_Z   1
loop_
 _symmetry_equiv_pos_site_id
 _symmetry_equiv_pos_as_xyz
  1  'x, y, z'
loop_
 _atom_site_type_symbol
 _atom_site_label
 _atom_site_symmetry_multiplicity
 _atom_site_fract_x
 _atom_site_fract_y
 _atom_site_fract_z
 _atom_site_occupancy
  Er  Er0  1  0.194588  0.194588  0.807810  1
  Er  Er1  1  0.437821  0.061154  0.061154  1
  Er  Er2  1  0.439119  0.061445  0.439119  1
  Er  Er3  1  0.061154  0.437821  0.061154  1
  Er  Er4  1  0.647528  0.054389  0.647528  1
  Er  Er5  1  0.196331  0.805620  0.805620  1
  Er  Er6  1  0.061154  0.061154  0.437821  1
  Er  Er7  1  0.807810  0.194588  0.194588  1
  Er  Er8  1  0.805620  0.805620  0.196331  1
  Er  Er9  1  0.647528  0.647528  0.054389  1
  Er  Er10  1  0.648288  0.648288  0.648288  1
  Er  Er11  1  0.061445  0.439119  0.439119  1
  Er  Er12  1  0.054389  0.647528  0.647528  1
  Er  Er13  1  0.805620  0.196331  0.805620  1
  Er  Er14  1  0.439119  0.439119  0.061445  1
  Er  Er15  1  0.194588  0.807810  0.194588  1
  Al  Al16  1  0.422716  0.731770  0.422716  1
  Al  Al17  1  0.422716  0.422716  0.731770  1
  Al  Al18  1  0.731770  0.422716  0.422716  1
  Al  Al19  1  0.423038  0.423038  0.423038  1
  Ru  Ru20  1  0.858316  0.421970  0.858316  1
  Ru  Ru21  1  0.858316  0.858316  0.421970  1
  Ru  Ru22  1  0.421970  0.858316  0.858316  1
  Rh  Rh23  1  0.859056  0.859056  0.859056  1
