# generated using pymatgen
data_NaTiRhS4
_symmetry_space_group_name_H-M   'P 1'
_cell_length_a   7.23028436
_cell_length_b   7.23028389
_cell_length_c   5.77503043
_cell_angle_alpha   80.73322073
_cell_angle_beta   80.73322044
_cell_angle_gamma   28.27468314
_symmetry_Int_Tables_number   1
_chemical_formula_structural   NaTiRhS4
_chemical_formula_sum   'Na1 Ti1 Rh1 S4'
_cell_volume   141.02475250
_cell_formula_units_Z   1
loop_
 _symmetry_equiv_pos_site_id
 _symmetry_equiv_pos_as_xyz
  1  'x, y, z'
loop_
 _atom_site_type_symbol
 _atom_site_label
 _atom_site_symmetry_multiplicity
 _atom_site_fract_x
 _atom_site_fract_y
 _atom_site_fract_z
 _atom_site_occupancy
  Na  Na0  1  0.243780  0.243780  0.876359  1
  Ti  Ti1  1  0.495928  0.495928  0.458105  1
  Rh  Rh2  1  0.991037  0.991037  0.038784  1
  S  S3  1  0.902325  0.902325  0.715574  1
  S  S4  1  0.382892  0.382892  0.212589  1
  S  S5  1  0.580059  0.580059  0.821380  1
  S  S6  1  0.104978  0.104978  0.310209  1
