# generated using pymatgen
data_NpTa8MoS16
_symmetry_space_group_name_H-M   'P 1'
_cell_length_a   6.67003400
_cell_length_b   6.67003373
_cell_length_c   13.09280700
_cell_angle_alpha   90.00000000
_cell_angle_beta   90.00000000
_cell_angle_gamma   120.00001125
_symmetry_Int_Tables_number   1
_chemical_formula_structural   NpTa8MoS16
_chemical_formula_sum   'Np1 Ta8 Mo1 S16'
_cell_volume   504.45150999
_cell_formula_units_Z   1
loop_
 _symmetry_equiv_pos_site_id
 _symmetry_equiv_pos_as_xyz
  1  'x, y, z'
loop_
 _atom_site_type_symbol
 _atom_site_label
 _atom_site_symmetry_multiplicity
 _atom_site_fract_x
 _atom_site_fract_y
 _atom_site_fract_z
 _atom_site_occupancy
  Np  Np0  1  0.000000  0.000000  0.000000  1
  Ta  Ta1  1  0.505431  0.494569  0.733419  1
  Ta  Ta2  1  0.010861  0.505431  0.266581  1
  Ta  Ta3  1  0.494569  0.989139  0.266581  1
  Ta  Ta4  1  0.505431  0.010861  0.733419  1
  Ta  Ta5  1  0.989139  0.494569  0.733419  1
  Ta  Ta6  1  0.494569  0.505431  0.266581  1
  Ta  Ta7  1  0.000000  0.000000  0.734991  1
  Ta  Ta8  1  0.000000  0.000000  0.265009  1
  Mo  Mo9  1  0.000000  0.000000  0.500000  1
  S  S10  1  0.832866  0.167134  0.385054  1
  S  S11  1  0.832866  0.665732  0.385054  1
  S  S12  1  0.334268  0.167134  0.385054  1
  S  S13  1  0.661003  0.830502  0.853558  1
  S  S14  1  0.167134  0.334268  0.614946  1
  S  S15  1  0.169498  0.830502  0.853558  1
  S  S16  1  0.169498  0.338997  0.853558  1
  S  S17  1  0.830502  0.169498  0.146442  1
  S  S18  1  0.338997  0.169498  0.146442  1
  S  S19  1  0.665732  0.832866  0.614946  1
  S  S20  1  0.333333  0.666667  0.142617  1
  S  S21  1  0.666667  0.333333  0.611156  1
  S  S22  1  0.666667  0.333333  0.857383  1
  S  S23  1  0.333333  0.666667  0.388844  1
  S  S24  1  0.830502  0.661003  0.146442  1
  S  S25  1  0.167134  0.832866  0.614946  1
