# generated using pymatgen
data_Cs2Sn2PbS6
_symmetry_space_group_name_H-M   'P 1'
_cell_length_a   9.44218995
_cell_length_b   9.44218988
_cell_length_c   9.52612815
_cell_angle_alpha   91.03715791
_cell_angle_beta   91.03716227
_cell_angle_gamma   114.03517714
_symmetry_Int_Tables_number   1
_chemical_formula_structural   Cs2Sn2PbS6
_chemical_formula_sum   'Cs4 Sn4 Pb2 S12'
_cell_volume   775.23437902
_cell_formula_units_Z   2
loop_
 _symmetry_equiv_pos_site_id
 _symmetry_equiv_pos_as_xyz
  1  'x, y, z'
loop_
 _atom_site_type_symbol
 _atom_site_label
 _atom_site_symmetry_multiplicity
 _atom_site_fract_x
 _atom_site_fract_y
 _atom_site_fract_z
 _atom_site_occupancy
  Cs  Cs0  1  0.259540  0.536862  0.515773  1
  Cs  Cs1  1  0.740460  0.463138  0.484227  1
  Cs  Cs2  1  0.463138  0.740460  0.984227  1
  Cs  Cs3  1  0.536862  0.259540  0.015773  1
  Sn  Sn4  1  0.976621  0.660338  0.061122  1
  Sn  Sn5  1  0.023379  0.339662  0.938878  1
  Sn  Sn6  1  0.339662  0.023379  0.438878  1
  Sn  Sn7  1  0.660338  0.976621  0.561122  1
  Pb  Pb8  1  0.998712  0.001288  0.250000  1
  Pb  Pb9  1  0.001288  0.998712  0.750000  1
  S  S10  1  0.669521  0.757754  0.671588  1
  S  S11  1  0.918381  0.515366  0.831935  1
  S  S12  1  0.242246  0.330479  0.828412  1
  S  S13  1  0.515366  0.918381  0.331935  1
  S  S14  1  0.330479  0.242246  0.328412  1
  S  S15  1  0.918665  0.167664  0.541005  1
  S  S16  1  0.832336  0.081335  0.958995  1
  S  S17  1  0.167664  0.918665  0.041005  1
  S  S18  1  0.081619  0.484634  0.168065  1
  S  S19  1  0.484634  0.081619  0.668065  1
  S  S20  1  0.081335  0.832336  0.458995  1
  S  S21  1  0.757754  0.669521  0.171588  1
