# generated using pymatgen
data_La20AgIr7Os4
_symmetry_space_group_name_H-M   'P 1'
_cell_length_a   11.45828111
_cell_length_b   11.45828149
_cell_length_c   6.70504300
_cell_angle_alpha   90.24889478
_cell_angle_beta   90.24889478
_cell_angle_gamma   89.92962415
_symmetry_Int_Tables_number   1
_chemical_formula_structural   La20AgIr7Os4
_chemical_formula_sum   'La20 Ag1 Ir7 Os4'
_cell_volume   880.30266042
_cell_formula_units_Z   1
loop_
 _symmetry_equiv_pos_site_id
 _symmetry_equiv_pos_as_xyz
  1  'x, y, z'
loop_
 _atom_site_type_symbol
 _atom_site_label
 _atom_site_symmetry_multiplicity
 _atom_site_fract_x
 _atom_site_fract_y
 _atom_site_fract_z
 _atom_site_occupancy
  La  La0  1  0.292787  0.088095  0.388844  1
  La  La1  1  0.298050  0.908515  0.888207  1
  La  La2  1  0.697471  0.086143  0.865728  1
  La  La3  1  0.701355  0.902610  0.388924  1
  La  La4  1  0.590038  0.793204  0.890339  1
  La  La5  1  0.577780  0.206384  0.387388  1
  La  La6  1  0.408029  0.794960  0.390338  1
  La  La7  1  0.408068  0.204872  0.891034  1
  La  La8  1  0.206796  0.409962  0.609661  1
  La  La9  1  0.205040  0.591971  0.109662  1
  La  La10  1  0.793616  0.422220  0.112612  1
  La  La11  1  0.795128  0.591932  0.608966  1
  La  La12  1  0.911905  0.707213  0.111156  1
  La  La13  1  0.913857  0.302529  0.634272  1
  La  La14  1  0.091485  0.701950  0.611793  1
  La  La15  1  0.097390  0.298645  0.111076  1
  La  La16  1  0.004983  0.993228  0.503602  1
  La  La17  1  0.006772  0.995017  0.996398  1
  La  La18  1  0.499014  0.500072  0.998591  1
  La  La19  1  0.499928  0.500986  0.501409  1
  Ag  Ag20  1  0.843866  0.156134  0.250000  1
  Ir  Ir21  1  0.850112  0.849656  0.748776  1
  Ir  Ir22  1  0.150344  0.149888  0.751224  1
  Ir  Ir23  1  0.153649  0.846351  0.250000  1
  Ir  Ir24  1  0.652332  0.347668  0.750000  1
  Ir  Ir25  1  0.651729  0.650884  0.249185  1
  Ir  Ir26  1  0.349116  0.348271  0.250815  1
  Ir  Ir27  1  0.348033  0.651967  0.750000  1
  Os  Os28  1  0.501779  0.000087  0.128349  1
  Os  Os29  1  0.499878  0.000244  0.626935  1
  Os  Os30  1  0.999756  0.500122  0.873065  1
  Os  Os31  1  0.999913  0.498221  0.371651  1
