# generated using pymatgen
data_Y12Er5(TmBi4)3
_symmetry_space_group_name_H-M   'P 1'
_cell_length_a   8.24558009
_cell_length_b   9.49543800
_cell_length_c   12.06532514
_cell_angle_alpha   89.99947931
_cell_angle_beta   90.01728220
_cell_angle_gamma   90.00051660
_symmetry_Int_Tables_number   1
_chemical_formula_structural   Y12Er5(TmBi4)3
_chemical_formula_sum   'Y12 Er5 Tm3 Bi12'
_cell_volume   944.65934903
_cell_formula_units_Z   1
loop_
 _symmetry_equiv_pos_site_id
 _symmetry_equiv_pos_as_xyz
  1  'x, y, z'
loop_
 _atom_site_type_symbol
 _atom_site_label
 _atom_site_symmetry_multiplicity
 _atom_site_fract_x
 _atom_site_fract_y
 _atom_site_fract_z
 _atom_site_occupancy
  Y  Y0  1  0.186248  0.749822  0.718865  1
  Y  Y1  1  0.686363  0.750175  0.781207  1
  Y  Y2  1  0.813645  0.249824  0.281179  1
  Y  Y3  1  0.313785  0.250182  0.218794  1
  Y  Y4  1  0.693636  0.562918  0.059878  1
  Y  Y5  1  0.193616  0.937113  0.440107  1
  Y  Y6  1  0.306304  0.062913  0.940130  1
  Y  Y7  1  0.806484  0.437139  0.559881  1
  Y  Y8  1  0.354192  0.750004  0.215346  1
  Y  Y9  1  0.854040  0.749979  0.284671  1
  Y  Y10  1  0.645898  0.250015  0.784751  1
  Y  Y11  1  0.145755  0.249967  0.715387  1
  Er  Er12  1  0.474212  0.249780  0.488827  1
  Er  Er13  1  0.306332  0.435420  0.940140  1
  Er  Er14  1  0.806516  0.064576  0.559858  1
  Er  Er15  1  0.693616  0.935401  0.059850  1
  Er  Er16  1  0.193595  0.564566  0.440117  1
  Tm  Tm17  1  0.025614  0.750214  0.988878  1
  Tm  Tm18  1  0.525797  0.749781  0.511086  1
  Tm  Tm19  1  0.974259  0.250216  0.011076  1
  Bi  Bi20  1  0.434141  0.003545  0.672918  1
  Bi  Bi21  1  0.934157  0.496334  0.827211  1
  Bi  Bi22  1  0.565950  0.503835  0.327047  1
  Bi  Bi23  1  0.065891  0.996317  0.172791  1
  Bi  Bi24  1  0.566475  0.995982  0.327080  1
  Bi  Bi25  1  0.066427  0.503860  0.172754  1
  Bi  Bi26  1  0.433617  0.496281  0.672890  1
  Bi  Bi27  1  0.933633  0.003829  0.827238  1
  Bi  Bi28  1  0.408272  0.748931  0.958108  1
  Bi  Bi29  1  0.908245  0.751073  0.541924  1
  Bi  Bi30  1  0.591754  0.248927  0.041957  1
  Bi  Bi31  1  0.091529  0.251085  0.458054  1
