# generated using pymatgen
data_Hf(Pd3Pt)2
_symmetry_space_group_name_H-M   'P 1'
_cell_length_a   6.36182944
_cell_length_b   6.36182874
_cell_length_c   6.22663654
_cell_angle_alpha   95.85985785
_cell_angle_beta   95.85985632
_cell_angle_gamma   143.14423685
_symmetry_Int_Tables_number   1
_chemical_formula_structural   Hf(Pd3Pt)2
_chemical_formula_sum   'Hf1 Pd6 Pt2'
_cell_volume   143.05537532
_cell_formula_units_Z   1
loop_
 _symmetry_equiv_pos_site_id
 _symmetry_equiv_pos_as_xyz
  1  'x, y, z'
loop_
 _atom_site_type_symbol
 _atom_site_label
 _atom_site_symmetry_multiplicity
 _atom_site_fract_x
 _atom_site_fract_y
 _atom_site_fract_z
 _atom_site_occupancy
  Hf  Hf0  1  0.000000  0.000000  0.000000  1
  Pd  Pd1  1  0.666231  0.666231  0.332466  1
  Pd  Pd2  1  0.331111  0.999391  0.330502  1
  Pd  Pd3  1  0.999391  0.331111  0.330502  1
  Pd  Pd4  1  0.668888  0.000609  0.669497  1
  Pd  Pd5  1  0.000609  0.668888  0.669497  1
  Pd  Pd6  1  0.333768  0.333768  0.667535  1
  Pt  Pt7  1  0.664330  0.335667  0.000000  1
  Pt  Pt8  1  0.335667  0.664330  0.000000  1
