# generated using pymatgen
data_TiNb9(Ga3B)2
_symmetry_space_group_name_H-M   'P 1'
_cell_length_a   7.82362600
_cell_length_b   7.82362612
_cell_length_c   5.34972100
_cell_angle_alpha   90.00000000
_cell_angle_beta   90.00000000
_cell_angle_gamma   119.99999951
_symmetry_Int_Tables_number   1
_chemical_formula_structural   TiNb9(Ga3B)2
_chemical_formula_sum   'Ti1 Nb9 Ga6 B2'
_cell_volume   283.58152657
_cell_formula_units_Z   1
loop_
 _symmetry_equiv_pos_site_id
 _symmetry_equiv_pos_as_xyz
  1  'x, y, z'
loop_
 _atom_site_type_symbol
 _atom_site_label
 _atom_site_symmetry_multiplicity
 _atom_site_fract_x
 _atom_site_fract_y
 _atom_site_fract_z
 _atom_site_occupancy
  Ti  Ti0  1  0.333333  0.666667  0.000000  1
  Nb  Nb1  1  0.242160  0.001597  0.250754  1
  Nb  Nb2  1  0.759437  0.001597  0.749246  1
  Nb  Nb3  1  0.998403  0.240563  0.250754  1
  Nb  Nb4  1  0.998403  0.757840  0.749246  1
  Nb  Nb5  1  0.759437  0.757840  0.250754  1
  Nb  Nb6  1  0.242160  0.240563  0.749246  1
  Nb  Nb7  1  0.666667  0.333333  0.000000  1
  Nb  Nb8  1  0.666667  0.333333  0.500000  1
  Nb  Nb9  1  0.333333  0.666667  0.500000  1
  Ga  Ga10  1  0.597647  0.997013  0.246841  1
  Ga  Ga11  1  0.399367  0.997013  0.753159  1
  Ga  Ga12  1  0.002987  0.600633  0.246841  1
  Ga  Ga13  1  0.002987  0.402353  0.753159  1
  Ga  Ga14  1  0.399367  0.402353  0.246841  1
  Ga  Ga15  1  0.597647  0.600633  0.753159  1
  B  B16  1  0.000000  0.000000  0.000000  1
  B  B17  1  0.000000  0.000000  0.500000  1
