# generated using pymatgen
data_ZrBe3NiPd
_symmetry_space_group_name_H-M   'P 1'
_cell_length_a   4.66956706
_cell_length_b   4.66956638
_cell_length_c   4.60361890
_cell_angle_alpha   59.52498587
_cell_angle_beta   59.52498273
_cell_angle_gamma   60.00000023
_symmetry_Int_Tables_number   1
_chemical_formula_structural   ZrBe3NiPd
_chemical_formula_sum   'Zr1 Be3 Ni1 Pd1'
_cell_volume   70.46634746
_cell_formula_units_Z   1
loop_
 _symmetry_equiv_pos_site_id
 _symmetry_equiv_pos_as_xyz
  1  'x, y, z'
loop_
 _atom_site_type_symbol
 _atom_site_label
 _atom_site_symmetry_multiplicity
 _atom_site_fract_x
 _atom_site_fract_y
 _atom_site_fract_z
 _atom_site_occupancy
  Zr  Zr0  1  0.751445  0.751445  0.745665  1
  Be  Be1  1  0.128906  0.128906  0.127670  1
  Be  Be2  1  0.614519  0.128906  0.127670  1
  Be  Be3  1  0.128906  0.614519  0.127670  1
  Ni  Ni4  1  0.121129  0.121129  0.636614  1
  Pd  Pd5  1  0.505096  0.505096  0.484711  1
