# generated using pymatgen
data_CeDy15(CdRu)4
_symmetry_space_group_name_H-M   'P 1'
_cell_length_a   9.68232450
_cell_length_b   9.68232381
_cell_length_c   9.68232385
_cell_angle_alpha   59.42143135
_cell_angle_beta   59.42143282
_cell_angle_gamma   59.42143100
_symmetry_Int_Tables_number   1
_chemical_formula_structural   CeDy15(CdRu)4
_chemical_formula_sum   'Ce1 Dy15 Cd4 Ru4'
_cell_volume   633.38624800
_cell_formula_units_Z   1
loop_
 _symmetry_equiv_pos_site_id
 _symmetry_equiv_pos_as_xyz
  1  'x, y, z'
loop_
 _atom_site_type_symbol
 _atom_site_label
 _atom_site_symmetry_multiplicity
 _atom_site_fract_x
 _atom_site_fract_y
 _atom_site_fract_z
 _atom_site_occupancy
  Ce  Ce0  1  0.342287  0.342287  0.342287  1
  Dy  Dy1  1  0.562249  0.562249  0.938279  1
  Dy  Dy2  1  0.938825  0.561199  0.938825  1
  Dy  Dy3  1  0.561199  0.938825  0.938825  1
  Dy  Dy4  1  0.938825  0.938825  0.561199  1
  Dy  Dy5  1  0.562249  0.938279  0.562249  1
  Dy  Dy6  1  0.938279  0.562249  0.562249  1
  Dy  Dy7  1  0.189211  0.189211  0.811914  1
  Dy  Dy8  1  0.810670  0.188439  0.810670  1
  Dy  Dy9  1  0.188438  0.810671  0.810670  1
  Dy  Dy10  1  0.810670  0.810671  0.188439  1
  Dy  Dy11  1  0.189210  0.811914  0.189210  1
  Dy  Dy12  1  0.811914  0.189211  0.189211  1
  Dy  Dy13  1  0.346460  0.346460  0.957457  1
  Dy  Dy14  1  0.346460  0.957457  0.346460  1
  Dy  Dy15  1  0.957457  0.346460  0.346460  1
  Cd  Cd16  1  0.580095  0.580095  0.258211  1
  Cd  Cd17  1  0.580095  0.258211  0.580095  1
  Cd  Cd18  1  0.258211  0.580095  0.580095  1
  Cd  Cd19  1  0.579940  0.579940  0.579940  1
  Ru  Ru20  1  0.146340  0.146340  0.575234  1
  Ru  Ru21  1  0.146340  0.575234  0.146340  1
  Ru  Ru22  1  0.575234  0.146340  0.146340  1
  Ru  Ru23  1  0.139339  0.139339  0.139339  1
