# generated using pymatgen
data_Yb3OsO6
_symmetry_space_group_name_H-M   'P 1'
_cell_length_a   5.61114862
_cell_length_b   5.61069893
_cell_length_c   5.78010879
_cell_angle_alpha   60.96394199
_cell_angle_beta   60.96749795
_cell_angle_gamma   59.99684472
_symmetry_Int_Tables_number   1
_chemical_formula_structural   Yb3OsO6
_chemical_formula_sum   'Yb3 Os1 O6'
_cell_volume   130.51684119
_cell_formula_units_Z   1
loop_
 _symmetry_equiv_pos_site_id
 _symmetry_equiv_pos_as_xyz
  1  'x, y, z'
loop_
 _atom_site_type_symbol
 _atom_site_label
 _atom_site_symmetry_multiplicity
 _atom_site_fract_x
 _atom_site_fract_y
 _atom_site_fract_z
 _atom_site_occupancy
  Yb  Yb0  1  0.867984  0.867977  0.396056  1
  Yb  Yb1  1  0.145904  0.145915  0.562271  1
  Yb  Yb2  1  0.363695  0.363693  0.908927  1
  Os  Os3  1  0.654689  0.654681  0.035828  1
  O  O4  1  0.528885  0.321009  0.250335  1
  O  O5  1  0.321000  0.899793  0.250311  1
  O  O6  1  0.899857  0.528876  0.250331  1
  O  O7  1  0.995811  0.452115  0.782009  1
  O  O8  1  0.770080  0.995853  0.781977  1
  O  O9  1  0.452096  0.770085  0.781955  1
