# generated using pymatgen
data_Y2Lu3Pt4
_symmetry_space_group_name_H-M   'P 1'
_cell_length_a   7.42628900
_cell_length_b   7.48939700
_cell_length_c   14.52228700
_cell_angle_alpha   90.00000000
_cell_angle_beta   90.00000000
_cell_angle_gamma   90.00000000
_symmetry_Int_Tables_number   1
_chemical_formula_structural   Y2Lu3Pt4
_chemical_formula_sum   'Y8 Lu12 Pt16'
_cell_volume   807.70675296
_cell_formula_units_Z   4
loop_
 _symmetry_equiv_pos_site_id
 _symmetry_equiv_pos_as_xyz
  1  'x, y, z'
loop_
 _atom_site_type_symbol
 _atom_site_label
 _atom_site_symmetry_multiplicity
 _atom_site_fract_x
 _atom_site_fract_y
 _atom_site_fract_z
 _atom_site_occupancy
  Y  Y0  1  0.998669  0.820323  0.407125  1
  Y  Y1  1  0.498669  0.679677  0.092875  1
  Y  Y2  1  0.501331  0.320323  0.592875  1
  Y  Y3  1  0.001331  0.179677  0.907125  1
  Y  Y4  1  0.001331  0.179677  0.592875  1
  Y  Y5  1  0.501331  0.320323  0.907125  1
  Y  Y6  1  0.498669  0.679677  0.407125  1
  Y  Y7  1  0.998669  0.820323  0.092875  1
  Lu  Lu8  1  0.681151  0.990495  0.250000  1
  Lu  Lu9  1  0.181151  0.509505  0.250000  1
  Lu  Lu10  1  0.818849  0.490495  0.750000  1
  Lu  Lu11  1  0.318849  0.009505  0.750000  1
  Lu  Lu12  1  0.656145  0.832730  0.622723  1
  Lu  Lu13  1  0.156145  0.667270  0.877277  1
  Lu  Lu14  1  0.843855  0.332730  0.377277  1
  Lu  Lu15  1  0.343855  0.167270  0.122723  1
  Lu  Lu16  1  0.343855  0.167270  0.377277  1
  Lu  Lu17  1  0.843855  0.332730  0.122723  1
  Lu  Lu18  1  0.156145  0.667270  0.622723  1
  Lu  Lu19  1  0.656145  0.832730  0.877277  1
  Pt  Pt20  1  0.816501  0.641010  0.250000  1
  Pt  Pt21  1  0.316501  0.858990  0.250000  1
  Pt  Pt22  1  0.683499  0.141010  0.750000  1
  Pt  Pt23  1  0.183499  0.358990  0.750000  1
  Pt  Pt24  1  0.545442  0.383005  0.250000  1
  Pt  Pt25  1  0.045442  0.116995  0.250000  1
  Pt  Pt26  1  0.954558  0.883005  0.750000  1
  Pt  Pt27  1  0.454558  0.616995  0.750000  1
  Pt  Pt28  1  0.818253  0.534972  0.542176  1
  Pt  Pt29  1  0.318253  0.965028  0.957824  1
  Pt  Pt30  1  0.681747  0.034972  0.457824  1
  Pt  Pt31  1  0.181747  0.465028  0.042176  1
  Pt  Pt32  1  0.181747  0.465028  0.457824  1
  Pt  Pt33  1  0.681747  0.034972  0.042176  1
  Pt  Pt34  1  0.318253  0.965028  0.542176  1
  Pt  Pt35  1  0.818253  0.534972  0.957824  1
