# generated using pymatgen
data_Pr3ThAl15(GaIr2)3
_symmetry_space_group_name_H-M   'P 1'
_cell_length_a   7.62557505
_cell_length_b   7.62649159
_cell_length_c   9.63946400
_cell_angle_alpha   90.00000000
_cell_angle_beta   90.00000000
_cell_angle_gamma   119.38170049
_symmetry_Int_Tables_number   1
_chemical_formula_structural   Pr3ThAl15(GaIr2)3
_chemical_formula_sum   'Pr3 Th1 Al15 Ga3 Ir6'
_cell_volume   488.48716998
_cell_formula_units_Z   1
loop_
 _symmetry_equiv_pos_site_id
 _symmetry_equiv_pos_as_xyz
  1  'x, y, z'
loop_
 _atom_site_type_symbol
 _atom_site_label
 _atom_site_symmetry_multiplicity
 _atom_site_fract_x
 _atom_site_fract_y
 _atom_site_fract_z
 _atom_site_occupancy
  Pr  Pr0  1  0.001900  0.327258  0.750000  1
  Pr  Pr1  1  0.673358  0.995233  0.250000  1
  Pr  Pr2  1  0.330670  0.007557  0.750000  1
  Th  Th3  1  0.994839  0.673217  0.250000  1
  Al  Al4  1  0.003139  0.333761  0.072795  1
  Al  Al5  1  0.997060  0.664480  0.925310  1
  Al  Al6  1  0.997060  0.664480  0.574690  1
  Al  Al7  1  0.338241  0.004483  0.427692  1
  Al  Al8  1  0.003139  0.333761  0.427205  1
  Al  Al9  1  0.664087  0.996189  0.572289  1
  Al  Al10  1  0.664087  0.996189  0.927711  1
  Al  Al11  1  0.338241  0.004483  0.072308  1
  Al  Al12  1  0.333767  0.334253  0.547306  1
  Al  Al13  1  0.662907  0.664613  0.450765  1
  Al  Al14  1  0.662907  0.664613  0.049235  1
  Al  Al15  1  0.333767  0.334253  0.952694  1
  Al  Al16  1  0.339007  0.546317  0.250000  1
  Al  Al17  1  0.545293  0.338827  0.250000  1
  Al  Al18  1  0.451972  0.660224  0.750000  1
  Ga  Ga19  1  0.136748  0.137235  0.250000  1
  Ga  Ga20  1  0.868403  0.868802  0.750000  1
  Ga  Ga21  1  0.659317  0.454920  0.750000  1
  Ir  Ir22  1  0.672233  0.330463  0.003672  1
  Ir  Ir23  1  0.328034  0.669748  0.001246  1
  Ir  Ir24  1  0.328034  0.669748  0.498754  1
  Ir  Ir25  1  0.672233  0.330463  0.496328  1
  Ir  Ir26  1  0.999781  0.997215  0.002345  1
  Ir  Ir27  1  0.999781  0.997215  0.497655  1
