# generated using pymatgen
data_Tb6AlNiRu
_symmetry_space_group_name_H-M   'P 1'
_cell_length_a   8.40586043
_cell_length_b   8.40585923
_cell_length_c   8.40586112
_cell_angle_alpha   112.83138747
_cell_angle_beta   110.58088284
_cell_angle_gamma   105.09677769
_symmetry_Int_Tables_number   1
_chemical_formula_structural   Tb6AlNiRu
_chemical_formula_sum   'Tb12 Al2 Ni2 Ru2'
_cell_volume   455.04967201
_cell_formula_units_Z   2
loop_
 _symmetry_equiv_pos_site_id
 _symmetry_equiv_pos_as_xyz
  1  'x, y, z'
loop_
 _atom_site_type_symbol
 _atom_site_label
 _atom_site_symmetry_multiplicity
 _atom_site_fract_x
 _atom_site_fract_y
 _atom_site_fract_z
 _atom_site_occupancy
  Tb  Tb0  1  0.436175  0.240933  0.195242  1
  Tb  Tb1  1  0.563825  0.759067  0.804758  1
  Tb  Tb2  1  0.045691  0.240933  0.804758  1
  Tb  Tb3  1  0.954309  0.759067  0.195242  1
  Tb  Tb4  1  0.181054  0.280737  0.461791  1
  Tb  Tb5  1  0.818946  0.719263  0.538209  1
  Tb  Tb6  1  0.181055  0.719263  0.900317  1
  Tb  Tb7  1  0.818945  0.280737  0.099683  1
  Tb  Tb8  1  0.328746  0.640374  0.311628  1
  Tb  Tb9  1  0.671254  0.359626  0.688372  1
  Tb  Tb10  1  0.328746  0.017118  0.688372  1
  Tb  Tb11  1  0.671254  0.982882  0.311628  1
  Al  Al12  1  0.500000  0.500000  0.000000  1
  Al  Al13  1  0.000000  0.000000  0.000000  1
  Ni  Ni14  1  0.116736  0.616737  0.500000  1
  Ni  Ni15  1  0.883264  0.383263  0.500000  1
  Ru  Ru16  1  0.326061  0.000000  0.326061  1
  Ru  Ru17  1  0.673939  0.000000  0.673939  1
