# generated using pymatgen
data_Nd3Pa(Co5P3)4
_symmetry_space_group_name_H-M   'P 1'
_cell_length_a   3.70467000
_cell_length_b   10.40342479
_cell_length_c   11.80983219
_cell_angle_alpha   89.91590975
_cell_angle_beta   90.00000000
_cell_angle_gamma   90.00000000
_symmetry_Int_Tables_number   1
_chemical_formula_structural   Nd3Pa(Co5P3)4
_chemical_formula_sum   'Nd3 Pa1 Co20 P12'
_cell_volume   455.16527229
_cell_formula_units_Z   1
loop_
 _symmetry_equiv_pos_site_id
 _symmetry_equiv_pos_as_xyz
  1  'x, y, z'
loop_
 _atom_site_type_symbol
 _atom_site_label
 _atom_site_symmetry_multiplicity
 _atom_site_fract_x
 _atom_site_fract_y
 _atom_site_fract_z
 _atom_site_occupancy
  Nd  Nd0  1  0.250000  0.915946  0.201511  1
  Nd  Nd1  1  0.750000  0.416907  0.299021  1
  Nd  Nd2  1  0.750000  0.083633  0.797633  1
  Pa  Pa3  1  0.250000  0.582593  0.701260  1
  Co  Co4  1  0.250000  0.714182  0.988934  1
  Co  Co5  1  0.250000  0.783276  0.491976  1
  Co  Co6  1  0.750000  0.285307  0.006077  1
  Co  Co7  1  0.750000  0.215022  0.508809  1
  Co  Co8  1  0.250000  0.409357  0.492566  1
  Co  Co9  1  0.250000  0.094171  0.990180  1
  Co  Co10  1  0.750000  0.594743  0.519656  1
  Co  Co11  1  0.750000  0.904320  0.008819  1
  Co  Co12  1  0.250000  0.221805  0.175669  1
  Co  Co13  1  0.250000  0.279810  0.677103  1
  Co  Co14  1  0.750000  0.774942  0.821744  1
  Co  Co15  1  0.750000  0.719527  0.325861  1
  Co  Co16  1  0.250000  0.879779  0.697594  1
  Co  Co17  1  0.250000  0.617352  0.196719  1
  Co  Co18  1  0.750000  0.117075  0.302329  1
  Co  Co19  1  0.750000  0.389678  0.799527  1
  Co  Co20  1  0.250000  0.470325  0.929284  1
  Co  Co21  1  0.250000  0.030366  0.432643  1
  Co  Co22  1  0.750000  0.530459  0.066528  1
  Co  Co23  1  0.750000  0.969114  0.567814  1
  P  P24  1  0.250000  0.418300  0.109535  1
  P  P25  1  0.250000  0.082089  0.610201  1
  P  P26  1  0.750000  0.582949  0.889658  1
  P  P27  1  0.750000  0.917883  0.390031  1
  P  P28  1  0.250000  0.274544  0.871373  1
  P  P29  1  0.250000  0.224365  0.370070  1
  P  P30  1  0.750000  0.724051  0.129644  1
  P  P31  1  0.750000  0.776356  0.630561  1
  P  P32  1  0.250000  0.605531  0.391777  1
  P  P33  1  0.250000  0.895629  0.892915  1
  P  P34  1  0.750000  0.393159  0.607991  1
  P  P35  1  0.750000  0.105457  0.106987  1
