# generated using pymatgen
data_Y3HoPd4F28
_symmetry_space_group_name_H-M   'P 1'
_cell_length_a   5.53369120
_cell_length_b   8.85229567
_cell_length_c   11.95747697
_cell_angle_alpha   62.53731999
_cell_angle_beta   89.97997759
_cell_angle_gamma   89.99135003
_symmetry_Int_Tables_number   1
_chemical_formula_structural   Y3HoPd4F28
_chemical_formula_sum   'Y3 Ho1 Pd4 F28'
_cell_volume   519.74033627
_cell_formula_units_Z   1
loop_
 _symmetry_equiv_pos_site_id
 _symmetry_equiv_pos_as_xyz
  1  'x, y, z'
loop_
 _atom_site_type_symbol
 _atom_site_label
 _atom_site_symmetry_multiplicity
 _atom_site_fract_x
 _atom_site_fract_y
 _atom_site_fract_z
 _atom_site_occupancy
  Y  Y0  1  0.762347  0.812735  0.764526  1
  Y  Y1  1  0.262291  0.187111  0.735454  1
  Y  Y2  1  0.237789  0.186074  0.235650  1
  Ho  Ho3  1  0.737824  0.812879  0.264428  1
  Pd  Pd4  1  0.758748  0.271911  0.957133  1
  Pd  Pd5  1  0.259009  0.727748  0.542554  1
  Pd  Pd6  1  0.240943  0.727649  0.043946  1
  Pd  Pd7  1  0.741098  0.273185  0.456354  1
  F  F8  1  0.432832  0.702451  0.917247  1
  F  F9  1  0.932581  0.297898  0.583271  1
  F  F10  1  0.567009  0.297360  0.083681  1
  F  F11  1  0.065823  0.703112  0.416033  1
  F  F12  1  0.440692  0.279016  0.540182  1
  F  F13  1  0.941245  0.721242  0.959853  1
  F  F14  1  0.559248  0.722252  0.457995  1
  F  F15  1  0.059136  0.278229  0.040711  1
  F  F16  1  0.775374  0.519442  0.859015  1
  F  F17  1  0.275710  0.480357  0.640731  1
  F  F18  1  0.224631  0.479994  0.141457  1
  F  F19  1  0.724895  0.521099  0.358603  1
  F  F20  1  0.753926  0.024948  0.049430  1
  F  F21  1  0.253587  0.974564  0.451264  1
  F  F22  1  0.246083  0.974462  0.951933  1
  F  F23  1  0.746111  0.026296  0.548052  1
  F  F24  1  0.965932  0.724155  0.634041  1
  F  F25  1  0.465294  0.275562  0.865966  1
  F  F26  1  0.034590  0.275817  0.365421  1
  F  F27  1  0.534093  0.725088  0.135376  1
  F  F28  1  0.052588  0.746075  0.175759  1
  F  F29  1  0.554843  0.255007  0.324085  1
  F  F30  1  0.944864  0.254399  0.824550  1
  F  F31  1  0.445454  0.745215  0.675138  1
  F  F32  1  0.414848  0.968110  0.232326  1
  F  F33  1  0.911982  0.028732  0.267828  1
  F  F34  1  0.588328  0.030957  0.768115  1
  F  F35  1  0.088254  0.968873  0.731892  1
