# generated using pymatgen
data_K4TbDyF10
_symmetry_space_group_name_H-M   'P 1'
_cell_length_a   6.70638171
_cell_length_b   7.32507400
_cell_length_c   11.02784118
_cell_angle_alpha   90.00000000
_cell_angle_beta   90.05274589
_cell_angle_gamma   90.00000000
_symmetry_Int_Tables_number   1
_chemical_formula_structural   K4TbDyF10
_chemical_formula_sum   'K8 Tb2 Dy2 F20'
_cell_volume   541.73962597
_cell_formula_units_Z   2
loop_
 _symmetry_equiv_pos_site_id
 _symmetry_equiv_pos_as_xyz
  1  'x, y, z'
loop_
 _atom_site_type_symbol
 _atom_site_label
 _atom_site_symmetry_multiplicity
 _atom_site_fract_x
 _atom_site_fract_y
 _atom_site_fract_z
 _atom_site_occupancy
  K  K0  1  0.528043  0.497912  0.828143  1
  K  K1  1  0.471957  0.502088  0.171857  1
  K  K2  1  0.028094  0.502067  0.672431  1
  K  K3  1  0.471957  0.997912  0.171857  1
  K  K4  1  0.971906  0.497933  0.327569  1
  K  K5  1  0.528043  0.002088  0.828143  1
  K  K6  1  0.971906  0.002067  0.327569  1
  K  K7  1  0.028094  0.997933  0.672431  1
  Tb  Tb8  1  0.564959  0.750000  0.501831  1
  Tb  Tb9  1  0.435041  0.250000  0.498169  1
  Dy  Dy10  1  0.064396  0.250000  0.998422  1
  Dy  Dy11  1  0.935604  0.750000  0.001578  1
  F  F12  1  0.835983  0.750000  0.809176  1
  F  F13  1  0.164017  0.250000  0.190824  1
  F  F14  1  0.335392  0.250000  0.691759  1
  F  F15  1  0.664608  0.750000  0.308241  1
  F  F16  1  0.366144  0.750000  0.663530  1
  F  F17  1  0.633856  0.250000  0.336470  1
  F  F18  1  0.867406  0.250000  0.837435  1
  F  F19  1  0.132594  0.750000  0.162565  1
  F  F20  1  0.895134  0.750000  0.513246  1
  F  F21  1  0.104866  0.250000  0.486754  1
  F  F22  1  0.392671  0.250000  0.986644  1
  F  F23  1  0.607329  0.750000  0.013356  1
  F  F24  1  0.644352  0.033963  0.578638  1
  F  F25  1  0.355648  0.966037  0.421362  1
  F  F26  1  0.143063  0.966176  0.922264  1
  F  F27  1  0.355648  0.533963  0.421362  1
  F  F28  1  0.856937  0.033824  0.077736  1
  F  F29  1  0.644352  0.466037  0.578638  1
  F  F30  1  0.856937  0.466176  0.077736  1
  F  F31  1  0.143063  0.533824  0.922264  1
