# generated using pymatgen
data_BaLiPO4
_symmetry_space_group_name_H-M   'P 1'
_cell_length_a   5.18773700
_cell_length_b   5.18773759
_cell_length_c   8.80696300
_cell_angle_alpha   90.00000000
_cell_angle_beta   90.00000000
_cell_angle_gamma   119.99998986
_symmetry_Int_Tables_number   1
_chemical_formula_structural   BaLiPO4
_chemical_formula_sum   'Ba2 Li2 P2 O8'
_cell_volume   205.26400519
_cell_formula_units_Z   2
loop_
 _symmetry_equiv_pos_site_id
 _symmetry_equiv_pos_as_xyz
  1  'x, y, z'
loop_
 _atom_site_type_symbol
 _atom_site_label
 _atom_site_symmetry_multiplicity
 _atom_site_fract_x
 _atom_site_fract_y
 _atom_site_fract_z
 _atom_site_occupancy
  Ba  Ba0  1  0.000000  0.000000  0.976713  1
  Ba  Ba1  1  0.000000  0.000000  0.476713  1
  Li  Li2  1  0.666667  0.333333  0.169685  1
  Li  Li3  1  0.333333  0.666667  0.669685  1
  P  P4  1  0.666667  0.333333  0.773783  1
  P  P5  1  0.333333  0.666667  0.273783  1
  O  O6  1  0.666667  0.333333  0.951477  1
  O  O7  1  0.333333  0.666667  0.451477  1
  O  O8  1  0.947211  0.324730  0.718997  1
  O  O9  1  0.377519  0.052789  0.718997  1
  O  O10  1  0.052789  0.675270  0.218997  1
  O  O11  1  0.675270  0.622481  0.718997  1
  O  O12  1  0.622481  0.947211  0.218997  1
  O  O13  1  0.324730  0.377519  0.218997  1
