# generated using pymatgen
data_Zr3Tl2(CuSe4)2
_symmetry_space_group_name_H-M   'P 1'
_cell_length_a   3.83344054
_cell_length_b   7.72842726
_cell_length_c   13.39622700
_cell_angle_alpha   82.04953656
_cell_angle_beta   81.68641949
_cell_angle_gamma   75.68732508
_symmetry_Int_Tables_number   1
_chemical_formula_structural   Zr3Tl2(CuSe4)2
_chemical_formula_sum   'Zr3 Tl2 Cu2 Se8'
_cell_volume   378.33903442
_cell_formula_units_Z   1
loop_
 _symmetry_equiv_pos_site_id
 _symmetry_equiv_pos_as_xyz
  1  'x, y, z'
loop_
 _atom_site_type_symbol
 _atom_site_label
 _atom_site_symmetry_multiplicity
 _atom_site_fract_x
 _atom_site_fract_y
 _atom_site_fract_z
 _atom_site_occupancy
  Zr  Zr0  1  0.358335  0.937178  0.378725  1
  Zr  Zr1  1  0.641665  0.062822  0.621275  1
  Zr  Zr2  1  0.500000  0.000000  0.000000  1
  Tl  Tl3  1  0.661945  0.472166  0.201382  1
  Tl  Tl4  1  0.338055  0.527834  0.798618  1
  Cu  Cu5  1  0.944931  0.898110  0.196435  1
  Cu  Cu6  1  0.055069  0.101890  0.803565  1
  Se  Se7  1  0.101995  0.744630  0.044492  1
  Se  Se8  1  0.985696  0.690971  0.350523  1
  Se  Se9  1  0.014304  0.309029  0.649477  1
  Se  Se10  1  0.291389  0.820637  0.579865  1
  Se  Se11  1  0.708611  0.179363  0.420135  1
  Se  Se12  1  0.656031  0.890991  0.810523  1
  Se  Se13  1  0.343969  0.109009  0.189477  1
  Se  Se14  1  0.898005  0.255370  0.955508  1
