# generated using pymatgen
data_Ta8CuSnS16
_symmetry_space_group_name_H-M   'P 1'
_cell_length_a   6.70282947
_cell_length_b   6.70839509
_cell_length_c   13.54693500
_cell_angle_alpha   90.11710446
_cell_angle_beta   90.03799586
_cell_angle_gamma   120.00247176
_symmetry_Int_Tables_number   1
_chemical_formula_structural   Ta8CuSnS16
_chemical_formula_sum   'Ta8 Cu1 Sn1 S16'
_cell_volume   527.51636184
_cell_formula_units_Z   1
loop_
 _symmetry_equiv_pos_site_id
 _symmetry_equiv_pos_as_xyz
  1  'x, y, z'
loop_
 _atom_site_type_symbol
 _atom_site_label
 _atom_site_symmetry_multiplicity
 _atom_site_fract_x
 _atom_site_fract_y
 _atom_site_fract_z
 _atom_site_occupancy
  Ta  Ta0  1  0.505735  0.495117  0.770888  1
  Ta  Ta1  1  0.010873  0.505088  0.229147  1
  Ta  Ta2  1  0.494300  0.988759  0.229126  1
  Ta  Ta3  1  0.505700  0.011241  0.770874  1
  Ta  Ta4  1  0.989127  0.494912  0.770853  1
  Ta  Ta5  1  0.494265  0.504883  0.229112  1
  Ta  Ta6  1  0.999746  0.000187  0.772771  1
  Ta  Ta7  1  0.000254  0.999813  0.227229  1
  Cu  Cu8  1  0.000000  0.000000  0.000000  1
  Sn  Sn9  1  0.000000  0.000000  0.500000  1
  S  S10  1  0.833673  0.166991  0.342946  1
  S  S11  1  0.833614  0.666771  0.342885  1
  S  S12  1  0.334197  0.167213  0.343093  1
  S  S13  1  0.662378  0.831909  0.885291  1
  S  S14  1  0.166386  0.333229  0.657115  1
  S  S15  1  0.169538  0.832042  0.885137  1
  S  S16  1  0.169481  0.338857  0.885135  1
  S  S17  1  0.830462  0.167958  0.114863  1
  S  S18  1  0.337622  0.168091  0.114709  1
  S  S19  1  0.665803  0.832787  0.656907  1
  S  S20  1  0.332651  0.665560  0.111989  1
  S  S21  1  0.666177  0.332839  0.652390  1
  S  S22  1  0.667349  0.334440  0.888011  1
  S  S23  1  0.333823  0.667161  0.347610  1
  S  S24  1  0.830519  0.661143  0.114865  1
  S  S25  1  0.166327  0.833009  0.657054  1
