# generated using pymatgen
data_Hf6Ti4(IrRh)3
_symmetry_space_group_name_H-M   'P 1'
_cell_length_a   7.90087348
_cell_length_b   7.89053779
_cell_length_c   5.23216200
_cell_angle_alpha   90.00000000
_cell_angle_beta   90.00000000
_cell_angle_gamma   120.24712525
_symmetry_Int_Tables_number   1
_chemical_formula_structural   Hf6Ti4(IrRh)3
_chemical_formula_sum   'Hf6 Ti4 Ir3 Rh3'
_cell_volume   281.77772016
_cell_formula_units_Z   1
loop_
 _symmetry_equiv_pos_site_id
 _symmetry_equiv_pos_as_xyz
  1  'x, y, z'
loop_
 _atom_site_type_symbol
 _atom_site_label
 _atom_site_symmetry_multiplicity
 _atom_site_fract_x
 _atom_site_fract_y
 _atom_site_fract_z
 _atom_site_occupancy
  Hf  Hf0  1  0.245249  0.001704  0.250000  1
  Hf  Hf1  1  0.755268  0.999944  0.750000  1
  Hf  Hf2  1  0.001618  0.245733  0.250000  1
  Hf  Hf3  1  0.998425  0.754800  0.750000  1
  Hf  Hf4  1  0.755488  0.755450  0.250000  1
  Hf  Hf5  1  0.244061  0.245535  0.750000  1
  Ti  Ti6  1  0.333122  0.664963  0.998850  1
  Ti  Ti7  1  0.666909  0.334226  0.998884  1
  Ti  Ti8  1  0.666909  0.334226  0.501116  1
  Ti  Ti9  1  0.333122  0.664963  0.501150  1
  Ir  Ir10  1  0.998802  0.402196  0.750000  1
  Ir  Ir11  1  0.403000  0.401643  0.250000  1
  Ir  Ir12  1  0.598409  0.598431  0.750000  1
  Rh  Rh13  1  0.595943  0.999967  0.250000  1
  Rh  Rh14  1  0.402592  0.998908  0.750000  1
  Rh  Rh15  1  0.001081  0.597313  0.250000  1
