# generated using pymatgen
data_Lu(Ge2Rh3)2
_symmetry_space_group_name_H-M   'P 1'
_cell_length_a   7.23283000
_cell_length_b   7.23282991
_cell_length_c   3.82101200
_cell_angle_alpha   90.00000000
_cell_angle_beta   90.00000000
_cell_angle_gamma   119.99999124
_symmetry_Int_Tables_number   1
_chemical_formula_structural   Lu(Ge2Rh3)2
_chemical_formula_sum   'Lu1 Ge4 Rh6'
_cell_volume   173.11136533
_cell_formula_units_Z   1
loop_
 _symmetry_equiv_pos_site_id
 _symmetry_equiv_pos_as_xyz
  1  'x, y, z'
loop_
 _atom_site_type_symbol
 _atom_site_label
 _atom_site_symmetry_multiplicity
 _atom_site_fract_x
 _atom_site_fract_y
 _atom_site_fract_z
 _atom_site_occupancy
  Lu  Lu0  1  0.333333  0.666667  0.000000  1
  Ge  Ge1  1  0.666667  0.333333  0.000000  1
  Ge  Ge2  1  0.725556  0.862778  0.500000  1
  Ge  Ge3  1  0.137222  0.274444  0.500000  1
  Ge  Ge4  1  0.137222  0.862778  0.500000  1
  Rh  Rh5  1  0.266376  0.133188  0.000000  1
  Rh  Rh6  1  0.866812  0.733624  0.000000  1
  Rh  Rh7  1  0.866812  0.133188  0.000000  1
  Rh  Rh8  1  0.939914  0.469957  0.500000  1
  Rh  Rh9  1  0.530043  0.060086  0.500000  1
  Rh  Rh10  1  0.530043  0.469957  0.500000  1
