# generated using pymatgen
data_CeEr2In3Pt2Rh
_symmetry_space_group_name_H-M   'P 1'
_cell_length_a   7.73670976
_cell_length_b   7.68041565
_cell_length_c   3.81341000
_cell_angle_alpha   90.00000000
_cell_angle_beta   90.00000000
_cell_angle_gamma   119.75959877
_symmetry_Int_Tables_number   1
_chemical_formula_structural   CeEr2In3Pt2Rh
_chemical_formula_sum   'Ce1 Er2 In3 Pt2 Rh1'
_cell_volume   196.71257601
_cell_formula_units_Z   1
loop_
 _symmetry_equiv_pos_site_id
 _symmetry_equiv_pos_as_xyz
  1  'x, y, z'
loop_
 _atom_site_type_symbol
 _atom_site_label
 _atom_site_symmetry_multiplicity
 _atom_site_fract_x
 _atom_site_fract_y
 _atom_site_fract_z
 _atom_site_occupancy
  Ce  Ce0  1  0.000000  0.593951  0.500000  1
  Er  Er1  1  0.404381  0.407442  0.500000  1
  Er  Er2  1  0.595619  0.003061  0.500000  1
  In  In3  1  0.263891  0.007139  0.000000  1
  In  In4  1  0.736109  0.743247  0.000000  1
  In  In5  1  0.000000  0.250973  0.000000  1
  Pt  Pt6  1  0.669534  0.335148  0.000000  1
  Pt  Pt7  1  0.330466  0.665615  0.000000  1
  Rh  Rh8  1  0.000000  0.993425  0.500000  1
