# generated using pymatgen
data_TbYCo4(PIr)6
_symmetry_space_group_name_H-M   'P 1'
_cell_length_a   3.87643000
_cell_length_b   10.60947200
_cell_length_c   12.21805600
_cell_angle_alpha   90.00000000
_cell_angle_beta   90.00000000
_cell_angle_gamma   90.00000000
_symmetry_Int_Tables_number   1
_chemical_formula_structural   TbYCo4(PIr)6
_chemical_formula_sum   'Tb2 Y2 Co8 P12 Ir12'
_cell_volume   502.49046851
_cell_formula_units_Z   2
loop_
 _symmetry_equiv_pos_site_id
 _symmetry_equiv_pos_as_xyz
  1  'x, y, z'
loop_
 _atom_site_type_symbol
 _atom_site_label
 _atom_site_symmetry_multiplicity
 _atom_site_fract_x
 _atom_site_fract_y
 _atom_site_fract_z
 _atom_site_occupancy
  Tb  Tb0  1  0.750000  0.415283  0.289472  1
  Tb  Tb1  1  0.750000  0.084717  0.789472  1
  Y  Y2  1  0.250000  0.584696  0.710544  1
  Y  Y3  1  0.250000  0.915304  0.210544  1
  Co  Co4  1  0.250000  0.883784  0.697076  1
  Co  Co5  1  0.250000  0.616216  0.197076  1
  Co  Co6  1  0.750000  0.116144  0.302858  1
  Co  Co7  1  0.750000  0.383856  0.802858  1
  Co  Co8  1  0.250000  0.464116  0.933712  1
  Co  Co9  1  0.250000  0.035884  0.433712  1
  Co  Co10  1  0.750000  0.535967  0.066212  1
  Co  Co11  1  0.750000  0.964033  0.566212  1
  P  P12  1  0.250000  0.432264  0.110730  1
  P  P13  1  0.250000  0.067736  0.610730  1
  P  P14  1  0.750000  0.567754  0.889136  1
  P  P15  1  0.750000  0.932246  0.389136  1
  P  P16  1  0.250000  0.275121  0.870409  1
  P  P17  1  0.250000  0.224879  0.370409  1
  P  P18  1  0.750000  0.724940  0.129614  1
  P  P19  1  0.750000  0.775060  0.629614  1
  P  P20  1  0.250000  0.598023  0.377429  1
  P  P21  1  0.250000  0.901977  0.877429  1
  P  P22  1  0.750000  0.402056  0.622609  1
  P  P23  1  0.750000  0.097944  0.122609  1
  Ir  Ir24  1  0.250000  0.723056  0.990466  1
  Ir  Ir25  1  0.250000  0.776944  0.490466  1
  Ir  Ir26  1  0.750000  0.276938  0.009615  1
  Ir  Ir27  1  0.750000  0.223062  0.509615  1
  Ir  Ir28  1  0.250000  0.410060  0.477270  1
  Ir  Ir29  1  0.250000  0.089940  0.977270  1
  Ir  Ir30  1  0.750000  0.589905  0.522970  1
  Ir  Ir31  1  0.750000  0.910095  0.022970  1
  Ir  Ir32  1  0.250000  0.227117  0.178323  1
  Ir  Ir33  1  0.250000  0.272883  0.678323  1
  Ir  Ir34  1  0.750000  0.772689  0.821553  1
  Ir  Ir35  1  0.750000  0.727311  0.321553  1
