# generated using pymatgen
data_Tb6Al24Ru7Au
_symmetry_space_group_name_H-M   'P 1'
_cell_length_a   8.85891214
_cell_length_b   8.85891174
_cell_length_c   9.58103831
_cell_angle_alpha   89.85431756
_cell_angle_beta   90.14568208
_cell_angle_gamma   119.84647444
_symmetry_Int_Tables_number   1
_chemical_formula_structural   Tb6Al24Ru7Au
_chemical_formula_sum   'Tb6 Al24 Ru7 Au1'
_cell_volume   652.18662927
_cell_formula_units_Z   1
loop_
 _symmetry_equiv_pos_site_id
 _symmetry_equiv_pos_as_xyz
  1  'x, y, z'
loop_
 _atom_site_type_symbol
 _atom_site_label
 _atom_site_symmetry_multiplicity
 _atom_site_fract_x
 _atom_site_fract_y
 _atom_site_fract_z
 _atom_site_occupancy
  Tb  Tb0  1  0.385977  0.192215  0.250369  1
  Tb  Tb1  1  0.806012  0.193988  0.246955  1
  Tb  Tb2  1  0.807785  0.614023  0.250369  1
  Tb  Tb3  1  0.614023  0.807785  0.749631  1
  Tb  Tb4  1  0.193988  0.806012  0.753045  1
  Tb  Tb5  1  0.192215  0.385977  0.749631  1
  Al  Al6  1  0.439193  0.878518  0.251532  1
  Al  Al7  1  0.121482  0.560807  0.251532  1
  Al  Al8  1  0.436201  0.563799  0.244102  1
  Al  Al9  1  0.560807  0.121482  0.748468  1
  Al  Al10  1  0.878518  0.439193  0.748468  1
  Al  Al11  1  0.563799  0.436201  0.755898  1
  Al  Al12  1  0.162614  0.837386  0.422382  1
  Al  Al13  1  0.150926  0.321739  0.420322  1
  Al  Al14  1  0.678261  0.849074  0.420322  1
  Al  Al15  1  0.837386  0.162614  0.577618  1
  Al  Al16  1  0.849074  0.678261  0.579678  1
  Al  Al17  1  0.321739  0.150926  0.579678  1
  Al  Al18  1  0.837370  0.162630  0.921700  1
  Al  Al19  1  0.837827  0.675739  0.922460  1
  Al  Al20  1  0.324261  0.162173  0.922460  1
  Al  Al21  1  0.162630  0.837370  0.078300  1
  Al  Al22  1  0.162173  0.324261  0.077540  1
  Al  Al23  1  0.675739  0.837827  0.077540  1
  Al  Al24  1  0.328060  0.671940  0.520816  1
  Al  Al25  1  0.671940  0.328060  0.479184  1
  Al  Al26  1  0.666679  0.333321  0.015722  1
  Al  Al27  1  0.333321  0.666679  0.984278  1
  Al  Al28  1  0.000688  0.999312  0.249841  1
  Al  Al29  1  0.999312  0.000688  0.750159  1
  Ru  Ru30  1  0.000000  0.000000  0.500000  1
  Ru  Ru31  1  0.000000  0.000000  0.000000  1
  Ru  Ru32  1  0.500000  0.000000  0.500000  1
  Ru  Ru33  1  0.000000  0.500000  0.500000  1
  Ru  Ru34  1  0.500000  0.000000  0.000000  1
  Ru  Ru35  1  0.000000  0.500000  0.000000  1
  Ru  Ru36  1  0.500000  0.500000  0.000000  1
  Au  Au37  1  0.500000  0.500000  0.500000  1
