# generated using pymatgen
data_Ho4ErGaBiPt
_symmetry_space_group_name_H-M   'P 1'
_cell_length_a   8.68079420
_cell_length_b   8.68079495
_cell_length_c   8.73786592
_cell_angle_alpha   125.39149528
_cell_angle_beta   125.39149799
_cell_angle_gamma   80.44841359
_symmetry_Int_Tables_number   1
_chemical_formula_structural   Ho4ErGaBiPt
_chemical_formula_sum   'Ho8 Er2 Ga2 Bi2 Pt2'
_cell_volume   423.11938636
_cell_formula_units_Z   2
loop_
 _symmetry_equiv_pos_site_id
 _symmetry_equiv_pos_as_xyz
  1  'x, y, z'
loop_
 _atom_site_type_symbol
 _atom_site_label
 _atom_site_symmetry_multiplicity
 _atom_site_fract_x
 _atom_site_fract_y
 _atom_site_fract_z
 _atom_site_occupancy
  Ho  Ho0  1  0.786908  0.286908  0.799316  1
  Ho  Ho1  1  0.213092  0.713092  0.200684  1
  Ho  Ho2  1  0.487593  0.987593  0.200684  1
  Ho  Ho3  1  0.300911  0.473406  0.500000  1
  Ho  Ho4  1  0.026594  0.199089  0.500000  1
  Ho  Ho5  1  0.512407  0.012407  0.799316  1
  Ho  Ho6  1  0.699089  0.526594  0.500000  1
  Ho  Ho7  1  0.973406  0.800911  0.500000  1
  Er  Er8  1  0.000000  0.000000  0.000000  1
  Er  Er9  1  0.500000  0.500000  0.000000  1
  Ga  Ga10  1  0.138377  0.638377  0.776754  1
  Ga  Ga11  1  0.861623  0.361623  0.223246  1
  Bi  Bi12  1  0.250000  0.250000  0.000000  1
  Bi  Bi13  1  0.750000  0.750000  0.000000  1
  Pt  Pt14  1  0.636960  0.863040  0.500000  1
  Pt  Pt15  1  0.363040  0.136960  0.500000  1
