# generated using pymatgen
data_Li8Ho8Bi3Pb5
_symmetry_space_group_name_H-M   'P 1'
_cell_length_a   9.55508621
_cell_length_b   9.55710923
_cell_length_c   7.23217116
_cell_angle_alpha   89.99463007
_cell_angle_beta   90.00286276
_cell_angle_gamma   120.01363338
_symmetry_Int_Tables_number   1
_chemical_formula_structural   Li8Ho8Bi3Pb5
_chemical_formula_sum   'Li8 Ho8 Bi3 Pb5'
_cell_volume   571.87459752
_cell_formula_units_Z   1
loop_
 _symmetry_equiv_pos_site_id
 _symmetry_equiv_pos_as_xyz
  1  'x, y, z'
loop_
 _atom_site_type_symbol
 _atom_site_label
 _atom_site_symmetry_multiplicity
 _atom_site_fract_x
 _atom_site_fract_y
 _atom_site_fract_z
 _atom_site_occupancy
  Li  Li0  1  0.167110  0.334086  0.279329  1
  Li  Li1  1  0.167121  0.832902  0.279702  1
  Li  Li2  1  0.665908  0.832914  0.279413  1
  Li  Li3  1  0.832029  0.664055  0.786668  1
  Li  Li4  1  0.832001  0.167981  0.787308  1
  Li  Li5  1  0.335970  0.168057  0.786836  1
  Li  Li6  1  0.333266  0.666558  0.673653  1
  Li  Li7  1  0.666584  0.333426  0.180473  1
  Ho  Ho8  1  0.513665  0.027139  0.490000  1
  Ho  Ho9  1  0.513399  0.486493  0.489834  1
  Ho  Ho10  1  0.972943  0.486345  0.489941  1
  Ho  Ho11  1  0.490891  0.981765  0.998295  1
  Ho  Ho12  1  0.490804  0.509228  0.998176  1
  Ho  Ho13  1  0.018277  0.509152  0.998296  1
  Ho  Ho14  1  0.000039  0.000026  0.495679  1
  Ho  Ho15  1  0.000067  0.999957  0.006874  1
  Bi  Bi16  1  0.166564  0.333224  0.734198  1
  Bi  Bi17  1  0.166787  0.833377  0.734204  1
  Bi  Bi18  1  0.666647  0.833393  0.734230  1
  Pb  Pb19  1  0.833431  0.666789  0.233405  1
  Pb  Pb20  1  0.833405  0.166572  0.233352  1
  Pb  Pb21  1  0.333155  0.166520  0.233470  1
  Pb  Pb22  1  0.333309  0.666672  0.258524  1
  Pb  Pb23  1  0.666630  0.333372  0.760109  1
