# generated using pymatgen
data_ErPdF7
_symmetry_space_group_name_H-M   'P 1'
_cell_length_a   5.48303500
_cell_length_b   8.77087493
_cell_length_c   11.86446002
_cell_angle_alpha   62.58168183
_cell_angle_beta   90.00000000
_cell_angle_gamma   90.00000000
_symmetry_Int_Tables_number   1
_chemical_formula_structural   ErPdF7
_chemical_formula_sum   'Er4 Pd4 F28'
_cell_volume   506.48032539
_cell_formula_units_Z   4
loop_
 _symmetry_equiv_pos_site_id
 _symmetry_equiv_pos_as_xyz
  1  'x, y, z'
loop_
 _atom_site_type_symbol
 _atom_site_label
 _atom_site_symmetry_multiplicity
 _atom_site_fract_x
 _atom_site_fract_y
 _atom_site_fract_z
 _atom_site_occupancy
  Er  Er0  1  0.761522  0.813949  0.764479  1
  Er  Er1  1  0.261522  0.186051  0.735521  1
  Er  Er2  1  0.238478  0.186051  0.235521  1
  Er  Er3  1  0.738478  0.813949  0.264479  1
  Pd  Pd4  1  0.759101  0.271819  0.957280  1
  Pd  Pd5  1  0.259101  0.728181  0.542720  1
  Pd  Pd6  1  0.240899  0.728181  0.042720  1
  Pd  Pd7  1  0.740899  0.271819  0.457280  1
  F  F8  1  0.435548  0.701806  0.915571  1
  F  F9  1  0.935548  0.298194  0.584429  1
  F  F10  1  0.564452  0.298194  0.084429  1
  F  F11  1  0.064452  0.701806  0.415571  1
  F  F12  1  0.437662  0.277257  0.541969  1
  F  F13  1  0.937662  0.722743  0.958031  1
  F  F14  1  0.562338  0.722743  0.458031  1
  F  F15  1  0.062338  0.277257  0.041969  1
  F  F16  1  0.777248  0.521349  0.858693  1
  F  F17  1  0.277248  0.478651  0.641307  1
  F  F18  1  0.222752  0.478651  0.141307  1
  F  F19  1  0.722752  0.521349  0.358693  1
  F  F20  1  0.753316  0.022545  0.049504  1
  F  F21  1  0.253316  0.977455  0.450496  1
  F  F22  1  0.246684  0.977455  0.950496  1
  F  F23  1  0.746684  0.022545  0.549504  1
  F  F24  1  0.965271  0.723556  0.636519  1
  F  F25  1  0.465271  0.276444  0.863481  1
  F  F26  1  0.034729  0.276444  0.363481  1
  F  F27  1  0.534729  0.723556  0.136519  1
  F  F28  1  0.052647  0.745771  0.176033  1
  F  F29  1  0.552647  0.254229  0.323967  1
  F  F30  1  0.947353  0.254229  0.823967  1
  F  F31  1  0.447353  0.745771  0.676033  1
  F  F32  1  0.414729  0.969759  0.232355  1
  F  F33  1  0.914729  0.030241  0.267645  1
  F  F34  1  0.585271  0.030241  0.767645  1
  F  F35  1  0.085271  0.969759  0.732355  1
