# generated using pymatgen
data_Ho8Co(Si4Pt)3
_symmetry_space_group_name_H-M   'P 1'
_cell_length_a   8.13458200
_cell_length_b   8.13458143
_cell_length_c   7.87968800
_cell_angle_alpha   90.00000000
_cell_angle_beta   90.00000000
_cell_angle_gamma   120.00000233
_symmetry_Int_Tables_number   1
_chemical_formula_structural   Ho8Co(Si4Pt)3
_chemical_formula_sum   'Ho8 Co1 Si12 Pt3'
_cell_volume   451.55441766
_cell_formula_units_Z   1
loop_
 _symmetry_equiv_pos_site_id
 _symmetry_equiv_pos_as_xyz
  1  'x, y, z'
loop_
 _atom_site_type_symbol
 _atom_site_label
 _atom_site_symmetry_multiplicity
 _atom_site_fract_x
 _atom_site_fract_y
 _atom_site_fract_z
 _atom_site_occupancy
  Ho  Ho0  1  0.507793  0.015586  0.245720  1
  Ho  Ho1  1  0.487685  0.975369  0.752480  1
  Ho  Ho2  1  0.984414  0.492207  0.245720  1
  Ho  Ho3  1  0.024631  0.512315  0.752480  1
  Ho  Ho4  1  0.507793  0.492207  0.245720  1
  Ho  Ho5  1  0.487685  0.512315  0.752480  1
  Ho  Ho6  1  0.000000  0.000000  0.249037  1
  Ho  Ho7  1  0.000000  0.000000  0.752059  1
  Co  Co8  1  0.333333  0.666667  0.039869  1
  Si  Si9  1  0.173052  0.346101  0.003686  1
  Si  Si10  1  0.836612  0.673224  0.997514  1
  Si  Si11  1  0.653899  0.826948  0.003686  1
  Si  Si12  1  0.834635  0.669270  0.499939  1
  Si  Si13  1  0.326776  0.163388  0.997514  1
  Si  Si14  1  0.165194  0.330387  0.500443  1
  Si  Si15  1  0.173052  0.826948  0.003686  1
  Si  Si16  1  0.330730  0.165365  0.499939  1
  Si  Si17  1  0.836612  0.163388  0.997514  1
  Si  Si18  1  0.669613  0.834806  0.500443  1
  Si  Si19  1  0.834635  0.165365  0.499939  1
  Si  Si20  1  0.165194  0.834806  0.500443  1
  Pt  Pt21  1  0.666667  0.333333  0.964918  1
  Pt  Pt22  1  0.666667  0.333333  0.536413  1
  Pt  Pt23  1  0.333333  0.666667  0.458363  1
