# generated using pymatgen
data_Ti2TcMo2
_symmetry_space_group_name_H-M   'P 1'
_cell_length_a   3.13921005
_cell_length_b   3.13921389
_cell_length_c   8.18505673
_cell_angle_alpha   100.97199709
_cell_angle_beta   100.97213359
_cell_angle_gamma   90.07493018
_symmetry_Int_Tables_number   1
_chemical_formula_structural   Ti2TcMo2
_chemical_formula_sum   'Ti2 Tc1 Mo2'
_cell_volume   77.67991697
_cell_formula_units_Z   1
loop_
 _symmetry_equiv_pos_site_id
 _symmetry_equiv_pos_as_xyz
  1  'x, y, z'
loop_
 _atom_site_type_symbol
 _atom_site_label
 _atom_site_symmetry_multiplicity
 _atom_site_fract_x
 _atom_site_fract_y
 _atom_site_fract_z
 _atom_site_occupancy
  Ti  Ti0  1  0.595296  0.595295  0.190797  1
  Ti  Ti1  1  0.404680  0.404679  0.809154  1
  Tc  Tc2  1  0.999972  0.999972  0.999948  1
  Mo  Mo3  1  0.203591  0.203590  0.407503  1
  Mo  Mo4  1  0.796459  0.796461  0.592598  1
