# generated using pymatgen
data_Yb3TmCoOs7
_symmetry_space_group_name_H-M   'P 1'
_cell_length_a   5.29520687
_cell_length_b   5.29495436
_cell_length_c   8.67106909
_cell_angle_alpha   89.87468879
_cell_angle_beta   89.87568867
_cell_angle_gamma   59.10635381
_symmetry_Int_Tables_number   1
_chemical_formula_structural   Yb3TmCoOs7
_chemical_formula_sum   'Yb3 Tm1 Co1 Os7'
_cell_volume   208.62454286
_cell_formula_units_Z   1
loop_
 _symmetry_equiv_pos_site_id
 _symmetry_equiv_pos_as_xyz
  1  'x, y, z'
loop_
 _atom_site_type_symbol
 _atom_site_label
 _atom_site_symmetry_multiplicity
 _atom_site_fract_x
 _atom_site_fract_y
 _atom_site_fract_z
 _atom_site_occupancy
  Yb  Yb0  1  0.666120  0.666335  0.428364  1
  Yb  Yb1  1  0.665244  0.665380  0.066500  1
  Yb  Yb2  1  0.329127  0.329147  0.941855  1
  Tm  Tm3  1  0.331540  0.331613  0.564772  1
  Co  Co4  1  0.180027  0.180231  0.253445  1
  Os  Os5  1  0.990921  0.991319  0.493697  1
  Os  Os6  1  0.989270  0.989529  0.004940  1
  Os  Os7  1  0.828649  0.347126  0.748395  1
  Os  Os8  1  0.347412  0.828325  0.748391  1
  Os  Os9  1  0.832728  0.832669  0.749675  1
  Os  Os10  1  0.178651  0.659900  0.249996  1
  Os  Os11  1  0.660313  0.178423  0.249967  1
