# generated using pymatgen
data_Tb3NdIr3RhO14
_symmetry_space_group_name_H-M   'P 1'
_cell_length_a   7.31078099
_cell_length_b   7.28011169
_cell_length_c   7.25699400
_cell_angle_alpha   60.10498784
_cell_angle_beta   60.24307774
_cell_angle_gamma   60.27409809
_symmetry_Int_Tables_number   1
_chemical_formula_structural   Tb3NdIr3RhO14
_chemical_formula_sum   'Tb3 Nd1 Ir3 Rh1 O14'
_cell_volume   274.39490728
_cell_formula_units_Z   1
loop_
 _symmetry_equiv_pos_site_id
 _symmetry_equiv_pos_as_xyz
  1  'x, y, z'
loop_
 _atom_site_type_symbol
 _atom_site_label
 _atom_site_symmetry_multiplicity
 _atom_site_fract_x
 _atom_site_fract_y
 _atom_site_fract_z
 _atom_site_occupancy
  Tb  Tb0  1  0.125000  0.625000  0.125000  1
  Tb  Tb1  1  0.125000  0.125000  0.625000  1
  Tb  Tb2  1  0.125000  0.125000  0.125000  1
  Nd  Nd3  1  0.625000  0.125000  0.125000  1
  Ir  Ir4  1  0.125000  0.625000  0.625000  1
  Ir  Ir5  1  0.625000  0.625000  0.125000  1
  Ir  Ir6  1  0.625000  0.625000  0.625000  1
  Rh  Rh7  1  0.625000  0.125000  0.625000  1
  O  O8  1  0.718553  0.698876  0.291286  1
  O  O9  1  0.285059  0.290807  0.712067  1
  O  O10  1  0.719243  0.290705  0.705207  1
  O  O11  1  0.290518  0.706310  0.291205  1
  O  O12  1  0.290518  0.706310  0.711967  1
  O  O13  1  0.719243  0.290705  0.284845  1
  O  O14  1  0.531447  0.551124  0.958714  1
  O  O15  1  0.964941  0.959193  0.537933  1
  O  O16  1  0.530757  0.959295  0.544793  1
  O  O17  1  0.959482  0.543690  0.958795  1
  O  O18  1  0.959482  0.543690  0.538033  1
  O  O19  1  0.530757  0.959295  0.965155  1
  O  O20  1  0.241438  0.254625  0.251969  1
  O  O21  1  0.008562  0.995375  0.998031  1
