# generated using pymatgen
data_ReTc5(BW)6
_symmetry_space_group_name_H-M   'P 1'
_cell_length_a   3.07205100
_cell_length_b   8.98743811
_cell_length_c   15.64546187
_cell_angle_alpha   89.93869840
_cell_angle_beta   90.00000000
_cell_angle_gamma   90.00000000
_symmetry_Int_Tables_number   1
_chemical_formula_structural   ReTc5(BW)6
_chemical_formula_sum   'Re2 Tc10 B12 W12'
_cell_volume   431.96889330
_cell_formula_units_Z   2
loop_
 _symmetry_equiv_pos_site_id
 _symmetry_equiv_pos_as_xyz
  1  'x, y, z'
loop_
 _atom_site_type_symbol
 _atom_site_label
 _atom_site_symmetry_multiplicity
 _atom_site_fract_x
 _atom_site_fract_y
 _atom_site_fract_z
 _atom_site_occupancy
  Re  Re0  1  0.500000  0.061261  0.766622  1
  Re  Re1  1  0.500000  0.938739  0.233378  1
  Tc  Tc2  1  0.500000  0.713237  0.354594  1
  Tc  Tc3  1  0.500000  0.286763  0.645406  1
  Tc  Tc4  1  0.500000  0.213515  0.145453  1
  Tc  Tc5  1  0.500000  0.786485  0.854547  1
  Tc  Tc6  1  0.500000  0.514554  0.090599  1
  Tc  Tc7  1  0.500000  0.485446  0.909401  1
  Tc  Tc8  1  0.500000  0.015696  0.409940  1
  Tc  Tc9  1  0.500000  0.984304  0.590060  1
  Tc  Tc10  1  0.500000  0.561781  0.732929  1
  Tc  Tc11  1  0.500000  0.438219  0.267071  1
  B  B12  1  0.500000  0.606036  0.494825  1
  B  B13  1  0.500000  0.393964  0.505175  1
  B  B14  1  0.500000  0.106521  0.005317  1
  B  B15  1  0.500000  0.893479  0.994683  1
  B  B16  1  0.000000  0.610433  0.833422  1
  B  B17  1  0.000000  0.389567  0.166578  1
  B  B18  1  0.000000  0.109282  0.665743  1
  B  B19  1  0.000000  0.890718  0.334257  1
  B  B20  1  0.500000  0.718074  0.601201  1
  B  B21  1  0.500000  0.281926  0.398799  1
  B  B22  1  0.500000  0.218497  0.898513  1
  B  B23  1  0.500000  0.781503  0.101487  1
  W  W24  1  0.000000  0.795577  0.496414  1
  W  W25  1  0.000000  0.204423  0.503586  1
  W  W26  1  0.000000  0.295713  0.003113  1
  W  W27  1  0.000000  0.704287  0.996887  1
  W  W28  1  0.000000  0.520056  0.592551  1
  W  W29  1  0.000000  0.479944  0.407449  1
  W  W30  1  0.000000  0.020480  0.907796  1
  W  W31  1  0.000000  0.979520  0.092204  1
  W  W32  1  0.000000  0.685280  0.199885  1
  W  W33  1  0.000000  0.314720  0.800115  1
  W  W34  1  0.000000  0.185560  0.299867  1
  W  W35  1  0.000000  0.814440  0.700133  1
