# generated using pymatgen
data_Yb8Re3Si16Tc9
_symmetry_space_group_name_H-M   'P 1'
_cell_length_a   6.75933173
_cell_length_b   6.75933173
_cell_length_c   12.59965737
_cell_angle_alpha   89.96227477
_cell_angle_beta   90.03772523
_cell_angle_gamma   89.96233645
_symmetry_Int_Tables_number   1
_chemical_formula_structural   Yb8Re3Si16Tc9
_chemical_formula_sum   'Yb8 Re3 Si16 Tc9'
_cell_volume   575.65989622
_cell_formula_units_Z   1
loop_
 _symmetry_equiv_pos_site_id
 _symmetry_equiv_pos_as_xyz
  1  'x, y, z'
loop_
 _atom_site_type_symbol
 _atom_site_label
 _atom_site_symmetry_multiplicity
 _atom_site_fract_x
 _atom_site_fract_y
 _atom_site_fract_z
 _atom_site_occupancy
  Yb  Yb0  1  0.995782  0.667750  0.027699  1
  Yb  Yb1  1  0.003727  0.332558  0.527739  1
  Yb  Yb2  1  0.332558  0.003727  0.472261  1
  Yb  Yb3  1  0.167641  0.504079  0.777746  1
  Yb  Yb4  1  0.832360  0.496013  0.277987  1
  Yb  Yb5  1  0.504079  0.167641  0.222254  1
  Yb  Yb6  1  0.496013  0.832360  0.722013  1
  Yb  Yb7  1  0.667750  0.995782  0.972301  1
  Re  Re8  1  0.167499  0.833923  0.249269  1
  Re  Re9  1  0.332934  0.332934  0.000000  1
  Re  Re10  1  0.833923  0.167499  0.750731  1
  Si  Si11  1  0.024857  0.716122  0.433501  1
  Si  Si12  1  0.621684  0.304707  0.439146  1
  Si  Si13  1  0.377309  0.695437  0.938790  1
  Si  Si14  1  0.195278  0.122943  0.688761  1
  Si  Si15  1  0.304707  0.621684  0.560854  1
  Si  Si16  1  0.695437  0.377309  0.061210  1
  Si  Si17  1  0.804303  0.877189  0.189030  1
  Si  Si18  1  0.122943  0.195278  0.311239  1
  Si  Si19  1  0.974638  0.284667  0.933206  1
  Si  Si20  1  0.716122  0.024857  0.566499  1
  Si  Si21  1  0.215168  0.474896  0.183368  1
  Si  Si22  1  0.784454  0.525271  0.682971  1
  Si  Si23  1  0.474896  0.215168  0.816632  1
  Si  Si24  1  0.525271  0.784454  0.317029  1
  Si  Si25  1  0.284667  0.974638  0.066794  1
  Si  Si26  1  0.877189  0.804303  0.810970  1
  Tc  Tc27  1  0.666635  0.666635  0.500000  1
  Tc  Tc28  1  0.010199  0.827671  0.627239  1
  Tc  Tc29  1  0.990415  0.172828  0.127091  1
  Tc  Tc30  1  0.827671  0.010199  0.372761  1
  Tc  Tc31  1  0.326512  0.490776  0.376976  1
  Tc  Tc32  1  0.672437  0.509340  0.877119  1
  Tc  Tc33  1  0.490776  0.326512  0.623024  1
  Tc  Tc34  1  0.509340  0.672437  0.122881  1
  Tc  Tc35  1  0.172828  0.990415  0.872909  1
