# generated using pymatgen
data_Pr4ScFe2RhO12
_symmetry_space_group_name_H-M   'P 1'
_cell_length_a   5.55403417
_cell_length_b   5.74500722
_cell_length_c   7.94087447
_cell_angle_alpha   90.62195575
_cell_angle_beta   90.10959052
_cell_angle_gamma   90.02668952
_symmetry_Int_Tables_number   1
_chemical_formula_structural   Pr4ScFe2RhO12
_chemical_formula_sum   'Pr4 Sc1 Fe2 Rh1 O12'
_cell_volume   253.36173432
_cell_formula_units_Z   1
loop_
 _symmetry_equiv_pos_site_id
 _symmetry_equiv_pos_as_xyz
  1  'x, y, z'
loop_
 _atom_site_type_symbol
 _atom_site_label
 _atom_site_symmetry_multiplicity
 _atom_site_fract_x
 _atom_site_fract_y
 _atom_site_fract_z
 _atom_site_occupancy
  Pr  Pr0  1  0.010343  0.941527  0.746710  1
  Pr  Pr1  1  0.518902  0.553883  0.253096  1
  Pr  Pr2  1  0.481098  0.446117  0.746904  1
  Pr  Pr3  1  0.989657  0.058473  0.253290  1
  Sc  Sc4  1  0.500000  0.000000  0.000000  1
  Fe  Fe5  1  0.500000  0.000000  0.500000  1
  Fe  Fe6  1  0.000000  0.500000  0.000000  1
  Rh  Rh7  1  0.000000  0.500000  0.500000  1
  O  O8  1  0.700107  0.291660  0.448250  1
  O  O9  1  0.203603  0.202033  0.550188  1
  O  O10  1  0.801609  0.792887  0.050536  1
  O  O11  1  0.291843  0.699990  0.949568  1
  O  O12  1  0.299893  0.708340  0.551750  1
  O  O13  1  0.796397  0.797967  0.449812  1
  O  O14  1  0.198391  0.207113  0.949464  1
  O  O15  1  0.708157  0.300010  0.050432  1
  O  O16  1  0.100849  0.470088  0.248249  1
  O  O17  1  0.591266  0.028330  0.744451  1
  O  O18  1  0.408734  0.971670  0.255549  1
  O  O19  1  0.899151  0.529912  0.751751  1
