# generated using pymatgen
data_Y3Ho2Ag2B4Rh13
_symmetry_space_group_name_H-M   'P 1'
_cell_length_a   4.21233500
_cell_length_b   4.21233500
_cell_length_c   21.00236000
_cell_angle_alpha   90.00000000
_cell_angle_beta   90.00000000
_cell_angle_gamma   90.00000000
_symmetry_Int_Tables_number   1
_chemical_formula_structural   Y3Ho2Ag2B4Rh13
_chemical_formula_sum   'Y3 Ho2 Ag2 B4 Rh13'
_cell_volume   372.66096448
_cell_formula_units_Z   1
loop_
 _symmetry_equiv_pos_site_id
 _symmetry_equiv_pos_as_xyz
  1  'x, y, z'
loop_
 _atom_site_type_symbol
 _atom_site_label
 _atom_site_symmetry_multiplicity
 _atom_site_fract_x
 _atom_site_fract_y
 _atom_site_fract_z
 _atom_site_occupancy
  Y  Y0  1  0.000000  0.000000  0.107434  1
  Y  Y1  1  0.000000  0.000000  0.301070  1
  Y  Y2  1  0.000000  0.000000  0.699030  1
  Ho  Ho3  1  0.000000  0.000000  0.892109  1
  Ho  Ho4  1  0.000000  0.000000  0.500041  1
  Ag  Ag5  1  0.500000  0.000000  0.999650  1
  Ag  Ag6  1  0.000000  0.500000  0.999650  1
  B  B7  1  0.500000  0.500000  0.193854  1
  B  B8  1  0.500000  0.500000  0.398771  1
  B  B9  1  0.500000  0.500000  0.601258  1
  B  B10  1  0.500000  0.500000  0.805981  1
  Rh  Rh11  1  0.500000  0.500000  0.903235  1
  Rh  Rh12  1  0.500000  0.500000  0.096621  1
  Rh  Rh13  1  0.500000  0.500000  0.299043  1
  Rh  Rh14  1  0.500000  0.500000  0.499957  1
  Rh  Rh15  1  0.500000  0.500000  0.701027  1
  Rh  Rh16  1  0.500000  0.000000  0.201948  1
  Rh  Rh17  1  0.500000  0.000000  0.400723  1
  Rh  Rh18  1  0.500000  0.000000  0.599264  1
  Rh  Rh19  1  0.500000  0.000000  0.798699  1
  Rh  Rh20  1  0.000000  0.500000  0.201948  1
  Rh  Rh21  1  0.000000  0.500000  0.400723  1
  Rh  Rh22  1  0.000000  0.500000  0.599264  1
  Rh  Rh23  1  0.000000  0.500000  0.798699  1
