# generated using pymatgen
data_Dy3Co7Cu2(NiB2)2
_symmetry_space_group_name_H-M   'P 1'
_cell_length_a   5.04287026
_cell_length_b   5.04287013
_cell_length_c   9.80251200
_cell_angle_alpha   90.00000000
_cell_angle_beta   90.00000000
_cell_angle_gamma   119.73721776
_symmetry_Int_Tables_number   1
_chemical_formula_structural   Dy3Co7Cu2(NiB2)2
_chemical_formula_sum   'Dy3 Co7 Cu2 Ni2 B4'
_cell_volume   216.45494501
_cell_formula_units_Z   1
loop_
 _symmetry_equiv_pos_site_id
 _symmetry_equiv_pos_as_xyz
  1  'x, y, z'
loop_
 _atom_site_type_symbol
 _atom_site_label
 _atom_site_symmetry_multiplicity
 _atom_site_fract_x
 _atom_site_fract_y
 _atom_site_fract_z
 _atom_site_occupancy
  Dy  Dy0  1  0.000000  0.000000  0.656976  1
  Dy  Dy1  1  0.000000  0.000000  0.343024  1
  Dy  Dy2  1  0.000000  0.000000  0.000000  1
  Co  Co3  1  0.500000  0.500000  0.500000  1
  Co  Co4  1  0.000000  0.500000  0.500000  1
  Co  Co5  1  0.500000  0.000000  0.209833  1
  Co  Co6  1  0.000000  0.500000  0.209833  1
  Co  Co7  1  0.500000  0.000000  0.790167  1
  Co  Co8  1  0.000000  0.500000  0.790167  1
  Co  Co9  1  0.500000  0.000000  0.500000  1
  Cu  Cu10  1  0.329795  0.670205  0.000000  1
  Cu  Cu11  1  0.670205  0.329795  0.000000  1
  Ni  Ni12  1  0.500000  0.500000  0.206307  1
  Ni  Ni13  1  0.500000  0.500000  0.793693  1
  B  B14  1  0.332185  0.667815  0.648789  1
  B  B15  1  0.667815  0.332185  0.648789  1
  B  B16  1  0.667815  0.332185  0.351211  1
  B  B17  1  0.332185  0.667815  0.351211  1
