# generated using pymatgen
data_Sr4Tc2NiO12
_symmetry_space_group_name_H-M   'P 1'
_cell_length_a   5.57710284
_cell_length_b   5.57710266
_cell_length_c   9.56832394
_cell_angle_alpha   73.05606606
_cell_angle_beta   106.94393286
_cell_angle_gamma   119.99999650
_symmetry_Int_Tables_number   1
_chemical_formula_structural   Sr4Tc2NiO12
_chemical_formula_sum   'Sr4 Tc2 Ni1 O12'
_cell_volume   242.70866633
_cell_formula_units_Z   1
loop_
 _symmetry_equiv_pos_site_id
 _symmetry_equiv_pos_as_xyz
  1  'x, y, z'
loop_
 _atom_site_type_symbol
 _atom_site_label
 _atom_site_symmetry_multiplicity
 _atom_site_fract_x
 _atom_site_fract_y
 _atom_site_fract_z
 _atom_site_occupancy
  Sr  Sr0  1  0.707489  0.292510  0.122470  1
  Sr  Sr1  1  0.130905  0.869094  0.392715  1
  Sr  Sr2  1  0.869094  0.130904  0.607285  1
  Sr  Sr3  1  0.292510  0.707489  0.877531  1
  Tc  Tc4  1  0.421042  0.578958  0.263125  1
  Tc  Tc5  1  0.578959  0.421041  0.736875  1
  Ni  Ni6  1  0.000000  0.000000  0.000000  1
  O  O7  1  0.216416  0.301846  0.130985  1
  O  O8  1  0.698153  0.783584  0.130985  1
  O  O9  1  0.216416  0.783584  0.130985  1
  O  O10  1  0.132086  0.380491  0.371104  1
  O  O11  1  0.619510  0.380492  0.371104  1
  O  O12  1  0.619510  0.867915  0.371104  1
  O  O13  1  0.380491  0.132087  0.628896  1
  O  O14  1  0.867915  0.619509  0.628896  1
  O  O15  1  0.380491  0.619510  0.628896  1
  O  O16  1  0.783583  0.216415  0.869014  1
  O  O17  1  0.301845  0.216415  0.869014  1
  O  O18  1  0.783583  0.698153  0.869014  1
