# generated using pymatgen
data_Pm2ZnIr3
_symmetry_space_group_name_H-M   'P 1'
_cell_length_a   5.26341200
_cell_length_b   5.26341144
_cell_length_c   5.26341134
_cell_angle_alpha   64.14697843
_cell_angle_beta   64.14697820
_cell_angle_gamma   64.14697498
_symmetry_Int_Tables_number   1
_chemical_formula_structural   Pm2ZnIr3
_chemical_formula_sum   'Pm2 Zn1 Ir3'
_cell_volume   112.51218023
_cell_formula_units_Z   1
loop_
 _symmetry_equiv_pos_site_id
 _symmetry_equiv_pos_as_xyz
  1  'x, y, z'
loop_
 _atom_site_type_symbol
 _atom_site_label
 _atom_site_symmetry_multiplicity
 _atom_site_fract_x
 _atom_site_fract_y
 _atom_site_fract_z
 _atom_site_occupancy
  Pm  Pm0  1  0.751062  0.751062  0.751062  1
  Pm  Pm1  1  0.498938  0.498938  0.498938  1
  Zn  Zn2  1  0.125000  0.125000  0.125000  1
  Ir  Ir3  1  0.625000  0.125000  0.125000  1
  Ir  Ir4  1  0.125000  0.625000  0.125000  1
  Ir  Ir5  1  0.125000  0.125000  0.625000  1
