# generated using pymatgen
data_Ho9MgCuNi3Sb2
_symmetry_space_group_name_H-M   'P 1'
_cell_length_a   8.53154733
_cell_length_b   8.53120121
_cell_length_c   8.56350648
_cell_angle_alpha   127.56785688
_cell_angle_beta   127.72395378
_cell_angle_gamma   76.92670974
_symmetry_Int_Tables_number   1
_chemical_formula_structural   Ho9MgCuNi3Sb2
_chemical_formula_sum   'Ho9 Mg1 Cu1 Ni3 Sb2'
_cell_volume   379.89764348
_cell_formula_units_Z   1
loop_
 _symmetry_equiv_pos_site_id
 _symmetry_equiv_pos_as_xyz
  1  'x, y, z'
loop_
 _atom_site_type_symbol
 _atom_site_label
 _atom_site_symmetry_multiplicity
 _atom_site_fract_x
 _atom_site_fract_y
 _atom_site_fract_z
 _atom_site_occupancy
  Ho  Ho0  1  0.539890  0.712953  0.522084  1
  Ho  Ho1  1  0.013880  0.527119  0.810404  1
  Ho  Ho2  1  0.712205  0.195370  0.175518  1
  Ho  Ho3  1  0.980217  0.463345  0.175558  1
  Ho  Ho4  1  0.195448  0.024646  0.491227  1
  Ho  Ho5  1  0.466641  0.295837  0.491287  1
  Ho  Ho6  1  0.809120  0.982203  0.522097  1
  Ho  Ho7  1  0.283275  0.796493  0.810445  1
  Ho  Ho8  1  0.502094  0.498337  0.000436  1
  Mg  Mg9  1  0.000624  0.000410  0.001035  1
  Cu  Cu10  1  0.373419  0.871160  0.244595  1
  Ni  Ni11  1  0.867036  0.623057  0.490093  1
  Ni  Ni12  1  0.619445  0.128207  0.747656  1
  Ni  Ni13  1  0.131556  0.377920  0.509448  1
  Sb  Sb14  1  0.745612  0.744581  0.004094  1
  Sb  Sb15  1  0.259537  0.258362  0.004024  1
