# generated using pymatgen
data_TmLu7Re2(B12Os)2
_symmetry_space_group_name_H-M   'P 1'
_cell_length_a   3.61038200
_cell_length_b   9.05086429
_cell_length_c   11.41568000
_cell_angle_alpha   90.13089742
_cell_angle_beta   90.00000000
_cell_angle_gamma   90.00000000
_symmetry_Int_Tables_number   1
_chemical_formula_structural   TmLu7Re2(B12Os)2
_chemical_formula_sum   'Tm1 Lu7 Re2 B24 Os2'
_cell_volume   373.03008695
_cell_formula_units_Z   1
loop_
 _symmetry_equiv_pos_site_id
 _symmetry_equiv_pos_as_xyz
  1  'x, y, z'
loop_
 _atom_site_type_symbol
 _atom_site_label
 _atom_site_symmetry_multiplicity
 _atom_site_fract_x
 _atom_site_fract_y
 _atom_site_fract_z
 _atom_site_occupancy
  Tm  Tm0  1  0.000000  0.319879  0.412249  1
  Lu  Lu1  1  0.000000  0.680267  0.587815  1
  Lu  Lu2  1  0.000000  0.824182  0.084521  1
  Lu  Lu3  1  0.000000  0.175807  0.915454  1
  Lu  Lu4  1  0.000000  0.943713  0.371072  1
  Lu  Lu5  1  0.000000  0.056139  0.628970  1
  Lu  Lu6  1  0.000000  0.443061  0.128290  1
  Lu  Lu7  1  0.000000  0.556979  0.871671  1
  Re  Re8  1  0.000000  0.138248  0.179553  1
  Re  Re9  1  0.000000  0.861626  0.820318  1
  B  B10  1  0.500000  0.553736  0.433850  1
  B  B11  1  0.500000  0.446528  0.566308  1
  B  B12  1  0.500000  0.052890  0.066253  1
  B  B13  1  0.500000  0.947098  0.933728  1
  B  B14  1  0.500000  0.749974  0.419630  1
  B  B15  1  0.500000  0.250004  0.580647  1
  B  B16  1  0.500000  0.249956  0.080164  1
  B  B17  1  0.500000  0.750043  0.919800  1
  B  B18  1  0.500000  0.791987  0.265265  1
  B  B19  1  0.500000  0.208022  0.734768  1
  B  B20  1  0.500000  0.292929  0.234960  1
  B  B21  1  0.500000  0.706954  0.764821  1
  B  B22  1  0.500000  0.630717  0.184938  1
  B  B23  1  0.500000  0.369330  0.815052  1
  B  B24  1  0.500000  0.130845  0.315688  1
  B  B25  1  0.500000  0.868945  0.684154  1
  B  B26  1  0.500000  0.981177  0.212661  1
  B  B27  1  0.500000  0.018782  0.787322  1
  B  B28  1  0.500000  0.482035  0.287695  1
  B  B29  1  0.500000  0.518242  0.712209  1
  B  B30  1  0.500000  0.602262  0.028553  1
  B  B31  1  0.500000  0.397754  0.971431  1
  B  B32  1  0.500000  0.102010  0.472002  1
  B  B33  1  0.500000  0.897659  0.528090  1
  Os  Os34  1  0.000000  0.637886  0.321701  1
  Os  Os35  1  0.000000  0.362338  0.678396  1
