# generated using pymatgen
data_La3Th11Ru6
_symmetry_space_group_name_H-M   'P 1'
_cell_length_a   9.89748176
_cell_length_b   10.01201716
_cell_length_c   6.38992271
_cell_angle_alpha   89.77558348
_cell_angle_beta   90.24637528
_cell_angle_gamma   119.99911056
_symmetry_Int_Tables_number   1
_chemical_formula_structural   La3Th11Ru6
_chemical_formula_sum   'La3 Th11 Ru6'
_cell_volume   548.36724450
_cell_formula_units_Z   1
loop_
 _symmetry_equiv_pos_site_id
 _symmetry_equiv_pos_as_xyz
  1  'x, y, z'
loop_
 _atom_site_type_symbol
 _atom_site_label
 _atom_site_symmetry_multiplicity
 _atom_site_fract_x
 _atom_site_fract_y
 _atom_site_fract_z
 _atom_site_occupancy
  La  La0  1  0.461868  0.537947  0.297520  1
  La  La1  1  0.073927  0.537218  0.298426  1
  La  La2  1  0.924268  0.460687  0.798011  1
  Th  Th3  1  0.249352  0.125547  0.505650  1
  Th  Th4  1  0.541395  0.080341  0.800676  1
  Th  Th5  1  0.749719  0.874051  0.003517  1
  Th  Th6  1  0.663747  0.331330  0.285331  1
  Th  Th7  1  0.126431  0.875020  0.000228  1
  Th  Th8  1  0.460818  0.922619  0.301718  1
  Th  Th9  1  0.539987  0.460136  0.798637  1
  Th  Th10  1  0.874144  0.124737  0.501798  1
  Th  Th11  1  0.124942  0.248606  0.001142  1
  Th  Th12  1  0.874609  0.751280  0.503735  1
  Th  Th13  1  0.336296  0.669384  0.783173  1
  Ru  Ru14  1  0.810493  0.632593  0.048832  1
  Ru  Ru15  1  0.808639  0.177220  0.050515  1
  Ru  Ru16  1  0.631961  0.820050  0.552253  1
  Ru  Ru17  1  0.371398  0.185331  0.045140  1
  Ru  Ru18  1  0.184605  0.363135  0.558016  1
  Ru  Ru19  1  0.191402  0.822768  0.549678  1
