# generated using pymatgen
data_Cd4AgIr3O14
_symmetry_space_group_name_H-M   'P 1'
_cell_length_a   7.31640719
_cell_length_b   7.31640640
_cell_length_c   7.31495830
_cell_angle_alpha   59.99344022
_cell_angle_beta   59.99344151
_cell_angle_gamma   59.99999568
_symmetry_Int_Tables_number   1
_chemical_formula_structural   Cd4AgIr3O14
_chemical_formula_sum   'Cd4 Ag1 Ir3 O14'
_cell_volume   276.85314943
_cell_formula_units_Z   1
loop_
 _symmetry_equiv_pos_site_id
 _symmetry_equiv_pos_as_xyz
  1  'x, y, z'
loop_
 _atom_site_type_symbol
 _atom_site_label
 _atom_site_symmetry_multiplicity
 _atom_site_fract_x
 _atom_site_fract_y
 _atom_site_fract_z
 _atom_site_occupancy
  Cd  Cd0  1  0.125000  0.125000  0.125000  1
  Cd  Cd1  1  0.625000  0.125000  0.125000  1
  Cd  Cd2  1  0.125000  0.625000  0.125000  1
  Cd  Cd3  1  0.125000  0.125000  0.625000  1
  Ag  Ag4  1  0.625000  0.625000  0.125000  1
  Ir  Ir5  1  0.625000  0.625000  0.625000  1
  Ir  Ir6  1  0.125000  0.625000  0.625000  1
  Ir  Ir7  1  0.625000  0.125000  0.625000  1
  O  O8  1  0.249964  0.249964  0.250110  1
  O  O9  1  0.000036  0.000036  0.999890  1
  O  O10  1  0.532107  0.940136  0.587622  1
  O  O11  1  0.265530  0.713610  0.307248  1
  O  O12  1  0.536390  0.536390  0.942752  1
  O  O13  1  0.940136  0.532107  0.587622  1
  O  O14  1  0.536390  0.984470  0.942752  1
  O  O15  1  0.940136  0.940136  0.587622  1
  O  O16  1  0.984470  0.536390  0.942752  1
  O  O17  1  0.713610  0.265530  0.307248  1
  O  O18  1  0.309864  0.717893  0.662378  1
  O  O19  1  0.717893  0.309864  0.662378  1
  O  O20  1  0.309864  0.309864  0.662378  1
  O  O21  1  0.713610  0.713610  0.307248  1
