# generated using pymatgen
data_PaO2F5
_symmetry_space_group_name_H-M   'P 1'
_cell_length_a   6.48856935
_cell_length_b   6.47357760
_cell_length_c   8.29619100
_cell_angle_alpha   90.00000000
_cell_angle_beta   90.00000000
_cell_angle_gamma   111.47577943
_symmetry_Int_Tables_number   1
_chemical_formula_structural   PaO2F5
_chemical_formula_sum   'Pa2 O4 F10'
_cell_volume   324.28153973
_cell_formula_units_Z   2
loop_
 _symmetry_equiv_pos_site_id
 _symmetry_equiv_pos_as_xyz
  1  'x, y, z'
loop_
 _atom_site_type_symbol
 _atom_site_label
 _atom_site_symmetry_multiplicity
 _atom_site_fract_x
 _atom_site_fract_y
 _atom_site_fract_z
 _atom_site_occupancy
  Pa  Pa0  1  0.185078  0.815572  0.000000  1
  Pa  Pa1  1  0.814922  0.184428  0.000000  1
  O  O2  1  0.500000  0.500000  0.574240  1
  O  O3  1  0.500000  0.500000  0.425760  1
  O  O4  1  0.001171  0.905281  0.500000  1
  O  O5  1  0.998829  0.094719  0.500000  1
  F  F6  1  0.239600  0.763605  0.764575  1
  F  F7  1  0.760400  0.236395  0.764575  1
  F  F8  1  0.760400  0.236395  0.235425  1
  F  F9  1  0.239600  0.763605  0.235425  1
  F  F10  1  0.000000  0.000000  0.854367  1
  F  F11  1  0.000000  0.000000  0.145633  1
  F  F12  1  0.840622  0.561495  0.000000  1
  F  F13  1  0.159378  0.438505  0.000000  1
  F  F14  1  0.561497  0.839932  0.000000  1
  F  F15  1  0.438503  0.160068  0.000000  1
