# generated using pymatgen
data_Pm2Al3Pt
_symmetry_space_group_name_H-M   'P 1'
_cell_length_a   5.63865124
_cell_length_b   5.50525282
_cell_length_c   5.63865200
_cell_angle_alpha   59.19514636
_cell_angle_beta   59.99999555
_cell_angle_gamma   59.19514089
_symmetry_Int_Tables_number   1
_chemical_formula_structural   Pm2Al3Pt
_chemical_formula_sum   'Pm2 Al3 Pt1'
_cell_volume   122.24211976
_cell_formula_units_Z   1
loop_
 _symmetry_equiv_pos_site_id
 _symmetry_equiv_pos_as_xyz
  1  'x, y, z'
loop_
 _atom_site_type_symbol
 _atom_site_label
 _atom_site_symmetry_multiplicity
 _atom_site_fract_x
 _atom_site_fract_y
 _atom_site_fract_z
 _atom_site_occupancy
  Pm  Pm0  1  0.749894  0.750319  0.749894  1
  Pm  Pm1  1  0.500106  0.499681  0.500106  1
  Al  Al2  1  0.125000  0.125000  0.125000  1
  Al  Al3  1  0.625000  0.125000  0.125000  1
  Al  Al4  1  0.125000  0.125000  0.625000  1
  Pt  Pt5  1  0.125000  0.625000  0.125000  1
