# generated using pymatgen
data_Dy16CdAg3Pt4
_symmetry_space_group_name_H-M   'P 1'
_cell_length_a   9.67263864
_cell_length_b   9.67537287
_cell_length_c   9.67537400
_cell_angle_alpha   59.99999614
_cell_angle_beta   59.99064481
_cell_angle_gamma   59.99064202
_symmetry_Int_Tables_number   1
_chemical_formula_structural   Dy16CdAg3Pt4
_chemical_formula_sum   'Dy16 Cd1 Ag3 Pt4'
_cell_volume   640.18278393
_cell_formula_units_Z   1
loop_
 _symmetry_equiv_pos_site_id
 _symmetry_equiv_pos_as_xyz
  1  'x, y, z'
loop_
 _atom_site_type_symbol
 _atom_site_label
 _atom_site_symmetry_multiplicity
 _atom_site_fract_x
 _atom_site_fract_y
 _atom_site_fract_z
 _atom_site_occupancy
  Dy  Dy0  1  0.354342  0.353625  0.353625  1
  Dy  Dy1  1  0.354342  0.353625  0.938409  1
  Dy  Dy2  1  0.354342  0.938409  0.353625  1
  Dy  Dy3  1  0.935695  0.354769  0.354769  1
  Dy  Dy4  1  0.811123  0.188909  0.188909  1
  Dy  Dy5  1  0.188064  0.811508  0.811508  1
  Dy  Dy6  1  0.188064  0.811508  0.188921  1
  Dy  Dy7  1  0.811123  0.188909  0.811061  1
  Dy  Dy8  1  0.188064  0.188921  0.811508  1
  Dy  Dy9  1  0.811123  0.811061  0.188909  1
  Dy  Dy10  1  0.931884  0.566090  0.566090  1
  Dy  Dy11  1  0.565620  0.934252  0.934252  1
  Dy  Dy12  1  0.565620  0.934252  0.565876  1
  Dy  Dy13  1  0.931884  0.566089  0.935937  1
  Dy  Dy14  1  0.565620  0.565876  0.934252  1
  Dy  Dy15  1  0.931884  0.935937  0.566089  1
  Cd  Cd16  1  0.257878  0.580707  0.580707  1
  Ag  Ag17  1  0.584514  0.585829  0.585829  1
  Ag  Ag18  1  0.584514  0.585829  0.243826  1
  Ag  Ag19  1  0.584514  0.243826  0.585829  1
  Pt  Pt20  1  0.143458  0.144063  0.144063  1
  Pt  Pt21  1  0.143458  0.144063  0.568418  1
  Pt  Pt22  1  0.143458  0.568418  0.144063  1
  Pt  Pt23  1  0.569416  0.143528  0.143528  1
