# generated using pymatgen
data_Te8Ir2Rh
_symmetry_space_group_name_H-M   'P 1'
_cell_length_a   6.51030770
_cell_length_b   6.51101515
_cell_length_c   6.52878976
_cell_angle_alpha   90.91793303
_cell_angle_beta   91.03410780
_cell_angle_gamma   90.77889608
_symmetry_Int_Tables_number   1
_chemical_formula_structural   Te8Ir2Rh
_chemical_formula_sum   'Te8 Ir2 Rh1'
_cell_volume   276.63972648
_cell_formula_units_Z   1
loop_
 _symmetry_equiv_pos_site_id
 _symmetry_equiv_pos_as_xyz
  1  'x, y, z'
loop_
 _atom_site_type_symbol
 _atom_site_label
 _atom_site_symmetry_multiplicity
 _atom_site_fract_x
 _atom_site_fract_y
 _atom_site_fract_z
 _atom_site_occupancy
  Te  Te0  1  0.371233  0.869297  0.123267  1
  Te  Te1  1  0.877705  0.628861  0.131376  1
  Te  Te2  1  0.368266  0.368619  0.369014  1
  Te  Te3  1  0.868685  0.123072  0.370816  1
  Te  Te4  1  0.131316  0.876929  0.629184  1
  Te  Te5  1  0.631734  0.631381  0.630986  1
  Te  Te6  1  0.122296  0.371139  0.868624  1
  Te  Te7  1  0.628768  0.130704  0.876734  1
  Ir  Ir8  1  0.500000  0.000000  0.500000  1
  Ir  Ir9  1  0.000000  0.500000  0.500000  1
  Rh  Rh10  1  0.500000  0.500000  0.000000  1
