# generated using pymatgen
data_Cs2UCu2BiSe6
_symmetry_space_group_name_H-M   'P 1'
_cell_length_a   4.17806300
_cell_length_b   8.34196438
_cell_length_c   10.86747352
_cell_angle_alpha   88.14521444
_cell_angle_beta   90.00000000
_cell_angle_gamma   75.49736851
_symmetry_Int_Tables_number   1
_chemical_formula_structural   Cs2UCu2BiSe6
_chemical_formula_sum   'Cs2 U1 Cu2 Bi1 Se6'
_cell_volume   366.49284580
_cell_formula_units_Z   1
loop_
 _symmetry_equiv_pos_site_id
 _symmetry_equiv_pos_as_xyz
  1  'x, y, z'
loop_
 _atom_site_type_symbol
 _atom_site_label
 _atom_site_symmetry_multiplicity
 _atom_site_fract_x
 _atom_site_fract_y
 _atom_site_fract_z
 _atom_site_occupancy
  Cs  Cs0  1  0.742112  0.515777  0.240468  1
  Cs  Cs1  1  0.257890  0.484223  0.759532  1
  U  U2  1  0.000000  0.000000  0.500000  1
  Cu  Cu3  1  0.462374  0.075255  0.259677  1
  Cu  Cu4  1  0.537627  0.924744  0.740323  1
  Bi  Bi5  1  0.000000  0.000000  0.000000  1
  Se  Se6  1  0.381904  0.236195  0.066738  1
  Se  Se7  1  0.053583  0.892837  0.265154  1
  Se  Se8  1  0.386142  0.227719  0.446869  1
  Se  Se9  1  0.613859  0.772281  0.553132  1
  Se  Se10  1  0.946418  0.107163  0.734846  1
  Se  Se11  1  0.618097  0.763805  0.933263  1
