# generated using pymatgen
data_Th10SiNiSb6
_symmetry_space_group_name_H-M   'P 1'
_cell_length_a   9.45885900
_cell_length_b   9.45885772
_cell_length_c   6.50678100
_cell_angle_alpha   90.00000000
_cell_angle_beta   90.00000000
_cell_angle_gamma   120.00000097
_symmetry_Int_Tables_number   1
_chemical_formula_structural   Th10SiNiSb6
_chemical_formula_sum   'Th10 Si1 Ni1 Sb6'
_cell_volume   504.16682152
_cell_formula_units_Z   1
loop_
 _symmetry_equiv_pos_site_id
 _symmetry_equiv_pos_as_xyz
  1  'x, y, z'
loop_
 _atom_site_type_symbol
 _atom_site_label
 _atom_site_symmetry_multiplicity
 _atom_site_fract_x
 _atom_site_fract_y
 _atom_site_fract_z
 _atom_site_occupancy
  Th  Th0  1  0.666667  0.333333  0.500000  1
  Th  Th1  1  0.333333  0.666667  0.500000  1
  Th  Th2  1  0.333333  0.666667  0.000000  1
  Th  Th3  1  0.666667  0.333333  0.000000  1
  Th  Th4  1  0.744679  0.744679  0.253257  1
  Th  Th5  1  0.255321  0.000000  0.253257  1
  Th  Th6  1  0.000000  0.255321  0.253257  1
  Th  Th7  1  0.255321  0.255321  0.746743  1
  Th  Th8  1  0.744679  0.000000  0.746743  1
  Th  Th9  1  0.000000  0.744679  0.746743  1
  Si  Si10  1  0.000000  0.000000  0.000000  1
  Ni  Ni11  1  0.000000  0.000000  0.500000  1
  Sb  Sb12  1  0.388327  0.388327  0.249079  1
  Sb  Sb13  1  0.611673  0.000000  0.249079  1
  Sb  Sb14  1  0.000000  0.611673  0.249079  1
  Sb  Sb15  1  0.611673  0.611673  0.750921  1
  Sb  Sb16  1  0.388327  0.000000  0.750921  1
  Sb  Sb17  1  0.000000  0.388327  0.750921  1
