# generated using pymatgen
data_AcTlAg4
_symmetry_space_group_name_H-M   'P 1'
_cell_length_a   5.81702488
_cell_length_b   5.81702538
_cell_length_c   5.81702500
_cell_angle_alpha   59.99999649
_cell_angle_beta   59.99999364
_cell_angle_gamma   59.99999204
_symmetry_Int_Tables_number   1
_chemical_formula_structural   AcTlAg4
_chemical_formula_sum   'Ac1 Tl1 Ag4'
_cell_volume   139.18350029
_cell_formula_units_Z   1
loop_
 _symmetry_equiv_pos_site_id
 _symmetry_equiv_pos_as_xyz
  1  'x, y, z'
loop_
 _atom_site_type_symbol
 _atom_site_label
 _atom_site_symmetry_multiplicity
 _atom_site_fract_x
 _atom_site_fract_y
 _atom_site_fract_z
 _atom_site_occupancy
  Ac  Ac0  1  0.250000  0.250000  0.250000  1
  Tl  Tl1  1  0.000000  0.000000  0.000000  1
  Ag  Ag2  1  0.625510  0.625510  0.123470  1
  Ag  Ag3  1  0.625510  0.123470  0.625510  1
  Ag  Ag4  1  0.123470  0.625510  0.625510  1
  Ag  Ag5  1  0.625510  0.625510  0.625510  1
