# generated using pymatgen
data_YTh(AgBi2)2
_symmetry_space_group_name_H-M   'P 1'
_cell_length_a   4.57737200
_cell_length_b   4.57737200
_cell_length_c   10.46819000
_cell_angle_alpha   90.00000000
_cell_angle_beta   90.00000000
_cell_angle_gamma   90.00000000
_symmetry_Int_Tables_number   1
_chemical_formula_structural   YTh(AgBi2)2
_chemical_formula_sum   'Y1 Th1 Ag2 Bi4'
_cell_volume   219.33301772
_cell_formula_units_Z   1
loop_
 _symmetry_equiv_pos_site_id
 _symmetry_equiv_pos_as_xyz
  1  'x, y, z'
loop_
 _atom_site_type_symbol
 _atom_site_label
 _atom_site_symmetry_multiplicity
 _atom_site_fract_x
 _atom_site_fract_y
 _atom_site_fract_z
 _atom_site_occupancy
  Y  Y0  1  0.500000  0.000000  0.241782  1
  Th  Th1  1  0.000000  0.500000  0.758376  1
  Ag  Ag2  1  0.000000  0.000000  0.496319  1
  Ag  Ag3  1  0.500000  0.500000  0.496319  1
  Bi  Bi4  1  0.000000  0.000000  0.003140  1
  Bi  Bi5  1  0.500000  0.500000  0.003140  1
  Bi  Bi6  1  0.000000  0.500000  0.311227  1
  Bi  Bi7  1  0.500000  0.000000  0.689696  1
