# generated using pymatgen
data_Tb3Ho5In3Co
_symmetry_space_group_name_H-M   'P 1'
_cell_length_a   10.37502000
_cell_length_b   10.37502010
_cell_length_c   6.99263000
_cell_angle_alpha   90.00000000
_cell_angle_beta   90.00000000
_cell_angle_gamma   119.99999968
_symmetry_Int_Tables_number   1
_chemical_formula_structural   Tb3Ho5In3Co
_chemical_formula_sum   'Tb6 Ho10 In6 Co2'
_cell_volume   651.85210379
_cell_formula_units_Z   2
loop_
 _symmetry_equiv_pos_site_id
 _symmetry_equiv_pos_as_xyz
  1  'x, y, z'
loop_
 _atom_site_type_symbol
 _atom_site_label
 _atom_site_symmetry_multiplicity
 _atom_site_fract_x
 _atom_site_fract_y
 _atom_site_fract_z
 _atom_site_occupancy
  Tb  Tb0  1  0.534670  0.069340  0.504400  1
  Tb  Tb1  1  0.930660  0.465330  0.504400  1
  Tb  Tb2  1  0.534670  0.465330  0.504400  1
  Tb  Tb3  1  0.465330  0.930660  0.004400  1
  Tb  Tb4  1  0.069340  0.534670  0.004400  1
  Tb  Tb5  1  0.465330  0.534670  0.004400  1
  Ho  Ho6  1  0.178193  0.356385  0.712734  1
  Ho  Ho7  1  0.643615  0.821807  0.712734  1
  Ho  Ho8  1  0.178193  0.821807  0.712734  1
  Ho  Ho9  1  0.821807  0.643615  0.212734  1
  Ho  Ho10  1  0.356385  0.178193  0.212734  1
  Ho  Ho11  1  0.821807  0.178193  0.212734  1
  Ho  Ho12  1  0.666667  0.333333  0.896488  1
  Ho  Ho13  1  0.333333  0.666667  0.396488  1
  Ho  Ho14  1  0.000000  0.000000  0.494507  1
  Ho  Ho15  1  0.000000  0.000000  0.994507  1
  In  In16  1  0.837426  0.674852  0.751582  1
  In  In17  1  0.325148  0.162574  0.751582  1
  In  In18  1  0.837426  0.162574  0.751582  1
  In  In19  1  0.162574  0.325148  0.251582  1
  In  In20  1  0.674852  0.837426  0.251582  1
  In  In21  1  0.162574  0.837426  0.251582  1
  Co  Co22  1  0.666667  0.333333  0.281880  1
  Co  Co23  1  0.333333  0.666667  0.781880  1
