# generated using pymatgen
data_ErGe(AsRh2)3
_symmetry_space_group_name_H-M   'P 1'
_cell_length_a   7.26209900
_cell_length_b   7.26209856
_cell_length_c   3.81619200
_cell_angle_alpha   90.00000000
_cell_angle_beta   90.00000000
_cell_angle_gamma   119.99999745
_symmetry_Int_Tables_number   1
_chemical_formula_structural   ErGe(AsRh2)3
_chemical_formula_sum   'Er1 Ge1 As3 Rh6'
_cell_volume   174.29509427
_cell_formula_units_Z   1
loop_
 _symmetry_equiv_pos_site_id
 _symmetry_equiv_pos_as_xyz
  1  'x, y, z'
loop_
 _atom_site_type_symbol
 _atom_site_label
 _atom_site_symmetry_multiplicity
 _atom_site_fract_x
 _atom_site_fract_y
 _atom_site_fract_z
 _atom_site_occupancy
  Er  Er0  1  0.000000  0.000000  0.000000  1
  Ge  Ge1  1  0.333333  0.666667  0.000000  1
  As  As2  1  0.809343  0.190657  0.500000  1
  As  As3  1  0.809343  0.618687  0.500000  1
  As  As4  1  0.381313  0.190657  0.500000  1
  Rh  Rh5  1  0.534426  0.465574  0.000000  1
  Rh  Rh6  1  0.534426  0.068852  0.000000  1
  Rh  Rh7  1  0.931148  0.465574  0.000000  1
  Rh  Rh8  1  0.196677  0.803323  0.500000  1
  Rh  Rh9  1  0.196677  0.393354  0.500000  1
  Rh  Rh10  1  0.606646  0.803323  0.500000  1
