# generated using pymatgen
data_Li3Y4GaPt4
_symmetry_space_group_name_H-M   'P 1'
_cell_length_a   4.03676800
_cell_length_b   7.06151812
_cell_length_c   8.41716745
_cell_angle_alpha   89.71959312
_cell_angle_beta   90.00000000
_cell_angle_gamma   90.00000000
_symmetry_Int_Tables_number   1
_chemical_formula_structural   Li3Y4GaPt4
_chemical_formula_sum   'Li3 Y4 Ga1 Pt4'
_cell_volume   239.93446408
_cell_formula_units_Z   1
loop_
 _symmetry_equiv_pos_site_id
 _symmetry_equiv_pos_as_xyz
  1  'x, y, z'
loop_
 _atom_site_type_symbol
 _atom_site_label
 _atom_site_symmetry_multiplicity
 _atom_site_fract_x
 _atom_site_fract_y
 _atom_site_fract_z
 _atom_site_occupancy
  Li  Li0  1  0.250000  0.368672  0.561990  1
  Li  Li1  1  0.250000  0.872706  0.941729  1
  Li  Li2  1  0.750000  0.628870  0.439491  1
  Y  Y3  1  0.250000  0.957267  0.316335  1
  Y  Y4  1  0.250000  0.452183  0.180510  1
  Y  Y5  1  0.750000  0.047127  0.683039  1
  Y  Y6  1  0.750000  0.545632  0.817781  1
  Ga  Ga7  1  0.750000  0.124494  0.059005  1
  Pt  Pt8  1  0.250000  0.247845  0.883643  1
  Pt  Pt9  1  0.250000  0.755942  0.622882  1
  Pt  Pt10  1  0.750000  0.751346  0.120179  1
  Pt  Pt11  1  0.750000  0.247916  0.373417  1
