# generated using pymatgen
data_Sm5Tm3Sc11Si16W
_symmetry_space_group_name_H-M   'P 1'
_cell_length_a   7.11913980
_cell_length_b   7.36022485
_cell_length_c   13.94880307
_cell_angle_alpha   90.11101985
_cell_angle_beta   89.74369646
_cell_angle_gamma   89.74957154
_symmetry_Int_Tables_number   1
_chemical_formula_structural   Sm5Tm3Sc11Si16W
_chemical_formula_sum   'Sm5 Tm3 Sc11 Si16 W1'
_cell_volume   730.88024038
_cell_formula_units_Z   1
loop_
 _symmetry_equiv_pos_site_id
 _symmetry_equiv_pos_as_xyz
  1  'x, y, z'
loop_
 _atom_site_type_symbol
 _atom_site_label
 _atom_site_symmetry_multiplicity
 _atom_site_fract_x
 _atom_site_fract_y
 _atom_site_fract_z
 _atom_site_occupancy
  Sm  Sm0  1  0.011412  0.172389  0.097941  1
  Sm  Sm1  1  0.990179  0.827110  0.897604  1
  Sm  Sm2  1  0.487750  0.674776  0.899085  1
  Sm  Sm3  1  0.991974  0.829888  0.593885  1
  Sm  Sm4  1  0.512648  0.325918  0.097435  1
  Tm  Tm5  1  0.011415  0.176928  0.403251  1
  Tm  Tm6  1  0.506171  0.322991  0.409718  1
  Tm  Tm7  1  0.488348  0.675826  0.595568  1
  Sc  Sc8  1  0.164281  0.493903  0.743625  1
  Sc  Sc9  1  0.837467  0.498112  0.253141  1
  Sc  Sc10  1  0.337124  0.002677  0.254347  1
  Sc  Sc11  1  0.658198  0.002871  0.746418  1
  Sc  Sc12  1  0.664222  0.825495  0.379964  1
  Sc  Sc13  1  0.168319  0.676517  0.379365  1
  Sc  Sc14  1  0.669452  0.824858  0.126399  1
  Sc  Sc15  1  0.832448  0.324307  0.621910  1
  Sc  Sc16  1  0.333244  0.176627  0.874009  1
  Sc  Sc17  1  0.830272  0.323640  0.870736  1
  Sc  Sc18  1  0.169853  0.676440  0.127356  1
  Si  Si19  1  0.044239  0.123802  0.743614  1
  Si  Si20  1  0.963593  0.883755  0.253733  1
  Si  Si21  1  0.466275  0.618679  0.253044  1
  Si  Si22  1  0.530908  0.373459  0.744081  1
  Si  Si23  1  0.289882  0.883450  0.743641  1
  Si  Si24  1  0.710995  0.125824  0.254556  1
  Si  Si25  1  0.214792  0.374309  0.254140  1
  Si  Si26  1  0.782998  0.621279  0.744425  1
  Si  Si27  1  0.179832  0.448898  0.540431  1
  Si  Si28  1  0.838887  0.527989  0.458683  1
  Si  Si29  1  0.334320  0.971690  0.469949  1
  Si  Si30  1  0.847195  0.536861  0.038975  1
  Si  Si31  1  0.642623  0.035930  0.545171  1
  Si  Si32  1  0.151574  0.464934  0.959054  1
  Si  Si33  1  0.658485  0.037320  0.958764  1
  Si  Si34  1  0.344522  0.961759  0.038840  1
  W  W35  1  0.334105  0.178790  0.627147  1
