# generated using pymatgen
data_Na5Ag3Te4
_symmetry_space_group_name_H-M   'P 1'
_cell_length_a   4.70229400
_cell_length_b   7.87661420
_cell_length_c   8.66900339
_cell_angle_alpha   89.18452472
_cell_angle_beta   90.00000000
_cell_angle_gamma   90.00000000
_symmetry_Int_Tables_number   1
_chemical_formula_structural   Na5Ag3Te4
_chemical_formula_sum   'Na5 Ag3 Te4'
_cell_volume   321.05137691
_cell_formula_units_Z   1
loop_
 _symmetry_equiv_pos_site_id
 _symmetry_equiv_pos_as_xyz
  1  'x, y, z'
loop_
 _atom_site_type_symbol
 _atom_site_label
 _atom_site_symmetry_multiplicity
 _atom_site_fract_x
 _atom_site_fract_y
 _atom_site_fract_z
 _atom_site_occupancy
  Na  Na0  1  0.750000  0.480871  0.307918  1
  Na  Na1  1  0.250000  0.026881  0.824303  1
  Na  Na2  1  0.750000  0.977509  0.180459  1
  Na  Na3  1  0.250000  0.513390  0.691146  1
  Na  Na4  1  0.750000  0.860485  0.565630  1
  Ag  Ag5  1  0.250000  0.638729  0.066693  1
  Ag  Ag6  1  0.250000  0.133524  0.433097  1
  Ag  Ag7  1  0.750000  0.363464  0.935090  1
  Te  Te8  1  0.250000  0.761954  0.375814  1
  Te  Te9  1  0.250000  0.263103  0.113711  1
  Te  Te10  1  0.750000  0.735447  0.894108  1
  Te  Te11  1  0.750000  0.244644  0.612033  1
