# generated using pymatgen
data_PrLu3(WO6)2
_symmetry_space_group_name_H-M   'P 1'
_cell_length_a   5.38899000
_cell_length_b   7.69420985
_cell_length_c   11.43093333
_cell_angle_alpha   75.37029712
_cell_angle_beta   90.00000000
_cell_angle_gamma   90.00000000
_symmetry_Int_Tables_number   1
_chemical_formula_structural   PrLu3(WO6)2
_chemical_formula_sum   'Pr2 Lu6 W4 O24'
_cell_volume   458.60548545
_cell_formula_units_Z   2
loop_
 _symmetry_equiv_pos_site_id
 _symmetry_equiv_pos_as_xyz
  1  'x, y, z'
loop_
 _atom_site_type_symbol
 _atom_site_label
 _atom_site_symmetry_multiplicity
 _atom_site_fract_x
 _atom_site_fract_y
 _atom_site_fract_z
 _atom_site_occupancy
  Pr  Pr0  1  0.313182  0.500000  0.750000  1
  Pr  Pr1  1  0.686818  0.500000  0.250000  1
  Lu  Lu2  1  0.256052  0.000000  0.750000  1
  Lu  Lu3  1  0.185155  0.798580  0.077508  1
  Lu  Lu4  1  0.185155  0.201420  0.422492  1
  Lu  Lu5  1  0.743948  0.000000  0.250000  1
  Lu  Lu6  1  0.814845  0.201420  0.922492  1
  Lu  Lu7  1  0.814845  0.798580  0.577508  1
  W  W8  1  0.745517  0.729637  0.884264  1
  W  W9  1  0.254483  0.729637  0.384264  1
  W  W10  1  0.745517  0.270363  0.615736  1
  W  W11  1  0.254483  0.270363  0.115736  1
  O  O12  1  0.541670  0.155602  0.069228  1
  O  O13  1  0.040864  0.055474  0.104077  1
  O  O14  1  0.013366  0.724327  0.767234  1
  O  O15  1  0.458330  0.155602  0.569228  1
  O  O16  1  0.344343  0.491385  0.388158  1
  O  O17  1  0.959136  0.055474  0.604077  1
  O  O18  1  0.543334  0.800428  0.724410  1
  O  O19  1  0.456666  0.800428  0.224410  1
  O  O20  1  0.140015  0.643310  0.546207  1
  O  O21  1  0.040864  0.944526  0.395923  1
  O  O22  1  0.458330  0.844398  0.930772  1
  O  O23  1  0.456666  0.199572  0.275590  1
  O  O24  1  0.859985  0.356690  0.453793  1
  O  O25  1  0.655657  0.491385  0.888158  1
  O  O26  1  0.344343  0.508615  0.111842  1
  O  O27  1  0.959136  0.944526  0.895923  1
  O  O28  1  0.541670  0.844398  0.430772  1
  O  O29  1  0.986634  0.275673  0.232766  1
  O  O30  1  0.543334  0.199572  0.775590  1
  O  O31  1  0.859985  0.643310  0.046207  1
  O  O32  1  0.013366  0.275673  0.732766  1
  O  O33  1  0.140015  0.356690  0.953793  1
  O  O34  1  0.986634  0.724327  0.267234  1
  O  O35  1  0.655657  0.508615  0.611842  1
