# generated using pymatgen
data_Er4B12IrRh
_symmetry_space_group_name_H-M   'P 1'
_cell_length_a   3.62714000
_cell_length_b   9.14195773
_cell_length_c   11.47045503
_cell_angle_alpha   90.09902964
_cell_angle_beta   90.00000000
_cell_angle_gamma   90.00000000
_symmetry_Int_Tables_number   1
_chemical_formula_structural   Er4B12IrRh
_chemical_formula_sum   'Er8 B24 Ir2 Rh2'
_cell_volume   380.35009162
_cell_formula_units_Z   2
loop_
 _symmetry_equiv_pos_site_id
 _symmetry_equiv_pos_as_xyz
  1  'x, y, z'
loop_
 _atom_site_type_symbol
 _atom_site_label
 _atom_site_symmetry_multiplicity
 _atom_site_fract_x
 _atom_site_fract_y
 _atom_site_fract_z
 _atom_site_occupancy
  Er  Er0  1  0.500000  0.322979  0.413994  1
  Er  Er1  1  0.500000  0.677021  0.586006  1
  Er  Er2  1  0.500000  0.179117  0.912708  1
  Er  Er3  1  0.500000  0.820883  0.087292  1
  Er  Er4  1  0.500000  0.445197  0.126661  1
  Er  Er5  1  0.500000  0.554803  0.873339  1
  Er  Er6  1  0.500000  0.056491  0.625873  1
  Er  Er7  1  0.500000  0.943509  0.374127  1
  B  B8  1  0.000000  0.110360  0.469849  1
  B  B9  1  0.000000  0.889640  0.530151  1
  B  B10  1  0.000000  0.390193  0.970143  1
  B  B11  1  0.000000  0.609807  0.029857  1
  B  B12  1  0.000000  0.132706  0.316041  1
  B  B13  1  0.000000  0.867294  0.683959  1
  B  B14  1  0.000000  0.366634  0.816171  1
  B  B15  1  0.000000  0.633366  0.183829  1
  B  B16  1  0.000000  0.053916  0.065648  1
  B  B17  1  0.000000  0.946084  0.934352  1
  B  B18  1  0.000000  0.446747  0.565277  1
  B  B19  1  0.000000  0.553253  0.434723  1
  B  B20  1  0.000000  0.482456  0.287209  1
  B  B21  1  0.000000  0.517544  0.712791  1
  B  B22  1  0.000000  0.017773  0.786586  1
  B  B23  1  0.000000  0.982227  0.213414  1
  B  B24  1  0.000000  0.250008  0.079142  1
  B  B25  1  0.000000  0.749992  0.920858  1
  B  B26  1  0.000000  0.251077  0.579110  1
  B  B27  1  0.000000  0.748923  0.420890  1
  B  B28  1  0.000000  0.294236  0.235256  1
  B  B29  1  0.000000  0.705764  0.764744  1
  B  B30  1  0.000000  0.205756  0.735831  1
  B  B31  1  0.000000  0.794244  0.264169  1
  Ir  Ir32  1  0.500000  0.138636  0.177878  1
  Ir  Ir33  1  0.500000  0.861364  0.822122  1
  Rh  Rh34  1  0.500000  0.360278  0.679641  1
  Rh  Rh35  1  0.500000  0.639722  0.320359  1
