# generated using pymatgen
data_Gd2Lu2In2(TeO6)3
_symmetry_space_group_name_H-M   'P 1'
_cell_length_a   9.08104161
_cell_length_b   9.06584887
_cell_length_c   5.15618624
_cell_angle_alpha   90.11486786
_cell_angle_beta   90.15538833
_cell_angle_gamma   120.09717482
_symmetry_Int_Tables_number   1
_chemical_formula_structural   Gd2Lu2In2(TeO6)3
_chemical_formula_sum   'Gd2 Lu2 In2 Te3 O18'
_cell_volume   367.25895372
_cell_formula_units_Z   1
loop_
 _symmetry_equiv_pos_site_id
 _symmetry_equiv_pos_as_xyz
  1  'x, y, z'
loop_
 _atom_site_type_symbol
 _atom_site_label
 _atom_site_symmetry_multiplicity
 _atom_site_fract_x
 _atom_site_fract_y
 _atom_site_fract_z
 _atom_site_occupancy
  Gd  Gd0  1  0.617756  0.001524  0.000311  1
  Gd  Gd1  1  0.002365  0.620371  0.000823  1
  Lu  Lu2  1  0.375851  0.374639  0.997779  1
  Lu  Lu3  1  0.281596  0.999048  0.499403  1
  In  In4  1  0.000041  0.288683  0.498574  1
  In  In5  1  0.711759  0.711456  0.500074  1
  Te  Te6  1  0.000733  0.002762  0.000482  1
  Te  Te7  1  0.335116  0.662839  0.501378  1
  Te  Te8  1  0.664470  0.334349  0.498232  1
  O  O9  1  0.087659  0.884643  0.794886  1
  O  O10  1  0.119674  0.205390  0.780411  1
  O  O11  1  0.795232  0.911531  0.789222  1
  O  O12  1  0.209432  0.122549  0.202406  1
  O  O13  1  0.919771  0.803443  0.226944  1
  O  O14  1  0.885474  0.091844  0.211439  1
  O  O15  1  0.458294  0.586055  0.722772  1
  O  O16  1  0.401986  0.863727  0.716345  1
  O  O17  1  0.131216  0.535760  0.709430  1
  O  O18  1  0.863343  0.403449  0.280073  1
  O  O19  1  0.533873  0.129302  0.293085  1
  O  O20  1  0.586757  0.457486  0.276997  1
  O  O21  1  0.231937  0.765222  0.285762  1
  O  O22  1  0.238620  0.458684  0.280050  1
  O  O23  1  0.542376  0.774628  0.293707  1
  O  O24  1  0.461617  0.237154  0.719466  1
  O  O25  1  0.776662  0.543016  0.705827  1
  O  O26  1  0.766391  0.230446  0.714122  1
