# generated using pymatgen
data_Yb3MnMoC6
_symmetry_space_group_name_H-M   'P 1'
_cell_length_a   8.24163600
_cell_length_b   8.24163624
_cell_length_c   5.09170400
_cell_angle_alpha   90.00000000
_cell_angle_beta   90.00000000
_cell_angle_gamma   119.99999101
_symmetry_Int_Tables_number   1
_chemical_formula_structural   Yb3MnMoC6
_chemical_formula_sum   'Yb6 Mn2 Mo2 C12'
_cell_volume   299.51645811
_cell_formula_units_Z   2
loop_
 _symmetry_equiv_pos_site_id
 _symmetry_equiv_pos_as_xyz
  1  'x, y, z'
loop_
 _atom_site_type_symbol
 _atom_site_label
 _atom_site_symmetry_multiplicity
 _atom_site_fract_x
 _atom_site_fract_y
 _atom_site_fract_z
 _atom_site_occupancy
  Yb  Yb0  1  0.609924  0.682854  0.750000  1
  Yb  Yb1  1  0.927070  0.609924  0.250000  1
  Yb  Yb2  1  0.682854  0.072930  0.250000  1
  Yb  Yb3  1  0.317146  0.927070  0.750000  1
  Yb  Yb4  1  0.072930  0.390076  0.750000  1
  Yb  Yb5  1  0.390076  0.317146  0.250000  1
  Mn  Mn6  1  0.666667  0.333333  0.750000  1
  Mn  Mn7  1  0.333333  0.666667  0.250000  1
  Mo  Mo8  1  0.000000  0.000000  0.500000  1
  Mo  Mo9  1  0.000000  0.000000  0.000000  1
  C  C10  1  0.950777  0.760859  0.750000  1
  C  C11  1  0.189919  0.950777  0.250000  1
  C  C12  1  0.760859  0.810081  0.250000  1
  C  C13  1  0.239141  0.189919  0.750000  1
  C  C14  1  0.810081  0.049223  0.750000  1
  C  C15  1  0.049223  0.239141  0.250000  1
  C  C16  1  0.854335  0.572119  0.750000  1
  C  C17  1  0.282217  0.854335  0.250000  1
  C  C18  1  0.572119  0.717783  0.250000  1
  C  C19  1  0.427881  0.282217  0.750000  1
  C  C20  1  0.145665  0.427881  0.250000  1
  C  C21  1  0.717783  0.145665  0.750000  1
