# generated using pymatgen
data_Tb3Er2Bi3O14
_symmetry_space_group_name_H-M   'P 1'
_cell_length_a   6.58425913
_cell_length_b   6.60796694
_cell_length_c   7.72632262
_cell_angle_alpha   106.78307355
_cell_angle_beta   89.67508112
_cell_angle_gamma   98.77656346
_symmetry_Int_Tables_number   1
_chemical_formula_structural   Tb3Er2Bi3O14
_chemical_formula_sum   'Tb3 Er2 Bi3 O14'
_cell_volume   317.81202209
_cell_formula_units_Z   1
loop_
 _symmetry_equiv_pos_site_id
 _symmetry_equiv_pos_as_xyz
  1  'x, y, z'
loop_
 _atom_site_type_symbol
 _atom_site_label
 _atom_site_symmetry_multiplicity
 _atom_site_fract_x
 _atom_site_fract_y
 _atom_site_fract_z
 _atom_site_occupancy
  Tb  Tb0  1  0.271672  0.536599  0.882731  1
  Tb  Tb1  1  0.736962  0.459321  0.112821  1
  Tb  Tb2  1  0.741369  0.477198  0.618028  1
  Er  Er3  1  0.461828  0.008146  0.253890  1
  Er  Er4  1  0.537493  0.998055  0.750235  1
  Bi  Bi5  1  0.994197  0.999821  0.500673  1
  Bi  Bi6  1  0.999333  0.996259  0.997803  1
  Bi  Bi7  1  0.280678  0.533378  0.387792  1
  O  O8  1  0.453421  0.656415  0.167189  1
  O  O9  1  0.554672  0.349392  0.833815  1
  O  O10  1  0.303772  0.922871  0.950489  1
  O  O11  1  0.697047  0.074576  0.050841  1
  O  O12  1  0.299330  0.933723  0.518165  1
  O  O13  1  0.696313  0.081622  0.490286  1
  O  O14  1  0.548494  0.359630  0.343147  1
  O  O15  1  0.461503  0.642707  0.658165  1
  O  O16  1  0.927578  0.661187  0.950570  1
  O  O17  1  0.069465  0.326282  0.029518  1
  O  O18  1  0.065576  0.341607  0.628353  1
  O  O19  1  0.907000  0.663086  0.380169  1
  O  O20  1  0.868242  0.901338  0.725970  1
  O  O21  1  0.124056  0.076786  0.269348  1
