# generated using pymatgen
data_Rb2Ba2USe6
_symmetry_space_group_name_H-M   'P 1'
_cell_length_a   9.13760646
_cell_length_b   9.20798762
_cell_length_c   9.13760700
_cell_angle_alpha   87.41424748
_cell_angle_beta   88.19515457
_cell_angle_gamma   87.41425548
_symmetry_Int_Tables_number   1
_chemical_formula_structural   Rb2Ba2USe6
_chemical_formula_sum   'Rb4 Ba4 U2 Se12'
_cell_volume   766.92962058
_cell_formula_units_Z   2
loop_
 _symmetry_equiv_pos_site_id
 _symmetry_equiv_pos_as_xyz
  1  'x, y, z'
loop_
 _atom_site_type_symbol
 _atom_site_label
 _atom_site_symmetry_multiplicity
 _atom_site_fract_x
 _atom_site_fract_y
 _atom_site_fract_z
 _atom_site_occupancy
  Rb  Rb0  1  0.884525  0.615997  0.250801  1
  Rb  Rb1  1  0.249199  0.884003  0.615475  1
  Rb  Rb2  1  0.244513  0.250000  0.255487  1
  Rb  Rb3  1  0.750422  0.750000  0.749578  1
  Ba  Ba4  1  0.618922  0.250000  0.881078  1
  Ba  Ba5  1  0.750167  0.121658  0.376137  1
  Ba  Ba6  1  0.378782  0.750000  0.121218  1
  Ba  Ba7  1  0.123863  0.378342  0.749833  1
  U  U8  1  0.504484  0.500612  0.501845  1
  U  U9  1  0.998155  0.999388  0.995516  1
  Se  Se10  1  0.223583  0.562604  0.433580  1
  Se  Se11  1  0.438883  0.218622  0.570085  1
  Se  Se12  1  0.564037  0.424938  0.218638  1
  Se  Se13  1  0.922620  0.072889  0.714661  1
  Se  Se14  1  0.709814  0.939749  0.064733  1
  Se  Se15  1  0.070277  0.720690  0.930547  1
  Se  Se16  1  0.785339  0.427111  0.577380  1
  Se  Se17  1  0.569453  0.779310  0.429723  1
  Se  Se18  1  0.435267  0.560251  0.790186  1
  Se  Se19  1  0.066420  0.937396  0.276417  1
  Se  Se20  1  0.281362  0.075062  0.935963  1
  Se  Se21  1  0.929915  0.281378  0.061117  1
