# generated using pymatgen
data_Tb3Y(MgIr)4
_symmetry_space_group_name_H-M   'P 1'
_cell_length_a   4.13963600
_cell_length_b   7.12075291
_cell_length_c   8.52802100
_cell_angle_alpha   90.06007376
_cell_angle_beta   90.00000000
_cell_angle_gamma   90.00000000
_symmetry_Int_Tables_number   1
_chemical_formula_structural   Tb3Y(MgIr)4
_chemical_formula_sum   'Tb3 Y1 Mg4 Ir4'
_cell_volume   251.38310939
_cell_formula_units_Z   1
loop_
 _symmetry_equiv_pos_site_id
 _symmetry_equiv_pos_as_xyz
  1  'x, y, z'
loop_
 _atom_site_type_symbol
 _atom_site_label
 _atom_site_symmetry_multiplicity
 _atom_site_fract_x
 _atom_site_fract_y
 _atom_site_fract_z
 _atom_site_occupancy
  Tb  Tb0  1  0.250000  0.539510  0.175091  1
  Tb  Tb1  1  0.750000  0.460757  0.824922  1
  Tb  Tb2  1  0.750000  0.960618  0.674866  1
  Y  Y3  1  0.250000  0.038972  0.324593  1
  Mg  Mg4  1  0.250000  0.634985  0.558440  1
  Mg  Mg5  1  0.750000  0.364050  0.441570  1
  Mg  Mg6  1  0.750000  0.865336  0.058748  1
  Mg  Mg7  1  0.250000  0.135538  0.941619  1
  Ir  Ir8  1  0.250000  0.752298  0.870175  1
  Ir  Ir9  1  0.750000  0.248884  0.129460  1
  Ir  Ir10  1  0.750000  0.747288  0.370029  1
  Ir  Ir11  1  0.250000  0.251765  0.630487  1
