# generated using pymatgen
data_Lu3In3Pt2Au
_symmetry_space_group_name_H-M   'P 1'
_cell_length_a   7.69595500
_cell_length_b   7.69595465
_cell_length_c   3.78025700
_cell_angle_alpha   90.00000000
_cell_angle_beta   90.00000000
_cell_angle_gamma   119.99998860
_symmetry_Int_Tables_number   1
_chemical_formula_structural   Lu3In3Pt2Au
_chemical_formula_sum   'Lu3 In3 Pt2 Au1'
_cell_volume   193.89965101
_cell_formula_units_Z   1
loop_
 _symmetry_equiv_pos_site_id
 _symmetry_equiv_pos_as_xyz
  1  'x, y, z'
loop_
 _atom_site_type_symbol
 _atom_site_label
 _atom_site_symmetry_multiplicity
 _atom_site_fract_x
 _atom_site_fract_y
 _atom_site_fract_z
 _atom_site_occupancy
  Lu  Lu0  1  0.014917  0.607411  0.500000  1
  Lu  Lu1  1  0.592494  0.985083  0.500000  1
  Lu  Lu2  1  0.392589  0.407506  0.500000  1
  In  In3  1  0.998233  0.263250  0.000000  1
  In  In4  1  0.265017  0.001767  0.000000  1
  In  In5  1  0.736750  0.734983  0.000000  1
  Pt  Pt6  1  0.000000  0.000000  0.500000  1
  Pt  Pt7  1  0.333333  0.666667  0.000000  1
  Au  Au8  1  0.666667  0.333333  0.000000  1
