# generated using pymatgen
data_YbErSc2(ReB6)2
_symmetry_space_group_name_H-M   'P 1'
_cell_length_a   3.56539100
_cell_length_b   9.02375246
_cell_length_c   11.36717858
_cell_angle_alpha   90.03657821
_cell_angle_beta   90.00000000
_cell_angle_gamma   90.00000000
_symmetry_Int_Tables_number   1
_chemical_formula_structural   YbErSc2(ReB6)2
_chemical_formula_sum   'Yb2 Er2 Sc4 Re4 B24'
_cell_volume   365.71850133
_cell_formula_units_Z   2
loop_
 _symmetry_equiv_pos_site_id
 _symmetry_equiv_pos_as_xyz
  1  'x, y, z'
loop_
 _atom_site_type_symbol
 _atom_site_label
 _atom_site_symmetry_multiplicity
 _atom_site_fract_x
 _atom_site_fract_y
 _atom_site_fract_z
 _atom_site_occupancy
  Yb  Yb0  1  0.000000  0.323905  0.414529  1
  Yb  Yb1  1  0.000000  0.676095  0.585471  1
  Er  Er2  1  0.000000  0.822799  0.085362  1
  Er  Er3  1  0.000000  0.177201  0.914638  1
  Sc  Sc4  1  0.000000  0.943726  0.367569  1
  Sc  Sc5  1  0.000000  0.056274  0.632431  1
  Sc  Sc6  1  0.000000  0.444953  0.130836  1
  Sc  Sc7  1  0.000000  0.555047  0.869164  1
  Re  Re8  1  0.000000  0.644488  0.317330  1
  Re  Re9  1  0.000000  0.355512  0.682670  1
  Re  Re10  1  0.000000  0.141387  0.181881  1
  Re  Re11  1  0.000000  0.858613  0.818119  1
  B  B12  1  0.500000  0.554466  0.432284  1
  B  B13  1  0.500000  0.445534  0.567716  1
  B  B14  1  0.500000  0.054569  0.066813  1
  B  B15  1  0.500000  0.945431  0.933187  1
  B  B16  1  0.500000  0.754772  0.418732  1
  B  B17  1  0.500000  0.245228  0.581268  1
  B  B18  1  0.500000  0.254621  0.081224  1
  B  B19  1  0.500000  0.745379  0.918776  1
  B  B20  1  0.500000  0.796706  0.263392  1
  B  B21  1  0.500000  0.203294  0.736608  1
  B  B22  1  0.500000  0.296385  0.235747  1
  B  B23  1  0.500000  0.703615  0.764253  1
  B  B24  1  0.500000  0.630137  0.182077  1
  B  B25  1  0.500000  0.369863  0.817923  1
  B  B26  1  0.500000  0.130290  0.317513  1
  B  B27  1  0.500000  0.869710  0.682487  1
  B  B28  1  0.500000  0.982049  0.213003  1
  B  B29  1  0.500000  0.017951  0.786997  1
  B  B30  1  0.500000  0.482269  0.286553  1
  B  B31  1  0.500000  0.517731  0.713447  1
  B  B32  1  0.500000  0.594929  0.025669  1
  B  B33  1  0.500000  0.405071  0.974331  1
  B  B34  1  0.500000  0.092385  0.474923  1
  B  B35  1  0.500000  0.907615  0.525077  1
