# generated using pymatgen
data_HoEr3Ti3GaIr4
_symmetry_space_group_name_H-M   'P 1'
_cell_length_a   4.32184900
_cell_length_b   6.90194718
_cell_length_c   7.95330007
_cell_angle_alpha   92.56687647
_cell_angle_beta   90.00000000
_cell_angle_gamma   90.00000000
_symmetry_Int_Tables_number   1
_chemical_formula_structural   HoEr3Ti3GaIr4
_chemical_formula_sum   'Ho1 Er3 Ti3 Ga1 Ir4'
_cell_volume   237.00232747
_cell_formula_units_Z   1
loop_
 _symmetry_equiv_pos_site_id
 _symmetry_equiv_pos_as_xyz
  1  'x, y, z'
loop_
 _atom_site_type_symbol
 _atom_site_label
 _atom_site_symmetry_multiplicity
 _atom_site_fract_x
 _atom_site_fract_y
 _atom_site_fract_z
 _atom_site_occupancy
  Ho  Ho0  1  0.250000  0.981375  0.314415  1
  Er  Er1  1  0.250000  0.471922  0.172601  1
  Er  Er2  1  0.750000  0.027855  0.688391  1
  Er  Er3  1  0.750000  0.511565  0.824636  1
  Ti  Ti4  1  0.250000  0.364486  0.570408  1
  Ti  Ti5  1  0.250000  0.863302  0.938887  1
  Ti  Ti6  1  0.750000  0.635835  0.430687  1
  Ga  Ga7  1  0.750000  0.148112  0.071736  1
  Ir  Ir8  1  0.250000  0.224157  0.875621  1
  Ir  Ir9  1  0.250000  0.726658  0.600748  1
  Ir  Ir10  1  0.750000  0.768304  0.110984  1
  Ir  Ir11  1  0.750000  0.276429  0.400886  1
