# generated using pymatgen
data_CaHo9(In2Pt)4
_symmetry_space_group_name_H-M   'P 1'
_cell_length_a   3.65135900
_cell_length_b   8.12921701
_cell_length_c   18.20907649
_cell_angle_alpha   89.91949204
_cell_angle_beta   90.00000000
_cell_angle_gamma   90.00000000
_symmetry_Int_Tables_number   1
_chemical_formula_structural   CaHo9(In2Pt)4
_chemical_formula_sum   'Ca1 Ho9 In8 Pt4'
_cell_volume   540.49383334
_cell_formula_units_Z   1
loop_
 _symmetry_equiv_pos_site_id
 _symmetry_equiv_pos_as_xyz
  1  'x, y, z'
loop_
 _atom_site_type_symbol
 _atom_site_label
 _atom_site_symmetry_multiplicity
 _atom_site_fract_x
 _atom_site_fract_y
 _atom_site_fract_z
 _atom_site_occupancy
  Ca  Ca0  1  0.000000  0.000000  0.000000  1
  Ho  Ho1  1  0.000000  0.117079  0.413801  1
  Ho  Ho2  1  0.000000  0.882921  0.586199  1
  Ho  Ho3  1  0.000000  0.382788  0.913944  1
  Ho  Ho4  1  0.000000  0.617212  0.086056  1
  Ho  Ho5  1  0.000000  0.243456  0.220419  1
  Ho  Ho6  1  0.000000  0.756544  0.779581  1
  Ho  Ho7  1  0.000000  0.256776  0.720546  1
  Ho  Ho8  1  0.000000  0.743224  0.279454  1
  Ho  Ho9  1  0.000000  0.500000  0.500000  1
  In  In10  1  0.500000  0.424377  0.351353  1
  In  In11  1  0.500000  0.575623  0.648647  1
  In  In12  1  0.500000  0.075488  0.850961  1
  In  In13  1  0.500000  0.924512  0.149039  1
  In  In14  1  0.500000  0.293539  0.066967  1
  In  In15  1  0.500000  0.706461  0.933033  1
  In  In16  1  0.500000  0.208338  0.566503  1
  In  In17  1  0.500000  0.791662  0.433497  1
  Pt  Pt18  1  0.500000  0.024608  0.303799  1
  Pt  Pt19  1  0.500000  0.975392  0.696201  1
  Pt  Pt20  1  0.500000  0.476422  0.803319  1
  Pt  Pt21  1  0.500000  0.523578  0.196681  1
