# generated using pymatgen
data_Li2Mo3P7Rh9
_symmetry_space_group_name_H-M   'P 1'
_cell_length_a   9.44928300
_cell_length_b   9.44928351
_cell_length_c   3.90848700
_cell_angle_alpha   90.00000000
_cell_angle_beta   90.00000000
_cell_angle_gamma   119.99999472
_symmetry_Int_Tables_number   1
_chemical_formula_structural   Li2Mo3P7Rh9
_chemical_formula_sum   'Li2 Mo3 P7 Rh9'
_cell_volume   302.22964564
_cell_formula_units_Z   1
loop_
 _symmetry_equiv_pos_site_id
 _symmetry_equiv_pos_as_xyz
  1  'x, y, z'
loop_
 _atom_site_type_symbol
 _atom_site_label
 _atom_site_symmetry_multiplicity
 _atom_site_fract_x
 _atom_site_fract_y
 _atom_site_fract_z
 _atom_site_occupancy
  Li  Li0  1  0.000000  0.000000  0.764877  1
  Li  Li1  1  0.333333  0.666667  0.263396  1
  Mo  Mo2  1  0.792390  0.548015  0.763781  1
  Mo  Mo3  1  0.451985  0.244375  0.763781  1
  Mo  Mo4  1  0.755625  0.207610  0.763781  1
  P  P5  1  0.666667  0.333333  0.263758  1
  P  P6  1  0.073670  0.618980  0.763772  1
  P  P7  1  0.381020  0.454691  0.763772  1
  P  P8  1  0.545309  0.926330  0.763772  1
  P  P9  1  0.248313  0.036528  0.263771  1
  P  P10  1  0.963472  0.211785  0.263771  1
  P  P11  1  0.788215  0.751687  0.263771  1
  Rh  Rh12  1  0.503961  0.057434  0.263772  1
  Rh  Rh13  1  0.942566  0.446527  0.263772  1
  Rh  Rh14  1  0.553473  0.496039  0.263772  1
  Rh  Rh15  1  0.107039  0.381855  0.763767  1
  Rh  Rh16  1  0.618145  0.725184  0.763767  1
  Rh  Rh17  1  0.274816  0.892961  0.763767  1
  Rh  Rh18  1  0.230985  0.266710  0.263771  1
  Rh  Rh19  1  0.733290  0.964275  0.263771  1
  Rh  Rh20  1  0.035725  0.769015  0.263771  1
