# generated using pymatgen
data_CaFe2(Sb6Ir)2
_symmetry_space_group_name_H-M   'P 1'
_cell_length_a   8.07698650
_cell_length_b   8.05644639
_cell_length_c   8.07698723
_cell_angle_alpha   109.44183894
_cell_angle_beta   109.62444663
_cell_angle_gamma   109.45036455
_symmetry_Int_Tables_number   1
_chemical_formula_structural   CaFe2(Sb6Ir)2
_chemical_formula_sum   'Ca1 Fe2 Sb12 Ir2'
_cell_volume   404.07883744
_cell_formula_units_Z   1
loop_
 _symmetry_equiv_pos_site_id
 _symmetry_equiv_pos_as_xyz
  1  'x, y, z'
loop_
 _atom_site_type_symbol
 _atom_site_label
 _atom_site_symmetry_multiplicity
 _atom_site_fract_x
 _atom_site_fract_y
 _atom_site_fract_z
 _atom_site_occupancy
  Ca  Ca0  1  0.000000  0.000000  0.000000  1
  Fe  Fe1  1  0.000000  0.000000  0.500000  1
  Fe  Fe2  1  0.500000  0.000000  0.000000  1
  Sb  Sb3  1  0.331269  0.168743  0.837474  1
  Sb  Sb4  1  0.151281  0.330014  0.496073  1
  Sb  Sb5  1  0.668731  0.831257  0.162526  1
  Sb  Sb6  1  0.344059  0.497901  0.153842  1
  Sb  Sb7  1  0.655941  0.502099  0.846158  1
  Sb  Sb8  1  0.504464  0.848769  0.670036  1
  Sb  Sb9  1  0.848719  0.669986  0.503927  1
  Sb  Sb10  1  0.833941  0.330014  0.178733  1
  Sb  Sb11  1  0.178732  0.848769  0.344305  1
  Sb  Sb12  1  0.495536  0.151231  0.329964  1
  Sb  Sb13  1  0.821268  0.151231  0.655695  1
  Sb  Sb14  1  0.166059  0.669986  0.821267  1
  Ir  Ir15  1  0.500000  0.500000  0.500000  1
  Ir  Ir16  1  0.000000  0.500000  0.000000  1
