# generated using pymatgen
data_Er3ThTlOs
_symmetry_space_group_name_H-M   'P 1'
_cell_length_a   9.73917392
_cell_length_b   9.73917367
_cell_length_c   9.73917400
_cell_angle_alpha   59.99999889
_cell_angle_beta   59.99999972
_cell_angle_gamma   60.00000094
_symmetry_Int_Tables_number   1
_chemical_formula_structural   Er3ThTlOs
_chemical_formula_sum   'Er12 Th4 Tl4 Os4'
_cell_volume   653.20779301
_cell_formula_units_Z   4
loop_
 _symmetry_equiv_pos_site_id
 _symmetry_equiv_pos_as_xyz
  1  'x, y, z'
loop_
 _atom_site_type_symbol
 _atom_site_label
 _atom_site_symmetry_multiplicity
 _atom_site_fract_x
 _atom_site_fract_y
 _atom_site_fract_z
 _atom_site_occupancy
  Er  Er0  1  0.812537  0.187463  0.187463  1
  Er  Er1  1  0.187463  0.812537  0.812537  1
  Er  Er2  1  0.187463  0.812537  0.187463  1
  Er  Er3  1  0.812537  0.187463  0.812537  1
  Er  Er4  1  0.187463  0.187463  0.812537  1
  Er  Er5  1  0.812537  0.812537  0.187463  1
  Er  Er6  1  0.939456  0.560544  0.560544  1
  Er  Er7  1  0.560544  0.939456  0.939456  1
  Er  Er8  1  0.560544  0.939456  0.560544  1
  Er  Er9  1  0.939456  0.560544  0.939456  1
  Er  Er10  1  0.560544  0.560544  0.939456  1
  Er  Er11  1  0.939456  0.939456  0.560544  1
  Th  Th12  1  0.348081  0.348081  0.348081  1
  Th  Th13  1  0.348081  0.348081  0.955754  1
  Th  Th14  1  0.348081  0.955754  0.348081  1
  Th  Th15  1  0.955754  0.348081  0.348081  1
  Tl  Tl16  1  0.587035  0.587035  0.587035  1
  Tl  Tl17  1  0.587035  0.587035  0.238891  1
  Tl  Tl18  1  0.587035  0.238891  0.587035  1
  Tl  Tl19  1  0.238891  0.587035  0.587035  1
  Os  Os20  1  0.142189  0.142189  0.142189  1
  Os  Os21  1  0.142189  0.142189  0.573433  1
  Os  Os22  1  0.142189  0.573433  0.142189  1
  Os  Os23  1  0.573433  0.142189  0.142189  1
