# generated using pymatgen
data_YTh3(InPt2)2
_symmetry_space_group_name_H-M   'P 1'
_cell_length_a   7.97366482
_cell_length_b   7.97366482
_cell_length_c   3.77623500
_cell_angle_alpha   90.00000000
_cell_angle_beta   90.00000000
_cell_angle_gamma   90.40506900
_symmetry_Int_Tables_number   1
_chemical_formula_structural   YTh3(InPt2)2
_chemical_formula_sum   'Y1 Th3 In2 Pt4'
_cell_volume   240.08449350
_cell_formula_units_Z   1
loop_
 _symmetry_equiv_pos_site_id
 _symmetry_equiv_pos_as_xyz
  1  'x, y, z'
loop_
 _atom_site_type_symbol
 _atom_site_label
 _atom_site_symmetry_multiplicity
 _atom_site_fract_x
 _atom_site_fract_y
 _atom_site_fract_z
 _atom_site_occupancy
  Y  Y0  1  0.673207  0.826792  0.500001  1
  Th  Th1  1  0.331621  0.168379  0.500001  1
  Th  Th2  1  0.826127  0.330381  0.500001  1
  Th  Th3  1  0.169619  0.673872  0.500001  1
  In  In4  1  0.993101  0.997811  0.000000  1
  In  In5  1  0.502190  0.506900  0.000000  1
  Pt  Pt6  1  0.629326  0.131659  0.000000  1
  Pt  Pt7  1  0.133402  0.366597  0.000000  1
  Pt  Pt8  1  0.873064  0.626936  0.000000  1
  Pt  Pt9  1  0.368340  0.870674  0.000000  1
