# generated using pymatgen
data_Ho8Er4Os3Pt
_symmetry_space_group_name_H-M   'P 1'
_cell_length_a   6.37928002
_cell_length_b   7.33257169
_cell_length_c   9.00353901
_cell_angle_alpha   89.99646762
_cell_angle_beta   90.00251730
_cell_angle_gamma   90.16440457
_symmetry_Int_Tables_number   1
_chemical_formula_structural   Ho8Er4Os3Pt
_chemical_formula_sum   'Ho8 Er4 Os3 Pt1'
_cell_volume   421.15255970
_cell_formula_units_Z   1
loop_
 _symmetry_equiv_pos_site_id
 _symmetry_equiv_pos_as_xyz
  1  'x, y, z'
loop_
 _atom_site_type_symbol
 _atom_site_label
 _atom_site_symmetry_multiplicity
 _atom_site_fract_x
 _atom_site_fract_y
 _atom_site_fract_z
 _atom_site_occupancy
  Ho  Ho0  1  0.335781  0.671697  0.059034  1
  Ho  Ho1  1  0.171157  0.181650  0.441259  1
  Ho  Ho2  1  0.669953  0.323814  0.562477  1
  Ho  Ho3  1  0.825172  0.823498  0.933670  1
  Ho  Ho4  1  0.873536  0.533527  0.250030  1
  Ho  Ho5  1  0.623781  0.038822  0.249991  1
  Ho  Ho6  1  0.124817  0.462722  0.750028  1
  Ho  Ho7  1  0.370219  0.963085  0.749989  1
  Er  Er8  1  0.669945  0.323813  0.937546  1
  Er  Er9  1  0.825201  0.823478  0.566254  1
  Er  Er10  1  0.335762  0.671698  0.440990  1
  Er  Er11  1  0.171204  0.181586  0.058701  1
  Os  Os12  1  0.461514  0.384271  0.249945  1
  Os  Os13  1  0.964360  0.114830  0.750086  1
  Os  Os14  1  0.533730  0.615319  0.749951  1
  Pt  Pt15  1  0.043868  0.886189  0.250050  1
