# generated using pymatgen
data_Hf18MnRe8Pd
_symmetry_space_group_name_H-M   'P 1'
_cell_length_a   8.59328300
_cell_length_b   8.59328292
_cell_length_c   8.54880400
_cell_angle_alpha   90.00000000
_cell_angle_beta   90.00000000
_cell_angle_gamma   120.00000415
_symmetry_Int_Tables_number   1
_chemical_formula_structural   Hf18MnRe8Pd
_chemical_formula_sum   'Hf18 Mn1 Re8 Pd1'
_cell_volume   546.70645115
_cell_formula_units_Z   1
loop_
 _symmetry_equiv_pos_site_id
 _symmetry_equiv_pos_as_xyz
  1  'x, y, z'
loop_
 _atom_site_type_symbol
 _atom_site_label
 _atom_site_symmetry_multiplicity
 _atom_site_fract_x
 _atom_site_fract_y
 _atom_site_fract_z
 _atom_site_occupancy
  Hf  Hf0  1  0.200903  0.799097  0.442080  1
  Hf  Hf1  1  0.200903  0.401803  0.442080  1
  Hf  Hf2  1  0.598197  0.799097  0.442080  1
  Hf  Hf3  1  0.806565  0.193435  0.552165  1
  Hf  Hf4  1  0.806565  0.613132  0.552165  1
  Hf  Hf5  1  0.386868  0.193435  0.552165  1
  Hf  Hf6  1  0.806565  0.193435  0.947835  1
  Hf  Hf7  1  0.806565  0.613132  0.947835  1
  Hf  Hf8  1  0.386868  0.193435  0.947835  1
  Hf  Hf9  1  0.200903  0.799097  0.057920  1
  Hf  Hf10  1  0.200903  0.401803  0.057920  1
  Hf  Hf11  1  0.598197  0.799097  0.057920  1
  Hf  Hf12  1  0.539869  0.460131  0.250000  1
  Hf  Hf13  1  0.539869  0.079739  0.250000  1
  Hf  Hf14  1  0.920261  0.460131  0.250000  1
  Hf  Hf15  1  0.457742  0.542258  0.750000  1
  Hf  Hf16  1  0.457742  0.915484  0.750000  1
  Hf  Hf17  1  0.084516  0.542258  0.750000  1
  Mn  Mn18  1  0.333333  0.666667  0.250000  1
  Re  Re19  1  0.889896  0.110104  0.250000  1
  Re  Re20  1  0.889896  0.779791  0.250000  1
  Re  Re21  1  0.220209  0.110104  0.250000  1
  Re  Re22  1  0.111155  0.888845  0.750000  1
  Re  Re23  1  0.111155  0.222310  0.750000  1
  Re  Re24  1  0.777690  0.888845  0.750000  1
  Re  Re25  1  0.000000  0.000000  0.500407  1
  Re  Re26  1  0.000000  0.000000  0.999593  1
  Pd  Pd27  1  0.666667  0.333333  0.750000  1
