# generated using pymatgen
data_Ta12Ir3Pt
_symmetry_space_group_name_H-M   'P 1'
_cell_length_a   5.17802700
_cell_length_b   5.18067800
_cell_length_c   10.35636800
_cell_angle_alpha   90.00000000
_cell_angle_beta   90.00000000
_cell_angle_gamma   90.00000000
_symmetry_Int_Tables_number   1
_chemical_formula_structural   Ta12Ir3Pt
_chemical_formula_sum   'Ta12 Ir3 Pt1'
_cell_volume   277.81672332
_cell_formula_units_Z   1
loop_
 _symmetry_equiv_pos_site_id
 _symmetry_equiv_pos_as_xyz
  1  'x, y, z'
loop_
 _atom_site_type_symbol
 _atom_site_label
 _atom_site_symmetry_multiplicity
 _atom_site_fract_x
 _atom_site_fract_y
 _atom_site_fract_z
 _atom_site_occupancy
  Ta  Ta0  1  0.000000  0.500000  0.374482  1
  Ta  Ta1  1  0.000000  0.500000  0.875105  1
  Ta  Ta2  1  0.500000  0.249785  0.000000  1
  Ta  Ta3  1  0.500000  0.251118  0.500000  1
  Ta  Ta4  1  0.749633  0.000000  0.248688  1
  Ta  Ta5  1  0.749633  0.000000  0.751312  1
  Ta  Ta6  1  0.000000  0.500000  0.124895  1
  Ta  Ta7  1  0.000000  0.500000  0.625518  1
  Ta  Ta8  1  0.500000  0.750215  0.000000  1
  Ta  Ta9  1  0.500000  0.748882  0.500000  1
  Ta  Ta10  1  0.250367  0.000000  0.248688  1
  Ta  Ta11  1  0.250367  0.000000  0.751312  1
  Ir  Ir12  1  0.500000  0.500000  0.249806  1
  Ir  Ir13  1  0.500000  0.500000  0.750194  1
  Ir  Ir14  1  0.000000  0.000000  0.000000  1
  Pt  Pt15  1  0.000000  0.000000  0.500000  1
