# generated using pymatgen
data_TmVCo3P3Rh
_symmetry_space_group_name_H-M   'P 1'
_cell_length_a   3.67438800
_cell_length_b   10.46367900
_cell_length_c   12.00004000
_cell_angle_alpha   90.00000000
_cell_angle_beta   90.00000000
_cell_angle_gamma   90.00000000
_symmetry_Int_Tables_number   1
_chemical_formula_structural   TmVCo3P3Rh
_chemical_formula_sum   'Tm4 V4 Co12 P12 Rh4'
_cell_volume   461.37293655
_cell_formula_units_Z   4
loop_
 _symmetry_equiv_pos_site_id
 _symmetry_equiv_pos_as_xyz
  1  'x, y, z'
loop_
 _atom_site_type_symbol
 _atom_site_label
 _atom_site_symmetry_multiplicity
 _atom_site_fract_x
 _atom_site_fract_y
 _atom_site_fract_z
 _atom_site_occupancy
  Tm  Tm0  1  0.250000  0.582792  0.708978  1
  Tm  Tm1  1  0.250000  0.917208  0.208978  1
  Tm  Tm2  1  0.750000  0.417208  0.291022  1
  Tm  Tm3  1  0.750000  0.082792  0.791022  1
  V  V4  1  0.250000  0.702829  0.986853  1
  V  V5  1  0.250000  0.797171  0.486853  1
  V  V6  1  0.750000  0.297171  0.013147  1
  V  V7  1  0.750000  0.202829  0.513147  1
  Co  Co8  1  0.250000  0.223438  0.180449  1
  Co  Co9  1  0.250000  0.276562  0.680449  1
  Co  Co10  1  0.750000  0.776562  0.819551  1
  Co  Co11  1  0.750000  0.723438  0.319551  1
  Co  Co12  1  0.250000  0.885970  0.695778  1
  Co  Co13  1  0.250000  0.614030  0.195778  1
  Co  Co14  1  0.750000  0.114030  0.304222  1
  Co  Co15  1  0.750000  0.385970  0.804222  1
  Co  Co16  1  0.250000  0.466245  0.934619  1
  Co  Co17  1  0.250000  0.033755  0.434619  1
  Co  Co18  1  0.750000  0.533755  0.065381  1
  Co  Co19  1  0.750000  0.966245  0.565381  1
  P  P20  1  0.250000  0.418912  0.114185  1
  P  P21  1  0.250000  0.081088  0.614185  1
  P  P22  1  0.750000  0.581088  0.885815  1
  P  P23  1  0.750000  0.918912  0.385815  1
  P  P24  1  0.250000  0.273291  0.864470  1
  P  P25  1  0.250000  0.226709  0.364470  1
  P  P26  1  0.750000  0.726709  0.135530  1
  P  P27  1  0.750000  0.773291  0.635530  1
  P  P28  1  0.250000  0.604206  0.381498  1
  P  P29  1  0.250000  0.895794  0.881498  1
  P  P30  1  0.750000  0.395794  0.618502  1
  P  P31  1  0.750000  0.104206  0.118502  1
  Rh  Rh32  1  0.250000  0.402190  0.485040  1
  Rh  Rh33  1  0.250000  0.097810  0.985040  1
  Rh  Rh34  1  0.750000  0.597810  0.514960  1
  Rh  Rh35  1  0.750000  0.902190  0.014960  1
