# generated using pymatgen
data_Dy8Se15
_symmetry_space_group_name_H-M   'P 1'
_cell_length_a   11.63657948
_cell_length_b   11.63657954
_cell_length_c   12.18036500
_cell_angle_alpha   89.97109750
_cell_angle_beta   89.97109750
_cell_angle_gamma   91.70004131
_symmetry_Int_Tables_number   1
_chemical_formula_structural   Dy8Se15
_chemical_formula_sum   'Dy24 Se45'
_cell_volume   1648.61660495
_cell_formula_units_Z   3
loop_
 _symmetry_equiv_pos_site_id
 _symmetry_equiv_pos_as_xyz
  1  'x, y, z'
loop_
 _atom_site_type_symbol
 _atom_site_label
 _atom_site_symmetry_multiplicity
 _atom_site_fract_x
 _atom_site_fract_y
 _atom_site_fract_z
 _atom_site_occupancy
  Dy  Dy0  1  0.841745  0.158255  0.000000  1
  Dy  Dy1  1  0.495252  0.246968  0.168373  1
  Dy  Dy2  1  0.753032  0.504748  0.831627  1
  Dy  Dy3  1  0.494649  0.245582  0.829595  1
  Dy  Dy4  1  0.754418  0.505351  0.170405  1
  Dy  Dy5  1  0.013265  0.743017  0.165686  1
  Dy  Dy6  1  0.256983  0.986735  0.834314  1
  Dy  Dy7  1  0.013272  0.743001  0.834066  1
  Dy  Dy8  1  0.256999  0.986728  0.165934  1
  Dy  Dy9  1  0.609386  0.884662  0.669418  1
  Dy  Dy10  1  0.115338  0.390614  0.330582  1
  Dy  Dy11  1  0.611234  0.885375  0.331827  1
  Dy  Dy12  1  0.114625  0.388766  0.668173  1
  Dy  Dy13  1  0.371651  0.628349  0.000000  1
  Dy  Dy14  1  0.995250  0.749140  0.499553  1
  Dy  Dy15  1  0.250860  0.004750  0.500447  1
  Dy  Dy16  1  0.859984  0.140219  0.332548  1
  Dy  Dy17  1  0.859781  0.140016  0.667452  1
  Dy  Dy18  1  0.607023  0.894052  0.000087  1
  Dy  Dy19  1  0.105948  0.392977  0.999913  1
  Dy  Dy20  1  0.514394  0.235992  0.498558  1
  Dy  Dy21  1  0.764008  0.485606  0.501442  1
  Dy  Dy22  1  0.353153  0.648684  0.334196  1
  Dy  Dy23  1  0.351316  0.646847  0.665804  1
  Se  Se24  1  0.764660  0.776214  0.841809  1
  Se  Se25  1  0.223786  0.235340  0.158191  1
  Se  Se26  1  0.764329  0.776160  0.158163  1
  Se  Se27  1  0.223840  0.235671  0.841837  1
  Se  Se28  1  0.496686  0.507417  0.190159  1
  Se  Se29  1  0.492583  0.503314  0.809841  1
  Se  Se30  1  0.429596  0.068105  0.666254  1
  Se  Se31  1  0.931895  0.570404  0.333746  1
  Se  Se32  1  0.430063  0.068220  0.333077  1
  Se  Se33  1  0.931780  0.569937  0.666923  1
  Se  Se34  1  0.869384  0.883355  0.314232  1
  Se  Se35  1  0.116645  0.130616  0.685768  1
  Se  Se36  1  0.868590  0.882848  0.684871  1
  Se  Se37  1  0.117152  0.131410  0.315129  1
  Se  Se38  1  0.688432  0.057722  0.500089  1
  Se  Se39  1  0.942278  0.311568  0.499911  1
  Se  Se40  1  0.175495  0.824747  0.333884  1
  Se  Se41  1  0.175253  0.824505  0.666116  1
  Se  Se42  1  0.681503  0.319594  0.335232  1
  Se  Se43  1  0.680406  0.318497  0.664768  1
  Se  Se44  1  0.424454  0.069018  0.999878  1
  Se  Se45  1  0.930982  0.575546  0.000122  1
  Se  Se46  1  0.182613  0.570284  0.499301  1
  Se  Se47  1  0.429716  0.817387  0.500699  1
  Se  Se48  1  0.667960  0.332040  0.000000  1
  Se  Se49  1  0.263426  0.272497  0.497183  1
  Se  Se50  1  0.727503  0.736574  0.502817  1
  Se  Se51  1  0.682358  0.068678  0.164675  1
  Se  Se52  1  0.931322  0.317642  0.835325  1
  Se  Se53  1  0.682357  0.068348  0.835290  1
  Se  Se54  1  0.931652  0.317643  0.164710  1
  Se  Se55  1  0.358260  0.368078  0.999239  1
  Se  Se56  1  0.631922  0.641740  0.000761  1
  Se  Se57  1  0.188573  0.561907  0.166654  1
  Se  Se58  1  0.438093  0.811427  0.833346  1
  Se  Se59  1  0.187700  0.561118  0.832651  1
  Se  Se60  1  0.438882  0.812300  0.167349  1
  Se  Se61  1  0.993461  0.006539  0.500000  1
  Se  Se62  1  0.194875  0.805125  0.000000  1
  Se  Se63  1  0.383260  0.392372  0.344720  1
  Se  Se64  1  0.607628  0.616740  0.655280  1
  Se  Se65  1  0.377693  0.388004  0.647678  1
  Se  Se66  1  0.611996  0.622307  0.352322  1
  Se  Se67  1  0.007231  0.994179  0.898676  1
  Se  Se68  1  0.005821  0.992769  0.101324  1
