# generated using pymatgen
data_Dy19Ho(BiPb3)4
_symmetry_space_group_name_H-M   'P 1'
_cell_length_a   8.28044925
_cell_length_b   15.59996517
_cell_length_c   8.29449702
_cell_angle_alpha   90.00753503
_cell_angle_beta   90.01416785
_cell_angle_gamma   89.98488764
_symmetry_Int_Tables_number   1
_chemical_formula_structural   Dy19Ho(BiPb3)4
_chemical_formula_sum   'Dy19 Ho1 Bi4 Pb12'
_cell_volume   1071.43925104
_cell_formula_units_Z   1
loop_
 _symmetry_equiv_pos_site_id
 _symmetry_equiv_pos_as_xyz
  1  'x, y, z'
loop_
 _atom_site_type_symbol
 _atom_site_label
 _atom_site_symmetry_multiplicity
 _atom_site_fract_x
 _atom_site_fract_y
 _atom_site_fract_z
 _atom_site_occupancy
  Dy  Dy0  1  0.619074  0.622333  0.158123  1
  Dy  Dy1  1  0.118854  0.877563  0.341824  1
  Dy  Dy2  1  0.381094  0.122397  0.842046  1
  Dy  Dy3  1  0.880681  0.377493  0.658125  1
  Dy  Dy4  1  0.375041  0.378338  0.840687  1
  Dy  Dy5  1  0.875071  0.121672  0.659397  1
  Dy  Dy6  1  0.624784  0.878456  0.159337  1
  Dy  Dy7  1  0.125026  0.621636  0.340672  1
  Dy  Dy8  1  0.450274  0.605145  0.670414  1
  Dy  Dy9  1  0.950085  0.894835  0.829613  1
  Dy  Dy10  1  0.549971  0.105251  0.329547  1
  Dy  Dy11  1  0.049749  0.394863  0.170333  1
  Dy  Dy12  1  0.535797  0.397118  0.328290  1
  Dy  Dy13  1  0.035896  0.103026  0.171698  1
  Dy  Dy14  1  0.464087  0.897038  0.671641  1
  Dy  Dy15  1  0.964264  0.602819  0.828159  1
  Dy  Dy16  1  0.790318  0.752259  0.499056  1
  Dy  Dy17  1  0.290274  0.747709  0.001020  1
  Dy  Dy18  1  0.209690  0.252246  0.500754  1
  Ho  Ho19  1  0.709850  0.247697  0.998793  1
  Bi  Bi20  1  0.724076  0.454906  0.973444  1
  Bi  Bi21  1  0.224229  0.044869  0.526589  1
  Bi  Bi22  1  0.275711  0.955153  0.026556  1
  Bi  Bi23  1  0.775887  0.544815  0.473377  1
  Pb  Pb24  1  0.280285  0.543169  0.030941  1
  Pb  Pb25  1  0.780086  0.956734  0.469152  1
  Pb  Pb26  1  0.720189  0.043462  0.969543  1
  Pb  Pb27  1  0.219434  0.456728  0.530988  1
  Pb  Pb28  1  0.428045  0.751482  0.372683  1
  Pb  Pb29  1  0.927819  0.748572  0.127148  1
  Pb  Pb30  1  0.572134  0.251207  0.627785  1
  Pb  Pb31  1  0.071648  0.248699  0.872943  1
  Pb  Pb32  1  0.648180  0.748800  0.848525  1
  Pb  Pb33  1  0.148356  0.751060  0.651644  1
  Pb  Pb34  1  0.352489  0.249034  0.151341  1
  Pb  Pb35  1  0.851555  0.251416  0.347811  1
