# generated using pymatgen
data_Nd4Ga18(PdRh)3
_symmetry_space_group_name_H-M   'P 1'
_cell_length_a   7.68929030
_cell_length_b   7.68933154
_cell_length_c   9.65171613
_cell_angle_alpha   89.97426740
_cell_angle_beta   89.97562656
_cell_angle_gamma   119.63735313
_symmetry_Int_Tables_number   1
_chemical_formula_structural   Nd4Ga18(PdRh)3
_chemical_formula_sum   'Nd4 Ga18 Pd3 Rh3'
_cell_volume   496.00415045
_cell_formula_units_Z   1
loop_
 _symmetry_equiv_pos_site_id
 _symmetry_equiv_pos_as_xyz
  1  'x, y, z'
loop_
 _atom_site_type_symbol
 _atom_site_label
 _atom_site_symmetry_multiplicity
 _atom_site_fract_x
 _atom_site_fract_y
 _atom_site_fract_z
 _atom_site_occupancy
  Nd  Nd0  1  0.995850  0.670445  0.749384  1
  Nd  Nd1  1  0.001273  0.327132  0.250899  1
  Nd  Nd2  1  0.672856  0.998765  0.749089  1
  Nd  Nd3  1  0.329570  0.004201  0.250612  1
  Ga  Ga4  1  0.135318  0.133514  0.750577  1
  Ga  Ga5  1  0.866640  0.864852  0.249393  1
  Ga  Ga6  1  0.006538  0.338733  0.579530  1
  Ga  Ga7  1  0.001570  0.664923  0.421153  1
  Ga  Ga8  1  0.999424  0.661447  0.076786  1
  Ga  Ga9  1  0.338573  0.000547  0.923139  1
  Ga  Ga10  1  0.001011  0.338818  0.922879  1
  Ga  Ga11  1  0.661210  0.998943  0.077062  1
  Ga  Ga12  1  0.661284  0.993454  0.420475  1
  Ga  Ga13  1  0.335062  0.998359  0.578872  1
  Ga  Ga14  1  0.336465  0.336881  0.059687  1
  Ga  Ga15  1  0.663168  0.663608  0.940231  1
  Ga  Ga16  1  0.661754  0.664602  0.563349  1
  Ga  Ga17  1  0.335428  0.338257  0.436708  1
  Ga  Ga18  1  0.339677  0.548273  0.750609  1
  Ga  Ga19  1  0.661508  0.456135  0.246740  1
  Ga  Ga20  1  0.543698  0.338444  0.753357  1
  Ga  Ga21  1  0.451586  0.660252  0.249380  1
  Pd  Pd22  1  0.671036  0.328962  0.500029  1
  Pd  Pd23  1  0.000048  0.999920  0.499994  1
  Pd  Pd24  1  0.999681  0.000289  0.999993  1
  Rh  Rh25  1  0.329738  0.670251  0.499955  1
  Rh  Rh26  1  0.329296  0.670702  0.000045  1
  Rh  Rh27  1  0.670739  0.329293  0.000074  1
