# generated using pymatgen
data_Hf8In4IrPd3Pt4
_symmetry_space_group_name_H-M   'P 1'
_cell_length_a   7.58182407
_cell_length_b   7.58133365
_cell_length_c   6.70783543
_cell_angle_alpha   90.13937419
_cell_angle_beta   90.23137763
_cell_angle_gamma   90.08418709
_symmetry_Int_Tables_number   1
_chemical_formula_structural   Hf8In4IrPd3Pt4
_chemical_formula_sum   'Hf8 In4 Ir1 Pd3 Pt4'
_cell_volume   385.56394087
_cell_formula_units_Z   1
loop_
 _symmetry_equiv_pos_site_id
 _symmetry_equiv_pos_as_xyz
  1  'x, y, z'
loop_
 _atom_site_type_symbol
 _atom_site_label
 _atom_site_symmetry_multiplicity
 _atom_site_fract_x
 _atom_site_fract_y
 _atom_site_fract_z
 _atom_site_occupancy
  Hf  Hf0  1  0.156148  0.159326  0.007179  1
  Hf  Hf1  1  0.847243  0.850853  0.998234  1
  Hf  Hf2  1  0.649430  0.342532  0.496551  1
  Hf  Hf3  1  0.344179  0.647140  0.494239  1
  Hf  Hf4  1  0.675358  0.318842  0.002631  1
  Hf  Hf5  1  0.319996  0.673217  0.004076  1
  Hf  Hf6  1  0.820398  0.822611  0.500800  1
  Hf  Hf7  1  0.181463  0.183033  0.495102  1
  In  In8  1  0.499825  0.998561  0.249458  1
  In  In9  1  0.496468  0.999115  0.750165  1
  In  In10  1  0.997808  0.501134  0.249402  1
  In  In11  1  0.000262  0.501261  0.750132  1
  Ir  Ir12  1  0.373421  0.373268  0.231906  1
  Pd  Pd13  1  0.635888  0.635159  0.219405  1
  Pd  Pd14  1  0.367577  0.366974  0.779527  1
  Pd  Pd15  1  0.133705  0.868196  0.721845  1
  Pt  Pt16  1  0.628346  0.628525  0.772458  1
  Pt  Pt17  1  0.872401  0.129308  0.726144  1
  Pt  Pt18  1  0.869720  0.130906  0.276363  1
  Pt  Pt19  1  0.130366  0.870041  0.274379  1
