# generated using pymatgen
data_Ac5Cu5O13
_symmetry_space_group_name_H-M   'P 1'
_cell_length_a   8.79225291
_cell_length_b   3.94972600
_cell_length_c   8.79524944
_cell_angle_alpha   90.00000000
_cell_angle_beta   90.08864477
_cell_angle_gamma   90.00000000
_symmetry_Int_Tables_number   1
_chemical_formula_structural   Ac5Cu5O13
_chemical_formula_sum   'Ac5 Cu5 O13'
_cell_volume   305.43217306
_cell_formula_units_Z   1
loop_
 _symmetry_equiv_pos_site_id
 _symmetry_equiv_pos_as_xyz
  1  'x, y, z'
loop_
 _atom_site_type_symbol
 _atom_site_label
 _atom_site_symmetry_multiplicity
 _atom_site_fract_x
 _atom_site_fract_y
 _atom_site_fract_z
 _atom_site_occupancy
  Ac  Ac0  1  0.500000  0.500000  0.500000  1
  Ac  Ac1  1  0.872545  0.500000  0.279423  1
  Ac  Ac2  1  0.127455  0.500000  0.720577  1
  Ac  Ac3  1  0.721057  0.500000  0.872212  1
  Ac  Ac4  1  0.278943  0.500000  0.127788  1
  Cu  Cu5  1  0.000000  0.000000  0.000000  1
  Cu  Cu6  1  0.825654  0.000000  0.583337  1
  Cu  Cu7  1  0.174346  0.000000  0.416663  1
  Cu  Cu8  1  0.582102  0.000000  0.176131  1
  Cu  Cu9  1  0.417898  0.000000  0.823869  1
  O  O10  1  0.937372  0.000000  0.769941  1
  O  O11  1  0.062628  0.000000  0.230059  1
  O  O12  1  0.599706  0.000000  0.708002  1
  O  O13  1  0.400294  0.000000  0.291998  1
  O  O14  1  0.711630  0.000000  0.399687  1
  O  O15  1  0.288370  0.000000  0.600313  1
  O  O16  1  0.766754  0.000000  0.061967  1
  O  O17  1  0.233246  0.000000  0.938033  1
  O  O18  1  0.827936  0.500000  0.580612  1
  O  O19  1  0.172064  0.500000  0.419388  1
  O  O20  1  0.578809  0.500000  0.175198  1
  O  O21  1  0.421191  0.500000  0.824802  1
  O  O22  1  0.000000  0.500000  0.000000  1
