# generated using pymatgen
data_LaNd(AuCl6)2
_symmetry_space_group_name_H-M   'P 1'
_cell_length_a   7.76322282
_cell_length_b   10.14983342
_cell_length_c   14.50721000
_cell_angle_alpha   103.58809260
_cell_angle_beta   96.47600931
_cell_angle_gamma   111.99773574
_symmetry_Int_Tables_number   1
_chemical_formula_structural   LaNd(AuCl6)2
_chemical_formula_sum   'La2 Nd2 Au4 Cl24'
_cell_volume   1004.32309044
_cell_formula_units_Z   2
loop_
 _symmetry_equiv_pos_site_id
 _symmetry_equiv_pos_as_xyz
  1  'x, y, z'
loop_
 _atom_site_type_symbol
 _atom_site_label
 _atom_site_symmetry_multiplicity
 _atom_site_fract_x
 _atom_site_fract_y
 _atom_site_fract_z
 _atom_site_occupancy
  La  La0  1  0.580000  0.924549  0.621891  1
  La  La1  1  0.026522  0.687239  0.128316  1
  Nd  Nd2  1  0.420438  0.075974  0.378179  1
  Nd  Nd3  1  0.973582  0.312896  0.871702  1
  Au  Au4  1  0.293900  0.632745  0.764191  1
  Au  Au5  1  0.499867  0.499531  0.499845  1
  Au  Au6  1  0.705436  0.366580  0.236177  1
  Au  Au7  1  0.999994  0.000429  0.999771  1
  Cl  Cl8  1  0.777534  0.096144  0.969917  1
  Cl  Cl9  1  0.722617  0.154333  0.261543  1
  Cl  Cl10  1  0.275342  0.845184  0.739377  1
  Cl  Cl11  1  0.769156  0.796755  0.027132  1
  Cl  Cl12  1  0.615749  0.193921  0.745844  1
  Cl  Cl13  1  0.309790  0.416937  0.785138  1
  Cl  Cl14  1  0.687298  0.582096  0.215501  1
  Cl  Cl15  1  0.298989  0.621296  0.498258  1
  Cl  Cl16  1  0.229143  0.204376  0.972236  1
  Cl  Cl17  1  0.757722  0.724990  0.522778  1
  Cl  Cl18  1  0.224355  0.905982  0.029108  1
  Cl  Cl19  1  0.728946  0.051110  0.481860  1
  Cl  Cl20  1  0.607485  0.725921  0.747396  1
  Cl  Cl21  1  0.956052  0.060045  0.732138  1
  Cl  Cl22  1  0.243482  0.273606  0.476458  1
  Cl  Cl23  1  0.388325  0.810149  0.256655  1
  Cl  Cl24  1  0.979051  0.540545  0.778671  1
  Cl  Cl25  1  0.759268  0.433974  0.976987  1
  Cl  Cl26  1  0.240062  0.562156  0.020576  1
  Cl  Cl27  1  0.020903  0.457315  0.222163  1
  Cl  Cl28  1  0.392624  0.272509  0.253605  1
  Cl  Cl29  1  0.269800  0.950652  0.515489  1
  Cl  Cl30  1  0.698371  0.375861  0.500558  1
  Cl  Cl31  1  0.048198  0.944203  0.270544  1
