# generated using pymatgen
data_DyU(SiAu2)4
_symmetry_space_group_name_H-M   'P 1'
_cell_length_a   4.36721300
_cell_length_b   4.36721300
_cell_length_c   27.56127100
_cell_angle_alpha   90.00000000
_cell_angle_beta   90.00000000
_cell_angle_gamma   90.00000000
_symmetry_Int_Tables_number   1
_chemical_formula_structural   DyU(SiAu2)4
_chemical_formula_sum   'Dy2 U2 Si8 Au16'
_cell_volume   525.66370233
_cell_formula_units_Z   2
loop_
 _symmetry_equiv_pos_site_id
 _symmetry_equiv_pos_as_xyz
  1  'x, y, z'
loop_
 _atom_site_type_symbol
 _atom_site_label
 _atom_site_symmetry_multiplicity
 _atom_site_fract_x
 _atom_site_fract_y
 _atom_site_fract_z
 _atom_site_occupancy
  Dy  Dy0  1  0.000000  0.500000  0.749663  1
  Dy  Dy1  1  0.500000  0.000000  0.250337  1
  U  U2  1  0.500000  0.500000  0.000000  1
  U  U3  1  0.500000  0.500000  0.500000  1
  Si  Si4  1  0.000000  0.000000  0.957912  1
  Si  Si5  1  0.000000  0.000000  0.457966  1
  Si  Si6  1  0.500000  0.000000  0.791948  1
  Si  Si7  1  0.500000  0.000000  0.707479  1
  Si  Si8  1  0.000000  0.500000  0.208052  1
  Si  Si9  1  0.000000  0.500000  0.292521  1
  Si  Si10  1  0.000000  0.000000  0.042088  1
  Si  Si11  1  0.000000  0.000000  0.542034  1
  Au  Au12  1  0.500000  0.000000  0.087090  1
  Au  Au13  1  0.500000  0.500000  0.664414  1
  Au  Au14  1  0.500000  0.500000  0.835202  1
  Au  Au15  1  0.000000  0.500000  0.086907  1
  Au  Au16  1  0.500000  0.000000  0.913093  1
  Au  Au17  1  0.000000  0.000000  0.665115  1
  Au  Au18  1  0.000000  0.500000  0.413366  1
  Au  Au19  1  0.500000  0.500000  0.335586  1
  Au  Au20  1  0.500000  0.000000  0.413206  1
  Au  Au21  1  0.000000  0.000000  0.334885  1
  Au  Au22  1  0.000000  0.000000  0.165520  1
  Au  Au23  1  0.500000  0.000000  0.586634  1
  Au  Au24  1  0.000000  0.000000  0.834480  1
  Au  Au25  1  0.500000  0.500000  0.164798  1
  Au  Au26  1  0.000000  0.500000  0.586794  1
  Au  Au27  1  0.000000  0.500000  0.912910  1
