# generated using pymatgen
data_LuVP4PbO14
_symmetry_space_group_name_H-M   'P 1'
_cell_length_a   4.97166507
_cell_length_b   7.35688337
_cell_length_c   8.32817978
_cell_angle_alpha   89.63781744
_cell_angle_beta   91.89116816
_cell_angle_gamma   106.41635609
_symmetry_Int_Tables_number   1
_chemical_formula_structural   LuVP4PbO14
_chemical_formula_sum   'Lu1 V1 P4 Pb1 O14'
_cell_volume   292.03260155
_cell_formula_units_Z   1
loop_
 _symmetry_equiv_pos_site_id
 _symmetry_equiv_pos_as_xyz
  1  'x, y, z'
loop_
 _atom_site_type_symbol
 _atom_site_label
 _atom_site_symmetry_multiplicity
 _atom_site_fract_x
 _atom_site_fract_y
 _atom_site_fract_z
 _atom_site_occupancy
  Lu  Lu0  1  0.000000  0.000000  0.000000  1
  V  V1  1  0.499999  0.500000  0.500000  1
  P  P2  1  0.624095  0.231952  0.216533  1
  P  P3  1  0.029341  0.613809  0.262107  1
  P  P4  1  0.970658  0.386193  0.737892  1
  P  P5  1  0.375903  0.768048  0.783467  1
  Pb  Pb6  1  0.000001  0.999999  0.500001  1
  O  O7  1  0.398866  0.180451  0.085782  1
  O  O8  1  0.083733  0.785040  0.153921  1
  O  O9  1  0.814843  0.441036  0.166686  1
  O  O10  1  0.817486  0.099729  0.220546  1
  O  O11  1  0.294747  0.558177  0.306159  1
  O  O12  1  0.514540  0.245534  0.387364  1
  O  O13  1  0.874094  0.651442  0.412783  1
  O  O14  1  0.125906  0.348558  0.587218  1
  O  O15  1  0.485461  0.754466  0.612636  1
  O  O16  1  0.705254  0.441824  0.693842  1
  O  O17  1  0.182514  0.900271  0.779454  1
  O  O18  1  0.185157  0.558964  0.833315  1
  O  O19  1  0.916268  0.214960  0.846080  1
  O  O20  1  0.601133  0.819550  0.914218  1
