# generated using pymatgen
data_Zr7ScCo16Si11P
_symmetry_space_group_name_H-M   'P 1'
_cell_length_a   12.27315016
_cell_length_b   12.29579068
_cell_length_c   3.71638400
_cell_angle_alpha   90.00000000
_cell_angle_beta   90.00000000
_cell_angle_gamma   119.94611911
_symmetry_Int_Tables_number   1
_chemical_formula_structural   Zr7ScCo16Si11P
_chemical_formula_sum   'Zr7 Sc1 Co16 Si11 P1'
_cell_volume   485.95858892
_cell_formula_units_Z   1
loop_
 _symmetry_equiv_pos_site_id
 _symmetry_equiv_pos_as_xyz
  1  'x, y, z'
loop_
 _atom_site_type_symbol
 _atom_site_label
 _atom_site_symmetry_multiplicity
 _atom_site_fract_x
 _atom_site_fract_y
 _atom_site_fract_z
 _atom_site_occupancy
  Zr  Zr0  1  0.561496  0.000399  0.000000  1
  Zr  Zr1  1  0.000830  0.561022  0.000000  1
  Zr  Zr2  1  0.667521  0.333602  0.000000  1
  Zr  Zr3  1  0.332529  0.663378  0.000000  1
  Zr  Zr4  1  0.812500  0.812251  0.500000  1
  Zr  Zr5  1  0.181715  0.998876  0.500000  1
  Zr  Zr6  1  0.997186  0.181701  0.500000  1
  Sc  Sc7  1  0.435603  0.438034  0.000000  1
  Co  Co8  1  0.198380  0.377559  0.000000  1
  Co  Co9  1  0.180128  0.807206  0.000000  1
  Co  Co10  1  0.819690  0.626253  0.000000  1
  Co  Co11  1  0.807386  0.179001  0.000000  1
  Co  Co12  1  0.374218  0.197392  0.000000  1
  Co  Co13  1  0.126363  0.479997  0.500000  1
  Co  Co14  1  0.359404  0.880900  0.500000  1
  Co  Co15  1  0.514653  0.637579  0.500000  1
  Co  Co16  1  0.640726  0.520515  0.500000  1
  Co  Co17  1  0.882162  0.359777  0.500000  1
  Co  Co18  1  0.479145  0.121822  0.500000  1
  Co  Co19  1  0.002239  0.002019  0.000000  1
  Co  Co20  1  0.721900  0.998663  0.500000  1
  Co  Co21  1  0.999917  0.722225  0.500000  1
  Co  Co22  1  0.624656  0.818043  0.000000  1
  Co  Co23  1  0.278582  0.282107  0.500000  1
  Si  Si24  1  0.645531  0.645552  0.000000  1
  Si  Si25  1  0.349633  0.002439  0.000000  1
  Si  Si26  1  0.001976  0.349389  0.000000  1
  Si  Si27  1  0.482680  0.306987  0.500000  1
  Si  Si28  1  0.697445  0.178497  0.500000  1
  Si  Si29  1  0.822645  0.518157  0.500000  1
  Si  Si30  1  0.516979  0.821640  0.500000  1
  Si  Si31  1  0.178417  0.696320  0.500000  1
  Si  Si32  1  0.820411  0.997760  0.000000  1
  Si  Si33  1  0.999099  0.820891  0.000000  1
  Si  Si34  1  0.180208  0.181176  0.000000  1
  P  P35  1  0.306049  0.480873  0.500000  1
