# generated using pymatgen
data_Sr6Ca11MnV14(BiO28)2
_symmetry_space_group_name_H-M   'P 1'
_cell_length_a   11.14276675
_cell_length_b   11.14276651
_cell_length_c   14.39770700
_cell_angle_alpha   67.41620705
_cell_angle_beta   67.41620756
_cell_angle_gamma   60.07560433
_symmetry_Int_Tables_number   1
_chemical_formula_structural   Sr6Ca11MnV14(BiO28)2
_chemical_formula_sum   'Sr6 Ca11 Mn1 V14 Bi2 O56'
_cell_volume   1388.52640917
_cell_formula_units_Z   1
loop_
 _symmetry_equiv_pos_site_id
 _symmetry_equiv_pos_as_xyz
  1  'x, y, z'
loop_
 _atom_site_type_symbol
 _atom_site_label
 _atom_site_symmetry_multiplicity
 _atom_site_fract_x
 _atom_site_fract_y
 _atom_site_fract_z
 _atom_site_occupancy
  Sr  Sr0  1  0.551797  0.471425  0.021840  1
  Sr  Sr1  1  0.955267  0.052243  0.019244  1
  Sr  Sr2  1  0.973966  0.451068  0.015854  1
  Sr  Sr3  1  0.052117  0.954694  0.519494  1
  Sr  Sr4  1  0.450302  0.973973  0.515296  1
  Sr  Sr5  1  0.472713  0.550661  0.521600  1
  Ca  Ca6  1  0.565575  0.077764  0.198302  1
  Ca  Ca7  1  0.570255  0.663586  0.196853  1
  Ca  Ca8  1  0.158369  0.065773  0.198050  1
  Ca  Ca9  1  0.661551  0.567975  0.700261  1
  Ca  Ca10  1  0.065907  0.157303  0.701054  1
  Ca  Ca11  1  0.076020  0.566279  0.702395  1
  Ca  Ca12  1  0.006314  0.502199  0.498391  1
  Ca  Ca13  1  0.947470  0.849508  0.296648  1
  Ca  Ca14  1  0.349110  0.412455  0.296334  1
  Ca  Ca15  1  0.848942  0.946795  0.799665  1
  Ca  Ca16  1  0.410067  0.348130  0.799957  1
  Mn  Mn17  1  0.501622  0.004238  0.997858  1
  V  V18  1  0.768656  0.266736  0.195986  1
  V  V19  1  0.689697  0.221842  0.899242  1
  V  V20  1  0.720017  0.695004  0.898646  1
  V  V21  1  0.194235  0.186164  0.898990  1
  V  V22  1  0.777258  0.307222  0.597093  1
  V  V23  1  0.807832  0.815897  0.599158  1
  V  V24  1  0.693675  0.722595  0.395499  1
  V  V25  1  0.317024  0.276348  0.598356  1
  V  V26  1  0.186964  0.192912  0.395685  1
  V  V27  1  0.224935  0.691259  0.395829  1
  V  V28  1  0.816922  0.809536  0.095155  1
  V  V29  1  0.278179  0.317546  0.094577  1
  V  V30  1  0.308991  0.779718  0.093299  1
  V  V31  1  0.266879  0.768859  0.695266  1
  Bi  Bi32  1  0.902602  0.444860  0.293163  1
  Bi  Bi33  1  0.443486  0.900467  0.794977  1
  O  O34  1  0.600140  0.267848  0.231314  1
  O  O35  1  0.769915  0.403817  0.231463  1
  O  O36  1  0.901196  0.099515  0.231349  1
  O  O37  1  0.671160  0.185938  0.030956  1
  O  O38  1  0.685764  0.612197  0.028985  1
  O  O39  1  0.812731  0.312479  0.061798  1
  O  O40  1  0.609382  0.139400  0.876228  1
  O  O41  1  0.641291  0.879560  0.879642  1
  O  O42  1  0.639448  0.656581  0.836203  1
  O  O43  1  0.603339  0.405866  0.857201  1
  O  O44  1  0.112740  0.169843  0.029888  1
  O  O45  1  0.870952  0.149900  0.841523  1
  O  O46  1  0.903082  0.637481  0.855548  1
  O  O47  1  0.602760  0.397270  0.664488  1
  O  O48  1  0.137984  0.366999  0.841053  1
  O  O49  1  0.619474  0.888660  0.640160  1
  O  O50  1  0.149153  0.090622  0.855836  1
  O  O51  1  0.379429  0.112724  0.877704  1
  O  O52  1  0.851627  0.123484  0.639991  1
  O  O53  1  0.896488  0.839188  0.663529  1
  O  O54  1  0.618417  0.684049  0.527649  1
  O  O55  1  0.876349  0.371109  0.620176  1
  O  O56  1  0.868924  0.630088  0.627158  1
  O  O57  1  0.131124  0.372533  0.627922  1
  O  O58  1  0.775348  0.363173  0.467293  1
  O  O59  1  0.865556  0.879872  0.469384  1
  O  O60  1  0.650931  0.644535  0.334629  1
  O  O61  1  0.338948  0.096564  0.661513  1
  O  O62  1  0.634897  0.905574  0.353916  1
  O  O63  1  0.388080  0.348004  0.640070  1
  O  O64  1  0.166232  0.119680  0.528323  1
  O  O65  1  0.183768  0.665838  0.529415  1
  O  O66  1  0.879169  0.645632  0.368552  1
  O  O67  1  0.118253  0.378630  0.366225  1
  O  O68  1  0.145482  0.616610  0.363872  1
  O  O69  1  0.378704  0.286864  0.467928  1
  O  O70  1  0.155850  0.873275  0.340836  1
  O  O71  1  0.089699  0.147272  0.355142  1
  O  O72  1  0.631176  0.876524  0.113543  1
  O  O73  1  0.836717  0.897616  0.162049  1
  O  O74  1  0.368001  0.130125  0.339093  1
  O  O75  1  0.883815  0.621041  0.139327  1
  O  O76  1  0.408808  0.604702  0.355572  1
  O  O77  1  0.099703  0.336755  0.161379  1
  O  O78  1  0.125537  0.857416  0.139124  1
  O  O79  1  0.893817  0.860622  0.967649  1
  O  O80  1  0.354666  0.380849  0.139100  1
  O  O81  1  0.398532  0.606176  0.162212  1
  O  O82  1  0.378199  0.131648  0.113354  1
  O  O83  1  0.378386  0.880629  0.108648  1
  O  O84  1  0.278413  0.393692  0.966658  1
  O  O85  1  0.357948  0.771982  0.965545  1
  O  O86  1  0.100095  0.901720  0.730151  1
  O  O87  1  0.267286  0.600902  0.730378  1
  O  O88  1  0.404416  0.769832  0.730702  1
  O  O89  1  0.312582  0.812663  0.560828  1
