# generated using pymatgen
data_BaZn2S2O
_symmetry_space_group_name_H-M   'P 1'
_cell_length_a   4.02275500
_cell_length_b   6.54208200
_cell_length_c   10.05272800
_cell_angle_alpha   90.00043286
_cell_angle_beta   89.99930252
_cell_angle_gamma   90.00014329
_symmetry_Int_Tables_number   1
_chemical_formula_structural   BaZn2S2O
_chemical_formula_sum   'Ba2 Zn4 S4 O2'
_cell_volume   264.55958395
_cell_formula_units_Z   2
loop_
 _symmetry_equiv_pos_site_id
 _symmetry_equiv_pos_as_xyz
  1  'x, y, z'
loop_
 _atom_site_type_symbol
 _atom_site_label
 _atom_site_symmetry_multiplicity
 _atom_site_fract_x
 _atom_site_fract_y
 _atom_site_fract_z
 _atom_site_occupancy
  Ba  Ba0  1  0.500004  0.021622  0.500002  1
  Ba  Ba1  1  0.999990  0.978373  0.000002  1
  Zn  Zn2  1  0.499997  0.372174  0.167584  1
  Zn  Zn3  1  0.000027  0.627830  0.667589  1
  Zn  Zn4  1  0.500009  0.372169  0.832409  1
  Zn  Zn5  1  0.999974  0.627830  0.332417  1
  S  S6  1  0.500017  0.728791  0.791139  1
  S  S7  1  0.499985  0.728792  0.208862  1
  S  S8  1  0.999985  0.271209  0.291139  1
  S  S9  1  0.000017  0.271208  0.708858  1
  O  O10  1  0.499994  0.230224  0.000005  1
  O  O11  1  0.000003  0.769777  0.499996  1
