# generated using pymatgen
data_ErTm4(CoO6)2
_symmetry_space_group_name_H-M   'P 1'
_cell_length_a   6.66416819
_cell_length_b   6.66416864
_cell_length_c   7.07526800
_cell_angle_alpha   74.54927349
_cell_angle_beta   74.54927385
_cell_angle_gamma   50.37754983
_symmetry_Int_Tables_number   1
_chemical_formula_structural   ErTm4(CoO6)2
_chemical_formula_sum   'Er1 Tm4 Co2 O12'
_cell_volume   231.30606897
_cell_formula_units_Z   1
loop_
 _symmetry_equiv_pos_site_id
 _symmetry_equiv_pos_as_xyz
  1  'x, y, z'
loop_
 _atom_site_type_symbol
 _atom_site_label
 _atom_site_symmetry_multiplicity
 _atom_site_fract_x
 _atom_site_fract_y
 _atom_site_fract_z
 _atom_site_occupancy
  Er  Er0  1  0.000000  0.000000  0.500000  1
  Tm  Tm1  1  0.304634  0.304634  0.356172  1
  Tm  Tm2  1  0.695366  0.695366  0.643828  1
  Tm  Tm3  1  0.308171  0.308171  0.834912  1
  Tm  Tm4  1  0.691829  0.691829  0.165088  1
  Co  Co5  1  0.755787  0.244213  0.000000  1
  Co  Co6  1  0.244213  0.755787  0.000000  1
  O  O7  1  0.901213  0.420247  0.920313  1
  O  O8  1  0.420247  0.901213  0.920313  1
  O  O9  1  0.098787  0.579753  0.079687  1
  O  O10  1  0.579753  0.098787  0.079687  1
  O  O11  1  0.097543  0.597470  0.575606  1
  O  O12  1  0.597470  0.097543  0.575606  1
  O  O13  1  0.902457  0.402530  0.424394  1
  O  O14  1  0.402530  0.902457  0.424394  1
  O  O15  1  0.000572  0.000572  0.825836  1
  O  O16  1  0.999428  0.999428  0.174164  1
  O  O17  1  0.500318  0.500318  0.820264  1
  O  O18  1  0.499682  0.499682  0.179736  1
