# generated using pymatgen
data_Ca2Er2Sb6Rh7
_symmetry_space_group_name_H-M   'P 1'
_cell_length_a   7.58827866
_cell_length_b   7.63770960
_cell_length_c   7.63770841
_cell_angle_alpha   109.74930560
_cell_angle_beta   109.46333797
_cell_angle_gamma   109.46335213
_symmetry_Int_Tables_number   1
_chemical_formula_structural   Ca2Er2Sb6Rh7
_chemical_formula_sum   'Ca2 Er2 Sb6 Rh7'
_cell_volume   339.64938563
_cell_formula_units_Z   1
loop_
 _symmetry_equiv_pos_site_id
 _symmetry_equiv_pos_as_xyz
  1  'x, y, z'
loop_
 _atom_site_type_symbol
 _atom_site_label
 _atom_site_symmetry_multiplicity
 _atom_site_fract_x
 _atom_site_fract_y
 _atom_site_fract_z
 _atom_site_occupancy
  Ca  Ca0  1  0.500000  0.000000  0.000000  1
  Ca  Ca1  1  0.500000  0.500000  0.500000  1
  Er  Er2  1  0.000000  0.500000  0.000000  1
  Er  Er3  1  0.000000  0.000000  0.500000  1
  Sb  Sb4  1  0.320198  0.001967  0.318232  1
  Sb  Sb5  1  0.000000  0.681289  0.681289  1
  Sb  Sb6  1  0.679802  0.681768  0.998033  1
  Sb  Sb7  1  0.679802  0.998033  0.681768  1
  Sb  Sb8  1  0.000000  0.318711  0.318711  1
  Sb  Sb9  1  0.320198  0.318232  0.001967  1
  Rh  Rh10  1  0.244121  0.493714  0.750407  1
  Rh  Rh11  1  0.500000  0.250000  0.750000  1
  Rh  Rh12  1  0.755879  0.249593  0.506286  1
  Rh  Rh13  1  0.500000  0.750000  0.250000  1
  Rh  Rh14  1  0.000000  0.000000  0.000000  1
  Rh  Rh15  1  0.244121  0.750407  0.493714  1
  Rh  Rh16  1  0.755879  0.506286  0.249593  1
