# generated using pymatgen
data_Y7HoTe12
_symmetry_space_group_name_H-M   'P 1'
_cell_length_a   14.48015067
_cell_length_b   13.81009359
_cell_length_c   7.54934986
_cell_angle_alpha   79.48942832
_cell_angle_beta   69.67268525
_cell_angle_gamma   30.83216617
_symmetry_Int_Tables_number   1
_chemical_formula_structural   Y7HoTe12
_chemical_formula_sum   'Y7 Ho1 Te12'
_cell_volume   704.15053107
_cell_formula_units_Z   1
loop_
 _symmetry_equiv_pos_site_id
 _symmetry_equiv_pos_as_xyz
  1  'x, y, z'
loop_
 _atom_site_type_symbol
 _atom_site_label
 _atom_site_symmetry_multiplicity
 _atom_site_fract_x
 _atom_site_fract_y
 _atom_site_fract_z
 _atom_site_occupancy
  Y  Y0  1  0.332711  0.332711  0.167289  1
  Y  Y1  1  0.167298  0.167298  0.332702  1
  Y  Y2  1  0.917300  0.917300  0.082700  1
  Y  Y3  1  0.082722  0.082722  0.917278  1
  Y  Y4  1  0.999939  0.999939  0.500061  1
  Y  Y5  1  0.500067  0.500067  0.999933  1
  Y  Y6  1  0.250062  0.250062  0.749938  1
  Ho  Ho7  1  0.749956  0.749956  0.250044  1
  Te  Te8  1  0.997072  0.502924  0.502090  1
  Te  Te9  1  0.502924  0.997072  0.997914  1
  Te  Te10  1  0.252480  0.747519  0.747509  1
  Te  Te11  1  0.747519  0.252480  0.252492  1
  Te  Te12  1  0.665836  0.168265  0.833175  1
  Te  Te13  1  0.833170  0.332735  0.665872  1
  Te  Te14  1  0.332735  0.833170  0.168224  1
  Te  Te15  1  0.168265  0.665836  0.332724  1
  Te  Te16  1  0.584456  0.081128  0.416559  1
  Te  Te17  1  0.417379  0.916982  0.583597  1
  Te  Te18  1  0.916982  0.417379  0.082042  1
  Te  Te19  1  0.081128  0.584456  0.917858  1
