# generated using pymatgen
data_LaDy11Tc4
_symmetry_space_group_name_H-M   'P 1'
_cell_length_a   6.29617818
_cell_length_b   7.42228574
_cell_length_c   9.26349659
_cell_angle_alpha   90.22379751
_cell_angle_beta   89.51885774
_cell_angle_gamma   90.05147014
_symmetry_Int_Tables_number   1
_chemical_formula_structural   LaDy11Tc4
_chemical_formula_sum   'La1 Dy11 Tc4'
_cell_volume   432.88330516
_cell_formula_units_Z   1
loop_
 _symmetry_equiv_pos_site_id
 _symmetry_equiv_pos_as_xyz
  1  'x, y, z'
loop_
 _atom_site_type_symbol
 _atom_site_label
 _atom_site_symmetry_multiplicity
 _atom_site_fract_x
 _atom_site_fract_y
 _atom_site_fract_z
 _atom_site_occupancy
  La  La0  1  0.662833  0.325504  0.566239  1
  Dy  Dy1  1  0.628570  0.040692  0.248661  1
  Dy  Dy2  1  0.368720  0.955189  0.752001  1
  Dy  Dy3  1  0.127545  0.460806  0.753290  1
  Dy  Dy4  1  0.874139  0.543217  0.248123  1
  Dy  Dy5  1  0.161952  0.176424  0.062924  1
  Dy  Dy6  1  0.836824  0.823996  0.936665  1
  Dy  Dy7  1  0.663562  0.324182  0.941422  1
  Dy  Dy8  1  0.839887  0.824698  0.562278  1
  Dy  Dy9  1  0.337169  0.675422  0.062754  1
  Dy  Dy10  1  0.163586  0.174534  0.435013  1
  Dy  Dy11  1  0.335555  0.677411  0.435256  1
  Tc  Tc12  1  0.457466  0.386952  0.245339  1
  Tc  Tc13  1  0.540586  0.611353  0.749345  1
  Tc  Tc14  1  0.962199  0.112558  0.750702  1
  Tc  Tc15  1  0.039405  0.887061  0.249985  1
