# generated using pymatgen
data_Pa2MnCrC3
_symmetry_space_group_name_H-M   'P 1'
_cell_length_a   6.04033146
_cell_length_b   6.04033066
_cell_length_c   5.38364341
_cell_angle_alpha   114.81295036
_cell_angle_beta   114.81294655
_cell_angle_gamma   30.66110842
_symmetry_Int_Tables_number   1
_chemical_formula_structural   Pa2MnCrC3
_chemical_formula_sum   'Pa2 Mn1 Cr1 C3'
_cell_volume   90.18835351
_cell_formula_units_Z   1
loop_
 _symmetry_equiv_pos_site_id
 _symmetry_equiv_pos_as_xyz
  1  'x, y, z'
loop_
 _atom_site_type_symbol
 _atom_site_label
 _atom_site_symmetry_multiplicity
 _atom_site_fract_x
 _atom_site_fract_y
 _atom_site_fract_z
 _atom_site_occupancy
  Pa  Pa0  1  0.403104  0.403104  0.207753  1
  Pa  Pa1  1  0.597236  0.597236  0.790657  1
  Mn  Mn2  1  0.837182  0.837182  0.671066  1
  Cr  Cr3  1  0.161354  0.161354  0.331200  1
  C  C4  1  0.999401  0.999401  0.997652  1
  C  C5  1  0.748225  0.748225  0.261897  1
  C  C6  1  0.253499  0.253499  0.739776  1
