# generated using pymatgen
data_Ho3Th(Ni2Hg)2
_symmetry_space_group_name_H-M   'P 1'
_cell_length_a   7.41827897
_cell_length_b   7.41827897
_cell_length_c   3.65871600
_cell_angle_alpha   90.00000000
_cell_angle_beta   90.00000000
_cell_angle_gamma   88.92410291
_symmetry_Int_Tables_number   1
_chemical_formula_structural   Ho3Th(Ni2Hg)2
_chemical_formula_sum   'Ho3 Th1 Ni4 Hg2'
_cell_volume   201.30680169
_cell_formula_units_Z   1
loop_
 _symmetry_equiv_pos_site_id
 _symmetry_equiv_pos_as_xyz
  1  'x, y, z'
loop_
 _atom_site_type_symbol
 _atom_site_label
 _atom_site_symmetry_multiplicity
 _atom_site_fract_x
 _atom_site_fract_y
 _atom_site_fract_z
 _atom_site_occupancy
  Ho  Ho0  1  0.824129  0.326863  0.500001  1
  Ho  Ho1  1  0.173137  0.675871  0.500001  1
  Ho  Ho2  1  0.676790  0.823210  0.500001  1
  Th  Th3  1  0.324957  0.175043  0.500001  1
  Ni  Ni4  1  0.615876  0.120743  0.000000  1
  Ni  Ni5  1  0.124683  0.375317  0.000000  1
  Ni  Ni6  1  0.884855  0.615144  0.000000  1
  Ni  Ni7  1  0.379257  0.884123  0.000000  1
  Hg  Hg8  1  0.990227  0.993912  0.000000  1
  Hg  Hg9  1  0.506088  0.509773  0.000000  1
