# generated using pymatgen
data_Er8Zr12Si15Rh
_symmetry_space_group_name_H-M   'P 1'
_cell_length_a   7.15043728
_cell_length_b   7.29794204
_cell_length_c   13.91943748
_cell_angle_alpha   89.84812488
_cell_angle_beta   89.88928433
_cell_angle_gamma   90.11679360
_symmetry_Int_Tables_number   1
_chemical_formula_structural   Er8Zr12Si15Rh
_chemical_formula_sum   'Er8 Zr12 Si15 Rh1'
_cell_volume   726.35921923
_cell_formula_units_Z   1
loop_
 _symmetry_equiv_pos_site_id
 _symmetry_equiv_pos_as_xyz
  1  'x, y, z'
loop_
 _atom_site_type_symbol
 _atom_site_label
 _atom_site_symmetry_multiplicity
 _atom_site_fract_x
 _atom_site_fract_y
 _atom_site_fract_z
 _atom_site_occupancy
  Er  Er0  1  0.016413  0.175012  0.096961  1
  Er  Er1  1  0.986134  0.824665  0.903458  1
  Er  Er2  1  0.486420  0.677230  0.902972  1
  Er  Er3  1  0.983337  0.825510  0.597087  1
  Er  Er4  1  0.514266  0.323424  0.096263  1
  Er  Er5  1  0.011813  0.178183  0.401852  1
  Er  Er6  1  0.514533  0.323441  0.400617  1
  Er  Er7  1  0.484648  0.674398  0.597409  1
  Zr  Zr8  1  0.159812  0.503501  0.747795  1
  Zr  Zr9  1  0.843787  0.499783  0.249350  1
  Zr  Zr10  1  0.344594  0.999155  0.249834  1
  Zr  Zr11  1  0.654852  0.001609  0.748956  1
  Zr  Zr12  1  0.331560  0.181703  0.622755  1
  Zr  Zr13  1  0.669776  0.823760  0.374901  1
  Zr  Zr14  1  0.172940  0.667736  0.379788  1
  Zr  Zr15  1  0.673137  0.821324  0.124460  1
  Zr  Zr16  1  0.830328  0.323575  0.624079  1
  Zr  Zr17  1  0.328550  0.175269  0.875220  1
  Zr  Zr18  1  0.830004  0.321654  0.876049  1
  Zr  Zr19  1  0.170755  0.677369  0.124321  1
  Si  Si20  1  0.033098  0.117078  0.751033  1
  Si  Si21  1  0.969307  0.881961  0.250923  1
  Si  Si22  1  0.466944  0.615478  0.249790  1
  Si  Si23  1  0.535376  0.384038  0.752364  1
  Si  Si24  1  0.282014  0.874617  0.751237  1
  Si  Si25  1  0.717957  0.127244  0.248331  1
  Si  Si26  1  0.218342  0.370257  0.248121  1
  Si  Si27  1  0.782679  0.628690  0.753124  1
  Si  Si28  1  0.836332  0.534217  0.458226  1
  Si  Si29  1  0.344854  0.970145  0.457528  1
  Si  Si30  1  0.843399  0.530510  0.040444  1
  Si  Si31  1  0.654284  0.032813  0.539224  1
  Si  Si32  1  0.156777  0.467100  0.960043  1
  Si  Si33  1  0.656317  0.030623  0.960002  1
  Si  Si34  1  0.347351  0.967944  0.041189  1
  Rh  Rh35  1  0.147313  0.468986  0.544293  1
