# generated using pymatgen
data_LiEr(PSe3)2
_symmetry_space_group_name_H-M   'P 1'
_cell_length_a   6.52183100
_cell_length_b   6.52183010
_cell_length_c   14.46358400
_cell_angle_alpha   90.00000000
_cell_angle_beta   90.00000000
_cell_angle_gamma   120.00000963
_symmetry_Int_Tables_number   1
_chemical_formula_structural   LiEr(PSe3)2
_chemical_formula_sum   'Li2 Er2 P4 Se12'
_cell_volume   532.77708027
_cell_formula_units_Z   2
loop_
 _symmetry_equiv_pos_site_id
 _symmetry_equiv_pos_as_xyz
  1  'x, y, z'
loop_
 _atom_site_type_symbol
 _atom_site_label
 _atom_site_symmetry_multiplicity
 _atom_site_fract_x
 _atom_site_fract_y
 _atom_site_fract_z
 _atom_site_occupancy
  Li  Li0  1  0.666667  0.333333  0.250000  1
  Li  Li1  1  0.333333  0.666667  0.750000  1
  Er  Er2  1  0.000000  0.000000  0.250000  1
  Er  Er3  1  0.000000  0.000000  0.750000  1
  P  P4  1  0.666667  0.333333  0.672311  1
  P  P5  1  0.666667  0.333333  0.827689  1
  P  P6  1  0.333333  0.666667  0.327689  1
  P  P7  1  0.333333  0.666667  0.172311  1
  Se  Se8  1  0.992396  0.337437  0.872555  1
  Se  Se9  1  0.345041  0.337437  0.627445  1
  Se  Se10  1  0.992396  0.654959  0.627445  1
  Se  Se11  1  0.662563  0.007604  0.627445  1
  Se  Se12  1  0.337437  0.345041  0.127445  1
  Se  Se13  1  0.654959  0.992396  0.127445  1
  Se  Se14  1  0.007604  0.662563  0.127445  1
  Se  Se15  1  0.654959  0.662563  0.372555  1
  Se  Se16  1  0.007604  0.345041  0.372555  1
  Se  Se17  1  0.337437  0.992396  0.372555  1
  Se  Se18  1  0.662563  0.654959  0.872555  1
  Se  Se19  1  0.345041  0.007604  0.872555  1
