# generated using pymatgen
data_Mg2NbSb3Pt2Rh
_symmetry_space_group_name_H-M   'P 1'
_cell_length_a   7.73697324
_cell_length_b   7.73778902
_cell_length_c   7.73802326
_cell_angle_alpha   120.15178772
_cell_angle_beta   99.59061988
_cell_angle_gamma   99.58829081
_symmetry_Int_Tables_number   1
_chemical_formula_structural   Mg2NbSb3Pt2Rh
_chemical_formula_sum   'Mg4 Nb2 Sb6 Pt4 Rh2'
_cell_volume   377.57828313
_cell_formula_units_Z   2
loop_
 _symmetry_equiv_pos_site_id
 _symmetry_equiv_pos_as_xyz
  1  'x, y, z'
loop_
 _atom_site_type_symbol
 _atom_site_label
 _atom_site_symmetry_multiplicity
 _atom_site_fract_x
 _atom_site_fract_y
 _atom_site_fract_z
 _atom_site_occupancy
  Mg  Mg0  1  0.999877  0.501878  0.999273  1
  Mg  Mg1  1  0.499302  0.329755  0.164057  1
  Mg  Mg2  1  0.999298  0.164057  0.329761  1
  Mg  Mg3  1  0.499876  0.999261  0.501856  1
  Nb  Nb4  1  0.000847  0.836374  0.671663  1
  Nb  Nb5  1  0.500846  0.671688  0.836405  1
  Sb  Sb6  1  0.250922  0.926118  0.096509  1
  Sb  Sb7  1  0.748436  0.754814  0.256692  1
  Sb  Sb8  1  0.252517  0.571506  0.403108  1
  Sb  Sb9  1  0.752515  0.403103  0.571502  1
  Sb  Sb10  1  0.248433  0.256692  0.754799  1
  Sb  Sb11  1  0.750915  0.096495  0.926125  1
  Pt  Pt12  1  0.122966  0.874109  0.385846  1
  Pt  Pt13  1  0.632703  0.711303  0.556588  1
  Pt  Pt14  1  0.132721  0.556578  0.711299  1
  Pt  Pt15  1  0.622951  0.385862  0.874108  1
  Rh  Rh16  1  0.117459  0.188901  0.021329  1
  Rh  Rh17  1  0.617502  0.021480  0.189056  1
