# generated using pymatgen
data_LuNiB2IrRu
_symmetry_space_group_name_H-M   'P 1'
_cell_length_a   5.50743815
_cell_length_b   5.15304198
_cell_length_c   3.07132700
_cell_angle_alpha   90.00000000
_cell_angle_beta   90.00000000
_cell_angle_gamma   121.27537857
_symmetry_Int_Tables_number   1
_chemical_formula_structural   LuNiB2IrRu
_chemical_formula_sum   'Lu1 Ni1 B2 Ir1 Ru1'
_cell_volume   74.49788186
_cell_formula_units_Z   1
loop_
 _symmetry_equiv_pos_site_id
 _symmetry_equiv_pos_as_xyz
  1  'x, y, z'
loop_
 _atom_site_type_symbol
 _atom_site_label
 _atom_site_symmetry_multiplicity
 _atom_site_fract_x
 _atom_site_fract_y
 _atom_site_fract_z
 _atom_site_occupancy
  Lu  Lu0  1  0.000000  0.000000  0.000000  1
  Ni  Ni1  1  0.500000  0.000000  0.500000  1
  B  B2  1  0.666296  0.321779  0.000000  1
  B  B3  1  0.333704  0.678221  0.000000  1
  Ir  Ir4  1  0.500000  0.500000  0.500000  1
  Ru  Ru5  1  0.000000  0.500000  0.500000  1
