# generated using pymatgen
data_Tb3Tm13ZnIn3Rh4
_symmetry_space_group_name_H-M   'P 1'
_cell_length_a   9.51384473
_cell_length_b   9.49581594
_cell_length_c   9.51349309
_cell_angle_alpha   60.22973236
_cell_angle_beta   60.13033293
_cell_angle_gamma   60.16521522
_symmetry_Int_Tables_number   1
_chemical_formula_structural   Tb3Tm13ZnIn3Rh4
_chemical_formula_sum   'Tb3 Tm13 Zn1 In3 Rh4'
_cell_volume   610.14272004
_cell_formula_units_Z   1
loop_
 _symmetry_equiv_pos_site_id
 _symmetry_equiv_pos_as_xyz
  1  'x, y, z'
loop_
 _atom_site_type_symbol
 _atom_site_label
 _atom_site_symmetry_multiplicity
 _atom_site_fract_x
 _atom_site_fract_y
 _atom_site_fract_z
 _atom_site_occupancy
  Tb  Tb0  1  0.061067  0.061025  0.439060  1
  Tb  Tb1  1  0.434971  0.071811  0.433325  1
  Tb  Tb2  1  0.062990  0.438563  0.061646  1
  Tm  Tm3  1  0.053930  0.646554  0.647577  1
  Tm  Tm4  1  0.436998  0.436543  0.067592  1
  Tm  Tm5  1  0.646633  0.052615  0.647306  1
  Tm  Tm6  1  0.189129  0.811468  0.188957  1
  Tm  Tm7  1  0.188431  0.188664  0.812833  1
  Tm  Tm8  1  0.810280  0.810264  0.190484  1
  Tm  Tm9  1  0.440765  0.060384  0.059216  1
  Tm  Tm10  1  0.812263  0.188827  0.188278  1
  Tm  Tm11  1  0.067260  0.438190  0.436973  1
  Tm  Tm12  1  0.809402  0.190466  0.811161  1
  Tm  Tm13  1  0.190565  0.809653  0.811381  1
  Tm  Tm14  1  0.647254  0.646830  0.053218  1
  Tm  Tm15  1  0.651560  0.652903  0.652178  1
  Zn  Zn16  1  0.415859  0.417090  0.416607  1
  In  In17  1  0.744634  0.417877  0.417996  1
  In  In18  1  0.418492  0.744032  0.417209  1
  In  In19  1  0.418266  0.416823  0.745775  1
  Rh  Rh20  1  0.859447  0.857580  0.426256  1
  Rh  Rh21  1  0.855295  0.856898  0.856294  1
  Rh  Rh22  1  0.426320  0.857901  0.860652  1
  Rh  Rh23  1  0.858189  0.427039  0.858025  1
