# generated using pymatgen
data_AcDyNi12P5
_symmetry_space_group_name_H-M   'P 1'
_cell_length_a   3.67624600
_cell_length_b   10.83563782
_cell_length_c   13.24695469
_cell_angle_alpha   71.56881568
_cell_angle_beta   90.00000000
_cell_angle_gamma   90.00000000
_symmetry_Int_Tables_number   1
_chemical_formula_structural   AcDyNi12P5
_chemical_formula_sum   'Ac2 Dy2 Ni24 P10'
_cell_volume   500.61730892
_cell_formula_units_Z   2
loop_
 _symmetry_equiv_pos_site_id
 _symmetry_equiv_pos_as_xyz
  1  'x, y, z'
loop_
 _atom_site_type_symbol
 _atom_site_label
 _atom_site_symmetry_multiplicity
 _atom_site_fract_x
 _atom_site_fract_y
 _atom_site_fract_z
 _atom_site_occupancy
  Ac  Ac0  1  0.250000  0.746294  0.188116  1
  Ac  Ac1  1  0.750000  0.253706  0.811884  1
  Dy  Dy2  1  0.250000  0.782169  0.680976  1
  Dy  Dy3  1  0.750000  0.217831  0.319024  1
  Ni  Ni4  1  0.250000  0.568236  0.015777  1
  Ni  Ni5  1  0.250000  0.563465  0.447624  1
  Ni  Ni6  1  0.750000  0.501407  0.342216  1
  Ni  Ni7  1  0.250000  0.498593  0.657784  1
  Ni  Ni8  1  0.750000  0.504668  0.152530  1
  Ni  Ni9  1  0.250000  0.495332  0.847470  1
  Ni  Ni10  1  0.750000  0.436535  0.552376  1
  Ni  Ni11  1  0.250000  0.336132  0.141535  1
  Ni  Ni12  1  0.750000  0.663705  0.563684  1
  Ni  Ni13  1  0.250000  0.336295  0.436316  1
  Ni  Ni14  1  0.750000  0.907158  0.305872  1
  Ni  Ni15  1  0.250000  0.092842  0.694128  1
  Ni  Ni16  1  0.750000  0.917592  0.989392  1
  Ni  Ni17  1  0.250000  0.082408  0.010608  1
  Ni  Ni18  1  0.750000  0.920758  0.491747  1
  Ni  Ni19  1  0.250000  0.079242  0.508253  1
  Ni  Ni20  1  0.750000  0.931675  0.794588  1
  Ni  Ni21  1  0.250000  0.068325  0.205412  1
  Ni  Ni22  1  0.250000  0.788134  0.440929  1
  Ni  Ni23  1  0.750000  0.211866  0.559071  1
  Ni  Ni24  1  0.250000  0.795635  0.914399  1
  Ni  Ni25  1  0.750000  0.204365  0.085601  1
  Ni  Ni26  1  0.750000  0.663868  0.858465  1
  Ni  Ni27  1  0.750000  0.431764  0.984223  1
  P  P28  1  0.250000  0.004907  0.871996  1
  P  P29  1  0.750000  0.995093  0.128004  1
  P  P30  1  0.250000  0.303540  0.987260  1
  P  P31  1  0.750000  0.696460  0.012740  1
  P  P32  1  0.250000  0.441144  0.262064  1
  P  P33  1  0.750000  0.558856  0.737936  1
  P  P34  1  0.250000  0.997122  0.377918  1
  P  P35  1  0.750000  0.002878  0.622082  1
  P  P36  1  0.250000  0.313530  0.606657  1
  P  P37  1  0.750000  0.686470  0.393343  1
