# generated using pymatgen
data_Tb17Ho3(Bi2Rh)4
_symmetry_space_group_name_H-M   'P 1'
_cell_length_a   8.04639797
_cell_length_b   8.99720082
_cell_length_c   12.53357780
_cell_angle_alpha   90.03832594
_cell_angle_beta   89.95217843
_cell_angle_gamma   89.96986606
_symmetry_Int_Tables_number   1
_chemical_formula_structural   Tb17Ho3(Bi2Rh)4
_chemical_formula_sum   'Tb17 Ho3 Bi8 Rh4'
_cell_volume   907.36845214
_cell_formula_units_Z   1
loop_
 _symmetry_equiv_pos_site_id
 _symmetry_equiv_pos_as_xyz
  1  'x, y, z'
loop_
 _atom_site_type_symbol
 _atom_site_label
 _atom_site_symmetry_multiplicity
 _atom_site_fract_x
 _atom_site_fract_y
 _atom_site_fract_z
 _atom_site_occupancy
  Tb  Tb0  1  0.840341  0.749678  0.793761  1
  Tb  Tb1  1  0.159598  0.250249  0.206164  1
  Tb  Tb2  1  0.340292  0.250266  0.706378  1
  Tb  Tb3  1  0.659993  0.749804  0.293642  1
  Tb  Tb4  1  0.374675  0.749821  0.691690  1
  Tb  Tb5  1  0.625769  0.250285  0.308411  1
  Tb  Tb6  1  0.874541  0.250411  0.808565  1
  Tb  Tb7  1  0.125365  0.749602  0.191370  1
  Tb  Tb8  1  0.952819  0.749804  0.501623  1
  Tb  Tb9  1  0.046548  0.250182  0.498431  1
  Tb  Tb10  1  0.453046  0.250382  0.998372  1
  Tb  Tb11  1  0.547004  0.749659  0.001625  1
  Tb  Tb12  1  0.678094  0.041987  0.566759  1
  Tb  Tb13  1  0.321727  0.958293  0.433258  1
  Tb  Tb14  1  0.178079  0.958198  0.933245  1
  Tb  Tb15  1  0.322155  0.541895  0.433356  1
  Tb  Tb16  1  0.821888  0.041844  0.066727  1
  Ho  Ho17  1  0.676773  0.457915  0.566545  1
  Ho  Ho18  1  0.823761  0.457936  0.066376  1
  Ho  Ho19  1  0.176239  0.542090  0.933640  1
  Bi  Bi20  1  0.566620  0.492079  0.825966  1
  Bi  Bi21  1  0.433516  0.507844  0.173834  1
  Bi  Bi22  1  0.066804  0.507872  0.674052  1
  Bi  Bi23  1  0.432848  0.992107  0.174055  1
  Bi  Bi24  1  0.932834  0.492042  0.325770  1
  Bi  Bi25  1  0.567175  0.007879  0.826015  1
  Bi  Bi26  1  0.932858  0.007878  0.325967  1
  Bi  Bi27  1  0.067174  0.992110  0.674037  1
  Rh  Rh28  1  0.572809  0.749319  0.509370  1
  Rh  Rh29  1  0.428633  0.250589  0.491014  1
  Rh  Rh30  1  0.071920  0.251214  0.990936  1
  Rh  Rh31  1  0.928102  0.748765  0.009047  1
