# generated using pymatgen
data_Yb3(LuPb2)2
_symmetry_space_group_name_H-M   'P 1'
_cell_length_a   7.86066915
_cell_length_b   8.54136992
_cell_length_c   16.06943559
_cell_angle_alpha   90.04868566
_cell_angle_beta   89.97806426
_cell_angle_gamma   90.13905363
_symmetry_Int_Tables_number   1
_chemical_formula_structural   Yb3(LuPb2)2
_chemical_formula_sum   'Yb12 Lu8 Pb16'
_cell_volume   1078.91244993
_cell_formula_units_Z   4
loop_
 _symmetry_equiv_pos_site_id
 _symmetry_equiv_pos_as_xyz
  1  'x, y, z'
loop_
 _atom_site_type_symbol
 _atom_site_label
 _atom_site_symmetry_multiplicity
 _atom_site_fract_x
 _atom_site_fract_y
 _atom_site_fract_z
 _atom_site_occupancy
  Yb  Yb0  1  0.179477  0.341365  0.619816  1
  Yb  Yb1  1  0.499283  0.691415  0.591981  1
  Yb  Yb2  1  0.998856  0.809682  0.910593  1
  Yb  Yb3  1  0.498078  0.307995  0.090883  1
  Yb  Yb4  1  0.001100  0.192084  0.407808  1
  Yb  Yb5  1  0.499142  0.308842  0.409217  1
  Yb  Yb6  1  0.000720  0.190255  0.091257  1
  Yb  Yb7  1  0.498004  0.690497  0.908673  1
  Yb  Yb8  1  0.001193  0.809703  0.590030  1
  Yb  Yb9  1  0.335472  0.993174  0.749846  1
  Yb  Yb10  1  0.164031  0.490598  0.249063  1
  Yb  Yb11  1  0.665325  0.008676  0.250564  1
  Lu  Lu12  1  0.675315  0.158102  0.621768  1
  Lu  Lu13  1  0.174773  0.340641  0.879461  1
  Lu  Lu14  1  0.324299  0.840357  0.120734  1
  Lu  Lu15  1  0.826168  0.657839  0.378494  1
  Lu  Lu16  1  0.323696  0.841541  0.378145  1
  Lu  Lu17  1  0.824292  0.658721  0.120708  1
  Lu  Lu18  1  0.675587  0.156755  0.880037  1
  Lu  Lu19  1  0.838398  0.505790  0.748611  1
  Pb  Pb20  1  0.685522  0.960900  0.457470  1
  Pb  Pb21  1  0.179398  0.536619  0.042493  1
  Pb  Pb22  1  0.318475  0.036827  0.956923  1
  Pb  Pb23  1  0.814997  0.464973  0.544737  1
  Pb  Pb24  1  0.327773  0.036092  0.542723  1
  Pb  Pb25  1  0.818592  0.464125  0.954442  1
  Pb  Pb26  1  0.681258  0.961813  0.043376  1
  Pb  Pb27  1  0.177141  0.539788  0.454025  1
  Pb  Pb28  1  0.480943  0.375669  0.754882  1
  Pb  Pb29  1  0.973968  0.132732  0.750145  1
  Pb  Pb30  1  0.523054  0.635186  0.250012  1
  Pb  Pb31  1  0.023822  0.866109  0.248450  1
  Pb  Pb32  1  0.715493  0.858128  0.751284  1
  Pb  Pb33  1  0.206770  0.637055  0.752639  1
  Pb  Pb34  1  0.285823  0.133385  0.249572  1
  Pb  Pb35  1  0.783763  0.366569  0.249137  1
