# generated using pymatgen
data_Ba2Ga3SiRh6
_symmetry_space_group_name_H-M   'P 1'
_cell_length_a   5.89283330
_cell_length_b   6.98003926
_cell_length_c   6.98004032
_cell_angle_alpha   64.42465265
_cell_angle_beta   64.86296704
_cell_angle_gamma   64.86295687
_symmetry_Int_Tables_number   1
_chemical_formula_structural   Ba2Ga3SiRh6
_chemical_formula_sum   'Ba2 Ga3 Si1 Rh6'
_cell_volume   223.96832262
_cell_formula_units_Z   1
loop_
 _symmetry_equiv_pos_site_id
 _symmetry_equiv_pos_as_xyz
  1  'x, y, z'
loop_
 _atom_site_type_symbol
 _atom_site_label
 _atom_site_symmetry_multiplicity
 _atom_site_fract_x
 _atom_site_fract_y
 _atom_site_fract_z
 _atom_site_occupancy
  Ba  Ba0  1  0.509438  0.748296  0.748296  1
  Ba  Ba1  1  0.489752  0.250537  0.250537  1
  Ga  Ga2  1  0.192551  0.571625  0.571625  1
  Ga  Ga3  1  0.821039  0.415859  0.415859  1
  Ga  Ga4  1  0.144604  0.095616  0.095616  1
  Si  Si5  1  0.839259  0.919371  0.919371  1
  Rh  Rh6  1  0.505311  0.228688  0.767737  1
  Rh  Rh7  1  0.998064  0.755949  0.240837  1
  Rh  Rh8  1  0.505311  0.767737  0.228688  1
  Rh  Rh9  1  0.998064  0.240837  0.755949  1
  Rh  Rh10  1  0.998302  0.521529  0.983955  1
  Rh  Rh11  1  0.998302  0.983955  0.521529  1
