# generated using pymatgen
data_Er4Al16Ga2Ir5Pd
_symmetry_space_group_name_H-M   'P 1'
_cell_length_a   7.54969473
_cell_length_b   7.54969579
_cell_length_c   9.47065414
_cell_angle_alpha   89.94380860
_cell_angle_beta   89.94381125
_cell_angle_gamma   119.52802156
_symmetry_Int_Tables_number   1
_chemical_formula_structural   Er4Al16Ga2Ir5Pd
_chemical_formula_sum   'Er4 Al16 Ga2 Ir5 Pd1'
_cell_volume   469.69348337
_cell_formula_units_Z   1
loop_
 _symmetry_equiv_pos_site_id
 _symmetry_equiv_pos_as_xyz
  1  'x, y, z'
loop_
 _atom_site_type_symbol
 _atom_site_label
 _atom_site_symmetry_multiplicity
 _atom_site_fract_x
 _atom_site_fract_y
 _atom_site_fract_z
 _atom_site_occupancy
  Er  Er0  1  0.995342  0.671832  0.248634  1
  Er  Er1  1  0.004658  0.328168  0.751366  1
  Er  Er2  1  0.671832  0.995342  0.248634  1
  Er  Er3  1  0.328168  0.004658  0.751366  1
  Al  Al4  1  0.000469  0.334603  0.074340  1
  Al  Al5  1  0.999531  0.665397  0.925660  1
  Al  Al6  1  0.998517  0.661190  0.576692  1
  Al  Al7  1  0.338810  0.001483  0.423308  1
  Al  Al8  1  0.001483  0.338810  0.423308  1
  Al  Al9  1  0.661190  0.998517  0.576692  1
  Al  Al10  1  0.665397  0.999531  0.925660  1
  Al  Al11  1  0.334603  0.000469  0.074340  1
  Al  Al12  1  0.336837  0.336837  0.556955  1
  Al  Al13  1  0.663163  0.663163  0.443045  1
  Al  Al14  1  0.666421  0.666421  0.053973  1
  Al  Al15  1  0.333579  0.333579  0.946027  1
  Al  Al16  1  0.337894  0.548837  0.249550  1
  Al  Al17  1  0.662106  0.451163  0.750450  1
  Al  Al18  1  0.548837  0.337894  0.249550  1
  Al  Al19  1  0.451163  0.662106  0.750450  1
  Ga  Ga20  1  0.131219  0.131219  0.248813  1
  Ga  Ga21  1  0.868781  0.868781  0.751187  1
  Ir  Ir22  1  0.671752  0.328248  0.000000  1
  Ir  Ir23  1  0.328248  0.671752  0.000000  1
  Ir  Ir24  1  0.328168  0.671832  0.500000  1
  Ir  Ir25  1  0.671832  0.328168  0.500000  1
  Ir  Ir26  1  0.000000  0.000000  0.000000  1
  Pd  Pd27  1  0.000000  0.000000  0.500000  1
