# generated using pymatgen
data_Tb12In2SiOs3
_symmetry_space_group_name_H-M   'P 1'
_cell_length_a   8.55778216
_cell_length_b   8.55768342
_cell_length_c   8.55778179
_cell_angle_alpha   112.62495625
_cell_angle_beta   112.16718969
_cell_angle_gamma   103.76849952
_symmetry_Int_Tables_number   1
_chemical_formula_structural   Tb12In2SiOs3
_chemical_formula_sum   'Tb12 In2 Si1 Os3'
_cell_volume   478.90724943
_cell_formula_units_Z   1
loop_
 _symmetry_equiv_pos_site_id
 _symmetry_equiv_pos_as_xyz
  1  'x, y, z'
loop_
 _atom_site_type_symbol
 _atom_site_label
 _atom_site_symmetry_multiplicity
 _atom_site_fract_x
 _atom_site_fract_y
 _atom_site_fract_z
 _atom_site_occupancy
  Tb  Tb0  1  0.444182  0.241510  0.202578  1
  Tb  Tb1  1  0.552714  0.757782  0.795031  1
  Tb  Tb2  1  0.038932  0.241510  0.797328  1
  Tb  Tb3  1  0.962750  0.757782  0.205069  1
  Tb  Tb4  1  0.185244  0.283943  0.462823  1
  Tb  Tb5  1  0.821142  0.722466  0.537207  1
  Tb  Tb6  1  0.185259  0.722466  0.901324  1
  Tb  Tb7  1  0.821120  0.283943  0.098700  1
  Tb  Tb8  1  0.330474  0.645227  0.314752  1
  Tb  Tb9  1  0.662673  0.350623  0.687950  1
  Tb  Tb10  1  0.330450  0.015696  0.685245  1
  Tb  Tb11  1  0.662686  0.974696  0.312011  1
  In  In12  1  0.500735  0.500720  0.999985  1
  In  In13  1  0.997618  0.997622  0.000003  1
  Si  Si14  1  0.879182  0.379174  0.499992  1
  Os  Os15  1  0.334539  0.003885  0.330672  1
  Os  Os16  1  0.673212  0.003885  0.669346  1
  Os  Os17  1  0.117088  0.617071  0.499983  1
