# generated using pymatgen
data_Tm16In6OsAu
_symmetry_space_group_name_H-M   'P 1'
_cell_length_a   10.38917000
_cell_length_b   10.38913956
_cell_length_c   6.87481700
_cell_angle_alpha   90.00006531
_cell_angle_beta   89.99990036
_cell_angle_gamma   120.00010242
_symmetry_Int_Tables_number   1
_chemical_formula_structural   Tm16In6OsAu
_chemical_formula_sum   'Tm16 In6 Os1 Au1'
_cell_volume   642.61633206
_cell_formula_units_Z   1
loop_
 _symmetry_equiv_pos_site_id
 _symmetry_equiv_pos_as_xyz
  1  'x, y, z'
loop_
 _atom_site_type_symbol
 _atom_site_label
 _atom_site_symmetry_multiplicity
 _atom_site_fract_x
 _atom_site_fract_y
 _atom_site_fract_z
 _atom_site_occupancy
  Tm  Tm0  1  0.532874  0.065748  0.514434  1
  Tm  Tm1  1  0.934252  0.467127  0.514434  1
  Tm  Tm2  1  0.532874  0.467126  0.514434  1
  Tm  Tm3  1  0.476138  0.952276  0.018602  1
  Tm  Tm4  1  0.047723  0.523861  0.018602  1
  Tm  Tm5  1  0.476138  0.523861  0.018602  1
  Tm  Tm6  1  0.173721  0.347442  0.726074  1
  Tm  Tm7  1  0.652558  0.826279  0.726074  1
  Tm  Tm8  1  0.173721  0.826279  0.726074  1
  Tm  Tm9  1  0.823061  0.646121  0.225975  1
  Tm  Tm10  1  0.353878  0.176939  0.225976  1
  Tm  Tm11  1  0.823061  0.176939  0.225976  1
  Tm  Tm12  1  0.666667  0.333333  0.889781  1
  Tm  Tm13  1  0.333333  0.666667  0.378708  1
  Tm  Tm14  1  0.000000  0.000000  0.503689  1
  Tm  Tm15  1  0.000000  0.000001  0.000813  1
  In  In16  1  0.837822  0.675645  0.758975  1
  In  In17  1  0.324360  0.162178  0.758980  1
  In  In18  1  0.837823  0.162178  0.758976  1
  In  In19  1  0.163417  0.326835  0.256986  1
  In  In20  1  0.673164  0.836582  0.256987  1
  In  In21  1  0.163417  0.836582  0.256987  1
  Os  Os22  1  0.666665  0.333333  0.290824  1
  Au  Au23  1  0.333333  0.666666  0.791044  1
