# generated using pymatgen
data_Th8Zn8Ir7Rh
_symmetry_space_group_name_H-M   'P 1'
_cell_length_a   3.95646600
_cell_length_b   7.47258449
_cell_length_c   16.73829628
_cell_angle_alpha   89.82372208
_cell_angle_beta   90.00000000
_cell_angle_gamma   90.00000000
_symmetry_Int_Tables_number   1
_chemical_formula_structural   Th8Zn8Ir7Rh
_chemical_formula_sum   'Th8 Zn8 Ir7 Rh1'
_cell_volume   494.86583014
_cell_formula_units_Z   1
loop_
 _symmetry_equiv_pos_site_id
 _symmetry_equiv_pos_as_xyz
  1  'x, y, z'
loop_
 _atom_site_type_symbol
 _atom_site_label
 _atom_site_symmetry_multiplicity
 _atom_site_fract_x
 _atom_site_fract_y
 _atom_site_fract_z
 _atom_site_occupancy
  Th  Th0  1  0.250000  0.174981  0.939892  1
  Th  Th1  1  0.250000  0.672389  0.559846  1
  Th  Th2  1  0.750000  0.326551  0.440011  1
  Th  Th3  1  0.750000  0.937785  0.285235  1
  Th  Th4  1  0.750000  0.828261  0.060261  1
  Th  Th5  1  0.750000  0.437765  0.214597  1
  Th  Th6  1  0.250000  0.061406  0.714942  1
  Th  Th7  1  0.250000  0.561886  0.785216  1
  Zn  Zn8  1  0.750000  0.003637  0.559448  1
  Zn  Zn9  1  0.250000  0.611021  0.347114  1
  Zn  Zn10  1  0.750000  0.388413  0.652573  1
  Zn  Zn11  1  0.250000  0.495713  0.058903  1
  Zn  Zn12  1  0.750000  0.505580  0.940907  1
  Zn  Zn13  1  0.250000  0.995435  0.440711  1
  Zn  Zn14  1  0.250000  0.111130  0.152750  1
  Zn  Zn15  1  0.750000  0.888272  0.847058  1
  Ir  Ir16  1  0.750000  0.744837  0.436784  1
  Ir  Ir17  1  0.250000  0.240538  0.314793  1
  Ir  Ir18  1  0.750000  0.260779  0.815288  1
  Ir  Ir19  1  0.750000  0.758330  0.685528  1
  Ir  Ir20  1  0.250000  0.254663  0.563353  1
  Ir  Ir21  1  0.250000  0.740945  0.184248  1
  Ir  Ir22  1  0.750000  0.244133  0.063151  1
  Rh  Rh23  1  0.250000  0.755547  0.937393  1
