# generated using pymatgen
data_Mg5Al(Zn2Pt)6
_symmetry_space_group_name_H-M   'P 1'
_cell_length_a   7.50158340
_cell_length_b   7.50158232
_cell_length_c   8.22555068
_cell_angle_alpha   89.64160075
_cell_angle_beta   89.64160978
_cell_angle_gamma   120.46108277
_symmetry_Int_Tables_number   1
_chemical_formula_structural   Mg5Al(Zn2Pt)6
_chemical_formula_sum   'Mg5 Al1 Zn12 Pt6'
_cell_volume   398.96091549
_cell_formula_units_Z   1
loop_
 _symmetry_equiv_pos_site_id
 _symmetry_equiv_pos_as_xyz
  1  'x, y, z'
loop_
 _atom_site_type_symbol
 _atom_site_label
 _atom_site_symmetry_multiplicity
 _atom_site_fract_x
 _atom_site_fract_y
 _atom_site_fract_z
 _atom_site_occupancy
  Mg  Mg0  1  0.003973  0.368855  0.925817  1
  Mg  Mg1  1  0.368855  0.003973  0.925817  1
  Mg  Mg2  1  0.628936  0.998155  0.431203  1
  Mg  Mg3  1  0.998155  0.628936  0.431203  1
  Mg  Mg4  1  0.637910  0.637910  0.927493  1
  Al  Al5  1  0.995146  0.995146  0.312832  1
  Zn  Zn6  1  0.006573  0.006573  0.840098  1
  Zn  Zn7  1  0.332271  0.669191  0.202180  1
  Zn  Zn8  1  0.672717  0.331650  0.702551  1
  Zn  Zn9  1  0.331650  0.672717  0.702551  1
  Zn  Zn10  1  0.669191  0.332271  0.202180  1
  Zn  Zn11  1  0.308046  0.308046  0.090678  1
  Zn  Zn12  1  0.006519  0.288193  0.587177  1
  Zn  Zn13  1  0.288193  0.006519  0.587177  1
  Zn  Zn14  1  0.700424  0.999559  0.089027  1
  Zn  Zn15  1  0.999559  0.700424  0.089027  1
  Zn  Zn16  1  0.689378  0.689378  0.589606  1
  Zn  Zn17  1  0.361420  0.361420  0.428838  1
  Pt  Pt18  1  0.332104  0.332104  0.755362  1
  Pt  Pt19  1  0.000578  0.317713  0.261850  1
  Pt  Pt20  1  0.317713  0.000578  0.261850  1
  Pt  Pt21  1  0.680648  0.998504  0.761592  1
  Pt  Pt22  1  0.998504  0.680648  0.761592  1
  Pt  Pt23  1  0.671541  0.671541  0.263896  1
