# generated using pymatgen
data_Eu4Tm2FeCo17P12
_symmetry_space_group_name_H-M   'P 1'
_cell_length_a   3.71387400
_cell_length_b   10.57471100
_cell_length_c   12.22153900
_cell_angle_alpha   90.00000000
_cell_angle_beta   90.00000000
_cell_angle_gamma   90.00000000
_symmetry_Int_Tables_number   1
_chemical_formula_structural   Eu4Tm2FeCo17P12
_chemical_formula_sum   'Eu4 Tm2 Fe1 Co17 P12'
_cell_volume   479.97826399
_cell_formula_units_Z   1
loop_
 _symmetry_equiv_pos_site_id
 _symmetry_equiv_pos_as_xyz
  1  'x, y, z'
loop_
 _atom_site_type_symbol
 _atom_site_label
 _atom_site_symmetry_multiplicity
 _atom_site_fract_x
 _atom_site_fract_y
 _atom_site_fract_z
 _atom_site_occupancy
  Eu  Eu0  1  0.000000  0.500000  0.525079  1
  Eu  Eu1  1  0.500000  0.000000  0.476166  1
  Eu  Eu2  1  0.500000  0.819868  0.205304  1
  Eu  Eu3  1  0.500000  0.180132  0.205304  1
  Tm  Tm4  1  0.000000  0.681085  0.795714  1
  Tm  Tm5  1  0.000000  0.318915  0.795714  1
  Fe  Fe6  1  0.500000  0.500000  0.154630  1
  Co  Co7  1  0.000000  0.000000  0.842601  1
  Co  Co8  1  0.500000  0.500000  0.704269  1
  Co  Co9  1  0.000000  0.000000  0.297686  1
  Co  Co10  1  0.000000  0.500000  0.984332  1
  Co  Co11  1  0.500000  0.000000  0.007984  1
  Co  Co12  1  0.500000  0.334224  0.991877  1
  Co  Co13  1  0.500000  0.665776  0.991877  1
  Co  Co14  1  0.000000  0.168515  0.002037  1
  Co  Co15  1  0.000000  0.831485  0.002037  1
  Co  Co16  1  0.500000  0.297404  0.432678  1
  Co  Co17  1  0.500000  0.702596  0.432678  1
  Co  Co18  1  0.000000  0.204092  0.572926  1
  Co  Co19  1  0.000000  0.795908  0.572926  1
  Co  Co20  1  0.500000  0.879220  0.712349  1
  Co  Co21  1  0.500000  0.120780  0.712349  1
  Co  Co22  1  0.000000  0.619160  0.290630  1
  Co  Co23  1  0.000000  0.380840  0.290630  1
  P  P24  1  0.500000  0.500000  0.881331  1
  P  P25  1  0.000000  0.000000  0.112240  1
  P  P26  1  0.500000  0.500000  0.339470  1
  P  P27  1  0.000000  0.000000  0.659832  1
  P  P28  1  0.500000  0.307676  0.619497  1
  P  P29  1  0.500000  0.692324  0.619497  1
  P  P30  1  0.000000  0.194906  0.386357  1
  P  P31  1  0.000000  0.805094  0.386357  1
  P  P32  1  0.500000  0.844577  0.892460  1
  P  P33  1  0.500000  0.155423  0.892460  1
  P  P34  1  0.000000  0.651389  0.105361  1
  P  P35  1  0.000000  0.348611  0.105361  1
