# generated using pymatgen
data_BaMo2F10
_symmetry_space_group_name_H-M   'P 1'
_cell_length_a   8.43344894
_cell_length_b   8.43344886
_cell_length_c   8.88172197
_cell_angle_alpha   84.25370146
_cell_angle_beta   84.25370560
_cell_angle_gamma   137.71033660
_symmetry_Int_Tables_number   1
_chemical_formula_structural   BaMo2F10
_chemical_formula_sum   'Ba2 Mo4 F20'
_cell_volume   408.35324468
_cell_formula_units_Z   2
loop_
 _symmetry_equiv_pos_site_id
 _symmetry_equiv_pos_as_xyz
  1  'x, y, z'
loop_
 _atom_site_type_symbol
 _atom_site_label
 _atom_site_symmetry_multiplicity
 _atom_site_fract_x
 _atom_site_fract_y
 _atom_site_fract_z
 _atom_site_occupancy
  Ba  Ba0  1  0.428064  0.571936  0.750000  1
  Ba  Ba1  1  0.571936  0.428064  0.250000  1
  Mo  Mo2  1  0.348804  0.034859  0.901018  1
  Mo  Mo3  1  0.965141  0.651196  0.598982  1
  Mo  Mo4  1  0.651196  0.965141  0.098982  1
  Mo  Mo5  1  0.034859  0.348804  0.401018  1
  F  F6  1  0.139234  0.557161  0.573032  1
  F  F7  1  0.442839  0.860766  0.926968  1
  F  F8  1  0.860766  0.442839  0.426968  1
  F  F9  1  0.557161  0.139234  0.073032  1
  F  F10  1  0.697882  0.302118  0.750000  1
  F  F11  1  0.302118  0.697882  0.250000  1
  F  F12  1  0.200857  0.799143  0.750000  1
  F  F13  1  0.799143  0.200857  0.250000  1
  F  F14  1  0.973037  0.243391  0.938962  1
  F  F15  1  0.756609  0.026963  0.561038  1
  F  F16  1  0.026963  0.756609  0.061038  1
  F  F17  1  0.243391  0.973037  0.438962  1
  F  F18  1  0.256537  0.378213  0.499107  1
  F  F19  1  0.621787  0.743463  0.000893  1
  F  F20  1  0.743463  0.621787  0.500893  1
  F  F21  1  0.378213  0.256537  0.999107  1
  F  F22  1  0.287322  0.158160  0.747602  1
  F  F23  1  0.841840  0.712678  0.752398  1
  F  F24  1  0.712678  0.841840  0.252398  1
  F  F25  1  0.158160  0.287322  0.247602  1
