# generated using pymatgen
data_NaDy3P7Ir8
_symmetry_space_group_name_H-M   'P 1'
_cell_length_a   3.94862400
_cell_length_b   12.67686644
_cell_length_c   13.11054400
_cell_angle_alpha   80.86118995
_cell_angle_beta   90.00000000
_cell_angle_gamma   90.00000000
_symmetry_Int_Tables_number   1
_chemical_formula_structural   NaDy3P7Ir8
_chemical_formula_sum   'Na2 Dy6 P14 Ir16'
_cell_volume   647.93342149
_cell_formula_units_Z   2
loop_
 _symmetry_equiv_pos_site_id
 _symmetry_equiv_pos_as_xyz
  1  'x, y, z'
loop_
 _atom_site_type_symbol
 _atom_site_label
 _atom_site_symmetry_multiplicity
 _atom_site_fract_x
 _atom_site_fract_y
 _atom_site_fract_z
 _atom_site_occupancy
  Na  Na0  1  0.250000  0.104465  0.791046  1
  Na  Na1  1  0.750000  0.895535  0.208954  1
  Dy  Dy2  1  0.250000  0.280475  0.102860  1
  Dy  Dy3  1  0.750000  0.719525  0.897140  1
  Dy  Dy4  1  0.250000  0.523125  0.293264  1
  Dy  Dy5  1  0.750000  0.476875  0.706736  1
  Dy  Dy6  1  0.250000  0.208345  0.438715  1
  Dy  Dy7  1  0.750000  0.791655  0.561285  1
  P  P8  1  0.250000  0.052368  0.100492  1
  P  P9  1  0.750000  0.947632  0.899508  1
  P  P10  1  0.250000  0.307093  0.688266  1
  P  P11  1  0.750000  0.692907  0.311734  1
  P  P12  1  0.250000  0.609051  0.565908  1
  P  P13  1  0.750000  0.390949  0.434092  1
  P  P14  1  0.250000  0.844149  0.718856  1
  P  P15  1  0.750000  0.155851  0.281144  1
  P  P16  1  0.750000  0.259191  0.922223  1
  P  P17  1  0.250000  0.740809  0.077777  1
  P  P18  1  0.750000  0.092917  0.587430  1
  P  P19  1  0.250000  0.907083  0.412570  1
  P  P20  1  0.750000  0.473395  0.129760  1
  P  P21  1  0.250000  0.526605  0.870240  1
  Ir  Ir22  1  0.250000  0.986469  0.575817  1
  Ir  Ir23  1  0.750000  0.013531  0.424183  1
  Ir  Ir24  1  0.250000  0.662684  0.731769  1
  Ir  Ir25  1  0.750000  0.337316  0.268231  1
  Ir  Ir26  1  0.250000  0.553850  0.046419  1
  Ir  Ir27  1  0.750000  0.446150  0.953581  1
  Ir  Ir28  1  0.250000  0.063323  0.271122  1
  Ir  Ir29  1  0.750000  0.936677  0.728878  1
  Ir  Ir30  1  0.250000  0.423374  0.524217  1
  Ir  Ir31  1  0.750000  0.576626  0.475783  1
  Ir  Ir32  1  0.250000  0.916185  0.995938  1
  Ir  Ir33  1  0.750000  0.083815  0.004062  1
  Ir  Ir34  1  0.250000  0.727278  0.400506  1
  Ir  Ir35  1  0.750000  0.272722  0.599494  1
  Ir  Ir36  1  0.250000  0.340976  0.858097  1
  Ir  Ir37  1  0.750000  0.659024  0.141903  1
