# generated using pymatgen
data_Mg4Zn3Ga3Rh2
_symmetry_space_group_name_H-M   'P 1'
_cell_length_a   5.18032286
_cell_length_b   5.25587232
_cell_length_c   8.38874400
_cell_angle_alpha   90.00000000
_cell_angle_beta   90.00000000
_cell_angle_gamma   119.68647773
_symmetry_Int_Tables_number   1
_chemical_formula_structural   Mg4Zn3Ga3Rh2
_chemical_formula_sum   'Mg4 Zn3 Ga3 Rh2'
_cell_volume   198.42327069
_cell_formula_units_Z   1
loop_
 _symmetry_equiv_pos_site_id
 _symmetry_equiv_pos_as_xyz
  1  'x, y, z'
loop_
 _atom_site_type_symbol
 _atom_site_label
 _atom_site_symmetry_multiplicity
 _atom_site_fract_x
 _atom_site_fract_y
 _atom_site_fract_z
 _atom_site_occupancy
  Mg  Mg0  1  0.324216  0.657784  0.064664  1
  Mg  Mg1  1  0.676537  0.334853  0.568788  1
  Mg  Mg2  1  0.676537  0.334853  0.931212  1
  Mg  Mg3  1  0.324216  0.657784  0.435336  1
  Zn  Zn4  1  0.654827  0.822177  0.750000  1
  Zn  Zn5  1  0.170244  0.826823  0.750000  1
  Zn  Zn6  1  0.831126  0.660551  0.250000  1
  Ga  Ga7  1  0.997531  0.017000  0.997488  1
  Ga  Ga8  1  0.997531  0.017000  0.502512  1
  Ga  Ga9  1  0.346381  0.167279  0.250000  1
  Rh  Rh10  1  0.176060  0.339439  0.750000  1
  Rh  Rh11  1  0.824796  0.164458  0.250000  1
