# generated using pymatgen
data_TaBeBMo
_symmetry_space_group_name_H-M   'P 1'
_cell_length_a   4.66218794
_cell_length_b   4.66218885
_cell_length_c   3.23194500
_cell_angle_alpha   90.00000000
_cell_angle_beta   90.00000000
_cell_angle_gamma   139.14175458
_symmetry_Int_Tables_number   1
_chemical_formula_structural   TaBeBMo
_chemical_formula_sum   'Ta1 Be1 B1 Mo1'
_cell_volume   45.95654515
_cell_formula_units_Z   1
loop_
 _symmetry_equiv_pos_site_id
 _symmetry_equiv_pos_as_xyz
  1  'x, y, z'
loop_
 _atom_site_type_symbol
 _atom_site_label
 _atom_site_symmetry_multiplicity
 _atom_site_fract_x
 _atom_site_fract_y
 _atom_site_fract_z
 _atom_site_occupancy
  Ta  Ta0  1  0.851419  0.148581  0.000000  1
  Be  Be1  1  0.565127  0.434873  0.000000  1
  B  B2  1  0.436135  0.563865  0.500000  1
  Mo  Mo3  1  0.147318  0.852682  0.500000  1
