# generated using pymatgen
data_La5TlSi2
_symmetry_space_group_name_H-M   'P 1'
_cell_length_a   8.15167300
_cell_length_b   9.24028683
_cell_length_c   8.15167300
_cell_angle_alpha   116.17371676
_cell_angle_beta   90.00000000
_cell_angle_gamma   116.17371676
_symmetry_Int_Tables_number   1
_chemical_formula_structural   La5TlSi2
_chemical_formula_sum   'La10 Tl2 Si4'
_cell_volume   479.90358092
_cell_formula_units_Z   2
loop_
 _symmetry_equiv_pos_site_id
 _symmetry_equiv_pos_as_xyz
  1  'x, y, z'
loop_
 _atom_site_type_symbol
 _atom_site_label
 _atom_site_symmetry_multiplicity
 _atom_site_fract_x
 _atom_site_fract_y
 _atom_site_fract_z
 _atom_site_occupancy
  La  La0  1  0.000000  0.000000  0.000000  1
  La  La1  1  0.500000  0.000000  0.500000  1
  La  La2  1  0.534326  0.718145  0.683821  1
  La  La3  1  0.183821  0.718145  0.034326  1
  La  La4  1  0.683821  0.718145  0.183821  1
  La  La5  1  0.034326  0.718145  0.534326  1
  La  La6  1  0.465674  0.281855  0.316179  1
  La  La7  1  0.816179  0.281855  0.965674  1
  La  La8  1  0.316179  0.281855  0.816179  1
  La  La9  1  0.965674  0.281855  0.465674  1
  Tl  Tl10  1  0.750000  0.500000  0.750000  1
  Tl  Tl11  1  0.250000  0.500000  0.250000  1
  Si  Si12  1  0.886620  0.000000  0.613380  1
  Si  Si13  1  0.113380  0.000000  0.386620  1
  Si  Si14  1  0.613380  0.000000  0.113380  1
  Si  Si15  1  0.386620  0.000000  0.886620  1
