# generated using pymatgen
data_Na4SnAs2O9
_symmetry_space_group_name_H-M   'P 1'
_cell_length_a   8.93898431
_cell_length_b   8.93898423
_cell_length_c   7.97130962
_cell_angle_alpha   89.80627431
_cell_angle_beta   89.80627665
_cell_angle_gamma   48.89763923
_symmetry_Int_Tables_number   1
_chemical_formula_structural   Na4SnAs2O9
_chemical_formula_sum   'Na8 Sn2 As4 O18'
_cell_volume   479.96239392
_cell_formula_units_Z   2
loop_
 _symmetry_equiv_pos_site_id
 _symmetry_equiv_pos_as_xyz
  1  'x, y, z'
loop_
 _atom_site_type_symbol
 _atom_site_label
 _atom_site_symmetry_multiplicity
 _atom_site_fract_x
 _atom_site_fract_y
 _atom_site_fract_z
 _atom_site_occupancy
  Na  Na0  1  0.745170  0.254830  0.000000  1
  Na  Na1  1  0.626236  0.626236  0.283823  1
  Na  Na2  1  0.893487  0.893487  0.242237  1
  Na  Na3  1  0.106513  0.106513  0.757763  1
  Na  Na4  1  0.500000  0.000000  0.500000  1
  Na  Na5  1  0.254830  0.745170  0.000000  1
  Na  Na6  1  0.373764  0.373764  0.716177  1
  Na  Na7  1  0.000000  0.500000  0.500000  1
  Sn  Sn8  1  0.000000  0.500000  0.000000  1
  Sn  Sn9  1  0.500000  0.000000  0.000000  1
  As  As10  1  0.127275  0.127275  0.280167  1
  As  As11  1  0.390693  0.390693  0.242234  1
  As  As12  1  0.872725  0.872725  0.719833  1
  As  As13  1  0.609307  0.609307  0.757766  1
  O  O14  1  0.556376  0.166372  0.130598  1
  O  O15  1  0.505816  0.505816  0.780993  1
  O  O16  1  0.443624  0.833628  0.869402  1
  O  O17  1  0.138694  0.138694  0.490778  1
  O  O18  1  0.377369  0.982894  0.219200  1
  O  O19  1  0.982894  0.377369  0.219200  1
  O  O20  1  0.833628  0.443624  0.869402  1
  O  O21  1  0.965859  0.965859  0.815688  1
  O  O22  1  0.166372  0.556376  0.130598  1
  O  O23  1  0.239651  0.239651  0.900312  1
  O  O24  1  0.017106  0.622631  0.780800  1
  O  O25  1  0.760349  0.760349  0.099688  1
  O  O26  1  0.861306  0.861306  0.509222  1
  O  O27  1  0.494184  0.494184  0.219007  1
  O  O28  1  0.622631  0.017106  0.780800  1
  O  O29  1  0.654836  0.654836  0.565878  1
  O  O30  1  0.034141  0.034141  0.184312  1
  O  O31  1  0.345164  0.345164  0.434122  1
