# generated using pymatgen
data_Dy3Sc(Co4P3)2
_symmetry_space_group_name_H-M   'P 1'
_cell_length_a   3.72524900
_cell_length_b   10.66571900
_cell_length_c   12.36779600
_cell_angle_alpha   90.00000000
_cell_angle_beta   90.00000000
_cell_angle_gamma   90.00000000
_symmetry_Int_Tables_number   1
_chemical_formula_structural   Dy3Sc(Co4P3)2
_chemical_formula_sum   'Dy6 Sc2 Co16 P12'
_cell_volume   491.40294797
_cell_formula_units_Z   2
loop_
 _symmetry_equiv_pos_site_id
 _symmetry_equiv_pos_as_xyz
  1  'x, y, z'
loop_
 _atom_site_type_symbol
 _atom_site_label
 _atom_site_symmetry_multiplicity
 _atom_site_fract_x
 _atom_site_fract_y
 _atom_site_fract_z
 _atom_site_occupancy
  Dy  Dy0  1  0.000000  0.500000  0.527189  1
  Dy  Dy1  1  0.500000  0.000000  0.472811  1
  Dy  Dy2  1  0.500000  0.822127  0.205835  1
  Dy  Dy3  1  0.500000  0.177873  0.205835  1
  Dy  Dy4  1  0.000000  0.677873  0.794165  1
  Dy  Dy5  1  0.000000  0.322127  0.794165  1
  Sc  Sc6  1  0.500000  0.500000  0.156962  1
  Sc  Sc7  1  0.000000  0.000000  0.843038  1
  Co  Co8  1  0.500000  0.500000  0.704836  1
  Co  Co9  1  0.000000  0.000000  0.295164  1
  Co  Co10  1  0.000000  0.500000  0.987386  1
  Co  Co11  1  0.500000  0.000000  0.012614  1
  Co  Co12  1  0.500000  0.331338  0.994464  1
  Co  Co13  1  0.500000  0.668662  0.994464  1
  Co  Co14  1  0.000000  0.168662  0.005536  1
  Co  Co15  1  0.000000  0.831338  0.005536  1
  Co  Co16  1  0.500000  0.295463  0.432911  1
  Co  Co17  1  0.500000  0.704537  0.432911  1
  Co  Co18  1  0.000000  0.204537  0.567089  1
  Co  Co19  1  0.000000  0.795463  0.567089  1
  Co  Co20  1  0.500000  0.878020  0.702661  1
  Co  Co21  1  0.500000  0.121980  0.702661  1
  Co  Co22  1  0.000000  0.621980  0.297339  1
  Co  Co23  1  0.000000  0.378020  0.297339  1
  P  P24  1  0.500000  0.500000  0.885378  1
  P  P25  1  0.000000  0.000000  0.114622  1
  P  P26  1  0.500000  0.500000  0.359614  1
  P  P27  1  0.000000  0.000000  0.640386  1
  P  P28  1  0.500000  0.309352  0.615325  1
  P  P29  1  0.500000  0.690648  0.615325  1
  P  P30  1  0.000000  0.190648  0.384675  1
  P  P31  1  0.000000  0.809352  0.384675  1
  P  P32  1  0.500000  0.839617  0.893105  1
  P  P33  1  0.500000  0.160383  0.893105  1
  P  P34  1  0.000000  0.660383  0.106895  1
  P  P35  1  0.000000  0.339617  0.106895  1
