# generated using pymatgen
data_La5SiSn2H
_symmetry_space_group_name_H-M   'P 1'
_cell_length_a   9.25962396
_cell_length_b   9.25962479
_cell_length_c   9.35630464
_cell_angle_alpha   126.30684193
_cell_angle_beta   126.30683781
_cell_angle_gamma   78.66277514
_symmetry_Int_Tables_number   1
_chemical_formula_structural   La5SiSn2H
_chemical_formula_sum   'La10 Si2 Sn4 H2'
_cell_volume   506.10177811
_cell_formula_units_Z   2
loop_
 _symmetry_equiv_pos_site_id
 _symmetry_equiv_pos_as_xyz
  1  'x, y, z'
loop_
 _atom_site_type_symbol
 _atom_site_label
 _atom_site_symmetry_multiplicity
 _atom_site_fract_x
 _atom_site_fract_y
 _atom_site_fract_z
 _atom_site_occupancy
  La  La0  1  0.500000  0.500000  0.000000  1
  La  La1  1  0.000000  0.000000  0.000000  1
  La  La2  1  0.504777  0.004777  0.811167  1
  La  La3  1  0.193610  0.693610  0.188833  1
  La  La4  1  0.033772  0.173427  0.500000  1
  La  La5  1  0.673427  0.533772  0.500000  1
  La  La6  1  0.495223  0.995223  0.188833  1
  La  La7  1  0.806390  0.306390  0.811167  1
  La  La8  1  0.966228  0.826573  0.500000  1
  La  La9  1  0.326573  0.466228  0.500000  1
  Si  Si10  1  0.385588  0.114412  0.500000  1
  Si  Si11  1  0.614412  0.885588  0.500000  1
  Sn  Sn12  1  0.250000  0.250000  0.000000  1
  Sn  Sn13  1  0.750000  0.750000  0.000000  1
  Sn  Sn14  1  0.869946  0.369946  0.239890  1
  Sn  Sn15  1  0.130054  0.630054  0.760110  1
  H  H16  1  0.240735  0.740735  0.500000  1
  H  H17  1  0.759265  0.259265  0.500000  1
