# generated using pymatgen
data_SmHo3(WN3)4
_symmetry_space_group_name_H-M   'P 1'
_cell_length_a   7.35764220
_cell_length_b   7.35764268
_cell_length_c   6.29588193
_cell_angle_alpha   73.81897679
_cell_angle_beta   73.81897746
_cell_angle_gamma   81.90819175
_symmetry_Int_Tables_number   1
_chemical_formula_structural   SmHo3(WN3)4
_chemical_formula_sum   'Sm1 Ho3 W4 N12'
_cell_volume   313.62225291
_cell_formula_units_Z   1
loop_
 _symmetry_equiv_pos_site_id
 _symmetry_equiv_pos_as_xyz
  1  'x, y, z'
loop_
 _atom_site_type_symbol
 _atom_site_label
 _atom_site_symmetry_multiplicity
 _atom_site_fract_x
 _atom_site_fract_y
 _atom_site_fract_z
 _atom_site_occupancy
  Sm  Sm0  1  0.708088  0.291912  0.750000  1
  Ho  Ho1  1  0.091142  0.908858  0.750000  1
  Ho  Ho2  1  0.288498  0.711502  0.250000  1
  Ho  Ho3  1  0.911560  0.088440  0.250000  1
  W  W4  1  0.378784  0.200514  0.231747  1
  W  W5  1  0.619415  0.798972  0.771004  1
  W  W6  1  0.799486  0.621216  0.268253  1
  W  W7  1  0.201028  0.380585  0.728996  1
  N  N8  1  0.623541  0.111743  0.166234  1
  N  N9  1  0.347015  0.366176  0.433549  1
  N  N10  1  0.005356  0.215085  0.848725  1
  N  N11  1  0.374849  0.888817  0.840384  1
  N  N12  1  0.784915  0.994644  0.651275  1
  N  N13  1  0.111183  0.625151  0.659616  1
  N  N14  1  0.888257  0.376459  0.333766  1
  N  N15  1  0.653096  0.638846  0.562366  1
  N  N16  1  0.633824  0.652985  0.066451  1
  N  N17  1  0.361154  0.346904  0.937634  1
  N  N18  1  0.000373  0.781568  0.152203  1
  N  N19  1  0.218432  0.999627  0.347797  1
