# generated using pymatgen
data_HfSc4Co16Si7Ir
_symmetry_space_group_name_H-M   'P 1'
_cell_length_a   7.95543719
_cell_length_b   7.98641524
_cell_length_c   7.98192088
_cell_angle_alpha   59.76205300
_cell_angle_beta   60.14705702
_cell_angle_gamma   60.19560011
_symmetry_Int_Tables_number   1
_chemical_formula_structural   HfSc4Co16Si7Ir
_chemical_formula_sum   'Hf1 Sc4 Co16 Si7 Ir1'
_cell_volume   358.86983087
_cell_formula_units_Z   1
loop_
 _symmetry_equiv_pos_site_id
 _symmetry_equiv_pos_as_xyz
  1  'x, y, z'
loop_
 _atom_site_type_symbol
 _atom_site_label
 _atom_site_symmetry_multiplicity
 _atom_site_fract_x
 _atom_site_fract_y
 _atom_site_fract_z
 _atom_site_occupancy
  Hf  Hf0  1  0.209938  0.790062  0.200923  1
  Sc  Sc1  1  0.799314  0.792913  0.199713  1
  Sc  Sc2  1  0.785079  0.214921  0.214585  1
  Sc  Sc3  1  0.207087  0.200686  0.791939  1
  Sc  Sc4  1  0.800770  0.199230  0.792390  1
  Co  Co5  1  0.618611  0.620660  0.140216  1
  Co  Co6  1  0.172364  0.480648  0.176393  1
  Co  Co7  1  0.860606  0.379968  0.379038  1
  Co  Co8  1  0.519352  0.827636  0.829403  1
  Co  Co9  1  0.482680  0.172954  0.173797  1
  Co  Co10  1  0.830072  0.830441  0.511509  1
  Co  Co11  1  0.172767  0.176223  0.478822  1
  Co  Co12  1  0.147204  0.620544  0.618898  1
  Co  Co13  1  0.169559  0.169928  0.172023  1
  Co  Co14  1  0.380136  0.386330  0.853154  1
  Co  Co15  1  0.613670  0.619864  0.619622  1
  Co  Co16  1  0.379456  0.852796  0.386645  1
  Co  Co17  1  0.379340  0.381389  0.379488  1
  Co  Co18  1  0.823777  0.827233  0.827810  1
  Co  Co19  1  0.620032  0.139394  0.619613  1
  Co  Co20  1  0.827046  0.517320  0.829429  1
  Si  Si21  1  0.494034  0.990216  0.507084  1
  Si  Si22  1  0.495940  0.504060  0.989383  1
  Si  Si23  1  0.505755  0.494245  0.495164  1
  Si  Si24  1  0.008432  0.991568  0.507554  1
  Si  Si25  1  0.009784  0.505966  0.991334  1
  Si  Si26  1  0.996246  0.501014  0.503129  1
  Si  Si27  1  0.498986  0.003754  0.000389  1
  Ir  Ir28  1  0.191963  0.808037  0.810553  1
