# generated using pymatgen
data_Sr3(InAs2)2
_symmetry_space_group_name_H-M   'P 1'
_cell_length_a   4.49824000
_cell_length_b   7.05123200
_cell_length_c   16.81646900
_cell_angle_alpha   90.00000000
_cell_angle_beta   90.00000000
_cell_angle_gamma   90.00000000
_symmetry_Int_Tables_number   1
_chemical_formula_structural   Sr3(InAs2)2
_chemical_formula_sum   'Sr6 In4 As8'
_cell_volume   533.38701432
_cell_formula_units_Z   2
loop_
 _symmetry_equiv_pos_site_id
 _symmetry_equiv_pos_as_xyz
  1  'x, y, z'
loop_
 _atom_site_type_symbol
 _atom_site_label
 _atom_site_symmetry_multiplicity
 _atom_site_fract_x
 _atom_site_fract_y
 _atom_site_fract_z
 _atom_site_occupancy
  Sr  Sr0  1  0.500000  0.500000  0.500000  1
  Sr  Sr1  1  0.000000  0.294269  0.801878  1
  Sr  Sr2  1  0.500000  0.205731  0.301878  1
  Sr  Sr3  1  0.500000  0.794269  0.698122  1
  Sr  Sr4  1  0.000000  0.705731  0.198122  1
  Sr  Sr5  1  0.000000  0.000000  0.000000  1
  In  In6  1  0.500000  0.366835  0.085294  1
  In  In7  1  0.000000  0.133165  0.585294  1
  In  In8  1  0.000000  0.866835  0.414706  1
  In  In9  1  0.500000  0.633165  0.914706  1
  As  As10  1  0.500000  0.742531  0.332371  1
  As  As11  1  0.500000  0.253136  0.930572  1
  As  As12  1  0.000000  0.246864  0.430572  1
  As  As13  1  0.000000  0.753136  0.569428  1
  As  As14  1  0.500000  0.746864  0.069428  1
  As  As15  1  0.000000  0.757469  0.832371  1
  As  As16  1  0.500000  0.257469  0.667629  1
  As  As17  1  0.000000  0.242531  0.167629  1
