# generated using pymatgen
data_Hf6Ti4Al12Os3Pt4
_symmetry_space_group_name_H-M   'P 1'
_cell_length_a   8.78458910
_cell_length_b   8.79356681
_cell_length_c   8.81164108
_cell_angle_alpha   59.86645905
_cell_angle_beta   59.87114140
_cell_angle_gamma   60.17009297
_symmetry_Int_Tables_number   1
_chemical_formula_structural   Hf6Ti4Al12Os3Pt4
_chemical_formula_sum   'Hf6 Ti4 Al12 Os3 Pt4'
_cell_volume   480.96908025
_cell_formula_units_Z   1
loop_
 _symmetry_equiv_pos_site_id
 _symmetry_equiv_pos_as_xyz
  1  'x, y, z'
loop_
 _atom_site_type_symbol
 _atom_site_label
 _atom_site_symmetry_multiplicity
 _atom_site_fract_x
 _atom_site_fract_y
 _atom_site_fract_z
 _atom_site_occupancy
  Hf  Hf0  1  0.673537  0.667911  0.327757  1
  Hf  Hf1  1  0.308238  0.691753  0.308263  1
  Hf  Hf2  1  0.696679  0.307495  0.303241  1
  Hf  Hf3  1  0.327754  0.330820  0.673535  1
  Hf  Hf4  1  0.692493  0.307502  0.692511  1
  Hf  Hf5  1  0.303238  0.692577  0.696676  1
  Ti  Ti6  1  0.882794  0.871609  0.361437  1
  Ti  Ti7  1  0.887810  0.363503  0.874522  1
  Ti  Ti8  1  0.361410  0.884165  0.882802  1
  Ti  Ti9  1  0.874528  0.874172  0.887789  1
  Al  Al10  1  0.118251  0.126717  0.637842  1
  Al  Al11  1  0.115217  0.636364  0.123328  1
  Al  Al12  1  0.637861  0.117174  0.118257  1
  Al  Al13  1  0.123308  0.125091  0.115240  1
  Al  Al14  1  0.661655  0.660882  0.014077  1
  Al  Al15  1  0.662956  0.017522  0.659762  1
  Al  Al16  1  0.014067  0.663398  0.661658  1
  Al  Al17  1  0.659774  0.659768  0.662935  1
  Al  Al18  1  0.336582  0.336421  0.989412  1
  Al  Al19  1  0.338819  0.984173  0.336639  1
  Al  Al20  1  0.989403  0.337590  0.336595  1
  Al  Al21  1  0.336627  0.340374  0.338827  1
  Os  Os22  1  0.996750  0.504332  0.501651  1
  Os  Os23  1  0.997309  0.502708  0.997301  1
  Os  Os24  1  0.501713  0.997254  0.996733  1
  Pt  Pt25  1  0.000273  0.999640  0.000458  1
  Pt  Pt26  1  0.999573  0.998892  0.500473  1
  Pt  Pt27  1  0.500848  0.999217  0.500702  1
  Pt  Pt28  1  0.500532  0.500976  0.999578  1
