# generated using pymatgen
data_Sm12Os2I17
_symmetry_space_group_name_H-M   'P 1'
_cell_length_a   9.97639728
_cell_length_b   11.96612898
_cell_length_c   11.99862178
_cell_angle_alpha   93.53019731
_cell_angle_beta   104.74985238
_cell_angle_gamma   114.26659477
_symmetry_Int_Tables_number   1
_chemical_formula_structural   Sm12Os2I17
_chemical_formula_sum   'Sm12 Os2 I17'
_cell_volume   1240.14391790
_cell_formula_units_Z   1
loop_
 _symmetry_equiv_pos_site_id
 _symmetry_equiv_pos_as_xyz
  1  'x, y, z'
loop_
 _atom_site_type_symbol
 _atom_site_label
 _atom_site_symmetry_multiplicity
 _atom_site_fract_x
 _atom_site_fract_y
 _atom_site_fract_z
 _atom_site_occupancy
  Sm  Sm0  1  0.057714  0.510187  0.322638  1
  Sm  Sm1  1  0.989727  0.811539  0.582763  1
  Sm  Sm2  1  0.647286  0.240481  0.283012  1
  Sm  Sm3  1  0.010273  0.188461  0.417237  1
  Sm  Sm4  1  0.223207  0.669596  0.989476  1
  Sm  Sm5  1  0.260004  0.986347  0.892230  1
  Sm  Sm6  1  0.352714  0.759519  0.716988  1
  Sm  Sm7  1  0.942286  0.489813  0.677362  1
  Sm  Sm8  1  0.739996  0.013653  0.107770  1
  Sm  Sm9  1  0.149777  0.287574  0.151998  1
  Sm  Sm10  1  0.776793  0.330404  0.010524  1
  Sm  Sm11  1  0.850223  0.712426  0.848002  1
  Os  Os12  1  0.104075  0.738432  0.785881  1
  Os  Os13  1  0.895925  0.261568  0.214119  1
  I  I14  1  0.785256  0.528470  0.417867  1
  I  I15  1  0.642858  0.419418  0.759895  1
  I  I16  1  0.843535  0.895369  0.325243  1
  I  I17  1  0.325605  0.212890  0.368782  1
  I  I18  1  0.156465  0.104631  0.674757  1
  I  I19  1  0.587022  0.052631  0.843379  1
  I  I20  1  0.755979  0.185070  0.537031  1
  I  I21  1  0.549248  0.708774  0.952991  1
  I  I22  1  0.357142  0.580582  0.240105  1
  I  I23  1  0.214744  0.471530  0.582133  1
  I  I24  1  0.055650  0.367966  0.897337  1
  I  I25  1  0.450752  0.291226  0.047009  1
  I  I26  1  0.000000  0.000000  0.000000  1
  I  I27  1  0.244021  0.814930  0.462969  1
  I  I28  1  0.412978  0.947369  0.156621  1
  I  I29  1  0.674395  0.787110  0.631218  1
  I  I30  1  0.944350  0.632034  0.102663  1
