# generated using pymatgen
data_Er5Tm15(BiPb7)2
_symmetry_space_group_name_H-M   'P 1'
_cell_length_a   8.19403074
_cell_length_b   8.22381632
_cell_length_c   15.43080842
_cell_angle_alpha   90.24817167
_cell_angle_beta   89.94115785
_cell_angle_gamma   90.00247315
_symmetry_Int_Tables_number   1
_chemical_formula_structural   Er5Tm15(BiPb7)2
_chemical_formula_sum   'Er5 Tm15 Bi2 Pb14'
_cell_volume   1039.81329679
_cell_formula_units_Z   1
loop_
 _symmetry_equiv_pos_site_id
 _symmetry_equiv_pos_as_xyz
  1  'x, y, z'
loop_
 _atom_site_type_symbol
 _atom_site_label
 _atom_site_symmetry_multiplicity
 _atom_site_fract_x
 _atom_site_fract_y
 _atom_site_fract_z
 _atom_site_occupancy
  Er  Er0  1  0.949733  0.824927  0.103748  1
  Er  Er1  1  0.455954  0.667558  0.102188  1
  Er  Er2  1  0.955801  0.832368  0.397564  1
  Er  Er3  1  0.540629  0.323911  0.603019  1
  Er  Er4  1  0.040160  0.176492  0.897186  1
  Tm  Tm5  1  0.381299  0.840335  0.878127  1
  Tm  Tm6  1  0.881691  0.659939  0.622008  1
  Tm  Tm7  1  0.619833  0.154631  0.378051  1
  Tm  Tm8  1  0.119983  0.345218  0.122091  1
  Tm  Tm9  1  0.623037  0.157955  0.121303  1
  Tm  Tm10  1  0.122427  0.341729  0.378801  1
  Tm  Tm11  1  0.380149  0.842653  0.621549  1
  Tm  Tm12  1  0.879602  0.657288  0.878100  1
  Tm  Tm13  1  0.550780  0.333092  0.895134  1
  Tm  Tm14  1  0.051440  0.166729  0.605072  1
  Tm  Tm15  1  0.448144  0.674431  0.395755  1
  Tm  Tm16  1  0.211353  0.502420  0.749502  1
  Tm  Tm17  1  0.711486  0.997628  0.750432  1
  Tm  Tm18  1  0.788261  0.497455  0.248045  1
  Tm  Tm19  1  0.288481  0.002230  0.252107  1
  Bi  Bi20  1  0.274338  0.026434  0.045255  1
  Bi  Bi21  1  0.773024  0.474891  0.454668  1
  Pb  Pb22  1  0.724648  0.972229  0.543895  1
  Pb  Pb23  1  0.223847  0.528339  0.956126  1
  Pb  Pb24  1  0.722029  0.969601  0.956595  1
  Pb  Pb25  1  0.222381  0.530507  0.543277  1
  Pb  Pb26  1  0.279969  0.031517  0.457353  1
  Pb  Pb27  1  0.780059  0.468043  0.042620  1
  Pb  Pb28  1  0.573539  0.629436  0.748552  1
  Pb  Pb29  1  0.074259  0.870938  0.751571  1
  Pb  Pb30  1  0.427662  0.369726  0.249883  1
  Pb  Pb31  1  0.927711  0.129740  0.249943  1
  Pb  Pb32  1  0.355526  0.154704  0.752016  1
  Pb  Pb33  1  0.855336  0.345402  0.748063  1
  Pb  Pb34  1  0.642582  0.844649  0.249810  1
  Pb  Pb35  1  0.142848  0.654857  0.250594  1
