# generated using pymatgen
data_Al3Cr(NiPt3)3
_symmetry_space_group_name_H-M   'P 1'
_cell_length_a   3.90964100
_cell_length_b   3.90964100
_cell_length_c   14.78090100
_cell_angle_alpha   90.00000000
_cell_angle_beta   90.00000000
_cell_angle_gamma   90.00000000
_symmetry_Int_Tables_number   1
_chemical_formula_structural   Al3Cr(NiPt3)3
_chemical_formula_sum   'Al3 Cr1 Ni3 Pt9'
_cell_volume   225.93039888
_cell_formula_units_Z   1
loop_
 _symmetry_equiv_pos_site_id
 _symmetry_equiv_pos_as_xyz
  1  'x, y, z'
loop_
 _atom_site_type_symbol
 _atom_site_label
 _atom_site_symmetry_multiplicity
 _atom_site_fract_x
 _atom_site_fract_y
 _atom_site_fract_z
 _atom_site_occupancy
  Al  Al0  1  0.000000  0.000000  0.255627  1
  Al  Al1  1  0.000000  0.000000  0.500000  1
  Al  Al2  1  0.000000  0.000000  0.744373  1
  Cr  Cr3  1  0.000000  0.000000  0.000000  1
  Ni  Ni4  1  0.500000  0.500000  0.254760  1
  Ni  Ni5  1  0.500000  0.500000  0.500000  1
  Ni  Ni6  1  0.500000  0.500000  0.745240  1
  Pt  Pt7  1  0.500000  0.500000  0.000000  1
  Pt  Pt8  1  0.500000  0.000000  0.134128  1
  Pt  Pt9  1  0.500000  0.000000  0.377398  1
  Pt  Pt10  1  0.500000  0.000000  0.622602  1
  Pt  Pt11  1  0.500000  0.000000  0.865872  1
  Pt  Pt12  1  0.000000  0.500000  0.134128  1
  Pt  Pt13  1  0.000000  0.500000  0.377398  1
  Pt  Pt14  1  0.000000  0.500000  0.622602  1
  Pt  Pt15  1  0.000000  0.500000  0.865872  1
