# generated using pymatgen
data_Tb16Tm4Ir7Ru5
_symmetry_space_group_name_H-M   'P 1'
_cell_length_a   10.86279707
_cell_length_b   10.86279707
_cell_length_c   6.40149521
_cell_angle_alpha   89.97936268
_cell_angle_beta   89.97936268
_cell_angle_gamma   90.04645589
_symmetry_Int_Tables_number   1
_chemical_formula_structural   Tb16Tm4Ir7Ru5
_chemical_formula_sum   'Tb16 Tm4 Ir7 Ru5'
_cell_volume   755.37839371
_cell_formula_units_Z   1
loop_
 _symmetry_equiv_pos_site_id
 _symmetry_equiv_pos_as_xyz
  1  'x, y, z'
loop_
 _atom_site_type_symbol
 _atom_site_label
 _atom_site_symmetry_multiplicity
 _atom_site_fract_x
 _atom_site_fract_y
 _atom_site_fract_z
 _atom_site_occupancy
  Tb  Tb0  1  0.292538  0.086179  0.378032  1
  Tb  Tb1  1  0.292175  0.913657  0.878055  1
  Tb  Tb2  1  0.708275  0.086584  0.878493  1
  Tb  Tb3  1  0.707949  0.914112  0.377322  1
  Tb  Tb4  1  0.586227  0.792663  0.878093  1
  Tb  Tb5  1  0.587081  0.207582  0.377975  1
  Tb  Tb6  1  0.413662  0.792632  0.378059  1
  Tb  Tb7  1  0.413505  0.207205  0.877531  1
  Tb  Tb8  1  0.207337  0.413773  0.621907  1
  Tb  Tb9  1  0.207368  0.586338  0.121941  1
  Tb  Tb10  1  0.792418  0.412919  0.122025  1
  Tb  Tb11  1  0.792795  0.586495  0.622469  1
  Tb  Tb12  1  0.913821  0.707462  0.121968  1
  Tb  Tb13  1  0.913416  0.291725  0.621507  1
  Tb  Tb14  1  0.086343  0.707825  0.621945  1
  Tb  Tb15  1  0.085888  0.292051  0.122678  1
  Tm  Tm16  1  0.999640  0.000765  0.499373  1
  Tm  Tm17  1  0.999235  0.000360  0.000627  1
  Tm  Tm18  1  0.500124  0.500037  0.000081  1
  Tm  Tm19  1  0.499963  0.499876  0.499919  1
  Ir  Ir20  1  0.848836  0.848481  0.749877  1
  Ir  Ir21  1  0.151519  0.151164  0.750123  1
  Ir  Ir22  1  0.151280  0.848720  0.250000  1
  Ir  Ir23  1  0.650258  0.349742  0.750000  1
  Ir  Ir24  1  0.650989  0.650797  0.249837  1
  Ir  Ir25  1  0.349203  0.349011  0.250163  1
  Ir  Ir26  1  0.349298  0.650702  0.750000  1
  Ru  Ru27  1  0.849035  0.150965  0.250000  1
  Ru  Ru28  1  0.500081  0.000016  0.121369  1
  Ru  Ru29  1  0.499748  0.999993  0.621503  1
  Ru  Ru30  1  0.000007  0.500252  0.878497  1
  Ru  Ru31  1  0.999984  0.499919  0.378631  1
