# generated using pymatgen
data_Tb16ZnIn2AgRh4
_symmetry_space_group_name_H-M   'P 1'
_cell_length_a   9.63020931
_cell_length_b   9.63020814
_cell_length_c   9.62075594
_cell_angle_alpha   59.87480111
_cell_angle_beta   59.87480058
_cell_angle_gamma   59.89006599
_symmetry_Int_Tables_number   1
_chemical_formula_structural   Tb16ZnIn2AgRh4
_chemical_formula_sum   'Tb16 Zn1 In2 Ag1 Rh4'
_cell_volume   629.18795116
_cell_formula_units_Z   1
loop_
 _symmetry_equiv_pos_site_id
 _symmetry_equiv_pos_as_xyz
  1  'x, y, z'
loop_
 _atom_site_type_symbol
 _atom_site_label
 _atom_site_symmetry_multiplicity
 _atom_site_fract_x
 _atom_site_fract_y
 _atom_site_fract_z
 _atom_site_occupancy
  Tb  Tb0  1  0.808081  0.808081  0.192798  1
  Tb  Tb1  1  0.810451  0.190354  0.809277  1
  Tb  Tb2  1  0.189679  0.189679  0.811858  1
  Tb  Tb3  1  0.647309  0.053597  0.647309  1
  Tb  Tb4  1  0.063350  0.063350  0.436635  1
  Tb  Tb5  1  0.437770  0.437770  0.062184  1
  Tb  Tb6  1  0.650841  0.650841  0.649896  1
  Tb  Tb7  1  0.810437  0.190604  0.191301  1
  Tb  Tb8  1  0.190354  0.810451  0.809277  1
  Tb  Tb9  1  0.053597  0.647309  0.647309  1
  Tb  Tb10  1  0.438748  0.066907  0.057982  1
  Tb  Tb11  1  0.436481  0.068331  0.434958  1
  Tb  Tb12  1  0.066907  0.438748  0.057982  1
  Tb  Tb13  1  0.647497  0.647497  0.054603  1
  Tb  Tb14  1  0.190604  0.810437  0.191301  1
  Tb  Tb15  1  0.068331  0.436481  0.434958  1
  Zn  Zn16  1  0.416943  0.416943  0.419297  1
  In  In17  1  0.416867  0.741066  0.421870  1
  In  In18  1  0.741066  0.416867  0.421870  1
  Ag  Ag19  1  0.416116  0.416116  0.747173  1
  Rh  Rh20  1  0.856970  0.427690  0.857576  1
  Rh  Rh21  1  0.856289  0.856289  0.858555  1
  Rh  Rh22  1  0.857622  0.857622  0.426454  1
  Rh  Rh23  1  0.427690  0.856970  0.857576  1
