# generated using pymatgen
data_FeCo2P3
_symmetry_space_group_name_H-M   'P 1'
_cell_length_a   3.27992400
_cell_length_b   5.01020277
_cell_length_c   16.72197902
_cell_angle_alpha   90.07338313
_cell_angle_beta   90.00000000
_cell_angle_gamma   90.00000000
_symmetry_Int_Tables_number   1
_chemical_formula_structural   FeCo2P3
_chemical_formula_sum   'Fe4 Co8 P12'
_cell_volume   274.79346561
_cell_formula_units_Z   4
loop_
 _symmetry_equiv_pos_site_id
 _symmetry_equiv_pos_as_xyz
  1  'x, y, z'
loop_
 _atom_site_type_symbol
 _atom_site_label
 _atom_site_symmetry_multiplicity
 _atom_site_fract_x
 _atom_site_fract_y
 _atom_site_fract_z
 _atom_site_occupancy
  Fe  Fe0  1  0.500000  0.499842  0.766849  1
  Fe  Fe1  1  0.500000  0.500696  0.432863  1
  Fe  Fe2  1  0.500000  0.500105  0.100044  1
  Fe  Fe3  1  0.500000  0.999617  0.733346  1
  Co  Co4  1  0.500000  0.000638  0.399763  1
  Co  Co5  1  0.500000  0.999850  0.067316  1
  Co  Co6  1  0.000000  0.501481  0.900538  1
  Co  Co7  1  0.000000  0.501183  0.566502  1
  Co  Co8  1  0.000000  0.500205  0.233271  1
  Co  Co9  1  0.000000  0.001719  0.934338  1
  Co  Co10  1  0.000000  0.001345  0.598207  1
  Co  Co11  1  0.000000  0.000881  0.266518  1
  P  P12  1  0.500000  0.689674  0.972825  1
  P  P13  1  0.500000  0.688374  0.641106  1
  P  P14  1  0.500000  0.688479  0.306660  1
  P  P15  1  0.500000  0.188370  0.859218  1
  P  P16  1  0.500000  0.196781  0.527653  1
  P  P17  1  0.500000  0.194111  0.193985  1
  P  P18  1  0.000000  0.306177  0.695720  1
  P  P19  1  0.000000  0.312337  0.361546  1
  P  P20  1  0.000000  0.314112  0.027524  1
  P  P21  1  0.000000  0.805769  0.803967  1
  P  P22  1  0.000000  0.805365  0.472201  1
  P  P23  1  0.000000  0.802890  0.138038  1
