# generated using pymatgen
data_La6Nd2BePd24
_symmetry_space_group_name_H-M   'P 1'
_cell_length_a   8.52615292
_cell_length_b   8.52615284
_cell_length_c   8.52615200
_cell_angle_alpha   90.02658434
_cell_angle_beta   89.97341566
_cell_angle_gamma   89.97342128
_symmetry_Int_Tables_number   1
_chemical_formula_structural   La6Nd2BePd24
_chemical_formula_sum   'La6 Nd2 Be1 Pd24'
_cell_volume   619.81083133
_cell_formula_units_Z   1
loop_
 _symmetry_equiv_pos_site_id
 _symmetry_equiv_pos_as_xyz
  1  'x, y, z'
loop_
 _atom_site_type_symbol
 _atom_site_label
 _atom_site_symmetry_multiplicity
 _atom_site_fract_x
 _atom_site_fract_y
 _atom_site_fract_z
 _atom_site_occupancy
  La  La0  1  0.251147  0.251117  0.251117  1
  La  La1  1  0.748853  0.748883  0.748883  1
  La  La2  1  0.748883  0.748853  0.251117  1
  La  La3  1  0.748883  0.251117  0.748853  1
  La  La4  1  0.251117  0.251147  0.748883  1
  La  La5  1  0.251117  0.748883  0.251147  1
  Nd  Nd6  1  0.250390  0.749610  0.749610  1
  Nd  Nd7  1  0.749610  0.250390  0.250390  1
  Be  Be8  1  0.000000  0.000000  0.000000  1
  Pd  Pd9  1  0.256334  0.500744  0.999167  1
  Pd  Pd10  1  0.743666  0.499256  0.000833  1
  Pd  Pd11  1  0.999167  0.256334  0.499256  1
  Pd  Pd12  1  0.500744  0.256334  0.000833  1
  Pd  Pd13  1  0.000833  0.743666  0.500744  1
  Pd  Pd14  1  0.499256  0.743666  0.999167  1
  Pd  Pd15  1  0.500744  0.000833  0.256334  1
  Pd  Pd16  1  0.256334  0.999167  0.500744  1
  Pd  Pd17  1  0.499256  0.999167  0.743666  1
  Pd  Pd18  1  0.743666  0.000833  0.499256  1
  Pd  Pd19  1  0.999167  0.499256  0.256334  1
  Pd  Pd20  1  0.000833  0.500744  0.743666  1
  Pd  Pd21  1  0.252255  0.500940  0.500940  1
  Pd  Pd22  1  0.747745  0.499060  0.499060  1
  Pd  Pd23  1  0.500940  0.252255  0.499060  1
  Pd  Pd24  1  0.499060  0.747745  0.500940  1
  Pd  Pd25  1  0.500940  0.499060  0.252255  1
  Pd  Pd26  1  0.499060  0.500940  0.747745  1
  Pd  Pd27  1  0.271937  0.999326  0.999326  1
  Pd  Pd28  1  0.728063  0.000674  0.000674  1
  Pd  Pd29  1  0.999326  0.271937  0.000674  1
  Pd  Pd30  1  0.000674  0.728063  0.999326  1
  Pd  Pd31  1  0.999326  0.000674  0.271937  1
  Pd  Pd32  1  0.000674  0.999326  0.728063  1
