# generated using pymatgen
data_LaSm2Y7C4I15
_symmetry_space_group_name_H-M   'P 1'
_cell_length_a   9.67020780
_cell_length_b   10.45031969
_cell_length_c   11.60888664
_cell_angle_alpha   93.46713528
_cell_angle_beta   114.05869037
_cell_angle_gamma   109.39291266
_symmetry_Int_Tables_number   1
_chemical_formula_structural   LaSm2Y7C4I15
_chemical_formula_sum   'La1 Sm2 Y7 C4 I15'
_cell_volume   983.99777147
_cell_formula_units_Z   1
loop_
 _symmetry_equiv_pos_site_id
 _symmetry_equiv_pos_as_xyz
  1  'x, y, z'
loop_
 _atom_site_type_symbol
 _atom_site_label
 _atom_site_symmetry_multiplicity
 _atom_site_fract_x
 _atom_site_fract_y
 _atom_site_fract_z
 _atom_site_occupancy
  La  La0  1  0.663272  0.255824  0.836903  1
  Sm  Sm1  1  0.699525  0.567446  0.043809  1
  Sm  Sm2  1  0.299889  0.434985  0.956902  1
  Y  Y3  1  0.589809  0.539860  0.335636  1
  Y  Y4  1  0.351265  0.741027  0.161481  1
  Y  Y5  1  0.764831  0.871606  0.251435  1
  Y  Y6  1  0.526022  0.187482  0.099574  1
  Y  Y7  1  0.238717  0.127133  0.752070  1
  Y  Y8  1  0.406363  0.460087  0.663469  1
  Y  Y9  1  0.473094  0.814304  0.900131  1
  C  C10  1  0.484468  0.302548  0.941768  1
  C  C11  1  0.516349  0.700343  0.058722  1
  C  C12  1  0.455604  0.366953  0.835593  1
  C  C13  1  0.543901  0.633667  0.164008  1
  I  I14  1  0.214506  0.907831  0.939715  1
  I  I15  1  0.113213  0.193057  0.479461  1
  I  I16  1  0.161998  0.561448  0.703141  1
  I  I17  1  0.395410  0.962269  0.650536  1
  I  I18  1  0.705898  0.737123  0.817508  1
  I  I19  1  0.291161  0.262916  0.180668  1
  I  I20  1  0.836312  0.438700  0.297499  1
  I  I21  1  0.884016  0.805036  0.523162  1
  I  I22  1  0.356002  0.626343  0.407742  1
  I  I23  1  0.042926  0.833693  0.219621  1
  I  I24  1  0.788399  0.089409  0.069861  1
  I  I25  1  0.638593  0.379330  0.581788  1
  I  I26  1  0.957690  0.165470  0.781032  1
  I  I27  1  0.589320  0.024690  0.341783  1
  I  I28  1  0.011444  0.509416  0.004979  1
