# generated using pymatgen
data_Zr5Co19(Si2P)4
_symmetry_space_group_name_H-M   'P 1'
_cell_length_a   11.96446388
_cell_length_b   11.98825850
_cell_length_c   3.64413000
_cell_angle_alpha   90.00000000
_cell_angle_beta   90.00000000
_cell_angle_gamma   120.00918195
_symmetry_Int_Tables_number   1
_chemical_formula_structural   Zr5Co19(Si2P)4
_chemical_formula_sum   'Zr5 Co19 Si8 P4'
_cell_volume   452.61990073
_cell_formula_units_Z   1
loop_
 _symmetry_equiv_pos_site_id
 _symmetry_equiv_pos_as_xyz
  1  'x, y, z'
loop_
 _atom_site_type_symbol
 _atom_site_label
 _atom_site_symmetry_multiplicity
 _atom_site_fract_x
 _atom_site_fract_y
 _atom_site_fract_z
 _atom_site_occupancy
  Zr  Zr0  1  0.332441  0.665720  0.500000  1
  Zr  Zr1  1  0.667872  0.332577  0.500000  1
  Zr  Zr2  1  0.000311  0.182919  0.000000  1
  Zr  Zr3  1  0.817387  0.818473  0.000000  1
  Zr  Zr4  1  0.184186  0.000073  0.000000  1
  Co  Co5  1  0.628610  0.825468  0.500000  1
  Co  Co6  1  0.174716  0.803680  0.500000  1
  Co  Co7  1  0.196214  0.370213  0.500000  1
  Co  Co8  1  0.373518  0.196957  0.500000  1
  Co  Co9  1  0.824385  0.628061  0.500000  1
  Co  Co10  1  0.798223  0.174526  0.500000  1
  Co  Co11  1  0.999707  0.556298  0.500000  1
  Co  Co12  1  0.444307  0.444487  0.500000  1
  Co  Co13  1  0.554023  0.996574  0.500000  1
  Co  Co14  1  0.521547  0.646048  0.000000  1
  Co  Co15  1  0.352803  0.874208  0.000000  1
  Co  Co16  1  0.124913  0.477679  0.000000  1
  Co  Co17  1  0.485862  0.127050  0.000000  1
  Co  Co18  1  0.646217  0.521607  0.000000  1
  Co  Co19  1  0.872406  0.350957  0.000000  1
  Co  Co20  1  0.999457  0.723466  0.000000  1
  Co  Co21  1  0.277578  0.276407  0.000000  1
  Co  Co22  1  0.720741  0.003666  0.000000  1
  Co  Co23  1  0.999326  0.000290  0.500000  1
  Si  Si24  1  0.999567  0.364159  0.500000  1
  Si  Si25  1  0.636014  0.636167  0.500000  1
  Si  Si26  1  0.365081  0.000379  0.500000  1
  Si  Si27  1  0.517781  0.836984  0.000000  1
  Si  Si28  1  0.161018  0.679990  0.000000  1
  Si  Si29  1  0.319051  0.480245  0.000000  1
  Si  Si30  1  0.481949  0.319225  0.000000  1
  Si  Si31  1  0.838559  0.518875  0.000000  1
  P  P32  1  0.684100  0.165824  0.000000  1
  P  P33  1  0.999782  0.823041  0.500000  1
  P  P34  1  0.178187  0.176671  0.500000  1
  P  P35  1  0.822163  0.001035  0.500000  1
