# generated using pymatgen
data_Lu20Zn3Cd3Ni2
_symmetry_space_group_name_H-M   'P 1'
_cell_length_a   9.36767000
_cell_length_b   9.36766933
_cell_length_c   9.26872800
_cell_angle_alpha   90.00000000
_cell_angle_beta   90.00000000
_cell_angle_gamma   119.99999530
_symmetry_Int_Tables_number   1
_chemical_formula_structural   Lu20Zn3Cd3Ni2
_chemical_formula_sum   'Lu20 Zn3 Cd3 Ni2'
_cell_volume   704.39120582
_cell_formula_units_Z   1
loop_
 _symmetry_equiv_pos_site_id
 _symmetry_equiv_pos_as_xyz
  1  'x, y, z'
loop_
 _atom_site_type_symbol
 _atom_site_label
 _atom_site_symmetry_multiplicity
 _atom_site_fract_x
 _atom_site_fract_y
 _atom_site_fract_z
 _atom_site_occupancy
  Lu  Lu0  1  0.000000  0.000000  0.470227  1
  Lu  Lu1  1  0.000000  0.000000  0.029773  1
  Lu  Lu2  1  0.543379  0.456621  0.250000  1
  Lu  Lu3  1  0.543379  0.086757  0.250000  1
  Lu  Lu4  1  0.913243  0.456621  0.250000  1
  Lu  Lu5  1  0.457339  0.542661  0.750000  1
  Lu  Lu6  1  0.457339  0.914680  0.750000  1
  Lu  Lu7  1  0.085320  0.542661  0.750000  1
  Lu  Lu8  1  0.208984  0.791016  0.435546  1
  Lu  Lu9  1  0.208984  0.417968  0.435546  1
  Lu  Lu10  1  0.582032  0.791016  0.435546  1
  Lu  Lu11  1  0.790456  0.209544  0.559558  1
  Lu  Lu12  1  0.790456  0.580911  0.559558  1
  Lu  Lu13  1  0.419089  0.209544  0.559558  1
  Lu  Lu14  1  0.790456  0.209544  0.940442  1
  Lu  Lu15  1  0.790456  0.580911  0.940442  1
  Lu  Lu16  1  0.419089  0.209544  0.940442  1
  Lu  Lu17  1  0.208984  0.791016  0.064454  1
  Lu  Lu18  1  0.208984  0.417968  0.064454  1
  Lu  Lu19  1  0.582032  0.791016  0.064454  1
  Zn  Zn20  1  0.874562  0.125438  0.250000  1
  Zn  Zn21  1  0.874562  0.749125  0.250000  1
  Zn  Zn22  1  0.250875  0.125438  0.250000  1
  Cd  Cd23  1  0.110651  0.889349  0.750000  1
  Cd  Cd24  1  0.110651  0.221302  0.750000  1
  Cd  Cd25  1  0.778698  0.889349  0.750000  1
  Ni  Ni26  1  0.333333  0.666667  0.250000  1
  Ni  Ni27  1  0.666667  0.333333  0.750000  1
