# generated using pymatgen
data_TbSm2Ga6(NiRh2)3
_symmetry_space_group_name_H-M   'P 1'
_cell_length_a   9.63718888
_cell_length_b   9.31770565
_cell_length_c   3.90266100
_cell_angle_alpha   90.00000000
_cell_angle_beta   90.00000000
_cell_angle_gamma   119.91119435
_symmetry_Int_Tables_number   1
_chemical_formula_structural   TbSm2Ga6(NiRh2)3
_chemical_formula_sum   'Tb1 Sm2 Ga6 Ni3 Rh6'
_cell_volume   303.76571674
_cell_formula_units_Z   1
loop_
 _symmetry_equiv_pos_site_id
 _symmetry_equiv_pos_as_xyz
  1  'x, y, z'
loop_
 _atom_site_type_symbol
 _atom_site_label
 _atom_site_symmetry_multiplicity
 _atom_site_fract_x
 _atom_site_fract_y
 _atom_site_fract_z
 _atom_site_occupancy
  Tb  Tb0  1  0.001772  0.997447  0.000000  1
  Sm  Sm1  1  0.328599  0.663350  0.500000  1
  Sm  Sm2  1  0.669262  0.337045  0.500000  1
  Ga  Ga3  1  0.323910  0.315564  0.500000  1
  Ga  Ga4  1  0.683199  0.000403  0.500000  1
  Ga  Ga5  1  0.673086  0.687004  0.500000  1
  Ga  Ga6  1  0.990260  0.307949  0.500000  1
  Ga  Ga7  1  0.000277  0.678160  0.500000  1
  Ga  Ga8  1  0.331001  0.010377  0.500000  1
  Ni  Ni9  1  0.650386  0.831026  0.000000  1
  Ni  Ni10  1  0.358029  0.179274  0.000000  1
  Ni  Ni11  1  0.822575  0.166682  0.000000  1
  Rh  Rh12  1  0.169776  0.339893  0.000000  1
  Rh  Rh13  1  0.820112  0.651638  0.000000  1
  Rh  Rh14  1  0.181252  0.829415  0.000000  1
  Rh  Rh15  1  0.511168  0.011120  0.000000  1
  Rh  Rh16  1  0.989324  0.489172  0.000000  1
  Rh  Rh17  1  0.496009  0.504481  0.000000  1
