# generated using pymatgen
data_Sm6TeO12
_symmetry_space_group_name_H-M   'P 1'
_cell_length_a   6.65628154
_cell_length_b   6.65628230
_cell_length_c   6.65628228
_cell_angle_alpha   98.65643630
_cell_angle_beta   98.65643766
_cell_angle_gamma   98.65643255
_symmetry_Int_Tables_number   1
_chemical_formula_structural   Sm6TeO12
_chemical_formula_sum   'Sm6 Te1 O12'
_cell_volume   283.67307676
_cell_formula_units_Z   1
loop_
 _symmetry_equiv_pos_site_id
 _symmetry_equiv_pos_as_xyz
  1  'x, y, z'
loop_
 _atom_site_type_symbol
 _atom_site_label
 _atom_site_symmetry_multiplicity
 _atom_site_fract_x
 _atom_site_fract_y
 _atom_site_fract_z
 _atom_site_occupancy
  Sm  Sm0  1  0.855314  0.390370  0.687242  1
  Sm  Sm1  1  0.609630  0.312758  0.144686  1
  Sm  Sm2  1  0.312758  0.144686  0.609630  1
  Sm  Sm3  1  0.687242  0.855314  0.390370  1
  Sm  Sm4  1  0.390370  0.687242  0.855314  1
  Sm  Sm5  1  0.144686  0.609630  0.312758  1
  Te  Te6  1  0.000000  0.000000  0.000000  1
  O  O7  1  0.930014  0.032863  0.707602  1
  O  O8  1  0.967137  0.292398  0.069986  1
  O  O9  1  0.593164  0.177653  0.436424  1
  O  O10  1  0.822347  0.563576  0.406836  1
  O  O11  1  0.292398  0.069986  0.967137  1
  O  O12  1  0.563576  0.406836  0.822347  1
  O  O13  1  0.436424  0.593164  0.177653  1
  O  O14  1  0.707602  0.930014  0.032863  1
  O  O15  1  0.177653  0.436424  0.593164  1
  O  O16  1  0.406836  0.822347  0.563576  1
  O  O17  1  0.032863  0.707602  0.930014  1
  O  O18  1  0.069986  0.967137  0.292398  1
