# generated using pymatgen
data_Ho2Sc2PtRh
_symmetry_space_group_name_H-M   'P 1'
_cell_length_a   4.50207200
_cell_length_b   7.03202346
_cell_length_c   8.44483936
_cell_angle_alpha   90.16572291
_cell_angle_beta   90.00000000
_cell_angle_gamma   90.00000000
_symmetry_Int_Tables_number   1
_chemical_formula_structural   Ho2Sc2PtRh
_chemical_formula_sum   'Ho4 Sc4 Pt2 Rh2'
_cell_volume   267.35131394
_cell_formula_units_Z   2
loop_
 _symmetry_equiv_pos_site_id
 _symmetry_equiv_pos_as_xyz
  1  'x, y, z'
loop_
 _atom_site_type_symbol
 _atom_site_label
 _atom_site_symmetry_multiplicity
 _atom_site_fract_x
 _atom_site_fract_y
 _atom_site_fract_z
 _atom_site_occupancy
  Ho  Ho0  1  0.250000  0.523179  0.175507  1
  Ho  Ho1  1  0.750000  0.476821  0.824493  1
  Ho  Ho2  1  0.750000  0.977850  0.671508  1
  Ho  Ho3  1  0.250000  0.022150  0.328492  1
  Sc  Sc4  1  0.250000  0.639586  0.570571  1
  Sc  Sc5  1  0.750000  0.360414  0.429429  1
  Sc  Sc6  1  0.750000  0.860245  0.069999  1
  Sc  Sc7  1  0.250000  0.139755  0.930001  1
  Pt  Pt8  1  0.250000  0.754461  0.894356  1
  Pt  Pt9  1  0.750000  0.245539  0.105644  1
  Rh  Rh10  1  0.750000  0.743804  0.398509  1
  Rh  Rh11  1  0.250000  0.256196  0.601491  1
