# generated using pymatgen
data_Y4Lu16Cd3Hg3Ru2
_symmetry_space_group_name_H-M   'P 1'
_cell_length_a   9.47726103
_cell_length_b   9.47864134
_cell_length_c   9.54429100
_cell_angle_alpha   90.00000000
_cell_angle_beta   90.00000000
_cell_angle_gamma   120.00482066
_symmetry_Int_Tables_number   1
_chemical_formula_structural   Y4Lu16Cd3Hg3Ru2
_chemical_formula_sum   'Y4 Lu16 Cd3 Hg3 Ru2'
_cell_volume   742.47551872
_cell_formula_units_Z   1
loop_
 _symmetry_equiv_pos_site_id
 _symmetry_equiv_pos_as_xyz
  1  'x, y, z'
loop_
 _atom_site_type_symbol
 _atom_site_label
 _atom_site_symmetry_multiplicity
 _atom_site_fract_x
 _atom_site_fract_y
 _atom_site_fract_z
 _atom_site_occupancy
  Y  Y0  1  0.916429  0.458215  0.250000  1
  Y  Y1  1  0.460469  0.540073  0.750000  1
  Y  Y2  1  0.460469  0.920396  0.750000  1
  Y  Y3  1  0.079383  0.539691  0.750000  1
  Lu  Lu4  1  0.000478  0.000239  0.489484  1
  Lu  Lu5  1  0.000478  0.000239  0.010516  1
  Lu  Lu6  1  0.211073  0.791684  0.438273  1
  Lu  Lu7  1  0.211073  0.419389  0.438273  1
  Lu  Lu8  1  0.581183  0.790592  0.438483  1
  Lu  Lu9  1  0.788880  0.208842  0.558852  1
  Lu  Lu10  1  0.788880  0.580038  0.558852  1
  Lu  Lu11  1  0.420807  0.210403  0.557552  1
  Lu  Lu12  1  0.788880  0.208842  0.941148  1
  Lu  Lu13  1  0.788880  0.580038  0.941148  1
  Lu  Lu14  1  0.420807  0.210403  0.942448  1
  Lu  Lu15  1  0.211073  0.791684  0.061727  1
  Lu  Lu16  1  0.211073  0.419389  0.061727  1
  Lu  Lu17  1  0.581183  0.790592  0.061517  1
  Lu  Lu18  1  0.538703  0.459888  0.250000  1
  Lu  Lu19  1  0.538703  0.078817  0.250000  1
  Cd  Cd20  1  0.111806  0.889479  0.750000  1
  Cd  Cd21  1  0.111806  0.222327  0.750000  1
  Cd  Cd22  1  0.777211  0.888606  0.750000  1
  Hg  Hg23  1  0.878181  0.116249  0.250000  1
  Hg  Hg24  1  0.878181  0.761934  0.250000  1
  Hg  Hg25  1  0.241483  0.120742  0.250000  1
  Ru  Ru26  1  0.334049  0.667025  0.250000  1
  Ru  Ru27  1  0.668374  0.334187  0.750000  1
