# generated using pymatgen
data_La4Ho6Ga3Si5
_symmetry_space_group_name_H-M   'P 1'
_cell_length_a   7.55250400
_cell_length_b   7.89082213
_cell_length_c   15.03320800
_cell_angle_alpha   89.98972559
_cell_angle_beta   90.00000000
_cell_angle_gamma   90.00000000
_symmetry_Int_Tables_number   1
_chemical_formula_structural   La4Ho6Ga3Si5
_chemical_formula_sum   'La8 Ho12 Ga6 Si10'
_cell_volume   895.91101697
_cell_formula_units_Z   2
loop_
 _symmetry_equiv_pos_site_id
 _symmetry_equiv_pos_as_xyz
  1  'x, y, z'
loop_
 _atom_site_type_symbol
 _atom_site_label
 _atom_site_symmetry_multiplicity
 _atom_site_fract_x
 _atom_site_fract_y
 _atom_site_fract_z
 _atom_site_occupancy
  La  La0  1  0.981873  0.823907  0.093288  1
  La  La1  1  0.481873  0.676093  0.406712  1
  La  La2  1  0.519662  0.319146  0.898352  1
  La  La3  1  0.019662  0.180854  0.601648  1
  La  La4  1  0.023812  0.177961  0.897573  1
  La  La5  1  0.523812  0.322039  0.602427  1
  La  La6  1  0.477327  0.672754  0.094127  1
  La  La7  1  0.977327  0.827246  0.405873  1
  Ho  Ho8  1  0.655319  0.991306  0.251507  1
  Ho  Ho9  1  0.155319  0.508694  0.248493  1
  Ho  Ho10  1  0.847562  0.493753  0.748625  1
  Ho  Ho11  1  0.347562  0.006247  0.751375  1
  Ho  Ho12  1  0.680243  0.824976  0.874135  1
  Ho  Ho13  1  0.180243  0.675024  0.625865  1
  Ho  Ho14  1  0.821298  0.322391  0.123041  1
  Ho  Ho15  1  0.321298  0.177609  0.376959  1
  Ho  Ho16  1  0.319079  0.178191  0.121310  1
  Ho  Ho17  1  0.819079  0.321809  0.378690  1
  Ho  Ho18  1  0.181465  0.675097  0.875451  1
  Ho  Ho19  1  0.681465  0.824903  0.624549  1
  Ga  Ga20  1  0.767213  0.620044  0.249732  1
  Ga  Ga21  1  0.267213  0.879956  0.250268  1
  Ga  Ga22  1  0.848916  0.533346  0.958680  1
  Ga  Ga23  1  0.348916  0.966654  0.541320  1
  Ga  Ga24  1  0.648911  0.034167  0.038918  1
  Ga  Ga25  1  0.148911  0.465833  0.461082  1
  Si  Si26  1  0.727279  0.120657  0.750433  1
  Si  Si27  1  0.227279  0.379343  0.749567  1
  Si  Si28  1  0.025869  0.118314  0.249276  1
  Si  Si29  1  0.525869  0.381686  0.250724  1
  Si  Si30  1  0.476877  0.615248  0.750736  1
  Si  Si31  1  0.976877  0.884752  0.749264  1
  Si  Si32  1  0.145070  0.465836  0.038578  1
  Si  Si33  1  0.645070  0.034164  0.461422  1
  Si  Si34  1  0.352224  0.965585  0.959502  1
  Si  Si35  1  0.852224  0.534415  0.540498  1
