# generated using pymatgen
data_Sm5Dy2Th(Si3Rh)4
_symmetry_space_group_name_H-M   'P 1'
_cell_length_a   8.25747300
_cell_length_b   8.21073191
_cell_length_c   8.12765000
_cell_angle_alpha   90.00000000
_cell_angle_beta   90.00000000
_cell_angle_gamma   120.18847964
_symmetry_Int_Tables_number   1
_chemical_formula_structural   Sm5Dy2Th(Si3Rh)4
_chemical_formula_sum   'Sm5 Dy2 Th1 Si12 Rh4'
_cell_volume   476.31766759
_cell_formula_units_Z   1
loop_
 _symmetry_equiv_pos_site_id
 _symmetry_equiv_pos_as_xyz
  1  'x, y, z'
loop_
 _atom_site_type_symbol
 _atom_site_label
 _atom_site_symmetry_multiplicity
 _atom_site_fract_x
 _atom_site_fract_y
 _atom_site_fract_z
 _atom_site_occupancy
  Sm  Sm0  1  0.999676  0.999353  0.250000  1
  Sm  Sm1  1  0.999988  0.999978  0.750000  1
  Sm  Sm2  1  0.008324  0.504418  0.250000  1
  Sm  Sm3  1  0.496094  0.504418  0.250000  1
  Sm  Sm4  1  0.494439  0.988877  0.250000  1
  Dy  Dy5  1  0.506062  0.495664  0.750000  1
  Dy  Dy6  1  0.989603  0.495664  0.750000  1
  Th  Th7  1  0.506682  0.013363  0.750000  1
  Si  Si8  1  0.168557  0.337112  0.000491  1
  Si  Si9  1  0.667751  0.831942  0.001593  1
  Si  Si10  1  0.168557  0.337112  0.499509  1
  Si  Si11  1  0.330313  0.167441  0.998500  1
  Si  Si12  1  0.164193  0.831942  0.001593  1
  Si  Si13  1  0.667751  0.831942  0.498407  1
  Si  Si14  1  0.831925  0.663851  0.994215  1
  Si  Si15  1  0.330313  0.167441  0.501500  1
  Si  Si16  1  0.164193  0.831942  0.498407  1
  Si  Si17  1  0.831925  0.663851  0.505785  1
  Si  Si18  1  0.837127  0.167441  0.998500  1
  Si  Si19  1  0.837127  0.167441  0.501500  1
  Rh  Rh20  1  0.335251  0.670502  0.965239  1
  Rh  Rh21  1  0.335251  0.670502  0.534761  1
  Rh  Rh22  1  0.664451  0.328900  0.013920  1
  Rh  Rh23  1  0.664451  0.328900  0.486080  1
