# generated using pymatgen
data_Tb8TmLu9(ScSi8)2
_symmetry_space_group_name_H-M   'P 1'
_cell_length_a   7.26046545
_cell_length_b   7.58552909
_cell_length_c   14.35310643
_cell_angle_alpha   89.98231175
_cell_angle_beta   89.97816754
_cell_angle_gamma   89.98675750
_symmetry_Int_Tables_number   1
_chemical_formula_structural   Tb8TmLu9(ScSi8)2
_chemical_formula_sum   'Tb8 Tm1 Lu9 Sc2 Si16'
_cell_volume   790.48964055
_cell_formula_units_Z   1
loop_
 _symmetry_equiv_pos_site_id
 _symmetry_equiv_pos_as_xyz
  1  'x, y, z'
loop_
 _atom_site_type_symbol
 _atom_site_label
 _atom_site_symmetry_multiplicity
 _atom_site_fract_x
 _atom_site_fract_y
 _atom_site_fract_z
 _atom_site_occupancy
  Tb  Tb0  1  0.017763  0.178052  0.097650  1
  Tb  Tb1  1  0.982125  0.821870  0.902072  1
  Tb  Tb2  1  0.484375  0.680135  0.902345  1
  Tb  Tb3  1  0.982431  0.821957  0.597735  1
  Tb  Tb4  1  0.515814  0.319674  0.097645  1
  Tb  Tb5  1  0.017581  0.177924  0.402535  1
  Tb  Tb6  1  0.515804  0.319532  0.402571  1
  Tb  Tb7  1  0.484371  0.680248  0.597575  1
  Tm  Tm8  1  0.174415  0.679319  0.124334  1
  Lu  Lu9  1  0.157745  0.509839  0.749851  1
  Lu  Lu10  1  0.842341  0.489998  0.250090  1
  Lu  Lu11  1  0.326768  0.176673  0.624573  1
  Lu  Lu12  1  0.673289  0.823369  0.375644  1
  Lu  Lu13  1  0.174463  0.679194  0.375642  1
  Lu  Lu14  1  0.673562  0.823402  0.124653  1
  Lu  Lu15  1  0.825484  0.320932  0.624487  1
  Lu  Lu16  1  0.326673  0.176623  0.875225  1
  Lu  Lu17  1  0.825421  0.320736  0.875230  1
  Sc  Sc18  1  0.341986  0.010128  0.250194  1
  Sc  Sc19  1  0.657874  0.990382  0.749923  1
  Si  Si20  1  0.025948  0.105346  0.749870  1
  Si  Si21  1  0.973674  0.895289  0.250382  1
  Si  Si22  1  0.471331  0.607951  0.250489  1
  Si  Si23  1  0.529156  0.391935  0.749893  1
  Si  Si24  1  0.282981  0.872329  0.749932  1
  Si  Si25  1  0.717049  0.127612  0.250135  1
  Si  Si26  1  0.222406  0.367329  0.250319  1
  Si  Si27  1  0.777715  0.632282  0.749940  1
  Si  Si28  1  0.154256  0.467869  0.538834  1
  Si  Si29  1  0.845868  0.532086  0.461210  1
  Si  Si30  1  0.346050  0.968767  0.459880  1
  Si  Si31  1  0.844635  0.531724  0.038487  1
  Si  Si32  1  0.653885  0.031209  0.540291  1
  Si  Si33  1  0.153590  0.467426  0.960570  1
  Si  Si34  1  0.653868  0.031323  0.959747  1
  Si  Si35  1  0.347299  0.969538  0.040048  1
