# generated using pymatgen
data_Nd8Er12Si15Sb
_symmetry_space_group_name_H-M   'P 1'
_cell_length_a   7.50108871
_cell_length_b   14.80529276
_cell_length_c   7.79700900
_cell_angle_alpha   89.89702051
_cell_angle_beta   89.91787266
_cell_angle_gamma   89.24883640
_symmetry_Int_Tables_number   1
_chemical_formula_structural   Nd8Er12Si15Sb
_chemical_formula_sum   'Nd8 Er12 Si15 Sb1'
_cell_volume   865.82651031
_cell_formula_units_Z   1
loop_
 _symmetry_equiv_pos_site_id
 _symmetry_equiv_pos_as_xyz
  1  'x, y, z'
loop_
 _atom_site_type_symbol
 _atom_site_label
 _atom_site_symmetry_multiplicity
 _atom_site_fract_x
 _atom_site_fract_y
 _atom_site_fract_z
 _atom_site_occupancy
  Nd  Nd0  1  0.021272  0.098612  0.178823  1
  Nd  Nd1  1  0.019706  0.398912  0.179915  1
  Nd  Nd2  1  0.521377  0.097893  0.320286  1
  Nd  Nd3  1  0.515404  0.398738  0.326145  1
  Nd  Nd4  1  0.480855  0.599367  0.675655  1
  Nd  Nd5  1  0.478228  0.902822  0.678689  1
  Nd  Nd6  1  0.993632  0.602054  0.815226  1
  Nd  Nd7  1  0.978560  0.902363  0.820727  1
  Er  Er8  1  0.343680  0.250851  0.009452  1
  Er  Er9  1  0.318535  0.623228  0.175092  1
  Er  Er10  1  0.321003  0.877778  0.177271  1
  Er  Er11  1  0.834048  0.629625  0.336928  1
  Er  Er12  1  0.820473  0.877392  0.323170  1
  Er  Er13  1  0.845243  0.249201  0.489869  1
  Er  Er14  1  0.157329  0.752686  0.509480  1
  Er  Er15  1  0.177293  0.122200  0.678012  1
  Er  Er16  1  0.171866  0.374291  0.676238  1
  Er  Er17  1  0.678488  0.122627  0.822386  1
  Er  Er18  1  0.668460  0.372382  0.815787  1
  Er  Er19  1  0.655369  0.753666  0.991744  1
  Si  Si20  1  0.644974  0.960350  0.031105  1
  Si  Si21  1  0.029417  0.753204  0.114187  1
  Si  Si22  1  0.724415  0.249046  0.120812  1
  Si  Si23  1  0.224735  0.247497  0.377919  1
  Si  Si24  1  0.526606  0.750430  0.383333  1
  Si  Si25  1  0.152557  0.538544  0.466433  1
  Si  Si26  1  0.144614  0.960375  0.468332  1
  Si  Si27  1  0.853736  0.040299  0.530604  1
  Si  Si28  1  0.848981  0.460647  0.532408  1
  Si  Si29  1  0.470182  0.246837  0.611593  1
  Si  Si30  1  0.775815  0.752625  0.627338  1
  Si  Si31  1  0.278155  0.751404  0.876737  1
  Si  Si32  1  0.968524  0.247267  0.885843  1
  Si  Si33  1  0.354130  0.040447  0.968847  1
  Si  Si34  1  0.327711  0.455335  0.964423  1
  Sb  Sb35  1  0.674627  0.539001  0.039190  1
