# generated using pymatgen
data_Dy6YSn23Os6
_symmetry_space_group_name_H-M   'P 1'
_cell_length_a   9.86907100
_cell_length_b   9.86907108
_cell_length_c   10.14993900
_cell_angle_alpha   90.00000000
_cell_angle_beta   90.00000000
_cell_angle_gamma   120.00000309
_symmetry_Int_Tables_number   1
_chemical_formula_structural   Dy6YSn23Os6
_chemical_formula_sum   'Dy6 Y1 Sn23 Os6'
_cell_volume   856.14357259
_cell_formula_units_Z   1
loop_
 _symmetry_equiv_pos_site_id
 _symmetry_equiv_pos_as_xyz
  1  'x, y, z'
loop_
 _atom_site_type_symbol
 _atom_site_label
 _atom_site_symmetry_multiplicity
 _atom_site_fract_x
 _atom_site_fract_y
 _atom_site_fract_z
 _atom_site_occupancy
  Dy  Dy0  1  0.030093  0.515046  0.302125  1
  Dy  Dy1  1  0.484954  0.969907  0.302125  1
  Dy  Dy2  1  0.484954  0.515046  0.302125  1
  Dy  Dy3  1  0.969907  0.484954  0.697875  1
  Dy  Dy4  1  0.515046  0.030093  0.697875  1
  Dy  Dy5  1  0.515046  0.484954  0.697875  1
  Y  Y6  1  0.000000  0.000000  0.000000  1
  Sn  Sn7  1  0.000000  0.000000  0.500000  1
  Sn  Sn8  1  0.117717  0.882283  0.275720  1
  Sn  Sn9  1  0.764566  0.882283  0.275720  1
  Sn  Sn10  1  0.117717  0.235434  0.275720  1
  Sn  Sn11  1  0.882283  0.117717  0.724280  1
  Sn  Sn12  1  0.235434  0.117717  0.724280  1
  Sn  Sn13  1  0.882283  0.764566  0.724280  1
  Sn  Sn14  1  0.349742  0.000000  0.000000  1
  Sn  Sn15  1  0.650258  0.650258  0.000000  1
  Sn  Sn16  1  0.000000  0.349742  0.000000  1
  Sn  Sn17  1  0.349742  0.349742  0.000000  1
  Sn  Sn18  1  0.000000  0.650258  0.000000  1
  Sn  Sn19  1  0.650258  0.000000  0.000000  1
  Sn  Sn20  1  0.780351  0.560703  0.462731  1
  Sn  Sn21  1  0.780351  0.219649  0.462731  1
  Sn  Sn22  1  0.439297  0.219649  0.462731  1
  Sn  Sn23  1  0.219649  0.439297  0.537269  1
  Sn  Sn24  1  0.219649  0.780351  0.537269  1
  Sn  Sn25  1  0.560703  0.780351  0.537269  1
  Sn  Sn26  1  0.666667  0.333333  0.175116  1
  Sn  Sn27  1  0.333333  0.666667  0.824884  1
  Sn  Sn28  1  0.666667  0.333333  0.870931  1
  Sn  Sn29  1  0.333333  0.666667  0.129069  1
  Os  Os30  1  0.170289  0.829711  0.797857  1
  Os  Os31  1  0.659422  0.829711  0.797857  1
  Os  Os32  1  0.170289  0.340578  0.797857  1
  Os  Os33  1  0.829711  0.170289  0.202143  1
  Os  Os34  1  0.340578  0.170289  0.202143  1
  Os  Os35  1  0.829711  0.659422  0.202143  1
