# generated using pymatgen
data_Tb8Sb(PdPt7)3
_symmetry_space_group_name_H-M   'P 1'
_cell_length_a   8.43699436
_cell_length_b   8.44630336
_cell_length_c   8.42887100
_cell_angle_alpha   90.00000000
_cell_angle_beta   90.00000000
_cell_angle_gamma   90.03328478
_symmetry_Int_Tables_number   1
_chemical_formula_structural   Tb8Sb(PdPt7)3
_chemical_formula_sum   'Tb8 Sb1 Pd3 Pt21'
_cell_volume   600.65316238
_cell_formula_units_Z   1
loop_
 _symmetry_equiv_pos_site_id
 _symmetry_equiv_pos_as_xyz
  1  'x, y, z'
loop_
 _atom_site_type_symbol
 _atom_site_label
 _atom_site_symmetry_multiplicity
 _atom_site_fract_x
 _atom_site_fract_y
 _atom_site_fract_z
 _atom_site_occupancy
  Tb  Tb0  1  0.745411  0.745228  0.254326  1
  Tb  Tb1  1  0.746676  0.254182  0.745986  1
  Tb  Tb2  1  0.253851  0.746334  0.746833  1
  Tb  Tb3  1  0.745411  0.745228  0.745674  1
  Tb  Tb4  1  0.746676  0.254182  0.254014  1
  Tb  Tb5  1  0.252682  0.252829  0.747538  1
  Tb  Tb6  1  0.253851  0.746334  0.253167  1
  Tb  Tb7  1  0.252682  0.252829  0.252462  1
  Sb  Sb8  1  0.007148  0.007057  0.000000  1
  Pd  Pd9  1  0.997915  0.698946  0.000000  1
  Pd  Pd10  1  0.699092  0.998362  0.000000  1
  Pd  Pd11  1  0.500794  0.262726  0.000000  1
  Pt  Pt12  1  0.997404  0.997332  0.308274  1
  Pt  Pt13  1  0.732021  0.000477  0.500000  1
  Pt  Pt14  1  0.733861  0.500431  0.000000  1
  Pt  Pt15  1  0.500215  0.000298  0.735809  1
  Pt  Pt16  1  0.000474  0.732319  0.500000  1
  Pt  Pt17  1  0.500215  0.000298  0.264191  1
  Pt  Pt18  1  0.000524  0.263503  0.500000  1
  Pt  Pt19  1  0.500912  0.734068  0.000000  1
  Pt  Pt20  1  0.254970  0.499179  0.500000  1
  Pt  Pt21  1  0.499152  0.499344  0.746474  1
  Pt  Pt22  1  0.499152  0.499344  0.253526  1
  Pt  Pt23  1  0.499012  0.254722  0.500000  1
  Pt  Pt24  1  0.499049  0.746078  0.500000  1
  Pt  Pt25  1  0.745289  0.499350  0.500000  1
  Pt  Pt26  1  0.312454  0.997934  0.000000  1
  Pt  Pt27  1  0.997404  0.997332  0.691726  1
  Pt  Pt28  1  0.000445  0.500340  0.264602  1
  Pt  Pt29  1  0.997748  0.312300  0.000000  1
  Pt  Pt30  1  0.263188  0.500268  0.000000  1
  Pt  Pt31  1  0.263875  0.000507  0.500000  1
  Pt  Pt32  1  0.000445  0.500340  0.735398  1
