# generated using pymatgen
data_Yb2B4Ir3Os
_symmetry_space_group_name_H-M   'P 1'
_cell_length_a   6.97977330
_cell_length_b   6.08202974
_cell_length_c   5.53143591
_cell_angle_alpha   73.71237556
_cell_angle_beta   56.76264181
_cell_angle_gamma   49.33964450
_symmetry_Int_Tables_number   1
_chemical_formula_structural   Yb2B4Ir3Os
_chemical_formula_sum   'Yb2 B4 Ir3 Os1'
_cell_volume   147.89567551
_cell_formula_units_Z   1
loop_
 _symmetry_equiv_pos_site_id
 _symmetry_equiv_pos_as_xyz
  1  'x, y, z'
loop_
 _atom_site_type_symbol
 _atom_site_label
 _atom_site_symmetry_multiplicity
 _atom_site_fract_x
 _atom_site_fract_y
 _atom_site_fract_z
 _atom_site_occupancy
  Yb  Yb0  1  0.501732  0.501732  0.498268  1
  Yb  Yb1  1  0.748990  0.748990  0.751010  1
  B  B2  1  0.163723  0.826775  0.192187  1
  B  B3  1  0.075495  0.431485  0.058217  1
  B  B4  1  0.826775  0.163723  0.817315  1
  B  B5  1  0.431485  0.075495  0.434803  1
  Ir  Ir6  1  0.132029  0.132029  0.867971  1
  Ir  Ir7  1  0.383237  0.383237  0.116763  1
  Ir  Ir8  1  0.119329  0.119329  0.380671  1
  Os  Os9  1  0.867207  0.867207  0.132793  1
