# generated using pymatgen
data_TmPaBRh6
_symmetry_space_group_name_H-M   'P 1'
_cell_length_a   5.81830307
_cell_length_b   5.81830272
_cell_length_c   5.81830300
_cell_angle_alpha   59.99999273
_cell_angle_beta   59.99999473
_cell_angle_gamma   59.99999777
_symmetry_Int_Tables_number   1
_chemical_formula_structural   TmPaBRh6
_chemical_formula_sum   'Tm1 Pa1 B1 Rh6'
_cell_volume   139.27524819
_cell_formula_units_Z   1
loop_
 _symmetry_equiv_pos_site_id
 _symmetry_equiv_pos_as_xyz
  1  'x, y, z'
loop_
 _atom_site_type_symbol
 _atom_site_label
 _atom_site_symmetry_multiplicity
 _atom_site_fract_x
 _atom_site_fract_y
 _atom_site_fract_z
 _atom_site_occupancy
  Tm  Tm0  1  0.750000  0.750000  0.750000  1
  Pa  Pa1  1  0.250000  0.250000  0.250000  1
  B  B2  1  0.500000  0.500000  0.500000  1
  Rh  Rh3  1  0.755939  0.244060  0.244060  1
  Rh  Rh4  1  0.244060  0.755939  0.244060  1
  Rh  Rh5  1  0.755939  0.755939  0.244060  1
  Rh  Rh6  1  0.244060  0.244060  0.755939  1
  Rh  Rh7  1  0.755939  0.244060  0.755939  1
  Rh  Rh8  1  0.244060  0.755939  0.755939  1
