# generated using pymatgen
data_Ho7Sn23Ir6
_symmetry_space_group_name_H-M   'P 1'
_cell_length_a   9.85105500
_cell_length_b   9.85105348
_cell_length_c   10.11069000
_cell_angle_alpha   90.00000000
_cell_angle_beta   90.00000000
_cell_angle_gamma   119.99999502
_symmetry_Int_Tables_number   1
_chemical_formula_structural   Ho7Sn23Ir6
_chemical_formula_sum   'Ho7 Sn23 Ir6'
_cell_volume   849.72201278
_cell_formula_units_Z   1
loop_
 _symmetry_equiv_pos_site_id
 _symmetry_equiv_pos_as_xyz
  1  'x, y, z'
loop_
 _atom_site_type_symbol
 _atom_site_label
 _atom_site_symmetry_multiplicity
 _atom_site_fract_x
 _atom_site_fract_y
 _atom_site_fract_z
 _atom_site_occupancy
  Ho  Ho0  1  0.000000  0.000000  0.000000  1
  Ho  Ho1  1  0.519896  0.480104  0.693002  1
  Ho  Ho2  1  0.519896  0.039791  0.693002  1
  Ho  Ho3  1  0.960209  0.480104  0.693002  1
  Ho  Ho4  1  0.039791  0.519896  0.306998  1
  Ho  Ho5  1  0.480104  0.960209  0.306998  1
  Ho  Ho6  1  0.480104  0.519896  0.306998  1
  Sn  Sn7  1  0.666667  0.333333  0.174476  1
  Sn  Sn8  1  0.666667  0.333333  0.877076  1
  Sn  Sn9  1  0.333333  0.666667  0.122924  1
  Sn  Sn10  1  0.352544  0.352544  0.000000  1
  Sn  Sn11  1  0.000000  0.647456  0.000000  1
  Sn  Sn12  1  0.647456  0.000000  0.000000  1
  Sn  Sn13  1  0.647456  0.647456  0.000000  1
  Sn  Sn14  1  0.333333  0.666667  0.825524  1
  Sn  Sn15  1  0.445040  0.222520  0.455989  1
  Sn  Sn16  1  0.222520  0.777480  0.544011  1
  Sn  Sn17  1  0.222520  0.445040  0.544011  1
  Sn  Sn18  1  0.554960  0.777480  0.544011  1
  Sn  Sn19  1  0.119364  0.880636  0.283753  1
  Sn  Sn20  1  0.777480  0.554960  0.455989  1
  Sn  Sn21  1  0.777480  0.222520  0.455989  1
  Sn  Sn22  1  0.352544  0.000000  0.000000  1
  Sn  Sn23  1  0.119364  0.238728  0.283753  1
  Sn  Sn24  1  0.761272  0.880636  0.283753  1
  Sn  Sn25  1  0.238728  0.119364  0.716247  1
  Sn  Sn26  1  0.880636  0.761272  0.716247  1
  Sn  Sn27  1  0.880636  0.119364  0.716247  1
  Sn  Sn28  1  0.000000  0.000000  0.500000  1
  Sn  Sn29  1  0.000000  0.352544  0.000000  1
  Ir  Ir30  1  0.168763  0.831237  0.801954  1
  Ir  Ir31  1  0.168763  0.337525  0.801954  1
  Ir  Ir32  1  0.662475  0.831237  0.801954  1
  Ir  Ir33  1  0.337525  0.168763  0.198046  1
  Ir  Ir34  1  0.831237  0.662475  0.198046  1
  Ir  Ir35  1  0.831237  0.168763  0.198046  1
