# generated using pymatgen
data_La4Sb3RuO16
_symmetry_space_group_name_H-M   'P 1'
_cell_length_a   5.15419191
_cell_length_b   5.44211550
_cell_length_c   13.65195507
_cell_angle_alpha   70.34628149
_cell_angle_beta   89.85184511
_cell_angle_gamma   90.17026819
_symmetry_Int_Tables_number   1
_chemical_formula_structural   La4Sb3RuO16
_chemical_formula_sum   'La4 Sb3 Ru1 O16'
_cell_volume   360.62041513
_cell_formula_units_Z   1
loop_
 _symmetry_equiv_pos_site_id
 _symmetry_equiv_pos_as_xyz
  1  'x, y, z'
loop_
 _atom_site_type_symbol
 _atom_site_label
 _atom_site_symmetry_multiplicity
 _atom_site_fract_x
 _atom_site_fract_y
 _atom_site_fract_z
 _atom_site_occupancy
  La  La0  1  0.801976  0.657565  0.334483  1
  La  La1  1  0.701914  0.655257  0.838976  1
  La  La2  1  0.200842  0.343177  0.665714  1
  La  La3  1  0.302653  0.344547  0.159777  1
  Sb  Sb4  1  0.747856  0.918657  0.569490  1
  Sb  Sb5  1  0.246965  0.079902  0.932358  1
  Sb  Sb6  1  0.252596  0.082797  0.429094  1
  Ru  Ru7  1  0.749384  0.915944  0.070567  1
  O  O8  1  0.436336  0.752841  0.031642  1
  O  O9  1  0.061840  0.754078  0.526467  1
  O  O10  1  0.558825  0.245681  0.974809  1
  O  O11  1  0.937808  0.248589  0.470382  1
  O  O12  1  0.606448  0.990743  0.186204  1
  O  O13  1  0.899086  0.993383  0.687583  1
  O  O14  1  0.398745  0.005910  0.813498  1
  O  O15  1  0.102275  0.009366  0.309857  1
  O  O16  1  0.065390  0.129845  0.060229  1
  O  O17  1  0.429559  0.140988  0.554411  1
  O  O18  1  0.928284  0.860782  0.945604  1
  O  O19  1  0.570978  0.861574  0.442991  1
  O  O20  1  0.880881  0.594733  0.165632  1
  O  O21  1  0.617948  0.587430  0.668912  1
  O  O22  1  0.117603  0.411996  0.833011  1
  O  O23  1  0.383809  0.414216  0.328308  1
