# generated using pymatgen
data_GdTmS3
_symmetry_space_group_name_H-M   'P 1'
_cell_length_a   3.93720300
_cell_length_b   11.00164987
_cell_length_c   11.26888714
_cell_angle_alpha   71.48652680
_cell_angle_beta   90.00000000
_cell_angle_gamma   90.00000000
_symmetry_Int_Tables_number   1
_chemical_formula_structural   GdTmS3
_chemical_formula_sum   'Gd4 Tm4 S12'
_cell_volume   462.85936584
_cell_formula_units_Z   4
loop_
 _symmetry_equiv_pos_site_id
 _symmetry_equiv_pos_as_xyz
  1  'x, y, z'
loop_
 _atom_site_type_symbol
 _atom_site_label
 _atom_site_symmetry_multiplicity
 _atom_site_fract_x
 _atom_site_fract_y
 _atom_site_fract_z
 _atom_site_occupancy
  Gd  Gd0  1  0.250000  0.818356  0.003648  1
  Gd  Gd1  1  0.750000  0.181644  0.996352  1
  Gd  Gd2  1  0.250000  0.453509  0.193479  1
  Gd  Gd3  1  0.750000  0.546491  0.806521  1
  Tm  Tm4  1  0.250000  0.065361  0.334099  1
  Tm  Tm5  1  0.750000  0.934639  0.665901  1
  Tm  Tm6  1  0.250000  0.339710  0.583218  1
  Tm  Tm7  1  0.750000  0.660290  0.416782  1
  S  S8  1  0.250000  0.019839  0.117760  1
  S  S9  1  0.750000  0.980161  0.882240  1
  S  S10  1  0.250000  0.690386  0.255035  1
  S  S11  1  0.750000  0.309614  0.744965  1
  S  S12  1  0.250000  0.101965  0.563495  1
  S  S13  1  0.750000  0.898035  0.436505  1
  S  S14  1  0.250000  0.581310  0.595571  1
  S  S15  1  0.750000  0.418690  0.404429  1
  S  S16  1  0.250000  0.758660  0.771808  1
  S  S17  1  0.750000  0.241340  0.228192  1
  S  S18  1  0.250000  0.388886  0.961755  1
  S  S19  1  0.750000  0.611114  0.038245  1
