# generated using pymatgen
data_Lu5Nb3(Ni4P3)4
_symmetry_space_group_name_H-M   'P 1'
_cell_length_a   12.19019800
_cell_length_b   12.19019701
_cell_length_c   3.73079300
_cell_angle_alpha   90.00000000
_cell_angle_beta   90.00000000
_cell_angle_gamma   120.00000269
_symmetry_Int_Tables_number   1
_chemical_formula_structural   Lu5Nb3(Ni4P3)4
_chemical_formula_sum   'Lu5 Nb3 Ni16 P12'
_cell_volume   480.12382494
_cell_formula_units_Z   1
loop_
 _symmetry_equiv_pos_site_id
 _symmetry_equiv_pos_as_xyz
  1  'x, y, z'
loop_
 _atom_site_type_symbol
 _atom_site_label
 _atom_site_symmetry_multiplicity
 _atom_site_fract_x
 _atom_site_fract_y
 _atom_site_fract_z
 _atom_site_occupancy
  Lu  Lu0  1  0.185025  0.185025  0.500000  1
  Lu  Lu1  1  0.814975  0.000000  0.500000  1
  Lu  Lu2  1  0.000000  0.814975  0.500000  1
  Lu  Lu3  1  0.333333  0.666667  0.000000  1
  Lu  Lu4  1  0.666667  0.333333  0.000000  1
  Nb  Nb5  1  0.559762  0.559762  0.000000  1
  Nb  Nb6  1  0.440238  0.000000  0.000000  1
  Nb  Nb7  1  0.000000  0.440238  0.000000  1
  Ni  Ni8  1  0.723695  0.723695  0.500000  1
  Ni  Ni9  1  0.276305  0.000000  0.500000  1
  Ni  Ni10  1  0.000000  0.276305  0.500000  1
  Ni  Ni11  1  0.183963  0.374777  0.000000  1
  Ni  Ni12  1  0.625223  0.809186  0.000000  1
  Ni  Ni13  1  0.190814  0.816037  0.000000  1
  Ni  Ni14  1  0.809186  0.625223  0.000000  1
  Ni  Ni15  1  0.816037  0.190814  0.000000  1
  Ni  Ni16  1  0.374777  0.183963  0.000000  1
  Ni  Ni17  1  0.359100  0.484551  0.500000  1
  Ni  Ni18  1  0.515449  0.874550  0.500000  1
  Ni  Ni19  1  0.125450  0.640900  0.500000  1
  Ni  Ni20  1  0.874550  0.515449  0.500000  1
  Ni  Ni21  1  0.640900  0.125450  0.500000  1
  Ni  Ni22  1  0.484551  0.359100  0.500000  1
  Ni  Ni23  1  0.000000  0.000000  0.000000  1
  P  P24  1  0.823028  0.823028  0.000000  1
  P  P25  1  0.176972  0.000000  0.000000  1
  P  P26  1  0.000000  0.176972  0.000000  1
  P  P27  1  0.168958  0.479571  0.500000  1
  P  P28  1  0.520429  0.689387  0.500000  1
  P  P29  1  0.310613  0.831042  0.500000  1
  P  P30  1  0.689387  0.520429  0.500000  1
  P  P31  1  0.831042  0.310613  0.500000  1
  P  P32  1  0.479571  0.168958  0.500000  1
  P  P33  1  0.359875  0.359875  0.000000  1
  P  P34  1  0.640125  0.000000  0.000000  1
  P  P35  1  0.000000  0.640125  0.000000  1
