# generated using pymatgen
data_Pr2NdPtRh2Pb3
_symmetry_space_group_name_H-M   'P 1'
_cell_length_a   7.88471034
_cell_length_b   7.87666222
_cell_length_c   4.03466200
_cell_angle_alpha   90.00000000
_cell_angle_beta   90.00000000
_cell_angle_gamma   120.00015950
_symmetry_Int_Tables_number   1
_chemical_formula_structural   Pr2NdPtRh2Pb3
_chemical_formula_sum   'Pr2 Nd1 Pt1 Rh2 Pb3'
_cell_volume   217.00265970
_cell_formula_units_Z   1
loop_
 _symmetry_equiv_pos_site_id
 _symmetry_equiv_pos_as_xyz
  1  'x, y, z'
loop_
 _atom_site_type_symbol
 _atom_site_label
 _atom_site_symmetry_multiplicity
 _atom_site_fract_x
 _atom_site_fract_y
 _atom_site_fract_z
 _atom_site_occupancy
  Pr  Pr0  1  0.003663  0.592012  0.000000  1
  Pr  Pr1  1  0.408132  0.411811  0.000000  1
  Nd  Nd2  1  0.588483  0.996411  0.000000  1
  Pt  Pt3  1  0.666313  0.332011  0.500000  1
  Rh  Rh4  1  0.999415  0.999954  0.000000  1
  Rh  Rh5  1  0.334226  0.667882  0.500000  1
  Pb  Pb6  1  0.741191  0.746781  0.500000  1
  Pb  Pb7  1  0.004208  0.257983  0.500000  1
  Pb  Pb8  1  0.254369  0.995156  0.500000  1
