# generated using pymatgen
data_NdCrClO4
_symmetry_space_group_name_H-M   'P 1'
_cell_length_a   6.33385444
_cell_length_b   6.33385239
_cell_length_c   6.86573000
_cell_angle_alpha   101.91861128
_cell_angle_beta   101.91860735
_cell_angle_gamma   71.37246537
_symmetry_Int_Tables_number   1
_chemical_formula_structural   NdCrClO4
_chemical_formula_sum   'Nd2 Cr2 Cl2 O8'
_cell_volume   252.43019770
_cell_formula_units_Z   2
loop_
 _symmetry_equiv_pos_site_id
 _symmetry_equiv_pos_as_xyz
  1  'x, y, z'
loop_
 _atom_site_type_symbol
 _atom_site_label
 _atom_site_symmetry_multiplicity
 _atom_site_fract_x
 _atom_site_fract_y
 _atom_site_fract_z
 _atom_site_occupancy
  Nd  Nd0  1  0.774889  0.774889  0.378625  1
  Nd  Nd1  1  0.225110  0.225110  0.621375  1
  Cr  Cr2  1  0.360596  0.360596  0.235258  1
  Cr  Cr3  1  0.639404  0.639404  0.764742  1
  Cl  Cl4  1  0.017524  0.017524  0.264859  1
  Cl  Cl5  1  0.982476  0.982476  0.735141  1
  O  O6  1  0.713552  0.713552  0.006530  1
  O  O7  1  0.524277  0.524277  0.268581  1
  O  O8  1  0.489863  0.133459  0.355047  1
  O  O9  1  0.133459  0.489863  0.355047  1
  O  O10  1  0.866541  0.510137  0.644953  1
  O  O11  1  0.510137  0.866541  0.644953  1
  O  O12  1  0.475724  0.475724  0.731419  1
  O  O13  1  0.286448  0.286448  0.993471  1
