# generated using pymatgen
data_Pr6FeCo15(P6W)2
_symmetry_space_group_name_H-M   'P 1'
_cell_length_a   3.80885800
_cell_length_b   10.77018000
_cell_length_c   12.49573600
_cell_angle_alpha   90.00000000
_cell_angle_beta   90.00000000
_cell_angle_gamma   90.00000000
_symmetry_Int_Tables_number   1
_chemical_formula_structural   Pr6FeCo15(P6W)2
_chemical_formula_sum   'Pr6 Fe1 Co15 P12 W2'
_cell_volume   512.60116000
_cell_formula_units_Z   1
loop_
 _symmetry_equiv_pos_site_id
 _symmetry_equiv_pos_as_xyz
  1  'x, y, z'
loop_
 _atom_site_type_symbol
 _atom_site_label
 _atom_site_symmetry_multiplicity
 _atom_site_fract_x
 _atom_site_fract_y
 _atom_site_fract_z
 _atom_site_occupancy
  Pr  Pr0  1  0.000000  0.500000  0.523232  1
  Pr  Pr1  1  0.500000  0.000000  0.476775  1
  Pr  Pr2  1  0.500000  0.818577  0.205167  1
  Pr  Pr3  1  0.500000  0.181423  0.205167  1
  Pr  Pr4  1  0.000000  0.680133  0.795096  1
  Pr  Pr5  1  0.000000  0.319867  0.795096  1
  Fe  Fe6  1  0.000000  0.500000  0.989013  1
  Co  Co7  1  0.500000  0.500000  0.701471  1
  Co  Co8  1  0.000000  0.000000  0.297349  1
  Co  Co9  1  0.500000  0.000000  0.011677  1
  Co  Co10  1  0.500000  0.330970  0.992543  1
  Co  Co11  1  0.500000  0.669030  0.992543  1
  Co  Co12  1  0.000000  0.166866  0.007581  1
  Co  Co13  1  0.000000  0.833134  0.007581  1
  Co  Co14  1  0.500000  0.295351  0.431041  1
  Co  Co15  1  0.500000  0.704649  0.431041  1
  Co  Co16  1  0.000000  0.204525  0.569324  1
  Co  Co17  1  0.000000  0.795475  0.569324  1
  Co  Co18  1  0.500000  0.881472  0.709765  1
  Co  Co19  1  0.500000  0.118528  0.709765  1
  Co  Co20  1  0.000000  0.619010  0.290303  1
  Co  Co21  1  0.000000  0.380990  0.290303  1
  P  P22  1  0.500000  0.500000  0.887482  1
  P  P23  1  0.000000  0.000000  0.114274  1
  P  P24  1  0.500000  0.500000  0.343555  1
  P  P25  1  0.000000  0.000000  0.656254  1
  P  P26  1  0.500000  0.305368  0.614009  1
  P  P27  1  0.500000  0.694632  0.614009  1
  P  P28  1  0.000000  0.194539  0.386150  1
  P  P29  1  0.000000  0.805461  0.386150  1
  P  P30  1  0.500000  0.846555  0.895315  1
  P  P31  1  0.500000  0.153445  0.895315  1
  P  P32  1  0.000000  0.652587  0.103433  1
  P  P33  1  0.000000  0.347413  0.103433  1
  W  W34  1  0.500000  0.500000  0.153146  1
  W  W35  1  0.000000  0.000000  0.846316  1
