# generated using pymatgen
data_Rb8Hf5ZrMnI20
_symmetry_space_group_name_H-M   'P 1'
_cell_length_a   12.93246823
_cell_length_b   12.93246875
_cell_length_c   12.93025100
_cell_angle_alpha   60.00566491
_cell_angle_beta   60.00566359
_cell_angle_gamma   59.98866175
_symmetry_Int_Tables_number   1
_chemical_formula_structural   Rb8Hf5ZrMnI20
_chemical_formula_sum   'Rb8 Hf5 Zr1 Mn1 I20'
_cell_volume   1529.16644006
_cell_formula_units_Z   1
loop_
 _symmetry_equiv_pos_site_id
 _symmetry_equiv_pos_as_xyz
  1  'x, y, z'
loop_
 _atom_site_type_symbol
 _atom_site_label
 _atom_site_symmetry_multiplicity
 _atom_site_fract_x
 _atom_site_fract_y
 _atom_site_fract_z
 _atom_site_occupancy
  Rb  Rb0  1  0.361144  0.361144  0.361154  1
  Rb  Rb1  1  0.639135  0.639135  0.638135  1
  Rb  Rb2  1  0.361144  0.361144  0.916557  1
  Rb  Rb3  1  0.361865  0.916406  0.360865  1
  Rb  Rb4  1  0.639135  0.639135  0.083594  1
  Rb  Rb5  1  0.638846  0.083443  0.638856  1
  Rb  Rb6  1  0.916406  0.361865  0.360865  1
  Rb  Rb7  1  0.083443  0.638846  0.638856  1
  Hf  Hf8  1  0.867049  0.132967  0.132951  1
  Hf  Hf9  1  0.132967  0.867049  0.867033  1
  Hf  Hf10  1  0.132967  0.867049  0.132951  1
  Hf  Hf11  1  0.867049  0.132967  0.867033  1
  Hf  Hf12  1  0.131730  0.131730  0.868270  1
  Zr  Zr13  1  0.865257  0.865257  0.134743  1
  Mn  Mn14  1  0.999172  0.999172  0.000828  1
  I  I15  1  0.319535  0.000212  0.999788  1
  I  I16  1  0.678671  0.003116  0.996884  1
  I  I17  1  0.000212  0.319535  0.680465  1
  I  I18  1  0.003116  0.678671  0.321329  1
  I  I19  1  0.000212  0.319535  0.999788  1
  I  I20  1  0.678671  0.003116  0.321329  1
  I  I21  1  0.003116  0.678671  0.996884  1
  I  I22  1  0.319535  0.000212  0.680465  1
  I  I23  1  0.000122  0.000122  0.319134  1
  I  I24  1  0.000122  0.000122  0.680622  1
  I  I25  1  0.680866  0.319378  0.999878  1
  I  I26  1  0.319378  0.680866  0.999878  1
  I  I27  1  0.691344  0.309767  0.308656  1
  I  I28  1  0.309767  0.691344  0.690233  1
  I  I29  1  0.309767  0.691344  0.308656  1
  I  I30  1  0.691344  0.309767  0.690233  1
  I  I31  1  0.309079  0.309079  0.690921  1
  I  I32  1  0.688059  0.688059  0.311941  1
  I  I33  1  0.249888  0.249888  0.250112  1
  I  I34  1  0.749888  0.749888  0.750112  1
