# generated using pymatgen
data_La8HoErIn6
_symmetry_space_group_name_H-M   'P 1'
_cell_length_a   6.31520303
_cell_length_b   9.53249534
_cell_length_c   9.53249537
_cell_angle_alpha   83.70059799
_cell_angle_beta   70.65557901
_cell_angle_gamma   70.65558235
_symmetry_Int_Tables_number   1
_chemical_formula_structural   La8HoErIn6
_chemical_formula_sum   'La8 Ho1 Er1 In6'
_cell_volume   510.88745098
_cell_formula_units_Z   1
loop_
 _symmetry_equiv_pos_site_id
 _symmetry_equiv_pos_as_xyz
  1  'x, y, z'
loop_
 _atom_site_type_symbol
 _atom_site_label
 _atom_site_symmetry_multiplicity
 _atom_site_fract_x
 _atom_site_fract_y
 _atom_site_fract_z
 _atom_site_occupancy
  La  La0  1  0.723785  0.864007  0.688332  1
  La  La1  1  0.276124  0.135993  0.311668  1
  La  La2  1  0.776215  0.311668  0.135993  1
  La  La3  1  0.223876  0.688332  0.864007  1
  La  La4  1  0.587883  0.688332  0.135993  1
  La  La5  1  0.412209  0.311668  0.864007  1
  La  La6  1  0.087791  0.135993  0.688332  1
  La  La7  1  0.912117  0.864007  0.311668  1
  Ho  Ho8  1  0.250000  0.500000  0.500000  1
  Er  Er9  1  0.750000  0.500000  0.500000  1
  In  In10  1  0.155570  0.500000  0.188564  1
  In  In11  1  0.844132  0.500000  0.811436  1
  In  In12  1  0.344430  0.811436  0.500000  1
  In  In13  1  0.655868  0.188564  0.500000  1
  In  In14  1  0.250000  0.000000  0.000000  1
  In  In15  1  0.750000  0.000000  0.000000  1
