# generated using pymatgen
data_V8Cr7Rh
_symmetry_space_group_name_H-M   'P 1'
_cell_length_a   5.85956700
_cell_length_b   5.85956700
_cell_length_c   5.85956700
_cell_angle_alpha   90.00000000
_cell_angle_beta   90.00000000
_cell_angle_gamma   90.00000000
_symmetry_Int_Tables_number   1
_chemical_formula_structural   V8Cr7Rh
_chemical_formula_sum   'V8 Cr7 Rh1'
_cell_volume   201.18545216
_cell_formula_units_Z   1
loop_
 _symmetry_equiv_pos_site_id
 _symmetry_equiv_pos_as_xyz
  1  'x, y, z'
loop_
 _atom_site_type_symbol
 _atom_site_label
 _atom_site_symmetry_multiplicity
 _atom_site_fract_x
 _atom_site_fract_y
 _atom_site_fract_z
 _atom_site_occupancy
  V  V0  1  0.246395  0.246395  0.246395  1
  V  V1  1  0.753605  0.246395  0.246395  1
  V  V2  1  0.246395  0.753605  0.246395  1
  V  V3  1  0.753605  0.753605  0.246395  1
  V  V4  1  0.246395  0.246395  0.753605  1
  V  V5  1  0.753605  0.246395  0.753605  1
  V  V6  1  0.246395  0.753605  0.753605  1
  V  V7  1  0.753605  0.753605  0.753605  1
  Cr  Cr8  1  0.000000  0.000000  0.000000  1
  Cr  Cr9  1  0.500000  0.000000  0.000000  1
  Cr  Cr10  1  0.000000  0.500000  0.000000  1
  Cr  Cr11  1  0.500000  0.500000  0.000000  1
  Cr  Cr12  1  0.000000  0.000000  0.500000  1
  Cr  Cr13  1  0.500000  0.000000  0.500000  1
  Cr  Cr14  1  0.000000  0.500000  0.500000  1
  Rh  Rh15  1  0.500000  0.500000  0.500000  1
