# generated using pymatgen
data_TbSc6Fe6Sn23
_symmetry_space_group_name_H-M   'P 1'
_cell_length_a   9.56539100
_cell_length_b   9.56539209
_cell_length_c   9.80996500
_cell_angle_alpha   90.00000000
_cell_angle_beta   90.00000000
_cell_angle_gamma   120.00000659
_symmetry_Int_Tables_number   1
_chemical_formula_structural   TbSc6Fe6Sn23
_chemical_formula_sum   'Tb1 Sc6 Fe6 Sn23'
_cell_volume   777.32666320
_cell_formula_units_Z   1
loop_
 _symmetry_equiv_pos_site_id
 _symmetry_equiv_pos_as_xyz
  1  'x, y, z'
loop_
 _atom_site_type_symbol
 _atom_site_label
 _atom_site_symmetry_multiplicity
 _atom_site_fract_x
 _atom_site_fract_y
 _atom_site_fract_z
 _atom_site_occupancy
  Tb  Tb0  1  0.000000  0.000000  0.000000  1
  Sc  Sc1  1  0.488411  0.511589  0.301809  1
  Sc  Sc2  1  0.511589  0.488411  0.698191  1
  Sc  Sc3  1  0.488411  0.976821  0.301809  1
  Sc  Sc4  1  0.511589  0.023179  0.698191  1
  Sc  Sc5  1  0.023179  0.511589  0.301809  1
  Sc  Sc6  1  0.976821  0.488411  0.698191  1
  Fe  Fe7  1  0.829298  0.170702  0.203044  1
  Fe  Fe8  1  0.170702  0.829298  0.796956  1
  Fe  Fe9  1  0.829298  0.658596  0.203044  1
  Fe  Fe10  1  0.170702  0.341404  0.796956  1
  Fe  Fe11  1  0.341404  0.170702  0.203044  1
  Fe  Fe12  1  0.658596  0.829298  0.796956  1
  Sn  Sn13  1  0.346740  0.000000  0.000000  1
  Sn  Sn14  1  0.653260  0.000000  0.000000  1
  Sn  Sn15  1  0.000000  0.346740  0.000000  1
  Sn  Sn16  1  0.000000  0.653260  0.000000  1
  Sn  Sn17  1  0.653260  0.653260  0.000000  1
  Sn  Sn18  1  0.346740  0.346740  0.000000  1
  Sn  Sn19  1  0.333333  0.666667  0.823789  1
  Sn  Sn20  1  0.666667  0.333333  0.176211  1
  Sn  Sn21  1  0.000000  0.000000  0.500000  1
  Sn  Sn22  1  0.779870  0.220130  0.461062  1
  Sn  Sn23  1  0.220130  0.779870  0.538938  1
  Sn  Sn24  1  0.779870  0.559740  0.461062  1
  Sn  Sn25  1  0.220130  0.440260  0.538938  1
  Sn  Sn26  1  0.440260  0.220130  0.461062  1
  Sn  Sn27  1  0.559740  0.779870  0.538938  1
  Sn  Sn28  1  0.333333  0.666667  0.142873  1
  Sn  Sn29  1  0.666667  0.333333  0.857127  1
  Sn  Sn30  1  0.120932  0.879068  0.272080  1
  Sn  Sn31  1  0.879068  0.120932  0.727920  1
  Sn  Sn32  1  0.120932  0.241866  0.272080  1
  Sn  Sn33  1  0.879068  0.758134  0.727920  1
  Sn  Sn34  1  0.758134  0.879068  0.272080  1
  Sn  Sn35  1  0.241866  0.120932  0.727920  1
