# generated using pymatgen
data_LaLu(Tc2P)4
_symmetry_space_group_name_H-M   'P 1'
_cell_length_a   7.46035271
_cell_length_b   7.46035271
_cell_length_c   3.95843100
_cell_angle_alpha   90.00000000
_cell_angle_beta   90.00000000
_cell_angle_gamma   89.08522116
_symmetry_Int_Tables_number   1
_chemical_formula_structural   LaLu(Tc2P)4
_chemical_formula_sum   'La1 Lu1 Tc8 P4'
_cell_volume   220.28577081
_cell_formula_units_Z   1
loop_
 _symmetry_equiv_pos_site_id
 _symmetry_equiv_pos_as_xyz
  1  'x, y, z'
loop_
 _atom_site_type_symbol
 _atom_site_label
 _atom_site_symmetry_multiplicity
 _atom_site_fract_x
 _atom_site_fract_y
 _atom_site_fract_z
 _atom_site_occupancy
  La  La0  1  0.500000  0.500000  0.000000  1
  Lu  Lu1  1  0.000000  0.000000  0.500000  1
  Tc  Tc2  1  0.156660  0.585440  0.500000  1
  Tc  Tc3  1  0.843340  0.414560  0.500000  1
  Tc  Tc4  1  0.336383  0.078843  0.000000  1
  Tc  Tc5  1  0.663617  0.921157  0.000000  1
  Tc  Tc6  1  0.585440  0.156660  0.500000  1
  Tc  Tc7  1  0.414560  0.843340  0.500000  1
  Tc  Tc8  1  0.078843  0.336383  0.000000  1
  Tc  Tc9  1  0.921157  0.663617  0.000000  1
  P  P10  1  0.717952  0.717952  0.500000  1
  P  P11  1  0.282048  0.282048  0.500000  1
  P  P12  1  0.793368  0.206632  0.000000  1
  P  P13  1  0.206632  0.793368  0.000000  1
