# generated using pymatgen
data_Sr5(LiHg)4
_symmetry_space_group_name_H-M   'P 1'
_cell_length_a   9.48327448
_cell_length_b   9.48327459
_cell_length_c   9.48327509
_cell_angle_alpha   93.62839478
_cell_angle_beta   93.62839332
_cell_angle_gamma   150.85968098
_symmetry_Int_Tables_number   1
_chemical_formula_structural   Sr5(LiHg)4
_chemical_formula_sum   'Sr5 Li4 Hg4'
_cell_volume   401.94182493
_cell_formula_units_Z   1
loop_
 _symmetry_equiv_pos_site_id
 _symmetry_equiv_pos_as_xyz
  1  'x, y, z'
loop_
 _atom_site_type_symbol
 _atom_site_label
 _atom_site_symmetry_multiplicity
 _atom_site_fract_x
 _atom_site_fract_y
 _atom_site_fract_z
 _atom_site_occupancy
  Sr  Sr0  1  0.130710  0.791043  0.921753  1
  Sr  Sr1  1  0.208957  0.130710  0.339667  1
  Sr  Sr2  1  0.869290  0.208957  0.078247  1
  Sr  Sr3  1  0.500000  0.500000  0.000000  1
  Sr  Sr4  1  0.791043  0.869290  0.660333  1
  Li  Li5  1  0.598916  0.069725  0.668641  1
  Li  Li6  1  0.930275  0.598916  0.529191  1
  Li  Li7  1  0.069725  0.401084  0.470809  1
  Li  Li8  1  0.401084  0.930275  0.331359  1
  Hg  Hg9  1  0.446857  0.236363  0.683221  1
  Hg  Hg10  1  0.553143  0.763637  0.316779  1
  Hg  Hg11  1  0.236363  0.553143  0.789506  1
  Hg  Hg12  1  0.763637  0.446857  0.210494  1
