# generated using pymatgen
data_Tb3Pr7(Sn3Br)2
_symmetry_space_group_name_H-M   'P 1'
_cell_length_a   9.50694500
_cell_length_b   9.50694535
_cell_length_c   6.80041500
_cell_angle_alpha   90.00000000
_cell_angle_beta   90.00000000
_cell_angle_gamma   120.00000226
_symmetry_Int_Tables_number   1
_chemical_formula_structural   Tb3Pr7(Sn3Br)2
_chemical_formula_sum   'Tb3 Pr7 Sn6 Br2'
_cell_volume   532.28964469
_cell_formula_units_Z   1
loop_
 _symmetry_equiv_pos_site_id
 _symmetry_equiv_pos_as_xyz
  1  'x, y, z'
loop_
 _atom_site_type_symbol
 _atom_site_label
 _atom_site_symmetry_multiplicity
 _atom_site_fract_x
 _atom_site_fract_y
 _atom_site_fract_z
 _atom_site_occupancy
  Tb  Tb0  1  0.666667  0.333333  0.500000  1
  Tb  Tb1  1  0.333333  0.666667  0.000000  1
  Tb  Tb2  1  0.666667  0.333333  0.000000  1
  Pr  Pr3  1  0.268070  0.267690  0.750500  1
  Pr  Pr4  1  0.999621  0.731930  0.750500  1
  Pr  Pr5  1  0.732310  0.000379  0.750500  1
  Pr  Pr6  1  0.999621  0.267690  0.249500  1
  Pr  Pr7  1  0.333333  0.666667  0.500000  1
  Pr  Pr8  1  0.732310  0.731930  0.249500  1
  Pr  Pr9  1  0.268070  0.000379  0.249500  1
  Sn  Sn10  1  0.611922  0.002002  0.248722  1
  Sn  Sn11  1  0.997998  0.388078  0.751278  1
  Sn  Sn12  1  0.390081  0.002002  0.751278  1
  Sn  Sn13  1  0.611922  0.609919  0.751278  1
  Sn  Sn14  1  0.997998  0.609919  0.248722  1
  Sn  Sn15  1  0.390081  0.388078  0.248722  1
  Br  Br16  1  0.000000  0.000000  0.000000  1
  Br  Br17  1  0.000000  0.000000  0.500000  1
