# generated using pymatgen
data_Ho6Al24Ru3PtRh4
_symmetry_space_group_name_H-M   'P 1'
_cell_length_a   8.82770584
_cell_length_b   8.82494405
_cell_length_c   9.47168500
_cell_angle_alpha   89.83117780
_cell_angle_beta   90.18768673
_cell_angle_gamma   120.12964819
_symmetry_Int_Tables_number   1
_chemical_formula_structural   Ho6Al24Ru3PtRh4
_chemical_formula_sum   'Ho6 Al24 Ru3 Pt1 Rh4'
_cell_volume   638.18415028
_cell_formula_units_Z   1
loop_
 _symmetry_equiv_pos_site_id
 _symmetry_equiv_pos_as_xyz
  1  'x, y, z'
loop_
 _atom_site_type_symbol
 _atom_site_label
 _atom_site_symmetry_multiplicity
 _atom_site_fract_x
 _atom_site_fract_y
 _atom_site_fract_z
 _atom_site_occupancy
  Ho  Ho0  1  0.194381  0.385614  0.250925  1
  Ho  Ho1  1  0.805619  0.614386  0.749075  1
  Ho  Ho2  1  0.614832  0.805743  0.251020  1
  Ho  Ho3  1  0.385168  0.194257  0.748980  1
  Ho  Ho4  1  0.192158  0.807354  0.250457  1
  Ho  Ho5  1  0.807842  0.192646  0.749543  1
  Al  Al6  1  0.333369  0.666671  0.028826  1
  Al  Al7  1  0.666631  0.333329  0.971174  1
  Al  Al8  1  0.667783  0.338090  0.526573  1
  Al  Al9  1  0.332217  0.661910  0.473427  1
  Al  Al10  1  0.164539  0.326079  0.576215  1
  Al  Al11  1  0.835461  0.673921  0.423785  1
  Al  Al12  1  0.674993  0.833488  0.576526  1
  Al  Al13  1  0.837079  0.674101  0.075544  1
  Al  Al14  1  0.325007  0.166512  0.423474  1
  Al  Al15  1  0.162921  0.325899  0.924456  1
  Al  Al16  1  0.159053  0.835434  0.577177  1
  Al  Al17  1  0.325809  0.162758  0.075684  1
  Al  Al18  1  0.840947  0.164566  0.422823  1
  Al  Al19  1  0.674191  0.837242  0.924316  1
  Al  Al20  1  0.837381  0.162317  0.076326  1
  Al  Al21  1  0.162619  0.837683  0.923674  1
  Al  Al22  1  0.562973  0.125264  0.246695  1
  Al  Al23  1  0.437027  0.874736  0.753305  1
  Al  Al24  1  0.876718  0.437837  0.249731  1
  Al  Al25  1  0.123282  0.562163  0.750269  1
  Al  Al26  1  0.561738  0.437857  0.250909  1
  Al  Al27  1  0.438262  0.562143  0.749091  1
  Al  Al28  1  0.000410  0.998927  0.249934  1
  Al  Al29  1  0.999590  0.001073  0.750066  1
  Ru  Ru30  1  0.500000  0.500000  0.500000  1
  Ru  Ru31  1  0.000000  0.000000  0.000000  1
  Ru  Ru32  1  0.000000  0.000000  0.500000  1
  Pt  Pt33  1  0.500000  0.000000  0.500000  1
  Rh  Rh34  1  0.500000  0.000000  0.000000  1
  Rh  Rh35  1  0.000000  0.500000  0.000000  1
  Rh  Rh36  1  0.500000  0.500000  0.000000  1
  Rh  Rh37  1  0.000000  0.500000  0.500000  1
