# generated using pymatgen
data_DyBr37
_symmetry_space_group_name_H-M   'P 1'
_cell_length_a   14.20848141
_cell_length_b   15.29732181
_cell_length_c   14.42416200
_cell_angle_alpha   103.00376457
_cell_angle_beta   48.80056783
_cell_angle_gamma   81.50743146
_symmetry_Int_Tables_number   1
_chemical_formula_structural   DyBr37
_chemical_formula_sum   'Dy1 Br37'
_cell_volume   2102.91272627
_cell_formula_units_Z   1
loop_
 _symmetry_equiv_pos_site_id
 _symmetry_equiv_pos_as_xyz
  1  'x, y, z'
loop_
 _atom_site_type_symbol
 _atom_site_label
 _atom_site_symmetry_multiplicity
 _atom_site_fract_x
 _atom_site_fract_y
 _atom_site_fract_z
 _atom_site_occupancy
  Dy  Dy0  1  0.500000  0.000000  0.000000  1
  Br  Br1  1  0.786607  0.300877  0.136814  1
  Br  Br2  1  0.213393  0.699123  0.863186  1
  Br  Br3  1  0.743515  0.083335  0.363798  1
  Br  Br4  1  0.256485  0.916665  0.636202  1
  Br  Br5  1  0.115552  0.350532  0.168896  1
  Br  Br6  1  0.884448  0.649468  0.831104  1
  Br  Br7  1  0.865299  0.530992  0.247048  1
  Br  Br8  1  0.134701  0.469008  0.752952  1
  Br  Br9  1  0.686914  0.274917  0.521752  1
  Br  Br10  1  0.313086  0.725083  0.478248  1
  Br  Br11  1  0.049373  0.142046  0.476178  1
  Br  Br12  1  0.950627  0.857954  0.523822  1
  Br  Br13  1  0.977121  0.007620  0.286938  1
  Br  Br14  1  0.022879  0.992380  0.713062  1
  Br  Br15  1  0.952804  0.338550  0.600616  1
  Br  Br16  1  0.047196  0.661450  0.399384  1
  Br  Br17  1  0.577897  0.429939  0.235093  1
  Br  Br18  1  0.422103  0.570061  0.764907  1
  Br  Br19  1  0.170642  0.480662  0.277614  1
  Br  Br20  1  0.829358  0.519338  0.722386  1
  Br  Br21  1  0.000000  0.500000  0.000000  1
  Br  Br22  1  0.575424  0.957523  0.131321  1
  Br  Br23  1  0.424576  0.042477  0.868679  1
  Br  Br24  1  0.312527  0.050815  0.301832  1
  Br  Br25  1  0.687473  0.949185  0.698168  1
  Br  Br26  1  0.531223  0.133799  0.414069  1
  Br  Br27  1  0.468777  0.866201  0.585931  1
  Br  Br28  1  0.094907  0.215949  0.066570  1
  Br  Br29  1  0.905093  0.784051  0.933430  1
  Br  Br30  1  0.663438  0.690783  0.401734  1
  Br  Br31  1  0.336562  0.309217  0.598266  1
  Br  Br32  1  0.900066  0.147976  0.922197  1
  Br  Br33  1  0.099934  0.852024  0.077803  1
  Br  Br34  1  0.491103  0.180885  0.064783  1
  Br  Br35  1  0.508897  0.819115  0.935217  1
  Br  Br36  1  0.651624  0.429865  0.649852  1
  Br  Br37  1  0.348376  0.570135  0.350148  1
