# generated using pymatgen
data_HfZr8Nb11Si16
_symmetry_space_group_name_H-M   'P 1'
_cell_length_a   6.90994102
_cell_length_b   6.90992802
_cell_length_c   12.81465306
_cell_angle_alpha   90.00805390
_cell_angle_beta   89.99195887
_cell_angle_gamma   90.00230540
_symmetry_Int_Tables_number   1
_chemical_formula_structural   HfZr8Nb11Si16
_chemical_formula_sum   'Hf1 Zr8 Nb11 Si16'
_cell_volume   611.86372673
_cell_formula_units_Z   1
loop_
 _symmetry_equiv_pos_site_id
 _symmetry_equiv_pos_as_xyz
  1  'x, y, z'
loop_
 _atom_site_type_symbol
 _atom_site_label
 _atom_site_symmetry_multiplicity
 _atom_site_fract_x
 _atom_site_fract_y
 _atom_site_fract_z
 _atom_site_occupancy
  Hf  Hf0  1  0.670165  0.670164  0.500000  1
  Zr  Zr1  1  0.000761  0.657681  0.031714  1
  Zr  Zr2  1  0.999980  0.341517  0.531700  1
  Zr  Zr3  1  0.657682  0.000761  0.968287  1
  Zr  Zr4  1  0.157457  0.499020  0.782378  1
  Zr  Zr5  1  0.843312  0.499427  0.281338  1
  Zr  Zr6  1  0.499022  0.157459  0.217623  1
  Zr  Zr7  1  0.499425  0.843312  0.718660  1
  Zr  Zr8  1  0.341519  0.999983  0.468298  1
  Nb  Nb9  1  0.347609  0.503487  0.375549  1
  Nb  Nb10  1  0.848548  0.996480  0.372945  1
  Nb  Nb11  1  0.004108  0.152729  0.126330  1
  Nb  Nb12  1  0.996478  0.848547  0.627054  1
  Nb  Nb13  1  0.652220  0.495311  0.876910  1
  Nb  Nb14  1  0.503487  0.347608  0.624452  1
  Nb  Nb15  1  0.495309  0.652222  0.123091  1
  Nb  Nb16  1  0.152731  0.004107  0.873669  1
  Nb  Nb17  1  0.830114  0.170275  0.750536  1
  Nb  Nb18  1  0.170277  0.830115  0.249465  1
  Nb  Nb19  1  0.329506  0.329508  0.000000  1
  Si  Si20  1  0.048025  0.702847  0.436861  1
  Si  Si21  1  0.954206  0.296890  0.937196  1
  Si  Si22  1  0.702848  0.048023  0.563139  1
  Si  Si23  1  0.202905  0.454348  0.187000  1
  Si  Si24  1  0.798248  0.544588  0.688417  1
  Si  Si25  1  0.454347  0.202906  0.813000  1
  Si  Si26  1  0.544587  0.798250  0.311584  1
  Si  Si27  1  0.296891  0.954207  0.062803  1
  Si  Si28  1  0.864367  0.792279  0.822695  1
  Si  Si29  1  0.136090  0.207459  0.322646  1
  Si  Si30  1  0.792280  0.864365  0.177306  1
  Si  Si31  1  0.290873  0.635389  0.572685  1
  Si  Si32  1  0.707496  0.364279  0.072770  1
  Si  Si33  1  0.635390  0.290873  0.427315  1
  Si  Si34  1  0.364277  0.707496  0.927230  1
  Si  Si35  1  0.207458  0.136089  0.677354  1
