# generated using pymatgen
data_La2Ho3P12Ru9Rh10
_symmetry_space_group_name_H-M   'P 1'
_cell_length_a   12.68623200
_cell_length_b   12.67151695
_cell_length_c   3.95795000
_cell_angle_alpha   90.00000000
_cell_angle_beta   90.00000000
_cell_angle_gamma   120.03841672
_symmetry_Int_Tables_number   1
_chemical_formula_structural   La2Ho3P12Ru9Rh10
_chemical_formula_sum   'La2 Ho3 P12 Ru9 Rh10'
_cell_volume   550.80001370
_cell_formula_units_Z   1
loop_
 _symmetry_equiv_pos_site_id
 _symmetry_equiv_pos_as_xyz
  1  'x, y, z'
loop_
 _atom_site_type_symbol
 _atom_site_label
 _atom_site_symmetry_multiplicity
 _atom_site_fract_x
 _atom_site_fract_y
 _atom_site_fract_z
 _atom_site_occupancy
  La  La0  1  0.000684  0.185536  0.500000  1
  La  La1  1  0.815148  0.814464  0.500000  1
  Ho  Ho2  1  0.187422  0.000000  0.500000  1
  Ho  Ho3  1  0.666455  0.333427  0.000000  1
  Ho  Ho4  1  0.333027  0.666573  0.000000  1
  P  P5  1  0.003361  0.816668  0.000000  1
  P  P6  1  0.186693  0.183332  0.000000  1
  P  P7  1  0.813432  0.000000  0.000000  1
  P  P8  1  0.689105  0.174031  0.500000  1
  P  P9  1  0.826877  0.517300  0.500000  1
  P  P10  1  0.483936  0.309948  0.500000  1
  P  P11  1  0.173988  0.690052  0.500000  1
  P  P12  1  0.515074  0.825969  0.500000  1
  P  P13  1  0.309577  0.482700  0.500000  1
  P  P14  1  0.000031  0.373684  0.000000  1
  P  P15  1  0.626347  0.626316  0.000000  1
  P  P16  1  0.370484  0.000000  0.000000  1
  Ru  Ru17  1  0.002329  0.713989  0.500000  1
  Ru  Ru18  1  0.288340  0.286011  0.500000  1
  Ru  Ru19  1  0.710338  0.000000  0.500000  1
  Ru  Ru20  1  0.872773  0.363811  0.500000  1
  Ru  Ru21  1  0.636868  0.509955  0.500000  1
  Ru  Ru22  1  0.488965  0.126808  0.500000  1
  Ru  Ru23  1  0.362157  0.873192  0.500000  1
  Ru  Ru24  1  0.508962  0.636189  0.500000  1
  Ru  Ru25  1  0.126913  0.490045  0.500000  1
  Rh  Rh26  1  0.000685  0.552486  0.000000  1
  Rh  Rh27  1  0.448199  0.447514  0.000000  1
  Rh  Rh28  1  0.549796  0.000000  0.000000  1
  Rh  Rh29  1  0.803447  0.183283  0.000000  1
  Rh  Rh30  1  0.817861  0.620889  0.000000  1
  Rh  Rh31  1  0.375953  0.191634  0.000000  1
  Rh  Rh32  1  0.184317  0.808366  0.000000  1
  Rh  Rh33  1  0.620162  0.816717  0.000000  1
  Rh  Rh34  1  0.196970  0.379111  0.000000  1
  Rh  Rh35  1  0.003320  0.000000  0.000000  1
