# generated using pymatgen
data_Ta12Mn12C3N
_symmetry_space_group_name_H-M   'P 1'
_cell_length_a   8.06013010
_cell_length_b   8.07270146
_cell_length_c   8.07278000
_cell_angle_alpha   59.99967815
_cell_angle_beta   59.94806969
_cell_angle_gamma   59.94775563
_symmetry_Int_Tables_number   1
_chemical_formula_structural   Ta12Mn12C3N
_chemical_formula_sum   'Ta12 Mn12 C3 N1'
_cell_volume   371.12963894
_cell_formula_units_Z   1
loop_
 _symmetry_equiv_pos_site_id
 _symmetry_equiv_pos_as_xyz
  1  'x, y, z'
loop_
 _atom_site_type_symbol
 _atom_site_label
 _atom_site_symmetry_multiplicity
 _atom_site_fract_x
 _atom_site_fract_y
 _atom_site_fract_z
 _atom_site_occupancy
  Ta  Ta0  1  0.805606  0.805549  0.194422  1
  Ta  Ta1  1  0.195636  0.194540  0.804912  1
  Ta  Ta2  1  0.805600  0.194424  0.805542  1
  Ta  Ta3  1  0.195628  0.804918  0.194538  1
  Ta  Ta4  1  0.195628  0.804918  0.804917  1
  Ta  Ta5  1  0.805600  0.194424  0.194433  1
  Ta  Ta6  1  0.444394  0.444451  0.055578  1
  Ta  Ta7  1  0.054364  0.055460  0.445088  1
  Ta  Ta8  1  0.444400  0.055576  0.444458  1
  Ta  Ta9  1  0.054372  0.445082  0.055462  1
  Ta  Ta10  1  0.054372  0.445082  0.445083  1
  Ta  Ta11  1  0.444400  0.055576  0.055567  1
  Mn  Mn12  1  0.125000  0.625000  0.625000  1
  Mn  Mn13  1  0.625000  0.125000  0.625000  1
  Mn  Mn14  1  0.625000  0.625000  0.125000  1
  Mn  Mn15  1  0.625000  0.625000  0.625000  1
  Mn  Mn16  1  0.732190  0.422575  0.422617  1
  Mn  Mn17  1  0.423242  0.732083  0.422338  1
  Mn  Mn18  1  0.423247  0.422302  0.732101  1
  Mn  Mn19  1  0.423247  0.422302  0.422349  1
  Mn  Mn20  1  0.517810  0.827425  0.827383  1
  Mn  Mn21  1  0.826758  0.517917  0.827662  1
  Mn  Mn22  1  0.826753  0.827698  0.517899  1
  Mn  Mn23  1  0.826753  0.827698  0.827651  1
  C  C24  1  0.125000  0.625000  0.125000  1
  C  C25  1  0.125000  0.125000  0.625000  1
  C  C26  1  0.125000  0.125000  0.125000  1
  N  N27  1  0.625000  0.125000  0.125000  1
