# generated using pymatgen
data_Tb10Sn6P
_symmetry_space_group_name_H-M   'P 1'
_cell_length_a   6.63035500
_cell_length_b   9.09327608
_cell_length_c   9.09315500
_cell_angle_alpha   120.00023427
_cell_angle_beta   89.99965938
_cell_angle_gamma   90.00047200
_symmetry_Int_Tables_number   1
_chemical_formula_structural   Tb10Sn6P
_chemical_formula_sum   'Tb10 Sn6 P1'
_cell_volume   474.78977697
_cell_formula_units_Z   1
loop_
 _symmetry_equiv_pos_site_id
 _symmetry_equiv_pos_as_xyz
  1  'x, y, z'
loop_
 _atom_site_type_symbol
 _atom_site_label
 _atom_site_symmetry_multiplicity
 _atom_site_fract_x
 _atom_site_fract_y
 _atom_site_fract_z
 _atom_site_occupancy
  Tb  Tb0  1  0.500001  0.333346  0.666691  1
  Tb  Tb1  1  0.500001  0.666654  0.333309  1
  Tb  Tb2  1  0.000000  0.666662  0.333323  1
  Tb  Tb3  1  0.000000  0.333338  0.666676  1
  Tb  Tb4  1  0.746781  0.244860  0.000001  1
  Tb  Tb5  1  0.746780  0.755152  0.755133  1
  Tb  Tb6  1  0.746779  0.000017  0.244866  1
  Tb  Tb7  1  0.253220  0.755140  0.000000  1
  Tb  Tb8  1  0.253219  0.244850  0.244867  1
  Tb  Tb9  1  0.253219  0.999982  0.755133  1
  Sn  Sn10  1  0.750100  0.605315  0.000000  1
  Sn  Sn11  1  0.750057  0.394710  0.394720  1
  Sn  Sn12  1  0.750056  0.999992  0.605281  1
  Sn  Sn13  1  0.249899  0.394686  0.000002  1
  Sn  Sn14  1  0.249945  0.605290  0.605278  1
  Sn  Sn15  1  0.249944  0.000007  0.394720  1
  P  P16  1  0.500000  0.000002  0.000000  1
