# generated using pymatgen
data_Nb9Al2GePt2
_symmetry_space_group_name_H-M   'P 1'
_cell_length_a   5.21949486
_cell_length_b   9.92126362
_cell_length_c   9.92126401
_cell_angle_alpha   86.03235589
_cell_angle_beta   74.74913155
_cell_angle_gamma   74.74913539
_symmetry_Int_Tables_number   1
_chemical_formula_structural   Nb9Al2GePt2
_chemical_formula_sum   'Nb18 Al4 Ge2 Pt4'
_cell_volume   478.21375786
_cell_formula_units_Z   2
loop_
 _symmetry_equiv_pos_site_id
 _symmetry_equiv_pos_as_xyz
  1  'x, y, z'
loop_
 _atom_site_type_symbol
 _atom_site_label
 _atom_site_symmetry_multiplicity
 _atom_site_fract_x
 _atom_site_fract_y
 _atom_site_fract_z
 _atom_site_occupancy
  Nb  Nb0  1  0.750000  0.500000  0.500000  1
  Nb  Nb1  1  0.250000  0.500000  0.500000  1
  Nb  Nb2  1  0.791856  0.775677  0.640609  1
  Nb  Nb3  1  0.208144  0.224323  0.359391  1
  Nb  Nb4  1  0.708144  0.359391  0.224323  1
  Nb  Nb5  1  0.291856  0.640609  0.775677  1
  Nb  Nb6  1  0.567535  0.640609  0.224323  1
  Nb  Nb7  1  0.432465  0.359391  0.775677  1
  Nb  Nb8  1  0.067535  0.224323  0.640609  1
  Nb  Nb9  1  0.932465  0.775677  0.359391  1
  Nb  Nb10  1  0.583252  0.075018  0.758478  1
  Nb  Nb11  1  0.416748  0.924982  0.241522  1
  Nb  Nb12  1  0.916748  0.241522  0.924982  1
  Nb  Nb13  1  0.083252  0.758478  0.075018  1
  Nb  Nb14  1  0.658270  0.758478  0.924982  1
  Nb  Nb15  1  0.341730  0.241522  0.075018  1
  Nb  Nb16  1  0.158270  0.924982  0.758478  1
  Nb  Nb17  1  0.841730  0.075018  0.241522  1
  Al  Al18  1  0.500000  0.000000  0.500000  1
  Al  Al19  1  0.000000  0.000000  0.500000  1
  Al  Al20  1  0.500000  0.500000  0.000000  1
  Al  Al21  1  0.000000  0.500000  0.000000  1
  Ge  Ge22  1  0.250000  0.000000  0.000000  1
  Ge  Ge23  1  0.750000  0.000000  0.000000  1
  Pt  Pt24  1  0.129274  0.500000  0.241451  1
  Pt  Pt25  1  0.870726  0.500000  0.758549  1
  Pt  Pt26  1  0.370726  0.758549  0.500000  1
  Pt  Pt27  1  0.629274  0.241451  0.500000  1
