# generated using pymatgen
data_Hf6Ti2MnOs3
_symmetry_space_group_name_H-M   'P 1'
_cell_length_a   8.55753947
_cell_length_b   8.52623137
_cell_length_c   8.52623172
_cell_angle_alpha   59.75736466
_cell_angle_beta   59.87845870
_cell_angle_gamma   59.87846096
_symmetry_Int_Tables_number   1
_chemical_formula_structural   Hf6Ti2MnOs3
_chemical_formula_sum   'Hf12 Ti4 Mn2 Os6'
_cell_volume   438.27641241
_cell_formula_units_Z   2
loop_
 _symmetry_equiv_pos_site_id
 _symmetry_equiv_pos_as_xyz
  1  'x, y, z'
loop_
 _atom_site_type_symbol
 _atom_site_label
 _atom_site_symmetry_multiplicity
 _atom_site_fract_x
 _atom_site_fract_y
 _atom_site_fract_z
 _atom_site_occupancy
  Hf  Hf0  1  0.433600  0.816400  0.816400  1
  Hf  Hf1  1  0.818765  0.431235  0.431235  1
  Hf  Hf2  1  0.817836  0.437084  0.817402  1
  Hf  Hf3  1  0.427678  0.817402  0.437084  1
  Hf  Hf4  1  0.817836  0.817402  0.437084  1
  Hf  Hf5  1  0.427678  0.437084  0.817402  1
  Hf  Hf6  1  0.568429  0.181571  0.181571  1
  Hf  Hf7  1  0.183368  0.566632  0.566632  1
  Hf  Hf8  1  0.182833  0.567026  0.181576  1
  Hf  Hf9  1  0.568564  0.181576  0.567026  1
  Hf  Hf10  1  0.182833  0.181576  0.567026  1
  Hf  Hf11  1  0.568564  0.567026  0.181576  1
  Ti  Ti12  1  0.997324  0.991532  0.513819  1
  Ti  Ti13  1  0.997324  0.513819  0.991532  1
  Ti  Ti14  1  0.505635  0.996251  0.996251  1
  Ti  Ti15  1  0.001862  0.996251  0.996251  1
  Mn  Mn16  1  0.132408  0.789582  0.789582  1
  Mn  Mn17  1  0.788429  0.789582  0.789582  1
  Os  Os18  1  0.210190  0.210775  0.868843  1
  Os  Os19  1  0.210190  0.868843  0.210775  1
  Os  Os20  1  0.870903  0.209748  0.209748  1
  Os  Os21  1  0.209600  0.209748  0.209748  1
  Os  Os22  1  0.789075  0.789349  0.132502  1
  Os  Os23  1  0.789075  0.132502  0.789349  1
