# generated using pymatgen
data_Hf16ZrPt7O4
_symmetry_space_group_name_H-M   'P 1'
_cell_length_a   8.88247687
_cell_length_b   8.82052780
_cell_length_c   8.82052800
_cell_angle_alpha   60.00000673
_cell_angle_beta   60.23044780
_cell_angle_gamma   60.23044257
_symmetry_Int_Tables_number   1
_chemical_formula_structural   Hf16ZrPt7O4
_chemical_formula_sum   'Hf16 Zr1 Pt7 O4'
_cell_volume   490.35684384
_cell_formula_units_Z   1
loop_
 _symmetry_equiv_pos_site_id
 _symmetry_equiv_pos_as_xyz
  1  'x, y, z'
loop_
 _atom_site_type_symbol
 _atom_site_label
 _atom_site_symmetry_multiplicity
 _atom_site_fract_x
 _atom_site_fract_y
 _atom_site_fract_z
 _atom_site_occupancy
  Hf  Hf0  1  0.138196  0.620601  0.620601  1
  Hf  Hf1  1  0.630178  0.093128  0.638347  1
  Hf  Hf2  1  0.630178  0.638347  0.093128  1
  Hf  Hf3  1  0.630178  0.638347  0.638347  1
  Hf  Hf4  1  0.812829  0.804820  0.191176  1
  Hf  Hf5  1  0.184602  0.190851  0.812274  1
  Hf  Hf6  1  0.812829  0.191176  0.804820  1
  Hf  Hf7  1  0.184602  0.812274  0.190851  1
  Hf  Hf8  1  0.184602  0.812274  0.812274  1
  Hf  Hf9  1  0.812829  0.191176  0.191176  1
  Hf  Hf10  1  0.431481  0.435197  0.066661  1
  Hf  Hf11  1  0.056252  0.074784  0.434482  1
  Hf  Hf12  1  0.431481  0.066661  0.435197  1
  Hf  Hf13  1  0.056252  0.434482  0.074784  1
  Hf  Hf14  1  0.056252  0.434482  0.434482  1
  Hf  Hf15  1  0.431481  0.066661  0.066661  1
  Zr  Zr16  1  0.735274  0.421575  0.421575  1
  Pt  Pt17  1  0.418189  0.780027  0.400892  1
  Pt  Pt18  1  0.418189  0.400892  0.780027  1
  Pt  Pt19  1  0.418189  0.400892  0.400892  1
  Pt  Pt20  1  0.440094  0.853302  0.853302  1
  Pt  Pt21  1  0.859955  0.459156  0.840444  1
  Pt  Pt22  1  0.859955  0.840444  0.459156  1
  Pt  Pt23  1  0.859955  0.840444  0.840444  1
  O  O24  1  0.618511  0.127163  0.127163  1
  O  O25  1  0.129157  0.624969  0.122937  1
  O  O26  1  0.129157  0.122937  0.624969  1
  O  O27  1  0.129157  0.122937  0.122937  1
