# generated using pymatgen
data_DyHo7Lu2(BiAu2)2
_symmetry_space_group_name_H-M   'P 1'
_cell_length_a   8.66694411
_cell_length_b   8.66694451
_cell_length_c   8.66749964
_cell_angle_alpha   124.22766882
_cell_angle_beta   124.22767719
_cell_angle_gamma   82.81283771
_symmetry_Int_Tables_number   1
_chemical_formula_structural   DyHo7Lu2(BiAu2)2
_chemical_formula_sum   'Dy1 Ho7 Lu2 Bi2 Au4'
_cell_volume   427.30075056
_cell_formula_units_Z   1
loop_
 _symmetry_equiv_pos_site_id
 _symmetry_equiv_pos_as_xyz
  1  'x, y, z'
loop_
 _atom_site_type_symbol
 _atom_site_label
 _atom_site_symmetry_multiplicity
 _atom_site_fract_x
 _atom_site_fract_y
 _atom_site_fract_z
 _atom_site_occupancy
  Dy  Dy0  1  0.014930  0.514930  0.810243  1
  Ho  Ho1  1  0.704913  0.204913  0.189774  1
  Ho  Ho2  1  0.515050  0.704989  0.500022  1
  Ho  Ho3  1  0.204989  0.015050  0.500022  1
  Ho  Ho4  1  0.984946  0.484946  0.189999  1
  Ho  Ho5  1  0.295040  0.795040  0.810065  1
  Ho  Ho6  1  0.484876  0.294980  0.499976  1
  Ho  Ho7  1  0.794980  0.984876  0.499976  1
  Lu  Lu8  1  0.999974  0.000101  0.000011  1
  Lu  Lu9  1  0.500101  0.499974  0.000011  1
  Bi  Bi10  1  0.749930  0.750062  0.000005  1
  Bi  Bi11  1  0.250062  0.249930  0.000005  1
  Au  Au12  1  0.638581  0.138581  0.777131  1
  Au  Au13  1  0.361618  0.861618  0.223081  1
  Au  Au14  1  0.138636  0.361376  0.499840  1
  Au  Au15  1  0.861376  0.638636  0.499840  1
