# generated using pymatgen
data_Tb4HoIr3
_symmetry_space_group_name_H-M   'P 1'
_cell_length_a   10.92577200
_cell_length_b   10.92577200
_cell_length_c   6.38246000
_cell_angle_alpha   90.00000000
_cell_angle_beta   90.00000000
_cell_angle_gamma   90.00000000
_symmetry_Int_Tables_number   1
_chemical_formula_structural   Tb4HoIr3
_chemical_formula_sum   'Tb16 Ho4 Ir12'
_cell_volume   761.89016675
_cell_formula_units_Z   4
loop_
 _symmetry_equiv_pos_site_id
 _symmetry_equiv_pos_as_xyz
  1  'x, y, z'
loop_
 _atom_site_type_symbol
 _atom_site_label
 _atom_site_symmetry_multiplicity
 _atom_site_fract_x
 _atom_site_fract_y
 _atom_site_fract_z
 _atom_site_occupancy
  Tb  Tb0  1  0.290682  0.087933  0.378036  1
  Tb  Tb1  1  0.290682  0.912067  0.878036  1
  Tb  Tb2  1  0.709318  0.087933  0.878036  1
  Tb  Tb3  1  0.709318  0.912067  0.378036  1
  Tb  Tb4  1  0.587933  0.790682  0.878036  1
  Tb  Tb5  1  0.587933  0.209318  0.378036  1
  Tb  Tb6  1  0.412067  0.790682  0.378036  1
  Tb  Tb7  1  0.412067  0.209318  0.878036  1
  Tb  Tb8  1  0.209318  0.412067  0.621964  1
  Tb  Tb9  1  0.209318  0.587933  0.121964  1
  Tb  Tb10  1  0.790682  0.412067  0.121964  1
  Tb  Tb11  1  0.790682  0.587933  0.621964  1
  Tb  Tb12  1  0.912067  0.709318  0.121964  1
  Tb  Tb13  1  0.912067  0.290682  0.621964  1
  Tb  Tb14  1  0.087933  0.709318  0.621964  1
  Tb  Tb15  1  0.087933  0.290682  0.121964  1
  Ho  Ho16  1  0.000000  0.000000  0.500000  1
  Ho  Ho17  1  0.000000  0.000000  0.000000  1
  Ho  Ho18  1  0.500000  0.500000  0.000000  1
  Ho  Ho19  1  0.500000  0.500000  0.500000  1
  Ir  Ir20  1  0.847243  0.152757  0.250000  1
  Ir  Ir21  1  0.847243  0.847243  0.750000  1
  Ir  Ir22  1  0.152757  0.152757  0.750000  1
  Ir  Ir23  1  0.152757  0.847243  0.250000  1
  Ir  Ir24  1  0.652757  0.347243  0.750000  1
  Ir  Ir25  1  0.652757  0.652757  0.250000  1
  Ir  Ir26  1  0.347243  0.347243  0.250000  1
  Ir  Ir27  1  0.347243  0.652757  0.750000  1
  Ir  Ir28  1  0.500000  0.000000  0.121197  1
  Ir  Ir29  1  0.500000  0.000000  0.621197  1
  Ir  Ir30  1  0.000000  0.500000  0.878803  1
  Ir  Ir31  1  0.000000  0.500000  0.378803  1
