# generated using pymatgen
data_PaAl8ZnCr3
_symmetry_space_group_name_H-M   'P 1'
_cell_length_a   6.80908644
_cell_length_b   6.83294735
_cell_length_c   6.81113899
_cell_angle_alpha   98.12823895
_cell_angle_beta   97.95384588
_cell_angle_gamma   136.10737787
_symmetry_Int_Tables_number   1
_chemical_formula_structural   PaAl8ZnCr3
_chemical_formula_sum   'Pa1 Al8 Zn1 Cr3'
_cell_volume   203.73733502
_cell_formula_units_Z   1
loop_
 _symmetry_equiv_pos_site_id
 _symmetry_equiv_pos_as_xyz
  1  'x, y, z'
loop_
 _atom_site_type_symbol
 _atom_site_label
 _atom_site_symmetry_multiplicity
 _atom_site_fract_x
 _atom_site_fract_y
 _atom_site_fract_z
 _atom_site_occupancy
  Pa  Pa0  1  0.000000  0.000000  0.000000  1
  Al  Al1  1  0.286304  0.502088  0.776918  1
  Al  Al2  1  0.509387  0.725170  0.223082  1
  Al  Al3  1  0.644046  0.981768  0.648108  1
  Al  Al4  1  0.995938  0.333660  0.351892  1
  Al  Al5  1  0.004062  0.666340  0.648108  1
  Al  Al6  1  0.355954  0.018232  0.351892  1
  Al  Al7  1  0.713696  0.497912  0.223082  1
  Al  Al8  1  0.490613  0.274830  0.776918  1
  Zn  Zn9  1  0.000000  0.500000  0.000000  1
  Cr  Cr10  1  0.000000  0.000000  0.500000  1
  Cr  Cr11  1  0.500000  0.500000  0.500000  1
  Cr  Cr12  1  0.500000  0.000000  0.000000  1
