# generated using pymatgen
data_Ho8Re2OsWC8
_symmetry_space_group_name_H-M   'P 1'
_cell_length_a   5.08530200
_cell_length_b   6.57281073
_cell_length_c   9.85426301
_cell_angle_alpha   89.61498843
_cell_angle_beta   90.00000000
_cell_angle_gamma   90.00000000
_symmetry_Int_Tables_number   1
_chemical_formula_structural   Ho8Re2OsWC8
_chemical_formula_sum   'Ho8 Re2 Os1 W1 C8'
_cell_volume   329.36861997
_cell_formula_units_Z   1
loop_
 _symmetry_equiv_pos_site_id
 _symmetry_equiv_pos_as_xyz
  1  'x, y, z'
loop_
 _atom_site_type_symbol
 _atom_site_label
 _atom_site_symmetry_multiplicity
 _atom_site_fract_x
 _atom_site_fract_y
 _atom_site_fract_z
 _atom_site_occupancy
  Ho  Ho0  1  0.250000  0.678330  0.556176  1
  Ho  Ho1  1  0.750000  0.320398  0.442188  1
  Ho  Ho2  1  0.750000  0.822000  0.057231  1
  Ho  Ho3  1  0.250000  0.178451  0.942410  1
  Ho  Ho4  1  0.250000  0.534406  0.216103  1
  Ho  Ho5  1  0.750000  0.463480  0.781243  1
  Ho  Ho6  1  0.750000  0.967788  0.715269  1
  Ho  Ho7  1  0.250000  0.032061  0.281987  1
  Re  Re8  1  0.750000  0.280358  0.133287  1
  Re  Re9  1  0.750000  0.778962  0.366447  1
  Os  Os10  1  0.250000  0.220988  0.632879  1
  W  W11  1  0.250000  0.718588  0.867372  1
  C  C12  1  0.250000  0.451300  0.758769  1
  C  C13  1  0.750000  0.546469  0.241610  1
  C  C14  1  0.750000  0.046866  0.259995  1
  C  C15  1  0.250000  0.955350  0.740672  1
  C  C16  1  0.250000  0.825828  0.054416  1
  C  C17  1  0.750000  0.176984  0.950612  1
  C  C18  1  0.750000  0.676798  0.550684  1
  C  C19  1  0.250000  0.324594  0.450651  1
