# generated using pymatgen
data_TbNd2Tm(Ir2O7)2
_symmetry_space_group_name_H-M   'P 1'
_cell_length_a   7.36622367
_cell_length_b   7.30954703
_cell_length_c   7.31789023
_cell_angle_alpha   59.54109002
_cell_angle_beta   59.78126949
_cell_angle_gamma   59.74317978
_symmetry_Int_Tables_number   1
_chemical_formula_structural   TbNd2Tm(Ir2O7)2
_chemical_formula_sum   'Tb1 Nd2 Tm1 Ir4 O14'
_cell_volume   276.64184334
_cell_formula_units_Z   1
loop_
 _symmetry_equiv_pos_site_id
 _symmetry_equiv_pos_as_xyz
  1  'x, y, z'
loop_
 _atom_site_type_symbol
 _atom_site_label
 _atom_site_symmetry_multiplicity
 _atom_site_fract_x
 _atom_site_fract_y
 _atom_site_fract_z
 _atom_site_occupancy
  Tb  Tb0  1  0.125000  0.125000  0.625000  1
  Nd  Nd1  1  0.625000  0.125000  0.125000  1
  Nd  Nd2  1  0.125000  0.125000  0.125000  1
  Tm  Tm3  1  0.125000  0.625000  0.125000  1
  Ir  Ir4  1  0.125000  0.625000  0.625000  1
  Ir  Ir5  1  0.625000  0.125000  0.625000  1
  Ir  Ir6  1  0.625000  0.625000  0.125000  1
  Ir  Ir7  1  0.625000  0.625000  0.625000  1
  O  O8  1  0.721201  0.699493  0.289900  1
  O  O9  1  0.289611  0.290397  0.702129  1
  O  O10  1  0.717864  0.290397  0.702129  1
  O  O11  1  0.289406  0.699493  0.289900  1
  O  O12  1  0.290256  0.707058  0.712430  1
  O  O13  1  0.710373  0.289875  0.289379  1
  O  O14  1  0.528799  0.550507  0.960100  1
  O  O15  1  0.960389  0.959603  0.547871  1
  O  O16  1  0.532136  0.959603  0.547871  1
  O  O17  1  0.960594  0.550507  0.960100  1
  O  O18  1  0.959744  0.542942  0.537570  1
  O  O19  1  0.539627  0.960125  0.960621  1
  O  O20  1  0.242654  0.260933  0.253758  1
  O  O21  1  0.007346  0.989067  0.996242  1
