# generated using pymatgen
data_Ce2Dy7Er(Al2Ru3)2
_symmetry_space_group_name_H-M   'P 1'
_cell_length_a   8.46841182
_cell_length_b   8.36483159
_cell_length_c   8.34177947
_cell_angle_alpha   109.97429471
_cell_angle_beta   109.35158247
_cell_angle_gamma   110.33722349
_symmetry_Int_Tables_number   1
_chemical_formula_structural   Ce2Dy7Er(Al2Ru3)2
_chemical_formula_sum   'Ce2 Dy7 Er1 Al4 Ru6'
_cell_volume   447.70243275
_cell_formula_units_Z   1
loop_
 _symmetry_equiv_pos_site_id
 _symmetry_equiv_pos_as_xyz
  1  'x, y, z'
loop_
 _atom_site_type_symbol
 _atom_site_label
 _atom_site_symmetry_multiplicity
 _atom_site_fract_x
 _atom_site_fract_y
 _atom_site_fract_z
 _atom_site_occupancy
  Ce  Ce0  1  0.943184  0.250847  0.195242  1
  Ce  Ce1  1  0.197161  0.942043  0.251602  1
  Dy  Dy2  1  0.318099  0.566474  0.754874  1
  Dy  Dy3  1  0.751294  0.317300  0.568278  1
  Dy  Dy4  1  0.567242  0.748395  0.313262  1
  Dy  Dy5  1  0.721213  0.503660  0.998295  1
  Dy  Dy6  1  0.998926  0.719509  0.506268  1
  Dy  Dy7  1  0.501915  0.991621  0.716234  1
  Dy  Dy8  1  0.253984  0.188892  0.932694  1
  Er  Er9  1  0.783320  0.787438  0.780114  1
  Al  Al10  1  0.417180  0.412432  0.411066  1
  Al  Al11  1  0.091646  0.491330  0.996649  1
  Al  Al12  1  0.997492  0.090488  0.501039  1
  Al  Al13  1  0.501797  0.010382  0.094522  1
  Ru  Ru14  1  0.867918  0.115533  0.739678  1
  Ru  Ru15  1  0.752924  0.902569  0.120688  1
  Ru  Ru16  1  0.125909  0.762734  0.908172  1
  Ru  Ru17  1  0.224317  0.591302  0.363776  1
  Ru  Ru18  1  0.357994  0.221334  0.595437  1
  Ru  Ru19  1  0.626488  0.385718  0.252109  1
