# generated using pymatgen
data_Ce2NdPa(Al3Rh)6
_symmetry_space_group_name_H-M   'P 1'
_cell_length_a   7.65018133
_cell_length_b   7.65301891
_cell_length_c   9.48910000
_cell_angle_alpha   90.00000000
_cell_angle_beta   90.00000000
_cell_angle_gamma   119.46206736
_symmetry_Int_Tables_number   1
_chemical_formula_structural   Ce2NdPa(Al3Rh)6
_chemical_formula_sum   'Ce2 Nd1 Pa1 Al18 Rh6'
_cell_volume   483.71422846
_cell_formula_units_Z   1
loop_
 _symmetry_equiv_pos_site_id
 _symmetry_equiv_pos_as_xyz
  1  'x, y, z'
loop_
 _atom_site_type_symbol
 _atom_site_label
 _atom_site_symmetry_multiplicity
 _atom_site_fract_x
 _atom_site_fract_y
 _atom_site_fract_z
 _atom_site_occupancy
  Ce  Ce0  1  0.004420  0.328927  0.250000  1
  Ce  Ce1  1  0.672201  0.995035  0.750000  1
  Nd  Nd2  1  0.329134  0.005000  0.250000  1
  Pa  Pa3  1  0.996174  0.672850  0.750000  1
  Al  Al4  1  0.132996  0.130613  0.750000  1
  Al  Al5  1  0.870658  0.871716  0.250000  1
  Al  Al6  1  0.001922  0.334916  0.575468  1
  Al  Al7  1  0.997649  0.663991  0.424505  1
  Al  Al8  1  0.997649  0.663991  0.075495  1
  Al  Al9  1  0.337519  0.003208  0.923448  1
  Al  Al10  1  0.001922  0.334916  0.924532  1
  Al  Al11  1  0.665129  0.998332  0.075009  1
  Al  Al12  1  0.665129  0.998332  0.424991  1
  Al  Al13  1  0.337519  0.003208  0.576552  1
  Al  Al14  1  0.333233  0.333419  0.048659  1
  Al  Al15  1  0.664145  0.665009  0.950874  1
  Al  Al16  1  0.664145  0.665009  0.549126  1
  Al  Al17  1  0.333233  0.333419  0.451341  1
  Al  Al18  1  0.338286  0.547977  0.750000  1
  Al  Al19  1  0.659298  0.450871  0.250000  1
  Al  Al20  1  0.549780  0.345691  0.750000  1
  Al  Al21  1  0.450002  0.657188  0.250000  1
  Rh  Rh22  1  0.673870  0.330375  0.502859  1
  Rh  Rh23  1  0.326639  0.671303  0.502899  1
  Rh  Rh24  1  0.326639  0.671303  0.997101  1
  Rh  Rh25  1  0.673870  0.330375  0.997141  1
  Rh  Rh26  1  0.998421  0.996514  0.504205  1
  Rh  Rh27  1  0.998421  0.996514  0.995795  1
