# generated using pymatgen
data_La3Tb(PrPt)3
_symmetry_space_group_name_H-M   'P 1'
_cell_length_a   6.54665000
_cell_length_b   10.27075382
_cell_length_c   10.27075318
_cell_angle_alpha   119.97092354
_cell_angle_beta   90.00000000
_cell_angle_gamma   90.00000000
_symmetry_Int_Tables_number   1
_chemical_formula_structural   La3Tb(PrPt)3
_chemical_formula_sum   'La6 Tb2 Pr6 Pt6'
_cell_volume   598.24838926
_cell_formula_units_Z   2
loop_
 _symmetry_equiv_pos_site_id
 _symmetry_equiv_pos_as_xyz
  1  'x, y, z'
loop_
 _atom_site_type_symbol
 _atom_site_label
 _atom_site_symmetry_multiplicity
 _atom_site_fract_x
 _atom_site_fract_y
 _atom_site_fract_z
 _atom_site_occupancy
  La  La0  1  0.247258  0.128783  0.871217  1
  La  La1  1  0.247067  0.742779  0.871420  1
  La  La2  1  0.247067  0.128580  0.257221  1
  La  La3  1  0.747258  0.871217  0.128783  1
  La  La4  1  0.747067  0.257221  0.128580  1
  La  La5  1  0.747067  0.871420  0.742779  1
  Tb  Tb6  1  0.463790  0.333381  0.666619  1
  Tb  Tb7  1  0.963790  0.666619  0.333381  1
  Pr  Pr8  1  0.442952  0.538067  0.461933  1
  Pr  Pr9  1  0.442805  0.923814  0.461946  1
  Pr  Pr10  1  0.442805  0.538054  0.076186  1
  Pr  Pr11  1  0.942952  0.461933  0.538067  1
  Pr  Pr12  1  0.942805  0.076186  0.538054  1
  Pr  Pr13  1  0.942805  0.461946  0.923814  1
  Pt  Pt14  1  0.186516  0.810209  0.189791  1
  Pt  Pt15  1  0.186370  0.379496  0.189841  1
  Pt  Pt16  1  0.186370  0.810159  0.620504  1
  Pt  Pt17  1  0.686516  0.189791  0.810209  1
  Pt  Pt18  1  0.686370  0.620504  0.810159  1
  Pt  Pt19  1  0.686370  0.189841  0.379496  1
