# generated using pymatgen
data_TaFeOF5
_symmetry_space_group_name_H-M   'P 1'
_cell_length_a   5.62011310
_cell_length_b   5.66281819
_cell_length_c   5.56197145
_cell_angle_alpha   117.98383357
_cell_angle_beta   118.61143505
_cell_angle_gamma   92.15081635
_symmetry_Int_Tables_number   1
_chemical_formula_structural   TaFeOF5
_chemical_formula_sum   'Ta1 Fe1 O1 F5'
_cell_volume   129.14012855
_cell_formula_units_Z   1
loop_
 _symmetry_equiv_pos_site_id
 _symmetry_equiv_pos_as_xyz
  1  'x, y, z'
loop_
 _atom_site_type_symbol
 _atom_site_label
 _atom_site_symmetry_multiplicity
 _atom_site_fract_x
 _atom_site_fract_y
 _atom_site_fract_z
 _atom_site_occupancy
  Ta  Ta0  1  0.682381  0.994881  0.321351  1
  Fe  Fe1  1  0.157478  0.473196  0.318140  1
  O  O2  1  0.949765  0.221479  0.363726  1
  F  F3  1  0.361641  0.727461  0.267319  1
  F  F4  1  0.405301  0.195183  0.240100  1
  F  F5  1  0.481657  0.724920  0.843767  1
  F  F6  1  0.898617  0.743206  0.390085  1
  F  F7  1  0.824315  0.214909  0.788988  1
