# generated using pymatgen
data_Pm2Ta(TcO6)2
_symmetry_space_group_name_H-M   'P 1'
_cell_length_a   7.04259606
_cell_length_b   7.25173162
_cell_length_c   11.61401215
_cell_angle_alpha   79.31156103
_cell_angle_beta   79.66488605
_cell_angle_gamma   113.34525022
_symmetry_Int_Tables_number   1
_chemical_formula_structural   Pm2Ta(TcO6)2
_chemical_formula_sum   'Pm4 Ta2 Tc4 O24'
_cell_volume   513.67851264
_cell_formula_units_Z   2
loop_
 _symmetry_equiv_pos_site_id
 _symmetry_equiv_pos_as_xyz
  1  'x, y, z'
loop_
 _atom_site_type_symbol
 _atom_site_label
 _atom_site_symmetry_multiplicity
 _atom_site_fract_x
 _atom_site_fract_y
 _atom_site_fract_z
 _atom_site_occupancy
  Pm  Pm0  1  0.187148  0.448315  0.600288  1
  Pm  Pm1  1  0.812852  0.551685  0.399712  1
  Pm  Pm2  1  0.552800  0.822828  0.908572  1
  Pm  Pm3  1  0.447200  0.177172  0.091428  1
  Ta  Ta4  1  0.011827  0.304141  0.954828  1
  Ta  Ta5  1  0.988173  0.695859  0.045172  1
  Tc  Tc6  1  0.707777  0.003413  0.535912  1
  Tc  Tc7  1  0.292223  0.996587  0.464088  1
  Tc  Tc8  1  0.600110  0.386049  0.748545  1
  Tc  Tc9  1  0.399890  0.613951  0.251455  1
  O  O10  1  0.554691  0.485650  0.608278  1
  O  O11  1  0.445309  0.514350  0.391722  1
  O  O12  1  0.529996  0.457960  0.880497  1
  O  O13  1  0.470004  0.542040  0.119503  1
  O  O14  1  0.491470  0.117196  0.776056  1
  O  O15  1  0.508530  0.882804  0.223944  1
  O  O16  1  0.878939  0.486707  0.713924  1
  O  O17  1  0.121061  0.513293  0.286076  1
  O  O18  1  0.716293  0.131486  0.954779  1
  O  O19  1  0.283707  0.868514  0.045221  1
  O  O20  1  0.886617  0.276970  0.531221  1
  O  O21  1  0.113383  0.723030  0.468779  1
  O  O22  1  0.401302  0.829626  0.570353  1
  O  O23  1  0.598698  0.170374  0.429647  1
  O  O24  1  0.180169  0.607067  0.923370  1
  O  O25  1  0.819831  0.392933  0.076630  1
  O  O26  1  0.150705  0.315061  0.793684  1
  O  O27  1  0.849295  0.684939  0.206316  1
  O  O28  1  0.691987  0.885152  0.690660  1
  O  O29  1  0.308013  0.114848  0.309340  1
  O  O30  1  0.870145  0.815124  0.943861  1
  O  O31  1  0.129855  0.184876  0.056139  1
  O  O32  1  0.172178  0.100323  0.559528  1
  O  O33  1  0.827822  0.899677  0.440472  1
