# generated using pymatgen
data_Yb2GaNiF10
_symmetry_space_group_name_H-M   'P 1'
_cell_length_a   5.48079180
_cell_length_b   5.47211166
_cell_length_c   7.57859141
_cell_angle_alpha   70.06719656
_cell_angle_beta   69.94913484
_cell_angle_gamma   71.24364013
_symmetry_Int_Tables_number   1
_chemical_formula_structural   Yb2GaNiF10
_chemical_formula_sum   'Yb2 Ga1 Ni1 F10'
_cell_volume   195.26108919
_cell_formula_units_Z   1
loop_
 _symmetry_equiv_pos_site_id
 _symmetry_equiv_pos_as_xyz
  1  'x, y, z'
loop_
 _atom_site_type_symbol
 _atom_site_label
 _atom_site_symmetry_multiplicity
 _atom_site_fract_x
 _atom_site_fract_y
 _atom_site_fract_z
 _atom_site_occupancy
  Yb  Yb0  1  0.549519  0.451771  0.249127  1
  Yb  Yb1  1  0.450481  0.548229  0.750873  1
  Ga  Ga2  1  0.000000  0.000000  0.000000  1
  Ni  Ni3  1  0.000000  0.000000  0.500000  1
  F  F4  1  0.084570  0.915290  0.751084  1
  F  F5  1  0.915430  0.084710  0.248916  1
  F  F6  1  0.214870  0.245706  0.884022  1
  F  F7  1  0.756071  0.786429  0.614274  1
  F  F8  1  0.710916  0.306814  0.530811  1
  F  F9  1  0.692339  0.290603  0.968137  1
  F  F10  1  0.289084  0.693186  0.469189  1
  F  F11  1  0.307661  0.709397  0.031863  1
  F  F12  1  0.243929  0.213571  0.385726  1
  F  F13  1  0.785130  0.754294  0.115978  1
