# generated using pymatgen
data_Ca3Y(CdIn)2
_symmetry_space_group_name_H-M   'P 1'
_cell_length_a   5.39022609
_cell_length_b   7.63790083
_cell_length_c   16.36086788
_cell_angle_alpha   90.05238905
_cell_angle_beta   89.99894490
_cell_angle_gamma   90.00831529
_symmetry_Int_Tables_number   1
_chemical_formula_structural   Ca3Y(CdIn)2
_chemical_formula_sum   'Ca9 Y3 Cd6 In6'
_cell_volume   673.57684396
_cell_formula_units_Z   3
loop_
 _symmetry_equiv_pos_site_id
 _symmetry_equiv_pos_as_xyz
  1  'x, y, z'
loop_
 _atom_site_type_symbol
 _atom_site_label
 _atom_site_symmetry_multiplicity
 _atom_site_fract_x
 _atom_site_fract_y
 _atom_site_fract_z
 _atom_site_occupancy
  Ca  Ca0  1  0.999990  0.751433  0.168043  1
  Ca  Ca1  1  0.500010  0.249346  0.334131  1
  Ca  Ca2  1  0.499987  0.750941  0.333096  1
  Ca  Ca3  1  0.000001  0.251061  0.500301  1
  Ca  Ca4  1  0.999992  0.748363  0.499160  1
  Ca  Ca5  1  0.499971  0.249064  0.667231  1
  Ca  Ca6  1  0.500011  0.750727  0.667286  1
  Ca  Ca7  1  0.000007  0.250234  0.831391  1
  Ca  Ca8  1  0.000004  0.748911  0.832337  1
  Y  Y9  1  0.499999  0.253158  0.998358  1
  Y  Y10  1  0.499991  0.747672  0.999938  1
  Y  Y11  1  0.999982  0.249850  0.168872  1
  Cd  Cd12  1  0.000004  0.001456  0.000132  1
  Cd  Cd13  1  0.499982  0.496712  0.166546  1
  Cd  Cd14  1  0.999987  0.003281  0.333119  1
  Cd  Cd15  1  0.500012  0.500026  0.500417  1
  Cd  Cd16  1  0.999998  0.997583  0.666396  1
  Cd  Cd17  1  0.500008  0.500092  0.834145  1
  In  In18  1  0.999998  0.498489  0.001595  1
  In  In19  1  0.499989  0.005083  0.162704  1
  In  In20  1  0.000069  0.495144  0.329453  1
  In  In21  1  0.499988  0.999683  0.499559  1
  In  In22  1  0.000004  0.502077  0.667489  1
  In  In23  1  0.500012  0.999615  0.838303  1
