# generated using pymatgen
data_KZn2H5
_symmetry_space_group_name_H-M   'P 1'
_cell_length_a   6.86282234
_cell_length_b   4.86925602
_cell_length_c   4.69561484
_cell_angle_alpha   119.92406488
_cell_angle_beta   88.48596171
_cell_angle_gamma   111.19741490
_symmetry_Int_Tables_number   1
_chemical_formula_structural   KZn2H5
_chemical_formula_sum   'K1 Zn2 H5'
_cell_volume   124.47023570
_cell_formula_units_Z   1
loop_
 _symmetry_equiv_pos_site_id
 _symmetry_equiv_pos_as_xyz
  1  'x, y, z'
loop_
 _atom_site_type_symbol
 _atom_site_label
 _atom_site_symmetry_multiplicity
 _atom_site_fract_x
 _atom_site_fract_y
 _atom_site_fract_z
 _atom_site_occupancy
  K  K0  1  0.983332  0.019594  0.287135  1
  Zn  Zn1  1  0.389475  0.621091  0.035696  1
  Zn  Zn2  1  0.591014  0.390028  0.425956  1
  H  H3  1  0.833863  0.548963  0.605065  1
  H  H4  1  0.519876  0.002724  0.058099  1
  H  H5  1  0.575955  0.639599  0.278118  1
  H  H6  1  0.145172  0.502254  0.074216  1
  H  H7  1  0.388229  0.331894  0.626350  1
