# generated using pymatgen
data_Sm2Y4NiCl10
_symmetry_space_group_name_H-M   'P 1'
_cell_length_a   7.09324848
_cell_length_b   8.87514494
_cell_length_c   9.03338726
_cell_angle_alpha   108.77706726
_cell_angle_beta   96.10942873
_cell_angle_gamma   106.87072782
_symmetry_Int_Tables_number   1
_chemical_formula_structural   Sm2Y4NiCl10
_chemical_formula_sum   'Sm2 Y4 Ni1 Cl10'
_cell_volume   502.55551441
_cell_formula_units_Z   1
loop_
 _symmetry_equiv_pos_site_id
 _symmetry_equiv_pos_as_xyz
  1  'x, y, z'
loop_
 _atom_site_type_symbol
 _atom_site_label
 _atom_site_symmetry_multiplicity
 _atom_site_fract_x
 _atom_site_fract_y
 _atom_site_fract_z
 _atom_site_occupancy
  Sm  Sm0  1  0.137447  0.053635  0.753298  1
  Sm  Sm1  1  0.862553  0.946365  0.246702  1
  Y  Y2  1  0.972757  0.304504  0.098924  1
  Y  Y3  1  0.027243  0.695496  0.901076  1
  Y  Y4  1  0.364602  0.142359  0.183611  1
  Y  Y5  1  0.635398  0.857641  0.816389  1
  Ni  Ni6  1  0.000000  0.000000  0.000000  1
  Cl  Cl7  1  0.554540  0.173049  0.923684  1
  Cl  Cl8  1  0.445460  0.826951  0.076316  1
  Cl  Cl9  1  0.353074  0.455567  0.269852  1
  Cl  Cl10  1  0.646926  0.544433  0.730148  1
  Cl  Cl11  1  0.248633  0.079113  0.445551  1
  Cl  Cl12  1  0.751367  0.920887  0.554449  1
  Cl  Cl13  1  0.782535  0.255967  0.340369  1
  Cl  Cl14  1  0.217465  0.744033  0.659631  1
  Cl  Cl15  1  0.082893  0.372953  0.836172  1
  Cl  Cl16  1  0.917107  0.627047  0.163828  1
