# generated using pymatgen
data_YbTm3PdPt3O14
_symmetry_space_group_name_H-M   'P 1'
_cell_length_a   7.22233703
_cell_length_b   7.19408611
_cell_length_c   7.19408500
_cell_angle_alpha   60.00000048
_cell_angle_beta   60.12931118
_cell_angle_gamma   60.12931353
_symmetry_Int_Tables_number   1
_chemical_formula_structural   YbTm3PdPt3O14
_chemical_formula_sum   'Yb1 Tm3 Pd1 Pt3 O14'
_cell_volume   264.82564840
_cell_formula_units_Z   1
loop_
 _symmetry_equiv_pos_site_id
 _symmetry_equiv_pos_as_xyz
  1  'x, y, z'
loop_
 _atom_site_type_symbol
 _atom_site_label
 _atom_site_symmetry_multiplicity
 _atom_site_fract_x
 _atom_site_fract_y
 _atom_site_fract_z
 _atom_site_occupancy
  Yb  Yb0  1  0.125000  0.625000  0.625000  1
  Tm  Tm1  1  0.625000  0.625000  0.125000  1
  Tm  Tm2  1  0.625000  0.625000  0.625000  1
  Tm  Tm3  1  0.625000  0.125000  0.625000  1
  Pd  Pd4  1  0.625000  0.125000  0.125000  1
  Pt  Pt5  1  0.125000  0.125000  0.125000  1
  Pt  Pt6  1  0.125000  0.625000  0.125000  1
  Pt  Pt7  1  0.125000  0.125000  0.625000  1
  O  O8  1  0.029482  0.463302  0.463302  1
  O  O9  1  0.784455  0.783048  0.216249  1
  O  O10  1  0.784455  0.216249  0.216249  1
  O  O11  1  0.465545  0.033751  0.466952  1
  O  O12  1  0.029482  0.043913  0.463302  1
  O  O13  1  0.029482  0.463302  0.043913  1
  O  O14  1  0.740537  0.753155  0.753155  1
  O  O15  1  0.509463  0.496845  0.496845  1
  O  O16  1  0.784455  0.216249  0.783048  1
  O  O17  1  0.220518  0.786698  0.206087  1
  O  O18  1  0.220518  0.206087  0.786698  1
  O  O19  1  0.465545  0.033751  0.033751  1
  O  O20  1  0.465545  0.466952  0.033751  1
  O  O21  1  0.220518  0.786698  0.786698  1
