# generated using pymatgen
data_Nb4Al4V3Cu
_symmetry_space_group_name_H-M   'P 1'
_cell_length_a   4.95284826
_cell_length_b   5.06620662
_cell_length_c   8.48728400
_cell_angle_alpha   90.00000000
_cell_angle_beta   90.00000000
_cell_angle_gamma   120.76759914
_symmetry_Int_Tables_number   1
_chemical_formula_structural   Nb4Al4V3Cu
_chemical_formula_sum   'Nb4 Al4 V3 Cu1'
_cell_volume   182.98936622
_cell_formula_units_Z   1
loop_
 _symmetry_equiv_pos_site_id
 _symmetry_equiv_pos_as_xyz
  1  'x, y, z'
loop_
 _atom_site_type_symbol
 _atom_site_label
 _atom_site_symmetry_multiplicity
 _atom_site_fract_x
 _atom_site_fract_y
 _atom_site_fract_z
 _atom_site_occupancy
  Nb  Nb0  1  0.669878  0.334945  0.557741  1
  Nb  Nb1  1  0.324856  0.662438  0.438395  1
  Nb  Nb2  1  0.324856  0.662438  0.061605  1
  Nb  Nb3  1  0.669878  0.334945  0.942259  1
  Al  Al4  1  0.987487  0.993800  0.501779  1
  Al  Al5  1  0.987487  0.993800  0.998221  1
  Al  Al6  1  0.186631  0.350154  0.750000  1
  Al  Al7  1  0.186703  0.836415  0.750000  1
  V  V8  1  0.823955  0.653812  0.250000  1
  V  V9  1  0.823984  0.169993  0.250000  1
  V  V10  1  0.338999  0.169488  0.250000  1
  Cu  Cu11  1  0.675286  0.837772  0.750000  1
