# generated using pymatgen
data_Li3Yb6Ho2Si12Pt
_symmetry_space_group_name_H-M   'P 1'
_cell_length_a   8.29436400
_cell_length_b   8.29436406
_cell_length_c   8.10114300
_cell_angle_alpha   90.00000000
_cell_angle_beta   90.00000000
_cell_angle_gamma   119.99999977
_symmetry_Int_Tables_number   1
_chemical_formula_structural   Li3Yb6Ho2Si12Pt
_chemical_formula_sum   'Li3 Yb6 Ho2 Si12 Pt1'
_cell_volume   482.66200789
_cell_formula_units_Z   1
loop_
 _symmetry_equiv_pos_site_id
 _symmetry_equiv_pos_as_xyz
  1  'x, y, z'
loop_
 _atom_site_type_symbol
 _atom_site_label
 _atom_site_symmetry_multiplicity
 _atom_site_fract_x
 _atom_site_fract_y
 _atom_site_fract_z
 _atom_site_occupancy
  Li  Li0  1  0.333333  0.666667  0.002701  1
  Li  Li1  1  0.666667  0.333333  0.997647  1
  Li  Li2  1  0.666667  0.333333  0.502334  1
  Yb  Yb3  1  0.497483  0.994965  0.253033  1
  Yb  Yb4  1  0.495986  0.991971  0.746967  1
  Yb  Yb5  1  0.005035  0.502517  0.253033  1
  Yb  Yb6  1  0.008029  0.504014  0.746967  1
  Yb  Yb7  1  0.497483  0.502517  0.253033  1
  Yb  Yb8  1  0.495986  0.504014  0.746967  1
  Ho  Ho9  1  0.000000  0.000000  0.249175  1
  Ho  Ho10  1  0.000000  0.000000  0.750843  1
  Si  Si11  1  0.162187  0.324373  0.000539  1
  Si  Si12  1  0.836654  0.673308  0.999275  1
  Si  Si13  1  0.675627  0.837813  0.000539  1
  Si  Si14  1  0.838295  0.676592  0.500653  1
  Si  Si15  1  0.326692  0.163346  0.999275  1
  Si  Si16  1  0.164805  0.329611  0.499035  1
  Si  Si17  1  0.162187  0.837813  0.000539  1
  Si  Si18  1  0.323408  0.161705  0.500653  1
  Si  Si19  1  0.836654  0.163346  0.999275  1
  Si  Si20  1  0.670389  0.835195  0.499035  1
  Si  Si21  1  0.838295  0.161705  0.500653  1
  Si  Si22  1  0.164805  0.835195  0.499035  1
  Pt  Pt23  1  0.333333  0.666667  0.498795  1
