# generated using pymatgen
data_Ba2CeGd(Ge4N7)2
_symmetry_space_group_name_H-M   'P 1'
_cell_length_a   6.40857400
_cell_length_b   6.40857410
_cell_length_c   10.44896500
_cell_angle_alpha   90.00000000
_cell_angle_beta   90.00000000
_cell_angle_gamma   119.99999949
_symmetry_Int_Tables_number   1
_chemical_formula_structural   Ba2CeGd(Ge4N7)2
_chemical_formula_sum   'Ba2 Ce1 Gd1 Ge8 N14'
_cell_volume   371.64365456
_cell_formula_units_Z   1
loop_
 _symmetry_equiv_pos_site_id
 _symmetry_equiv_pos_as_xyz
  1  'x, y, z'
loop_
 _atom_site_type_symbol
 _atom_site_label
 _atom_site_symmetry_multiplicity
 _atom_site_fract_x
 _atom_site_fract_y
 _atom_site_fract_z
 _atom_site_occupancy
  Ba  Ba0  1  0.333333  0.666667  0.361778  1
  Ba  Ba1  1  0.666667  0.333333  0.866639  1
  Ce  Ce2  1  0.333333  0.666667  0.735178  1
  Gd  Gd3  1  0.666667  0.333333  0.236346  1
  Ge  Ge4  1  0.826942  0.653884  0.545660  1
  Ge  Ge5  1  0.173476  0.826524  0.048376  1
  Ge  Ge6  1  0.653047  0.826524  0.048376  1
  Ge  Ge7  1  0.346116  0.173058  0.545660  1
  Ge  Ge8  1  0.826942  0.173058  0.545660  1
  Ge  Ge9  1  0.173476  0.346953  0.048376  1
  Ge  Ge10  1  0.000000  0.000000  0.813098  1
  Ge  Ge11  1  0.000000  0.000000  0.313044  1
  N  N12  1  0.000000  0.000000  0.621630  1
  N  N13  1  0.000000  0.000000  0.122028  1
  N  N14  1  0.157191  0.314383  0.870721  1
  N  N15  1  0.842495  0.157505  0.369192  1
  N  N16  1  0.315009  0.157505  0.369192  1
  N  N17  1  0.685617  0.842809  0.870721  1
  N  N18  1  0.157191  0.842809  0.870721  1
  N  N19  1  0.842495  0.684991  0.369192  1
  N  N20  1  0.983659  0.491830  0.602295  1
  N  N21  1  0.492935  0.985869  0.103110  1
  N  N22  1  0.492935  0.507065  0.103110  1
  N  N23  1  0.508170  0.491830  0.602295  1
  N  N24  1  0.014131  0.507065  0.103110  1
  N  N25  1  0.508170  0.016341  0.602295  1
