# generated using pymatgen
data_Ce(PuAs)3
_symmetry_space_group_name_H-M   'P 1'
_cell_length_a   7.64196697
_cell_length_b   7.66096110
_cell_length_c   7.65565707
_cell_angle_alpha   109.50463273
_cell_angle_beta   109.40411392
_cell_angle_gamma   109.48274614
_symmetry_Int_Tables_number   1
_chemical_formula_structural   Ce(PuAs)3
_chemical_formula_sum   'Ce2 Pu6 As6'
_cell_volume   345.11789679
_cell_formula_units_Z   2
loop_
 _symmetry_equiv_pos_site_id
 _symmetry_equiv_pos_as_xyz
  1  'x, y, z'
loop_
 _atom_site_type_symbol
 _atom_site_label
 _atom_site_symmetry_multiplicity
 _atom_site_fract_x
 _atom_site_fract_y
 _atom_site_fract_z
 _atom_site_occupancy
  Ce  Ce0  1  0.499857  0.000143  0.353956  1
  Ce  Ce1  1  0.645900  0.646186  0.646044  1
  Pu  Pu2  1  0.144976  0.146273  0.144270  1
  Pu  Pu3  1  0.500706  0.002002  0.855730  1
  Pu  Pu4  1  0.854348  0.500078  0.001030  1
  Pu  Pu5  1  0.001408  0.854470  0.499785  1
  Pu  Pu6  1  0.353318  0.499048  0.998970  1
  Pu  Pu7  1  0.001623  0.354686  0.500215  1
  As  As8  1  0.624882  0.374037  0.248146  1
  As  As9  1  0.247130  0.623319  0.373856  1
  As  As10  1  0.750734  0.875015  0.125627  1
  As  As11  1  0.125107  0.749388  0.874373  1
  As  As12  1  0.373274  0.249463  0.626144  1
  As  As13  1  0.876736  0.125891  0.751854  1
