# generated using pymatgen
data_Tb7Ho3Si5As
_symmetry_space_group_name_H-M   'P 1'
_cell_length_a   8.47718101
_cell_length_b   8.49239932
_cell_length_c   6.33926701
_cell_angle_alpha   90.00700279
_cell_angle_beta   89.99641924
_cell_angle_gamma   119.94467189
_symmetry_Int_Tables_number   1
_chemical_formula_structural   Tb7Ho3Si5As
_chemical_formula_sum   'Tb7 Ho3 Si5 As1'
_cell_volume   395.45165357
_cell_formula_units_Z   1
loop_
 _symmetry_equiv_pos_site_id
 _symmetry_equiv_pos_as_xyz
  1  'x, y, z'
loop_
 _atom_site_type_symbol
 _atom_site_label
 _atom_site_symmetry_multiplicity
 _atom_site_fract_x
 _atom_site_fract_y
 _atom_site_fract_z
 _atom_site_occupancy
  Tb  Tb0  1  0.996458  0.753427  0.750131  1
  Tb  Tb1  1  0.000090  0.244163  0.249861  1
  Tb  Tb2  1  0.756067  0.755730  0.249851  1
  Tb  Tb3  1  0.758044  0.000115  0.750112  1
  Tb  Tb4  1  0.243109  0.246470  0.750119  1
  Tb  Tb5  1  0.243392  0.000114  0.249888  1
  Tb  Tb6  1  0.333026  0.664014  0.498834  1
  Ho  Ho7  1  0.669063  0.336016  0.001284  1
  Ho  Ho8  1  0.669126  0.336108  0.498660  1
  Ho  Ho9  1  0.333057  0.663927  0.001364  1
  Si  Si10  1  0.394541  0.393072  0.249540  1
  Si  Si11  1  0.000560  0.606472  0.249537  1
  Si  Si12  1  0.999314  0.393929  0.750435  1
  Si  Si13  1  0.605838  0.605563  0.750429  1
  Si  Si14  1  0.606910  0.000447  0.249602  1
  As  As15  1  0.391403  0.000434  0.750355  1
