# generated using pymatgen
data_RbCaO4
_symmetry_space_group_name_H-M   'P 1'
_cell_length_a   4.59010500
_cell_length_b   4.58791300
_cell_length_c   5.13157900
_cell_angle_alpha   90.00000000
_cell_angle_beta   90.00000000
_cell_angle_gamma   90.00000000
_symmetry_Int_Tables_number   1
_chemical_formula_structural   RbCaO4
_chemical_formula_sum   'Rb1 Ca1 O4'
_cell_volume   108.06593448
_cell_formula_units_Z   1
loop_
 _symmetry_equiv_pos_site_id
 _symmetry_equiv_pos_as_xyz
  1  'x, y, z'
loop_
 _atom_site_type_symbol
 _atom_site_label
 _atom_site_symmetry_multiplicity
 _atom_site_fract_x
 _atom_site_fract_y
 _atom_site_fract_z
 _atom_site_occupancy
  Rb  Rb0  1  0.500001  0.500001  0.500001  1
  Ca  Ca1  1  0.000000  0.000000  0.000000  1
  O  O2  1  0.500001  0.000000  0.139397  1
  O  O3  1  0.000000  0.500001  0.139562  1
  O  O4  1  0.500001  0.000000  0.860603  1
  O  O5  1  0.000000  0.500001  0.860438  1
