# generated using pymatgen
data_Y20Cd6NiIr
_symmetry_space_group_name_H-M   'P 1'
_cell_length_a   9.69415900
_cell_length_b   9.69415965
_cell_length_c   9.82696500
_cell_angle_alpha   90.00000000
_cell_angle_beta   90.00000000
_cell_angle_gamma   119.99999437
_symmetry_Int_Tables_number   1
_chemical_formula_structural   Y20Cd6NiIr
_chemical_formula_sum   'Y20 Cd6 Ni1 Ir1'
_cell_volume   799.77969101
_cell_formula_units_Z   1
loop_
 _symmetry_equiv_pos_site_id
 _symmetry_equiv_pos_as_xyz
  1  'x, y, z'
loop_
 _atom_site_type_symbol
 _atom_site_label
 _atom_site_symmetry_multiplicity
 _atom_site_fract_x
 _atom_site_fract_y
 _atom_site_fract_z
 _atom_site_occupancy
  Y  Y0  1  0.000000  0.000000  0.499607  1
  Y  Y1  1  0.000000  0.000000  0.000393  1
  Y  Y2  1  0.542609  0.457391  0.250000  1
  Y  Y3  1  0.542609  0.085218  0.250000  1
  Y  Y4  1  0.914782  0.457391  0.250000  1
  Y  Y5  1  0.456681  0.543319  0.750000  1
  Y  Y6  1  0.456681  0.913362  0.750000  1
  Y  Y7  1  0.086638  0.543319  0.750000  1
  Y  Y8  1  0.209157  0.790843  0.439431  1
  Y  Y9  1  0.209157  0.418315  0.439431  1
  Y  Y10  1  0.581685  0.790843  0.439431  1
  Y  Y11  1  0.789260  0.210740  0.563200  1
  Y  Y12  1  0.789260  0.578519  0.563200  1
  Y  Y13  1  0.421481  0.210740  0.563200  1
  Y  Y14  1  0.789260  0.210740  0.936800  1
  Y  Y15  1  0.789260  0.578519  0.936800  1
  Y  Y16  1  0.421481  0.210740  0.936800  1
  Y  Y17  1  0.209157  0.790843  0.060569  1
  Y  Y18  1  0.209157  0.418315  0.060569  1
  Y  Y19  1  0.581685  0.790843  0.060569  1
  Cd  Cd20  1  0.884440  0.115560  0.250000  1
  Cd  Cd21  1  0.884440  0.768880  0.250000  1
  Cd  Cd22  1  0.231120  0.115560  0.250000  1
  Cd  Cd23  1  0.115658  0.884342  0.750000  1
  Cd  Cd24  1  0.115658  0.231317  0.750000  1
  Cd  Cd25  1  0.768683  0.884342  0.750000  1
  Ni  Ni26  1  0.666667  0.333333  0.750000  1
  Ir  Ir27  1  0.333333  0.666667  0.250000  1
