# generated using pymatgen
data_Dy4Ho4Sc12Si15Ag
_symmetry_space_group_name_H-M   'P 1'
_cell_length_a   7.13409019
_cell_length_b   7.37689073
_cell_length_c   14.07561163
_cell_angle_alpha   89.92919018
_cell_angle_beta   89.62794892
_cell_angle_gamma   90.17993138
_symmetry_Int_Tables_number   1
_chemical_formula_structural   Dy4Ho4Sc12Si15Ag
_chemical_formula_sum   'Dy4 Ho4 Sc12 Si15 Ag1'
_cell_volume   740.74304191
_cell_formula_units_Z   1
loop_
 _symmetry_equiv_pos_site_id
 _symmetry_equiv_pos_as_xyz
  1  'x, y, z'
loop_
 _atom_site_type_symbol
 _atom_site_label
 _atom_site_symmetry_multiplicity
 _atom_site_fract_x
 _atom_site_fract_y
 _atom_site_fract_z
 _atom_site_occupancy
  Dy  Dy0  1  0.012368  0.175438  0.097658  1
  Dy  Dy1  1  0.987583  0.825797  0.903841  1
  Dy  Dy2  1  0.487241  0.676608  0.903736  1
  Dy  Dy3  1  0.988392  0.830621  0.597637  1
  Ho  Ho4  1  0.512239  0.323575  0.096719  1
  Ho  Ho5  1  0.009257  0.172051  0.398995  1
  Ho  Ho6  1  0.512175  0.322915  0.400223  1
  Ho  Ho7  1  0.493646  0.678167  0.599736  1
  Sc  Sc8  1  0.163062  0.501625  0.752914  1
  Sc  Sc9  1  0.837752  0.498398  0.250940  1
  Sc  Sc10  1  0.337985  0.000477  0.248995  1
  Sc  Sc11  1  0.664469  0.996259  0.751161  1
  Sc  Sc12  1  0.341077  0.173316  0.626672  1
  Sc  Sc13  1  0.665308  0.823137  0.373839  1
  Sc  Sc14  1  0.167550  0.675159  0.372120  1
  Sc  Sc15  1  0.669921  0.824280  0.124839  1
  Sc  Sc16  1  0.826179  0.325285  0.625250  1
  Sc  Sc17  1  0.329028  0.175343  0.876050  1
  Sc  Sc18  1  0.830216  0.322661  0.875922  1
  Sc  Sc19  1  0.169112  0.676432  0.125211  1
  Si  Si20  1  0.035815  0.120768  0.750095  1
  Si  Si21  1  0.965588  0.883535  0.249000  1
  Si  Si22  1  0.466687  0.615142  0.248307  1
  Si  Si23  1  0.534260  0.385794  0.751923  1
  Si  Si24  1  0.285139  0.873485  0.750698  1
  Si  Si25  1  0.712703  0.127866  0.248676  1
  Si  Si26  1  0.214783  0.370820  0.248744  1
  Si  Si27  1  0.787905  0.627561  0.752161  1
  Si  Si28  1  0.834646  0.537146  0.459238  1
  Si  Si29  1  0.338009  0.962476  0.460730  1
  Si  Si30  1  0.843092  0.535200  0.039119  1
  Si  Si31  1  0.658914  0.036150  0.537815  1
  Si  Si32  1  0.155697  0.464532  0.961813  1
  Si  Si33  1  0.657082  0.035248  0.960774  1
  Si  Si34  1  0.342809  0.964755  0.039806  1
  Ag  Ag35  1  0.162312  0.461979  0.538639  1
