# generated using pymatgen
data_BaTmSi2Ge2N7
_symmetry_space_group_name_H-M   'P 1'
_cell_length_a   6.21536047
_cell_length_b   6.19171653
_cell_length_c   10.03923359
_cell_angle_alpha   90.57530366
_cell_angle_beta   89.71344720
_cell_angle_gamma   119.87422656
_symmetry_Int_Tables_number   1
_chemical_formula_structural   BaTmSi2Ge2N7
_chemical_formula_sum   'Ba2 Tm2 Si4 Ge4 N14'
_cell_volume   334.99297888
_cell_formula_units_Z   2
loop_
 _symmetry_equiv_pos_site_id
 _symmetry_equiv_pos_as_xyz
  1  'x, y, z'
loop_
 _atom_site_type_symbol
 _atom_site_label
 _atom_site_symmetry_multiplicity
 _atom_site_fract_x
 _atom_site_fract_y
 _atom_site_fract_z
 _atom_site_occupancy
  Ba  Ba0  1  0.666857  0.334328  0.576146  1
  Ba  Ba1  1  0.333143  0.667472  0.076146  1
  Tm  Tm2  1  0.668327  0.334401  0.951362  1
  Tm  Tm3  1  0.331673  0.666075  0.451362  1
  Si  Si4  1  0.172574  0.827962  0.760589  1
  Si  Si5  1  0.827426  0.655389  0.260589  1
  Si  Si6  1  0.000387  0.995200  0.027582  1
  Si  Si7  1  0.999613  0.994813  0.527582  1
  Ge  Ge8  1  0.171954  0.345055  0.760656  1
  Ge  Ge9  1  0.828046  0.173102  0.260656  1
  Ge  Ge10  1  0.345810  0.174003  0.260727  1
  Ge  Ge11  1  0.654190  0.828192  0.760727  1
  N  N12  1  0.005310  0.991136  0.840337  1
  N  N13  1  0.994690  0.985825  0.340337  1
  N  N14  1  0.848006  0.695520  0.089318  1
  N  N15  1  0.151994  0.847515  0.589318  1
  N  N16  1  0.693731  0.847366  0.578355  1
  N  N17  1  0.306269  0.153633  0.078355  1
  N  N18  1  0.848603  0.152606  0.077150  1
  N  N19  1  0.151397  0.304005  0.577150  1
  N  N20  1  0.495778  0.504216  0.819313  1
  N  N21  1  0.983382  0.504256  0.315557  1
  N  N22  1  0.504222  0.008437  0.319313  1
  N  N23  1  0.479223  0.983921  0.815729  1
  N  N24  1  0.520777  0.504697  0.315729  1
  N  N25  1  0.016618  0.520875  0.815557  1
