# generated using pymatgen
data_Nb6VRe4Si6W
_symmetry_space_group_name_H-M   'P 1'
_cell_length_a   7.63848407
_cell_length_b   7.63911721
_cell_length_c   7.63911720
_cell_angle_alpha   126.33801455
_cell_angle_beta   128.30626580
_cell_angle_gamma   77.73820225
_symmetry_Int_Tables_number   1
_chemical_formula_structural   Nb6VRe4Si6W
_chemical_formula_sum   'Nb6 V1 Re4 Si6 W1'
_cell_volume   273.17130081
_cell_formula_units_Z   1
loop_
 _symmetry_equiv_pos_site_id
 _symmetry_equiv_pos_as_xyz
  1  'x, y, z'
loop_
 _atom_site_type_symbol
 _atom_site_label
 _atom_site_symmetry_multiplicity
 _atom_site_fract_x
 _atom_site_fract_y
 _atom_site_fract_z
 _atom_site_occupancy
  Nb  Nb0  1  0.555666  0.095786  0.041429  1
  Nb  Nb1  1  0.444334  0.485764  0.540121  1
  Nb  Nb2  1  0.946541  0.486403  0.041049  1
  Nb  Nb3  1  0.053459  0.094507  0.539861  1
  Nb  Nb4  1  0.751832  0.908898  0.659715  1
  Nb  Nb5  1  0.248168  0.907884  0.157066  1
  V  V6  1  0.000000  0.241286  0.241286  1
  Re  Re7  1  0.131261  0.756370  0.628793  1
  Re  Re8  1  0.868739  0.497532  0.625110  1
  Re  Re9  1  0.626439  0.753902  0.123787  1
  Re  Re10  1  0.373561  0.497347  0.127463  1
  Si  Si11  1  0.755670  0.501771  0.255061  1
  Si  Si12  1  0.244330  0.499391  0.746099  1
  Si  Si13  1  0.331993  0.823186  0.492490  1
  Si  Si14  1  0.668007  0.160497  0.491192  1
  Si  Si15  1  0.831500  0.826675  0.993942  1
  Si  Si16  1  0.168500  0.162443  0.995176  1
  W  W17  1  0.500000  0.242557  0.742557  1
