# generated using pymatgen
data_SmEu3MnMo3O14
_symmetry_space_group_name_H-M   'P 1'
_cell_length_a   7.53304043
_cell_length_b   7.53304064
_cell_length_c   7.38458631
_cell_angle_alpha   59.33272387
_cell_angle_beta   59.33271979
_cell_angle_gamma   60.00000437
_symmetry_Int_Tables_number   1
_chemical_formula_structural   SmEu3MnMo3O14
_chemical_formula_sum   'Sm1 Eu3 Mn1 Mo3 O14'
_cell_volume   293.28989870
_cell_formula_units_Z   1
loop_
 _symmetry_equiv_pos_site_id
 _symmetry_equiv_pos_as_xyz
  1  'x, y, z'
loop_
 _atom_site_type_symbol
 _atom_site_label
 _atom_site_symmetry_multiplicity
 _atom_site_fract_x
 _atom_site_fract_y
 _atom_site_fract_z
 _atom_site_occupancy
  Sm  Sm0  1  0.125000  0.125000  0.625000  1
  Eu  Eu1  1  0.125000  0.625000  0.125000  1
  Eu  Eu2  1  0.625000  0.125000  0.125000  1
  Eu  Eu3  1  0.125000  0.125000  0.125000  1
  Mn  Mn4  1  0.625000  0.625000  0.125000  1
  Mo  Mo5  1  0.625000  0.625000  0.625000  1
  Mo  Mo6  1  0.125000  0.625000  0.625000  1
  Mo  Mo7  1  0.625000  0.125000  0.625000  1
  O  O8  1  0.296633  0.714853  0.691881  1
  O  O9  1  0.545412  0.966776  0.942400  1
  O  O10  1  0.704588  0.704588  0.307600  1
  O  O11  1  0.296633  0.296633  0.691881  1
  O  O12  1  0.998868  0.998868  0.003396  1
  O  O13  1  0.283224  0.704588  0.307600  1
  O  O14  1  0.714853  0.296633  0.691881  1
  O  O15  1  0.966776  0.545412  0.942400  1
  O  O16  1  0.545412  0.545412  0.942400  1
  O  O17  1  0.953367  0.953367  0.558119  1
  O  O18  1  0.251132  0.251132  0.246604  1
  O  O19  1  0.535147  0.953367  0.558119  1
  O  O20  1  0.704588  0.283224  0.307600  1
  O  O21  1  0.953367  0.535147  0.558119  1
