# generated using pymatgen
data_NdHo4Co16(MoP4)3
_symmetry_space_group_name_H-M   'P 1'
_cell_length_a   12.08871300
_cell_length_b   12.08871413
_cell_length_c   3.70853100
_cell_angle_alpha   90.00000000
_cell_angle_beta   90.00000000
_cell_angle_gamma   120.00000511
_symmetry_Int_Tables_number   1
_chemical_formula_structural   NdHo4Co16(MoP4)3
_chemical_formula_sum   'Nd1 Ho4 Co16 Mo3 P12'
_cell_volume   469.34554276
_cell_formula_units_Z   1
loop_
 _symmetry_equiv_pos_site_id
 _symmetry_equiv_pos_as_xyz
  1  'x, y, z'
loop_
 _atom_site_type_symbol
 _atom_site_label
 _atom_site_symmetry_multiplicity
 _atom_site_fract_x
 _atom_site_fract_y
 _atom_site_fract_z
 _atom_site_occupancy
  Nd  Nd0  1  0.666667  0.333333  0.000000  1
  Ho  Ho1  1  0.333333  0.666667  0.000000  1
  Ho  Ho2  1  0.815254  0.814598  0.500000  1
  Ho  Ho3  1  0.185402  0.000656  0.500000  1
  Ho  Ho4  1  0.999344  0.184746  0.500000  1
  Co  Co5  1  0.876055  0.354684  0.500000  1
  Co  Co6  1  0.645316  0.521371  0.500000  1
  Co  Co7  1  0.478629  0.123945  0.500000  1
  Co  Co8  1  0.355095  0.872050  0.500000  1
  Co  Co9  1  0.516955  0.644905  0.500000  1
  Co  Co10  1  0.127950  0.483045  0.500000  1
  Co  Co11  1  0.802663  0.175166  0.000000  1
  Co  Co12  1  0.824834  0.627496  0.000000  1
  Co  Co13  1  0.372504  0.197337  0.000000  1
  Co  Co14  1  0.178133  0.803060  0.000000  1
  Co  Co15  1  0.624926  0.821867  0.000000  1
  Co  Co16  1  0.196940  0.375074  0.000000  1
  Co  Co17  1  0.278325  0.280478  0.500000  1
  Co  Co18  1  0.719522  0.997847  0.500000  1
  Co  Co19  1  0.002153  0.721675  0.500000  1
  Co  Co20  1  0.000000  0.000000  0.000000  1
  Mo  Mo21  1  0.445339  0.446945  0.000000  1
  Mo  Mo22  1  0.553055  0.998394  0.000000  1
  Mo  Mo23  1  0.001606  0.554661  0.000000  1
  P  P24  1  0.686378  0.161899  0.500000  1
  P  P25  1  0.838101  0.524479  0.500000  1
  P  P26  1  0.475521  0.313622  0.500000  1
  P  P27  1  0.166473  0.686621  0.500000  1
  P  P28  1  0.520148  0.833527  0.500000  1
  P  P29  1  0.313379  0.479852  0.500000  1
  P  P30  1  0.177111  0.178453  0.000000  1
  P  P31  1  0.821547  0.998658  0.000000  1
  P  P32  1  0.001342  0.822889  0.000000  1
  P  P33  1  0.639580  0.639292  0.000000  1
  P  P34  1  0.360708  0.000287  0.000000  1
  P  P35  1  0.999713  0.360420  0.000000  1
