# generated using pymatgen
data_TbYb3NbOs7
_symmetry_space_group_name_H-M   'P 1'
_cell_length_a   5.42690500
_cell_length_b   5.42690424
_cell_length_c   8.61459400
_cell_angle_alpha   90.00000000
_cell_angle_beta   90.00000000
_cell_angle_gamma   119.99999856
_symmetry_Int_Tables_number   1
_chemical_formula_structural   TbYb3NbOs7
_chemical_formula_sum   'Tb1 Yb3 Nb1 Os7'
_cell_volume   219.72012094
_cell_formula_units_Z   1
loop_
 _symmetry_equiv_pos_site_id
 _symmetry_equiv_pos_as_xyz
  1  'x, y, z'
loop_
 _atom_site_type_symbol
 _atom_site_label
 _atom_site_symmetry_multiplicity
 _atom_site_fract_x
 _atom_site_fract_y
 _atom_site_fract_z
 _atom_site_occupancy
  Tb  Tb0  1  0.333333  0.666667  0.425627  1
  Yb  Yb1  1  0.666667  0.333333  0.575718  1
  Yb  Yb2  1  0.666667  0.333333  0.934466  1
  Yb  Yb3  1  0.333333  0.666667  0.059884  1
  Nb  Nb4  1  0.000000  0.000000  0.500579  1
  Os  Os5  1  0.000000  0.000000  0.001714  1
  Os  Os6  1  0.826764  0.173236  0.248361  1
  Os  Os7  1  0.826764  0.653528  0.248361  1
  Os  Os8  1  0.346472  0.173236  0.248361  1
  Os  Os9  1  0.172898  0.827102  0.752310  1
  Os  Os10  1  0.172898  0.345798  0.752310  1
  Os  Os11  1  0.654202  0.827102  0.752310  1
