# generated using pymatgen
data_Sr2In(SiIr)4
_symmetry_space_group_name_H-M   'P 1'
_cell_length_a   6.47490616
_cell_length_b   6.47490620
_cell_length_c   11.28689800
_cell_angle_alpha   90.00000000
_cell_angle_beta   90.00000000
_cell_angle_gamma   113.46923676
_symmetry_Int_Tables_number   1
_chemical_formula_structural   Sr2In(SiIr)4
_chemical_formula_sum   'Sr4 In2 Si8 Ir8'
_cell_volume   434.05090099
_cell_formula_units_Z   2
loop_
 _symmetry_equiv_pos_site_id
 _symmetry_equiv_pos_as_xyz
  1  'x, y, z'
loop_
 _atom_site_type_symbol
 _atom_site_label
 _atom_site_symmetry_multiplicity
 _atom_site_fract_x
 _atom_site_fract_y
 _atom_site_fract_z
 _atom_site_occupancy
  Sr  Sr0  1  0.200543  0.799457  0.500000  1
  Sr  Sr1  1  0.200543  0.799457  0.000000  1
  Sr  Sr2  1  0.799457  0.200543  0.500000  1
  Sr  Sr3  1  0.799457  0.200543  0.000000  1
  In  In4  1  0.029339  0.029339  0.250000  1
  In  In5  1  0.970661  0.970661  0.750000  1
  Si  Si6  1  0.517212  0.892376  0.250000  1
  Si  Si7  1  0.107624  0.482788  0.750000  1
  Si  Si8  1  0.482788  0.107624  0.750000  1
  Si  Si9  1  0.892376  0.517212  0.250000  1
  Si  Si10  1  0.354306  0.354306  0.424129  1
  Si  Si11  1  0.645694  0.645694  0.575871  1
  Si  Si12  1  0.354306  0.354306  0.075871  1
  Si  Si13  1  0.645694  0.645694  0.924129  1
  Ir  Ir14  1  0.507057  0.243667  0.250000  1
  Ir  Ir15  1  0.756333  0.492943  0.750000  1
  Ir  Ir16  1  0.492943  0.756333  0.750000  1
  Ir  Ir17  1  0.243667  0.507057  0.250000  1
  Ir  Ir18  1  0.687741  0.687741  0.373035  1
  Ir  Ir19  1  0.312259  0.312259  0.626965  1
  Ir  Ir20  1  0.687741  0.687741  0.126965  1
  Ir  Ir21  1  0.312259  0.312259  0.873035  1
