# generated using pymatgen
data_YbYZn14Ir3
_symmetry_space_group_name_H-M   'P 1'
_cell_length_a   6.82303479
_cell_length_b   6.82303535
_cell_length_c   6.82303454
_cell_angle_alpha   82.21318113
_cell_angle_beta   82.21318571
_cell_angle_gamma   82.21318452
_symmetry_Int_Tables_number   1
_chemical_formula_structural   YbYZn14Ir3
_chemical_formula_sum   'Yb1 Y1 Zn14 Ir3'
_cell_volume   309.57974780
_cell_formula_units_Z   1
loop_
 _symmetry_equiv_pos_site_id
 _symmetry_equiv_pos_as_xyz
  1  'x, y, z'
loop_
 _atom_site_type_symbol
 _atom_site_label
 _atom_site_symmetry_multiplicity
 _atom_site_fract_x
 _atom_site_fract_y
 _atom_site_fract_z
 _atom_site_occupancy
  Yb  Yb0  1  0.675834  0.675834  0.675834  1
  Y  Y1  1  0.321257  0.321257  0.321257  1
  Zn  Zn2  1  0.352993  0.352993  0.839789  1
  Zn  Zn3  1  0.839789  0.352993  0.352993  1
  Zn  Zn4  1  0.098113  0.098113  0.098113  1
  Zn  Zn5  1  0.897862  0.897862  0.897862  1
  Zn  Zn6  1  0.297640  0.706617  0.999681  1
  Zn  Zn7  1  0.706617  0.999681  0.297640  1
  Zn  Zn8  1  0.999681  0.297640  0.706617  1
  Zn  Zn9  1  0.706617  0.297640  0.999681  1
  Zn  Zn10  1  0.297640  0.999681  0.706617  1
  Zn  Zn11  1  0.999681  0.706617  0.297640  1
  Zn  Zn12  1  0.156809  0.644708  0.644708  1
  Zn  Zn13  1  0.644708  0.644708  0.156809  1
  Zn  Zn14  1  0.644708  0.156809  0.644708  1
  Zn  Zn15  1  0.352993  0.839789  0.352993  1
  Ir  Ir16  1  0.002974  0.002974  0.501111  1
  Ir  Ir17  1  0.002974  0.501111  0.002974  1
  Ir  Ir18  1  0.501111  0.002974  0.002974  1
