# generated using pymatgen
data_DyScCoB6
_symmetry_space_group_name_H-M   'P 1'
_cell_length_a   3.44929300
_cell_length_b   8.94823600
_cell_length_c   11.30351000
_cell_angle_alpha   90.00000000
_cell_angle_beta   90.00000000
_cell_angle_gamma   90.00000000
_symmetry_Int_Tables_number   1
_chemical_formula_structural   DyScCoB6
_chemical_formula_sum   'Dy4 Sc4 Co4 B24'
_cell_volume   348.88382857
_cell_formula_units_Z   4
loop_
 _symmetry_equiv_pos_site_id
 _symmetry_equiv_pos_as_xyz
  1  'x, y, z'
loop_
 _atom_site_type_symbol
 _atom_site_label
 _atom_site_symmetry_multiplicity
 _atom_site_fract_x
 _atom_site_fract_y
 _atom_site_fract_z
 _atom_site_occupancy
  Dy  Dy0  1  0.000000  0.321673  0.414328  1
  Dy  Dy1  1  0.000000  0.678327  0.585672  1
  Dy  Dy2  1  0.000000  0.821673  0.085672  1
  Dy  Dy3  1  0.000000  0.178327  0.914328  1
  Sc  Sc4  1  0.000000  0.943911  0.371580  1
  Sc  Sc5  1  0.000000  0.056089  0.628420  1
  Sc  Sc6  1  0.000000  0.443911  0.128420  1
  Sc  Sc7  1  0.000000  0.556089  0.871580  1
  Co  Co8  1  0.000000  0.641457  0.318102  1
  Co  Co9  1  0.000000  0.358543  0.681898  1
  Co  Co10  1  0.000000  0.141457  0.181898  1
  Co  Co11  1  0.000000  0.858543  0.818102  1
  B  B12  1  0.500000  0.555884  0.432238  1
  B  B13  1  0.500000  0.444116  0.567762  1
  B  B14  1  0.500000  0.055884  0.067762  1
  B  B15  1  0.500000  0.944116  0.932238  1
  B  B16  1  0.500000  0.751972  0.417507  1
  B  B17  1  0.500000  0.248028  0.582493  1
  B  B18  1  0.500000  0.251972  0.082493  1
  B  B19  1  0.500000  0.748028  0.917507  1
  B  B20  1  0.500000  0.793291  0.264813  1
  B  B21  1  0.500000  0.206709  0.735187  1
  B  B22  1  0.500000  0.293291  0.235187  1
  B  B23  1  0.500000  0.706709  0.764813  1
  B  B24  1  0.500000  0.629992  0.183300  1
  B  B25  1  0.500000  0.370008  0.816700  1
  B  B26  1  0.500000  0.129992  0.316700  1
  B  B27  1  0.500000  0.870008  0.683300  1
  B  B28  1  0.500000  0.984264  0.213662  1
  B  B29  1  0.500000  0.015736  0.786338  1
  B  B30  1  0.500000  0.484264  0.286338  1
  B  B31  1  0.500000  0.515736  0.713662  1
  B  B32  1  0.500000  0.599106  0.026655  1
  B  B33  1  0.500000  0.400894  0.973345  1
  B  B34  1  0.500000  0.099106  0.473345  1
  B  B35  1  0.500000  0.900894  0.526655  1
