# generated using pymatgen
data_Nd6Al24Ru3Rh5
_symmetry_space_group_name_H-M   'P 1'
_cell_length_a   8.87910000
_cell_length_b   8.92121608
_cell_length_c   9.64566886
_cell_angle_alpha   90.09941692
_cell_angle_beta   90.00000000
_cell_angle_gamma   119.84396412
_symmetry_Int_Tables_number   1
_chemical_formula_structural   Nd6Al24Ru3Rh5
_chemical_formula_sum   'Nd6 Al24 Ru3 Rh5'
_cell_volume   662.72876633
_cell_formula_units_Z   1
loop_
 _symmetry_equiv_pos_site_id
 _symmetry_equiv_pos_as_xyz
  1  'x, y, z'
loop_
 _atom_site_type_symbol
 _atom_site_label
 _atom_site_symmetry_multiplicity
 _atom_site_fract_x
 _atom_site_fract_y
 _atom_site_fract_z
 _atom_site_occupancy
  Nd  Nd0  1  0.190585  0.381169  0.250428  1
  Nd  Nd1  1  0.809415  0.618831  0.749572  1
  Nd  Nd2  1  0.618814  0.810988  0.250176  1
  Nd  Nd3  1  0.381186  0.189012  0.749824  1
  Nd  Nd4  1  0.192175  0.810988  0.250176  1
  Nd  Nd5  1  0.807825  0.189012  0.749824  1
  Al  Al6  1  0.333652  0.667306  0.022324  1
  Al  Al7  1  0.666348  0.332694  0.977676  1
  Al  Al8  1  0.665470  0.330938  0.522554  1
  Al  Al9  1  0.334530  0.669062  0.477446  1
  Al  Al10  1  0.163577  0.327153  0.574699  1
  Al  Al11  1  0.836423  0.672847  0.425301  1
  Al  Al12  1  0.672540  0.837988  0.575618  1
  Al  Al13  1  0.837029  0.674058  0.075646  1
  Al  Al14  1  0.327460  0.162012  0.424382  1
  Al  Al15  1  0.162971  0.325942  0.924354  1
  Al  Al16  1  0.165448  0.837988  0.575618  1
  Al  Al17  1  0.327191  0.164761  0.076316  1
  Al  Al18  1  0.834552  0.162012  0.424382  1
  Al  Al19  1  0.672809  0.835239  0.923684  1
  Al  Al20  1  0.837571  0.164761  0.076316  1
  Al  Al21  1  0.162429  0.835239  0.923684  1
  Al  Al22  1  0.563214  0.126428  0.250844  1
  Al  Al23  1  0.436786  0.873572  0.749156  1
  Al  Al24  1  0.874545  0.438071  0.249788  1
  Al  Al25  1  0.125455  0.561929  0.750212  1
  Al  Al26  1  0.563526  0.438071  0.249788  1
  Al  Al27  1  0.436474  0.561929  0.750212  1
  Al  Al28  1  0.001114  0.002229  0.250077  1
  Al  Al29  1  0.998886  0.997771  0.749923  1
  Ru  Ru30  1  0.500000  0.000000  0.500000  1
  Ru  Ru31  1  0.000000  0.000000  0.000000  1
  Ru  Ru32  1  0.000000  0.000000  0.500000  1
  Rh  Rh33  1  0.500000  0.000000  0.000000  1
  Rh  Rh34  1  0.000000  0.500000  0.000000  1
  Rh  Rh35  1  0.500000  0.500000  0.000000  1
  Rh  Rh36  1  0.000000  0.500000  0.500000  1
  Rh  Rh37  1  0.500000  0.500000  0.500000  1
