# generated using pymatgen
data_Lu4Al18ZnCo5
_symmetry_space_group_name_H-M   'P 1'
_cell_length_a   7.38977542
_cell_length_b   7.38977598
_cell_length_c   9.21636247
_cell_angle_alpha   89.88571160
_cell_angle_beta   89.88570664
_cell_angle_gamma   119.20853527
_symmetry_Int_Tables_number   1
_chemical_formula_structural   Lu4Al18ZnCo5
_chemical_formula_sum   'Lu4 Al18 Zn1 Co5'
_cell_volume   439.29675821
_cell_formula_units_Z   1
loop_
 _symmetry_equiv_pos_site_id
 _symmetry_equiv_pos_as_xyz
  1  'x, y, z'
loop_
 _atom_site_type_symbol
 _atom_site_label
 _atom_site_symmetry_multiplicity
 _atom_site_fract_x
 _atom_site_fract_y
 _atom_site_fract_z
 _atom_site_occupancy
  Lu  Lu0  1  0.994683  0.679140  0.250174  1
  Lu  Lu1  1  0.005317  0.320860  0.749826  1
  Lu  Lu2  1  0.679140  0.994683  0.250174  1
  Lu  Lu3  1  0.320860  0.005317  0.749826  1
  Al  Al4  1  0.135596  0.135596  0.261966  1
  Al  Al5  1  0.864404  0.864404  0.738034  1
  Al  Al6  1  0.999489  0.348213  0.077993  1
  Al  Al7  1  0.000511  0.651787  0.922007  1
  Al  Al8  1  0.004878  0.663301  0.570310  1
  Al  Al9  1  0.336699  0.995122  0.429690  1
  Al  Al10  1  0.995122  0.336699  0.429690  1
  Al  Al11  1  0.663301  0.004878  0.570310  1
  Al  Al12  1  0.651787  0.000511  0.922007  1
  Al  Al13  1  0.348213  0.999489  0.077993  1
  Al  Al14  1  0.331292  0.331292  0.544483  1
  Al  Al15  1  0.668708  0.668708  0.455517  1
  Al  Al16  1  0.656840  0.656840  0.053512  1
  Al  Al17  1  0.343160  0.343160  0.946488  1
  Al  Al18  1  0.339486  0.560638  0.252376  1
  Al  Al19  1  0.660514  0.439362  0.747624  1
  Al  Al20  1  0.560638  0.339486  0.252376  1
  Al  Al21  1  0.439362  0.660514  0.747624  1
  Zn  Zn22  1  0.000000  0.000000  0.000000  1
  Co  Co23  1  0.671522  0.328478  0.000000  1
  Co  Co24  1  0.328478  0.671522  0.000000  1
  Co  Co25  1  0.328708  0.671292  0.500000  1
  Co  Co26  1  0.671292  0.328708  0.500000  1
  Co  Co27  1  0.000000  0.000000  0.500000  1
