# generated using pymatgen
data_Hf7Zr3(CuSb3)2
_symmetry_space_group_name_H-M   'P 1'
_cell_length_a   8.59064000
_cell_length_b   8.59063995
_cell_length_c   5.78801200
_cell_angle_alpha   90.00000000
_cell_angle_beta   90.00000000
_cell_angle_gamma   119.99999247
_symmetry_Int_Tables_number   1
_chemical_formula_structural   Hf7Zr3(CuSb3)2
_chemical_formula_sum   'Hf7 Zr3 Cu2 Sb6'
_cell_volume   369.92282149
_cell_formula_units_Z   1
loop_
 _symmetry_equiv_pos_site_id
 _symmetry_equiv_pos_as_xyz
  1  'x, y, z'
loop_
 _atom_site_type_symbol
 _atom_site_label
 _atom_site_symmetry_multiplicity
 _atom_site_fract_x
 _atom_site_fract_y
 _atom_site_fract_z
 _atom_site_occupancy
  Hf  Hf0  1  0.666667  0.333333  0.000217  1
  Hf  Hf1  1  0.333333  0.666667  0.000217  1
  Hf  Hf2  1  0.333333  0.666667  0.499783  1
  Hf  Hf3  1  0.666667  0.333333  0.499783  1
  Hf  Hf4  1  0.264640  0.264640  0.250000  1
  Hf  Hf5  1  0.735360  0.000000  0.250000  1
  Hf  Hf6  1  0.000000  0.735360  0.250000  1
  Zr  Zr7  1  0.734685  0.734685  0.750000  1
  Zr  Zr8  1  0.265315  0.000000  0.750000  1
  Zr  Zr9  1  0.000000  0.265315  0.750000  1
  Cu  Cu10  1  0.000000  0.000000  0.495437  1
  Cu  Cu11  1  0.000000  0.000000  0.004563  1
  Sb  Sb12  1  0.385457  0.385457  0.750000  1
  Sb  Sb13  1  0.614543  0.000000  0.750000  1
  Sb  Sb14  1  0.000000  0.614543  0.750000  1
  Sb  Sb15  1  0.614507  0.614507  0.250000  1
  Sb  Sb16  1  0.385493  0.000000  0.250000  1
  Sb  Sb17  1  0.000000  0.385493  0.250000  1
