# generated using pymatgen
data_Ho6Er2Ti3Si16Mo9
_symmetry_space_group_name_H-M   'P 1'
_cell_length_a   6.89912626
_cell_length_b   6.89883936
_cell_length_c   12.77475605
_cell_angle_alpha   90.00010099
_cell_angle_beta   90.00393534
_cell_angle_gamma   89.80104942
_symmetry_Int_Tables_number   1
_chemical_formula_structural   Ho6Er2Ti3Si16Mo9
_chemical_formula_sum   'Ho6 Er2 Ti3 Si16 Mo9'
_cell_volume   608.02315941
_cell_formula_units_Z   1
loop_
 _symmetry_equiv_pos_site_id
 _symmetry_equiv_pos_as_xyz
  1  'x, y, z'
loop_
 _atom_site_type_symbol
 _atom_site_label
 _atom_site_symmetry_multiplicity
 _atom_site_fract_x
 _atom_site_fract_y
 _atom_site_fract_z
 _atom_site_occupancy
  Ho  Ho0  1  0.339431  0.001794  0.468599  1
  Ho  Ho1  1  0.497264  0.839092  0.719291  1
  Ho  Ho2  1  0.499252  0.161717  0.217531  1
  Ho  Ho3  1  0.839098  0.497224  0.280725  1
  Ho  Ho4  1  0.161617  0.499204  0.782478  1
  Ho  Ho5  1  0.659655  0.999946  0.968839  1
  Er  Er6  1  0.001417  0.339696  0.531411  1
  Er  Er7  1  0.000305  0.659360  0.031102  1
  Ti  Ti8  1  0.169899  0.831494  0.248595  1
  Ti  Ti9  1  0.831575  0.169965  0.751301  1
  Ti  Ti10  1  0.668919  0.668806  0.500017  1
  Si  Si11  1  0.200683  0.129396  0.683323  1
  Si  Si12  1  0.373414  0.697270  0.934055  1
  Si  Si13  1  0.629174  0.299059  0.433532  1
  Si  Si14  1  0.697442  0.373833  0.066013  1
  Si  Si15  1  0.298876  0.628718  0.566520  1
  Si  Si16  1  0.796869  0.871547  0.183879  1
  Si  Si17  1  0.129155  0.201005  0.316649  1
  Si  Si18  1  0.871780  0.796705  0.816075  1
  Si  Si19  1  0.287636  0.963530  0.061601  1
  Si  Si20  1  0.539390  0.791267  0.313510  1
  Si  Si21  1  0.458329  0.210859  0.815049  1
  Si  Si22  1  0.791437  0.539148  0.686387  1
  Si  Si23  1  0.210670  0.458434  0.184819  1
  Si  Si24  1  0.709991  0.041209  0.563847  1
  Si  Si25  1  0.963694  0.288055  0.938438  1
  Si  Si26  1  0.040990  0.709530  0.436257  1
  Mo  Mo27  1  0.331373  0.331506  0.000005  1
  Mo  Mo28  1  0.155601  0.001661  0.873111  1
  Mo  Mo29  1  0.496378  0.666472  0.124385  1
  Mo  Mo30  1  0.505825  0.340492  0.624508  1
  Mo  Mo31  1  0.666689  0.496438  0.875627  1
  Mo  Mo32  1  0.340350  0.505730  0.375535  1
  Mo  Mo33  1  0.840731  0.993445  0.374298  1
  Mo  Mo34  1  0.001688  0.155663  0.126932  1
  Mo  Mo35  1  0.993404  0.840733  0.625756  1
