# generated using pymatgen
data_YbP12IrOsRu2
_symmetry_space_group_name_H-M   'P 1'
_cell_length_a   7.00078176
_cell_length_b   6.99940446
_cell_length_c   7.00059199
_cell_angle_alpha   109.39569894
_cell_angle_beta   109.42657234
_cell_angle_gamma   109.39157871
_symmetry_Int_Tables_number   1
_chemical_formula_structural   YbP12IrOsRu2
_chemical_formula_sum   'Yb1 P12 Ir1 Os1 Ru2'
_cell_volume   264.72003592
_cell_formula_units_Z   1
loop_
 _symmetry_equiv_pos_site_id
 _symmetry_equiv_pos_as_xyz
  1  'x, y, z'
loop_
 _atom_site_type_symbol
 _atom_site_label
 _atom_site_symmetry_multiplicity
 _atom_site_fract_x
 _atom_site_fract_y
 _atom_site_fract_z
 _atom_site_occupancy
  Yb  Yb0  1  0.000000  0.000000  0.000000  1
  P  P1  1  0.785057  0.141984  0.642840  1
  P  P2  1  0.214943  0.858016  0.357160  1
  P  P3  1  0.500929  0.861285  0.644396  1
  P  P4  1  0.857281  0.356458  0.215008  1
  P  P5  1  0.643656  0.500982  0.861196  1
  P  P6  1  0.356642  0.214543  0.857388  1
  P  P7  1  0.142719  0.643542  0.784992  1
  P  P8  1  0.643358  0.785457  0.142612  1
  P  P9  1  0.861248  0.644362  0.500902  1
  P  P10  1  0.138752  0.355638  0.499098  1
  P  P11  1  0.499071  0.138715  0.355604  1
  P  P12  1  0.356344  0.499018  0.138804  1
  Ir  Ir13  1  0.500000  0.500000  0.500000  1
  Os  Os14  1  0.000000  0.500000  0.000000  1
  Ru  Ru15  1  0.500000  0.000000  0.000000  1
  Ru  Ru16  1  0.000000  0.000000  0.500000  1
