# generated using pymatgen
data_Ho11LuCo4SnRh
_symmetry_space_group_name_H-M   'P 1'
_cell_length_a   8.25724787
_cell_length_b   8.26086075
_cell_length_c   8.26085908
_cell_angle_alpha   111.00625732
_cell_angle_beta   110.66723224
_cell_angle_gamma   106.79036462
_symmetry_Int_Tables_number   1
_chemical_formula_structural   Ho11LuCo4SnRh
_chemical_formula_sum   'Ho11 Lu1 Co4 Sn1 Rh1'
_cell_volume   432.96812199
_cell_formula_units_Z   1
loop_
 _symmetry_equiv_pos_site_id
 _symmetry_equiv_pos_as_xyz
  1  'x, y, z'
loop_
 _atom_site_type_symbol
 _atom_site_label
 _atom_site_symmetry_multiplicity
 _atom_site_fract_x
 _atom_site_fract_y
 _atom_site_fract_z
 _atom_site_occupancy
  Ho  Ho0  1  0.595006  0.790098  0.804908  1
  Ho  Ho1  1  0.015484  0.210383  0.805101  1
  Ho  Ho2  1  0.984901  0.788679  0.196222  1
  Ho  Ho3  1  0.187005  0.291554  0.477768  1
  Ho  Ho4  1  0.812247  0.706349  0.519324  1
  Ho  Ho5  1  0.187005  0.709237  0.895450  1
  Ho  Ho6  1  0.812247  0.292924  0.105899  1
  Ho  Ho7  1  0.313179  0.617230  0.305691  1
  Ho  Ho8  1  0.686069  0.381064  0.693348  1
  Ho  Ho9  1  0.313179  0.007487  0.695948  1
  Ho  Ho10  1  0.686069  0.992721  0.305005  1
  Lu  Lu11  1  0.408003  0.211379  0.196624  1
  Co  Co12  1  0.377465  0.000316  0.377149  1
  Co  Co13  1  0.619189  0.999455  0.619734  1
  Co  Co14  1  0.112008  0.611923  0.500085  1
  Co  Co15  1  0.886163  0.387890  0.498273  1
  Sn  Sn16  1  0.499582  0.499426  0.000157  1
  Rh  Rh17  1  0.005198  0.001884  0.003314  1
