# generated using pymatgen
data_TbNdNpFe2Si7
_symmetry_space_group_name_H-M   'P 1'
_cell_length_a   12.22865019
_cell_length_b   12.22864831
_cell_length_c   4.06324900
_cell_angle_alpha   90.00000000
_cell_angle_beta   90.00000000
_cell_angle_gamma   160.86680928
_symmetry_Int_Tables_number   1
_chemical_formula_structural   TbNdNpFe2Si7
_chemical_formula_sum   'Tb1 Nd1 Np1 Fe2 Si7'
_cell_volume   199.15596074
_cell_formula_units_Z   1
loop_
 _symmetry_equiv_pos_site_id
 _symmetry_equiv_pos_as_xyz
  1  'x, y, z'
loop_
 _atom_site_type_symbol
 _atom_site_label
 _atom_site_symmetry_multiplicity
 _atom_site_fract_x
 _atom_site_fract_y
 _atom_site_fract_z
 _atom_site_occupancy
  Tb  Tb0  1  0.465950  0.534050  0.500000  1
  Nd  Nd1  1  0.098850  0.901150  0.500000  1
  Np  Np2  1  0.783493  0.216507  0.000000  1
  Fe  Fe3  1  0.660227  0.339773  0.000000  1
  Fe  Fe4  1  0.906456  0.093544  0.000000  1
  Si  Si5  1  0.367518  0.632482  0.000000  1
  Si  Si6  1  0.561399  0.438601  0.000000  1
  Si  Si7  1  0.867567  0.132433  0.500000  1
  Si  Si8  1  0.002490  0.997510  0.000000  1
  Si  Si9  1  0.199544  0.800456  0.000000  1
  Si  Si10  1  0.283495  0.716505  0.500000  1
  Si  Si11  1  0.699710  0.300290  0.500000  1
