# generated using pymatgen
data_GdCoH5
_symmetry_space_group_name_H-M   'P 1'
_cell_length_a   4.37981288
_cell_length_b   3.64647761
_cell_length_c   4.37842000
_cell_angle_alpha   65.44192719
_cell_angle_beta   117.11815799
_cell_angle_gamma   114.52716992
_symmetry_Int_Tables_number   1
_chemical_formula_structural   GdCoH5
_chemical_formula_sum   'Gd1 Co1 H5'
_cell_volume   54.36577221
_cell_formula_units_Z   1
loop_
 _symmetry_equiv_pos_site_id
 _symmetry_equiv_pos_as_xyz
  1  'x, y, z'
loop_
 _atom_site_type_symbol
 _atom_site_label
 _atom_site_symmetry_multiplicity
 _atom_site_fract_x
 _atom_site_fract_y
 _atom_site_fract_z
 _atom_site_occupancy
  Gd  Gd0  1  0.827270  0.383678  0.043650  1
  Co  Co1  1  0.327782  0.883528  0.544522  1
  H  H2  1  0.243249  0.045455  0.135521  1
  H  H3  1  0.412045  0.721480  0.953418  1
  H  H4  1  0.328235  0.383890  0.544229  1
  H  H5  1  0.736048  0.046418  0.626757  1
  H  H6  1  0.919399  0.720617  0.462226  1
