# generated using pymatgen
data_NdHoGa7Ni2Ag
_symmetry_space_group_name_H-M   'P 1'
_cell_length_a   4.18607403
_cell_length_b   6.47831574
_cell_length_c   8.09333324
_cell_angle_alpha   90.81647158
_cell_angle_beta   104.98775905
_cell_angle_gamma   89.99999498
_symmetry_Int_Tables_number   1
_chemical_formula_structural   NdHoGa7Ni2Ag
_chemical_formula_sum   'Nd1 Ho1 Ga7 Ni2 Ag1'
_cell_volume   211.99118874
_cell_formula_units_Z   1
loop_
 _symmetry_equiv_pos_site_id
 _symmetry_equiv_pos_as_xyz
  1  'x, y, z'
loop_
 _atom_site_type_symbol
 _atom_site_label
 _atom_site_symmetry_multiplicity
 _atom_site_fract_x
 _atom_site_fract_y
 _atom_site_fract_z
 _atom_site_occupancy
  Nd  Nd0  1  0.121365  0.237572  0.242731  1
  Ho  Ho1  1  0.878179  0.762068  0.756357  1
  Ga  Ga2  1  0.498093  0.996835  0.996187  1
  Ga  Ga3  1  0.069600  0.739384  0.139202  1
  Ga  Ga4  1  0.929119  0.261039  0.858236  1
  Ga  Ga5  1  0.687115  0.546336  0.374232  1
  Ga  Ga6  1  0.315057  0.456335  0.630113  1
  Ga  Ga7  1  0.688837  0.943134  0.377675  1
  Ga  Ga8  1  0.314399  0.053054  0.628796  1
  Ni  Ni9  1  0.221308  0.749841  0.442615  1
  Ni  Ni10  1  0.779383  0.249208  0.558766  1
  Ag  Ag11  1  0.497546  0.505194  0.995091  1
