# generated using pymatgen
data_Tb3Lu3(Zn3C)2
_symmetry_space_group_name_H-M   'P 1'
_cell_length_a   9.09167816
_cell_length_b   9.09164752
_cell_length_c   9.09186000
_cell_angle_alpha   60.00245445
_cell_angle_beta   59.99995283
_cell_angle_gamma   59.99791393
_symmetry_Int_Tables_number   1
_chemical_formula_structural   Tb3Lu3(Zn3C)2
_chemical_formula_sum   'Tb6 Lu6 Zn12 C4'
_cell_volume   531.40475786
_cell_formula_units_Z   2
loop_
 _symmetry_equiv_pos_site_id
 _symmetry_equiv_pos_as_xyz
  1  'x, y, z'
loop_
 _atom_site_type_symbol
 _atom_site_label
 _atom_site_symmetry_multiplicity
 _atom_site_fract_x
 _atom_site_fract_y
 _atom_site_fract_z
 _atom_site_occupancy
  Tb  Tb0  1  0.801512  0.801522  0.198479  1
  Tb  Tb1  1  0.198500  0.801514  0.198478  1
  Tb  Tb2  1  0.801519  0.198481  0.198499  1
  Tb  Tb3  1  0.198488  0.198494  0.801516  1
  Tb  Tb4  1  0.801516  0.198486  0.801490  1
  Tb  Tb5  1  0.198489  0.801500  0.801517  1
  Lu  Lu6  1  0.445060  0.445081  0.054940  1
  Lu  Lu7  1  0.054925  0.445066  0.054918  1
  Lu  Lu8  1  0.445085  0.054915  0.054911  1
  Lu  Lu9  1  0.054934  0.054913  0.445081  1
  Lu  Lu10  1  0.445070  0.054922  0.445070  1
  Lu  Lu11  1  0.054910  0.445071  0.445104  1
  Zn  Zn12  1  0.826223  0.826234  0.521320  1
  Zn  Zn13  1  0.826233  0.521310  0.826230  1
  Zn  Zn14  1  0.521317  0.826239  0.826224  1
  Zn  Zn15  1  0.826221  0.826248  0.826227  1
  Zn  Zn16  1  0.422779  0.422767  0.731688  1
  Zn  Zn17  1  0.422765  0.731709  0.422760  1
  Zn  Zn18  1  0.731690  0.422757  0.422779  1
  Zn  Zn19  1  0.422776  0.422756  0.422771  1
  Zn  Zn20  1  0.624900  0.624902  0.125301  1
  Zn  Zn21  1  0.624908  0.125298  0.624901  1
  Zn  Zn22  1  0.125293  0.624919  0.624889  1
  Zn  Zn23  1  0.624904  0.624904  0.624901  1
  C  C24  1  0.129367  0.129376  0.611883  1
  C  C25  1  0.129375  0.611864  0.129385  1
  C  C26  1  0.611878  0.129371  0.129368  1
  C  C27  1  0.129363  0.129379  0.129373  1
