# generated using pymatgen
data_Sm3YTh2(Co3P2)6
_symmetry_space_group_name_H-M   'P 1'
_cell_length_a   3.75963600
_cell_length_b   10.60386657
_cell_length_c   12.30177766
_cell_angle_alpha   90.03753227
_cell_angle_beta   90.00000000
_cell_angle_gamma   90.00000000
_symmetry_Int_Tables_number   1
_chemical_formula_structural   Sm3YTh2(Co3P2)6
_chemical_formula_sum   'Sm3 Y1 Th2 Co18 P12'
_cell_volume   490.43090961
_cell_formula_units_Z   1
loop_
 _symmetry_equiv_pos_site_id
 _symmetry_equiv_pos_as_xyz
  1  'x, y, z'
loop_
 _atom_site_type_symbol
 _atom_site_label
 _atom_site_symmetry_multiplicity
 _atom_site_fract_x
 _atom_site_fract_y
 _atom_site_fract_z
 _atom_site_occupancy
  Sm  Sm0  1  0.500000  0.815425  0.204257  1
  Sm  Sm1  1  0.500000  0.184690  0.204513  1
  Sm  Sm2  1  0.000000  0.684094  0.795536  1
  Y  Y3  1  0.000000  0.315100  0.795697  1
  Th  Th4  1  0.000000  0.499630  0.524369  1
  Th  Th5  1  0.500000  0.000132  0.475972  1
  Co  Co6  1  0.500000  0.499812  0.155800  1
  Co  Co7  1  0.000000  0.000261  0.844050  1
  Co  Co8  1  0.500000  0.498819  0.702168  1
  Co  Co9  1  0.000000  0.000134  0.298460  1
  Co  Co10  1  0.000000  0.499294  0.985134  1
  Co  Co11  1  0.500000  0.000642  0.013605  1
  Co  Co12  1  0.500000  0.333712  0.994146  1
  Co  Co13  1  0.500000  0.665629  0.994851  1
  Co  Co14  1  0.000000  0.166735  0.004089  1
  Co  Co15  1  0.000000  0.833870  0.004630  1
  Co  Co16  1  0.500000  0.299398  0.430392  1
  Co  Co17  1  0.500000  0.700595  0.429927  1
  Co  Co18  1  0.000000  0.201016  0.571233  1
  Co  Co19  1  0.000000  0.799249  0.570178  1
  Co  Co20  1  0.500000  0.881721  0.712476  1
  Co  Co21  1  0.500000  0.119751  0.713392  1
  Co  Co22  1  0.000000  0.618568  0.287433  1
  Co  Co23  1  0.000000  0.381412  0.287637  1
  P  P24  1  0.500000  0.498672  0.882401  1
  P  P25  1  0.000000  0.000291  0.116246  1
  P  P26  1  0.500000  0.500023  0.338204  1
  P  P27  1  0.000000  0.999977  0.661990  1
  P  P28  1  0.500000  0.305507  0.618376  1
  P  P29  1  0.500000  0.694662  0.616550  1
  P  P30  1  0.000000  0.195253  0.383989  1
  P  P31  1  0.000000  0.804976  0.383576  1
  P  P32  1  0.500000  0.847942  0.896213  1
  P  P33  1  0.500000  0.153248  0.895284  1
  P  P34  1  0.000000  0.651663  0.103421  1
  P  P35  1  0.000000  0.348096  0.103804  1
