# generated using pymatgen
data_Sr6Ca5La9Sn16
_symmetry_space_group_name_H-M   'P 1'
_cell_length_a   8.32229124
_cell_length_b   8.73835574
_cell_length_c   16.49842200
_cell_angle_alpha   89.95877730
_cell_angle_beta   89.61565654
_cell_angle_gamma   89.96638282
_symmetry_Int_Tables_number   1
_chemical_formula_structural   Sr6Ca5La9Sn16
_chemical_formula_sum   'Sr6 Ca5 La9 Sn16'
_cell_volume   1199.78956870
_cell_formula_units_Z   1
loop_
 _symmetry_equiv_pos_site_id
 _symmetry_equiv_pos_as_xyz
  1  'x, y, z'
loop_
 _atom_site_type_symbol
 _atom_site_label
 _atom_site_symmetry_multiplicity
 _atom_site_fract_x
 _atom_site_fract_y
 _atom_site_fract_z
 _atom_site_occupancy
  Sr  Sr0  1  0.504848  0.682595  0.406927  1
  Sr  Sr1  1  0.006703  0.817497  0.093072  1
  Sr  Sr2  1  0.505117  0.683480  0.091821  1
  Sr  Sr3  1  0.004744  0.817707  0.406646  1
  Sr  Sr4  1  0.495872  0.318368  0.595545  1
  Sr  Sr5  1  0.995263  0.179767  0.904450  1
  Ca  Ca6  1  0.328641  0.830926  0.875774  1
  Ca  Ca7  1  0.165553  0.493383  0.751100  1
  Ca  Ca8  1  0.663488  0.009147  0.751980  1
  Ca  Ca9  1  0.833177  0.510619  0.250136  1
  Ca  Ca10  1  0.333305  0.987772  0.249492  1
  La  La11  1  0.832254  0.673162  0.624891  1
  La  La12  1  0.668845  0.168704  0.378185  1
  La  La13  1  0.170822  0.330012  0.121569  1
  La  La14  1  0.669286  0.169272  0.121743  1
  La  La15  1  0.169183  0.329749  0.377158  1
  La  La16  1  0.334019  0.829159  0.623858  1
  La  La17  1  0.832332  0.672605  0.876750  1
  La  La18  1  0.487299  0.312037  0.902595  1
  La  La19  1  0.994046  0.184911  0.598306  1
  Sn  Sn20  1  0.338456  0.044131  0.035471  1
  Sn  Sn21  1  0.838397  0.455027  0.464484  1
  Sn  Sn22  1  0.671007  0.968209  0.544174  1
  Sn  Sn23  1  0.168613  0.531976  0.955415  1
  Sn  Sn24  1  0.656585  0.969708  0.955291  1
  Sn  Sn25  1  0.161646  0.529340  0.544347  1
  Sn  Sn26  1  0.332972  0.040415  0.462528  1
  Sn  Sn27  1  0.838115  0.460050  0.038040  1
  Sn  Sn28  1  0.532164  0.606083  0.751352  1
  Sn  Sn29  1  0.033278  0.893838  0.748091  1
  Sn  Sn30  1  0.467884  0.388920  0.249768  1
  Sn  Sn31  1  0.967152  0.109647  0.249649  1
  Sn  Sn32  1  0.288008  0.133243  0.748289  1
  Sn  Sn33  1  0.787960  0.369720  0.751279  1
  Sn  Sn34  1  0.711038  0.873313  0.250176  1
  Sn  Sn35  1  0.211926  0.625510  0.249649  1
