# generated using pymatgen
data_LaAg(WO4)2
_symmetry_space_group_name_H-M   'P 1'
_cell_length_a   7.69794386
_cell_length_b   7.69794360
_cell_length_c   7.47811116
_cell_angle_alpha   65.04276629
_cell_angle_beta   65.04276729
_cell_angle_gamma   94.51875619
_symmetry_Int_Tables_number   1
_chemical_formula_structural   LaAg(WO4)2
_chemical_formula_sum   'La2 Ag2 W4 O16'
_cell_volume   346.01018135
_cell_formula_units_Z   2
loop_
 _symmetry_equiv_pos_site_id
 _symmetry_equiv_pos_as_xyz
  1  'x, y, z'
loop_
 _atom_site_type_symbol
 _atom_site_label
 _atom_site_symmetry_multiplicity
 _atom_site_fract_x
 _atom_site_fract_y
 _atom_site_fract_z
 _atom_site_occupancy
  La  La0  1  0.703582  0.296418  0.000000  1
  La  La1  1  0.296418  0.703582  0.000000  1
  Ag  Ag2  1  0.693657  0.693657  0.479624  1
  Ag  Ag3  1  0.306343  0.306343  0.520376  1
  W  W4  1  0.157039  0.842961  0.500000  1
  W  W5  1  0.842961  0.157039  0.500000  1
  W  W6  1  0.783987  0.783987  0.975530  1
  W  W7  1  0.216013  0.216013  0.024470  1
  O  O8  1  0.897286  0.655128  0.763198  1
  O  O9  1  0.655128  0.897286  0.763198  1
  O  O10  1  0.102714  0.344872  0.236802  1
  O  O11  1  0.344872  0.102714  0.236802  1
  O  O12  1  0.796080  0.307032  0.637626  1
  O  O13  1  0.307032  0.796080  0.637626  1
  O  O14  1  0.203920  0.692968  0.362374  1
  O  O15  1  0.692968  0.203920  0.362374  1
  O  O16  1  0.444355  0.444355  0.850440  1
  O  O17  1  0.555645  0.555645  0.149560  1
  O  O18  1  0.054643  0.301205  0.905354  1
  O  O19  1  0.301205  0.054643  0.905354  1
  O  O20  1  0.945357  0.698795  0.094646  1
  O  O21  1  0.698795  0.945357  0.094646  1
  O  O22  1  0.018951  0.018951  0.659279  1
  O  O23  1  0.981049  0.981049  0.340721  1
