# generated using pymatgen
data_Fe2BMoO5
_symmetry_space_group_name_H-M   'P 1'
_cell_length_a   3.27684600
_cell_length_b   9.72258900
_cell_length_c   12.61866000
_cell_angle_alpha   90.00000000
_cell_angle_beta   90.00000000
_cell_angle_gamma   90.00000000
_symmetry_Int_Tables_number   1
_chemical_formula_structural   Fe2BMoO5
_chemical_formula_sum   'Fe8 B4 Mo4 O20'
_cell_volume   402.02327552
_cell_formula_units_Z   4
loop_
 _symmetry_equiv_pos_site_id
 _symmetry_equiv_pos_as_xyz
  1  'x, y, z'
loop_
 _atom_site_type_symbol
 _atom_site_label
 _atom_site_symmetry_multiplicity
 _atom_site_fract_x
 _atom_site_fract_y
 _atom_site_fract_z
 _atom_site_occupancy
  Fe  Fe0  1  0.500000  0.506344  0.221940  1
  Fe  Fe1  1  0.500000  0.493656  0.778060  1
  Fe  Fe2  1  0.500000  0.006344  0.278060  1
  Fe  Fe3  1  0.500000  0.993656  0.721940  1
  Fe  Fe4  1  0.500000  0.500000  0.500000  1
  Fe  Fe5  1  0.500000  0.000000  0.000000  1
  Fe  Fe6  1  0.000000  0.000000  0.500000  1
  Fe  Fe7  1  0.000000  0.500000  0.000000  1
  B  B8  1  0.000000  0.772804  0.137756  1
  B  B9  1  0.000000  0.227196  0.862244  1
  B  B10  1  0.000000  0.272804  0.362244  1
  B  B11  1  0.000000  0.727196  0.637756  1
  Mo  Mo12  1  0.000000  0.745696  0.385824  1
  Mo  Mo13  1  0.000000  0.254304  0.614176  1
  Mo  Mo14  1  0.000000  0.245696  0.114176  1
  Mo  Mo15  1  0.000000  0.754304  0.885824  1
  O  O16  1  0.000000  0.847388  0.043088  1
  O  O17  1  0.000000  0.152612  0.956912  1
  O  O18  1  0.000000  0.347388  0.456912  1
  O  O19  1  0.000000  0.652612  0.543088  1
  O  O20  1  0.500000  0.606550  0.360035  1
  O  O21  1  0.500000  0.393450  0.639965  1
  O  O22  1  0.500000  0.106550  0.139965  1
  O  O23  1  0.500000  0.893450  0.860035  1
  O  O24  1  0.000000  0.629646  0.138449  1
  O  O25  1  0.000000  0.370354  0.861551  1
  O  O26  1  0.000000  0.129646  0.361551  1
  O  O27  1  0.000000  0.870354  0.638449  1
  O  O28  1  0.500000  0.892193  0.416152  1
  O  O29  1  0.500000  0.107807  0.583848  1
  O  O30  1  0.500000  0.392193  0.083848  1
  O  O31  1  0.500000  0.607807  0.916152  1
  O  O32  1  0.000000  0.846447  0.232514  1
  O  O33  1  0.000000  0.153553  0.767486  1
  O  O34  1  0.000000  0.346447  0.267486  1
  O  O35  1  0.000000  0.653553  0.732514  1
