# generated using pymatgen
data_Sm3Mg(P3Rh4)2
_symmetry_space_group_name_H-M   'P 1'
_cell_length_a   3.97106500
_cell_length_b   11.31964600
_cell_length_c   12.92497600
_cell_angle_alpha   90.00000000
_cell_angle_beta   90.00000000
_cell_angle_gamma   90.00000000
_symmetry_Int_Tables_number   1
_chemical_formula_structural   Sm3Mg(P3Rh4)2
_chemical_formula_sum   'Sm6 Mg2 P12 Rh16'
_cell_volume   580.99124298
_cell_formula_units_Z   2
loop_
 _symmetry_equiv_pos_site_id
 _symmetry_equiv_pos_as_xyz
  1  'x, y, z'
loop_
 _atom_site_type_symbol
 _atom_site_label
 _atom_site_symmetry_multiplicity
 _atom_site_fract_x
 _atom_site_fract_y
 _atom_site_fract_z
 _atom_site_occupancy
  Sm  Sm0  1  0.000000  0.500000  0.520136  1
  Sm  Sm1  1  0.500000  0.000000  0.479864  1
  Sm  Sm2  1  0.500000  0.820714  0.205130  1
  Sm  Sm3  1  0.500000  0.179286  0.205130  1
  Sm  Sm4  1  0.000000  0.679286  0.794870  1
  Sm  Sm5  1  0.000000  0.320714  0.794870  1
  Mg  Mg6  1  0.500000  0.500000  0.158675  1
  Mg  Mg7  1  0.000000  0.000000  0.841325  1
  P  P8  1  0.500000  0.500000  0.882666  1
  P  P9  1  0.000000  0.000000  0.117334  1
  P  P10  1  0.500000  0.500000  0.353314  1
  P  P11  1  0.000000  0.000000  0.646686  1
  P  P12  1  0.500000  0.311810  0.616571  1
  P  P13  1  0.500000  0.688190  0.616571  1
  P  P14  1  0.000000  0.188190  0.383429  1
  P  P15  1  0.000000  0.811810  0.383429  1
  P  P16  1  0.500000  0.840164  0.891462  1
  P  P17  1  0.500000  0.159836  0.891462  1
  P  P18  1  0.000000  0.659836  0.108538  1
  P  P19  1  0.000000  0.340164  0.108538  1
  Rh  Rh20  1  0.500000  0.500000  0.703481  1
  Rh  Rh21  1  0.000000  0.000000  0.296519  1
  Rh  Rh22  1  0.000000  0.500000  0.986765  1
  Rh  Rh23  1  0.500000  0.000000  0.013235  1
  Rh  Rh24  1  0.500000  0.333043  0.997355  1
  Rh  Rh25  1  0.500000  0.666957  0.997355  1
  Rh  Rh26  1  0.000000  0.166957  0.002645  1
  Rh  Rh27  1  0.000000  0.833043  0.002645  1
  Rh  Rh28  1  0.500000  0.292162  0.431444  1
  Rh  Rh29  1  0.500000  0.707838  0.431444  1
  Rh  Rh30  1  0.000000  0.207838  0.568556  1
  Rh  Rh31  1  0.000000  0.792162  0.568556  1
  Rh  Rh32  1  0.500000  0.874484  0.709859  1
  Rh  Rh33  1  0.500000  0.125516  0.709859  1
  Rh  Rh34  1  0.000000  0.625516  0.290141  1
  Rh  Rh35  1  0.000000  0.374484  0.290141  1
