# generated using pymatgen
data_Nd2Mg3(ZnSi)3
_symmetry_space_group_name_H-M   'P 1'
_cell_length_a   7.87584000
_cell_length_b   7.87583905
_cell_length_c   4.09109200
_cell_angle_alpha   90.00000000
_cell_angle_beta   90.00000000
_cell_angle_gamma   119.99999558
_symmetry_Int_Tables_number   1
_chemical_formula_structural   Nd2Mg3(ZnSi)3
_chemical_formula_sum   'Nd2 Mg3 Zn3 Si3'
_cell_volume   219.76757411
_cell_formula_units_Z   1
loop_
 _symmetry_equiv_pos_site_id
 _symmetry_equiv_pos_as_xyz
  1  'x, y, z'
loop_
 _atom_site_type_symbol
 _atom_site_label
 _atom_site_symmetry_multiplicity
 _atom_site_fract_x
 _atom_site_fract_y
 _atom_site_fract_z
 _atom_site_occupancy
  Nd  Nd0  1  0.666667  0.333333  0.000000  1
  Nd  Nd1  1  0.333333  0.666667  0.000000  1
  Mg  Mg2  1  0.717618  0.000000  0.500000  1
  Mg  Mg3  1  0.000000  0.717618  0.500000  1
  Mg  Mg4  1  0.282382  0.282382  0.500000  1
  Zn  Zn5  1  0.196144  0.000000  0.000000  1
  Zn  Zn6  1  0.803856  0.803856  0.000000  1
  Zn  Zn7  1  0.000000  0.196144  0.000000  1
  Si  Si8  1  0.383292  0.000000  0.500000  1
  Si  Si9  1  0.616708  0.616708  0.500000  1
  Si  Si10  1  0.000000  0.383292  0.500000  1
