# generated using pymatgen
data_LaPrGa5Ir3
_symmetry_space_group_name_H-M   'P 1'
_cell_length_a   8.70288130
_cell_length_b   8.71220008
_cell_length_c   8.71220081
_cell_angle_alpha   140.73098377
_cell_angle_beta   107.95408992
_cell_angle_gamma   85.28522188
_symmetry_Int_Tables_number   1
_chemical_formula_structural   LaPrGa5Ir3
_chemical_formula_sum   'La2 Pr2 Ga10 Ir6'
_cell_volume   384.09475173
_cell_formula_units_Z   2
loop_
 _symmetry_equiv_pos_site_id
 _symmetry_equiv_pos_as_xyz
  1  'x, y, z'
loop_
 _atom_site_type_symbol
 _atom_site_label
 _atom_site_symmetry_multiplicity
 _atom_site_fract_x
 _atom_site_fract_y
 _atom_site_fract_z
 _atom_site_occupancy
  La  La0  1  0.865375  0.635579  0.229796  1
  La  La1  1  0.134625  0.364421  0.770204  1
  Pr  Pr2  1  0.404933  0.135324  0.269610  1
  Pr  Pr3  1  0.595067  0.864676  0.730390  1
  Ga  Ga4  1  0.500000  0.750310  0.250310  1
  Ga  Ga5  1  0.500000  0.249690  0.749690  1
  Ga  Ga6  1  0.210094  0.959490  0.751280  1
  Ga  Ga7  1  0.789906  0.541186  0.749396  1
  Ga  Ga8  1  0.789906  0.040510  0.248720  1
  Ga  Ga9  1  0.210094  0.458814  0.250604  1
  Ga  Ga10  1  0.074594  0.907206  0.167389  1
  Ga  Ga11  1  0.925406  0.092794  0.832611  1
  Ga  Ga12  1  0.738822  0.406544  0.332279  1
  Ga  Ga13  1  0.261178  0.593456  0.667721  1
  Ir  Ir14  1  0.000000  0.750381  0.750381  1
  Ir  Ir15  1  0.000000  0.249619  0.249619  1
  Ir  Ir16  1  0.255470  0.853374  0.402095  1
  Ir  Ir17  1  0.744530  0.146626  0.597905  1
  Ir  Ir18  1  0.451032  0.353429  0.097602  1
  Ir  Ir19  1  0.548968  0.646571  0.902398  1
