# generated using pymatgen
data_Pr4Sm2RhBr10
_symmetry_space_group_name_H-M   'P 1'
_cell_length_a   7.65394568
_cell_length_b   9.54812307
_cell_length_c   9.61325629
_cell_angle_alpha   108.84969243
_cell_angle_beta   106.37285925
_cell_angle_gamma   96.80060911
_symmetry_Int_Tables_number   1
_chemical_formula_structural   Pr4Sm2RhBr10
_chemical_formula_sum   'Pr4 Sm2 Rh1 Br10'
_cell_volume   620.69480827
_cell_formula_units_Z   1
loop_
 _symmetry_equiv_pos_site_id
 _symmetry_equiv_pos_as_xyz
  1  'x, y, z'
loop_
 _atom_site_type_symbol
 _atom_site_label
 _atom_site_symmetry_multiplicity
 _atom_site_fract_x
 _atom_site_fract_y
 _atom_site_fract_z
 _atom_site_occupancy
  Pr  Pr0  1  0.127735  0.757834  0.048691  1
  Pr  Pr1  1  0.628941  0.810095  0.856326  1
  Pr  Pr2  1  0.874330  0.242631  0.954198  1
  Pr  Pr3  1  0.978185  0.103681  0.309339  1
  Sm  Sm4  1  0.365480  0.184364  0.136768  1
  Sm  Sm5  1  0.026204  0.901234  0.698262  1
  Rh  Rh6  1  0.000112  0.999567  0.000565  1
  Br  Br7  1  0.446260  0.079986  0.826159  1
  Br  Br8  1  0.747948  0.541994  0.918009  1
  Br  Br9  1  0.256877  0.454002  0.084262  1
  Br  Br10  1  0.914876  0.165649  0.634396  1
  Br  Br11  1  0.645658  0.728434  0.539673  1
  Br  Br12  1  0.547927  0.923753  0.174327  1
  Br  Br13  1  0.086325  0.831579  0.372091  1
  Br  Br14  1  0.787536  0.350435  0.257161  1
  Br  Br15  1  0.194904  0.647769  0.736264  1
  Br  Br16  1  0.370702  0.276994  0.453510  1
