# generated using pymatgen
data_Nd20Si11As
_symmetry_space_group_name_H-M   'P 1'
_cell_length_a   7.76087500
_cell_length_b   7.76087500
_cell_length_c   14.20730600
_cell_angle_alpha   90.00000000
_cell_angle_beta   90.00000000
_cell_angle_gamma   90.00000000
_symmetry_Int_Tables_number   1
_chemical_formula_structural   Nd20Si11As
_chemical_formula_sum   'Nd20 Si11 As1'
_cell_volume   855.72281588
_cell_formula_units_Z   1
loop_
 _symmetry_equiv_pos_site_id
 _symmetry_equiv_pos_as_xyz
  1  'x, y, z'
loop_
 _atom_site_type_symbol
 _atom_site_label
 _atom_site_symmetry_multiplicity
 _atom_site_fract_x
 _atom_site_fract_y
 _atom_site_fract_z
 _atom_site_occupancy
  Nd  Nd0  1  0.318401  0.676056  0.107632  1
  Nd  Nd1  1  0.176056  0.181599  0.107632  1
  Nd  Nd2  1  0.500000  0.000000  0.738028  1
  Nd  Nd3  1  0.325850  0.683063  0.394485  1
  Nd  Nd4  1  0.675926  0.681955  0.892926  1
  Nd  Nd5  1  0.183063  0.174150  0.394485  1
  Nd  Nd6  1  0.674150  0.316937  0.394485  1
  Nd  Nd7  1  0.176142  0.818841  0.604807  1
  Nd  Nd8  1  0.324074  0.318045  0.892926  1
  Nd  Nd9  1  0.181955  0.824074  0.892926  1
  Nd  Nd10  1  0.500000  0.000000  0.243945  1
  Nd  Nd11  1  0.823858  0.181159  0.604807  1
  Nd  Nd12  1  0.318841  0.323858  0.604807  1
  Nd  Nd13  1  0.816937  0.825850  0.394485  1
  Nd  Nd14  1  0.818045  0.175926  0.892926  1
  Nd  Nd15  1  0.823944  0.818401  0.107632  1
  Nd  Nd16  1  0.000000  0.500000  0.269826  1
  Nd  Nd17  1  0.000000  0.500000  0.748490  1
  Nd  Nd18  1  0.681599  0.323944  0.107632  1
  Nd  Nd19  1  0.681159  0.676142  0.604807  1
  Si  Si20  1  0.114663  0.114913  0.750512  1
  Si  Si21  1  0.385087  0.614663  0.750512  1
  Si  Si22  1  0.614903  0.614870  0.249650  1
  Si  Si23  1  0.500000  0.000000  0.004921  1
  Si  Si24  1  0.114870  0.885097  0.249650  1
  Si  Si25  1  0.614913  0.385337  0.750512  1
  Si  Si26  1  0.885337  0.885087  0.750512  1
  Si  Si27  1  0.385097  0.385130  0.249650  1
  Si  Si28  1  0.885130  0.114903  0.249650  1
  Si  Si29  1  0.500000  0.000000  0.501832  1
  Si  Si30  1  0.000000  0.500000  0.499520  1
  As  As31  1  0.000000  0.500000  0.993395  1
