# generated using pymatgen
data_Dy4SnGeAs4Ir7
_symmetry_space_group_name_H-M   'P 1'
_cell_length_a   7.35224598
_cell_length_b   7.35224488
_cell_length_c   7.34969492
_cell_angle_alpha   108.90831818
_cell_angle_beta   109.56864878
_cell_angle_gamma   109.95231298
_symmetry_Int_Tables_number   1
_chemical_formula_structural   Dy4SnGeAs4Ir7
_chemical_formula_sum   'Dy4 Sn1 Ge1 As4 Ir7'
_cell_volume   305.75673969
_cell_formula_units_Z   1
loop_
 _symmetry_equiv_pos_site_id
 _symmetry_equiv_pos_as_xyz
  1  'x, y, z'
loop_
 _atom_site_type_symbol
 _atom_site_label
 _atom_site_symmetry_multiplicity
 _atom_site_fract_x
 _atom_site_fract_y
 _atom_site_fract_z
 _atom_site_occupancy
  Dy  Dy0  1  0.002683  0.000857  0.477522  1
  Dy  Dy1  1  0.003109  0.524504  0.002954  1
  Dy  Dy2  1  0.478452  0.999846  0.002954  1
  Dy  Dy3  1  0.476665  0.474839  0.477522  1
  Sn  Sn4  1  0.704985  0.998863  0.703849  1
  Ge  Ge5  1  0.992505  0.680483  0.672988  1
  As  As6  1  0.675244  0.680262  0.993096  1
  As  As7  1  0.336223  0.998448  0.334671  1
  As  As8  1  0.993507  0.326888  0.320394  1
  As  As9  1  0.312834  0.317852  0.993096  1
  Ir  Ir10  1  0.753361  0.256523  0.503585  1
  Ir  Ir11  1  0.745973  0.502545  0.248518  1
  Ir  Ir12  1  0.499940  0.254173  0.754114  1
  Ir  Ir13  1  0.247571  0.502483  0.750053  1
  Ir  Ir14  1  0.247064  0.750225  0.503585  1
  Ir  Ir15  1  0.501403  0.746605  0.248008  1
  Ir  Ir16  1  0.028482  0.984604  0.013087  1
