# generated using pymatgen
data_La3Er(ZnSi3)2
_symmetry_space_group_name_H-M   'P 1'
_cell_length_a   4.25368800
_cell_length_b   4.24919100
_cell_length_c   14.05762600
_cell_angle_alpha   90.00000000
_cell_angle_beta   90.00000000
_cell_angle_gamma   90.00000000
_symmetry_Int_Tables_number   1
_chemical_formula_structural   La3Er(ZnSi3)2
_chemical_formula_sum   'La3 Er1 Zn2 Si6'
_cell_volume   254.08783328
_cell_formula_units_Z   1
loop_
 _symmetry_equiv_pos_site_id
 _symmetry_equiv_pos_as_xyz
  1  'x, y, z'
loop_
 _atom_site_type_symbol
 _atom_site_label
 _atom_site_symmetry_multiplicity
 _atom_site_fract_x
 _atom_site_fract_y
 _atom_site_fract_z
 _atom_site_occupancy
  La  La0  1  0.000000  0.000000  0.504976  1
  La  La1  1  0.500000  0.000000  0.749635  1
  La  La2  1  0.000000  0.500000  0.243197  1
  Er  Er3  1  0.500000  0.500000  0.005072  1
  Zn  Zn4  1  0.000000  0.000000  0.917302  1
  Zn  Zn5  1  0.500000  0.500000  0.415069  1
  Si  Si6  1  0.000000  0.500000  0.837073  1
  Si  Si7  1  0.500000  0.000000  0.330104  1
  Si  Si8  1  0.000000  0.000000  0.081898  1
  Si  Si9  1  0.500000  0.500000  0.585854  1
  Si  Si10  1  0.500000  0.000000  0.161425  1
  Si  Si11  1  0.000000  0.500000  0.668393  1
