# generated using pymatgen
data_Er3Lu3Bi2W
_symmetry_space_group_name_H-M   'P 1'
_cell_length_a   8.15705700
_cell_length_b   8.15705588
_cell_length_c   4.36490100
_cell_angle_alpha   90.00000000
_cell_angle_beta   90.00000000
_cell_angle_gamma   120.00000860
_symmetry_Int_Tables_number   1
_chemical_formula_structural   Er3Lu3Bi2W
_chemical_formula_sum   'Er3 Lu3 Bi2 W1'
_cell_volume   251.51965378
_cell_formula_units_Z   1
loop_
 _symmetry_equiv_pos_site_id
 _symmetry_equiv_pos_as_xyz
  1  'x, y, z'
loop_
 _atom_site_type_symbol
 _atom_site_label
 _atom_site_symmetry_multiplicity
 _atom_site_fract_x
 _atom_site_fract_y
 _atom_site_fract_z
 _atom_site_occupancy
  Er  Er0  1  0.613568  0.000000  0.000000  1
  Er  Er1  1  0.000000  0.613568  0.000000  1
  Er  Er2  1  0.386432  0.386432  0.000000  1
  Lu  Lu3  1  0.233714  0.000000  0.500000  1
  Lu  Lu4  1  0.000000  0.233714  0.500000  1
  Lu  Lu5  1  0.766286  0.766286  0.500000  1
  Bi  Bi6  1  0.333333  0.666667  0.500000  1
  Bi  Bi7  1  0.666667  0.333333  0.500000  1
  W  W8  1  0.000000  0.000000  0.000000  1
