# generated using pymatgen
data_SrLiSm3Al17Pd6
_symmetry_space_group_name_H-M   'P 1'
_cell_length_a   7.67746899
_cell_length_b   7.67406095
_cell_length_c   9.60538400
_cell_angle_alpha   90.00000000
_cell_angle_beta   90.00000000
_cell_angle_gamma   119.20651583
_symmetry_Int_Tables_number   1
_chemical_formula_structural   SrLiSm3Al17Pd6
_chemical_formula_sum   'Sr1 Li1 Sm3 Al17 Pd6'
_cell_volume   493.97607833
_cell_formula_units_Z   1
loop_
 _symmetry_equiv_pos_site_id
 _symmetry_equiv_pos_as_xyz
  1  'x, y, z'
loop_
 _atom_site_type_symbol
 _atom_site_label
 _atom_site_symmetry_multiplicity
 _atom_site_fract_x
 _atom_site_fract_y
 _atom_site_fract_z
 _atom_site_occupancy
  Sr  Sr0  1  0.008893  0.328999  0.750000  1
  Li  Li1  1  0.129715  0.129071  0.250000  1
  Sm  Sm2  1  0.994877  0.662576  0.250000  1
  Sm  Sm3  1  0.666253  0.996570  0.250000  1
  Sm  Sm4  1  0.327446  0.006499  0.750000  1
  Al  Al5  1  0.864716  0.859916  0.750000  1
  Al  Al6  1  0.003408  0.328836  0.082010  1
  Al  Al7  1  0.997784  0.665600  0.928091  1
  Al  Al8  1  0.997784  0.665600  0.571909  1
  Al  Al9  1  0.328613  0.001928  0.417886  1
  Al  Al10  1  0.003408  0.328836  0.417990  1
  Al  Al11  1  0.663931  0.997806  0.572126  1
  Al  Al12  1  0.663931  0.997806  0.927874  1
  Al  Al13  1  0.328613  0.001928  0.082114  1
  Al  Al14  1  0.337784  0.336527  0.536189  1
  Al  Al15  1  0.671406  0.671386  0.439223  1
  Al  Al16  1  0.671406  0.671386  0.060777  1
  Al  Al17  1  0.337784  0.336527  0.963811  1
  Al  Al18  1  0.341308  0.543040  0.250000  1
  Al  Al19  1  0.650492  0.451263  0.750000  1
  Al  Al20  1  0.540301  0.341036  0.250000  1
  Al  Al21  1  0.458254  0.665529  0.750000  1
  Pd  Pd22  1  0.674709  0.330432  0.002229  1
  Pd  Pd23  1  0.331606  0.676578  0.001707  1
  Pd  Pd24  1  0.331606  0.676578  0.498293  1
  Pd  Pd25  1  0.674709  0.330432  0.497771  1
  Pd  Pd26  1  0.999631  0.998654  0.995078  1
  Pd  Pd27  1  0.999631  0.998654  0.504922  1
