# generated using pymatgen
data_TbZr2IrF15
_symmetry_space_group_name_H-M   'P 1'
_cell_length_a   8.17020513
_cell_length_b   8.17020450
_cell_length_c   8.15690837
_cell_angle_alpha   79.80074784
_cell_angle_beta   79.80074860
_cell_angle_gamma   99.71411057
_symmetry_Int_Tables_number   1
_chemical_formula_structural   TbZr2IrF15
_chemical_formula_sum   'Tb2 Zr4 Ir2 F30'
_cell_volume   516.04498128
_cell_formula_units_Z   2
loop_
 _symmetry_equiv_pos_site_id
 _symmetry_equiv_pos_as_xyz
  1  'x, y, z'
loop_
 _atom_site_type_symbol
 _atom_site_label
 _atom_site_symmetry_multiplicity
 _atom_site_fract_x
 _atom_site_fract_y
 _atom_site_fract_z
 _atom_site_occupancy
  Tb  Tb0  1  0.176455  0.823545  0.250000  1
  Tb  Tb1  1  0.823545  0.176455  0.750000  1
  Zr  Zr2  1  0.745979  0.677144  0.673596  1
  Zr  Zr3  1  0.322856  0.254021  0.826404  1
  Zr  Zr4  1  0.254021  0.322856  0.326404  1
  Zr  Zr5  1  0.677144  0.745979  0.173596  1
  Ir  Ir6  1  0.749459  0.250541  0.250000  1
  Ir  Ir7  1  0.250541  0.749459  0.750000  1
  F  F8  1  0.314054  0.350265  0.054894  1
  F  F9  1  0.934352  0.811476  0.152002  1
  F  F10  1  0.841763  0.459992  0.686286  1
  F  F11  1  0.459992  0.841763  0.186286  1
  F  F12  1  0.811476  0.934352  0.652002  1
  F  F13  1  0.350265  0.314054  0.554893  1
  F  F14  1  0.685946  0.649735  0.945106  1
  F  F15  1  0.065648  0.188524  0.847998  1
  F  F16  1  0.158237  0.540008  0.313714  1
  F  F17  1  0.540008  0.158237  0.813714  1
  F  F18  1  0.188524  0.065648  0.347998  1
  F  F19  1  0.649735  0.685946  0.445106  1
  F  F20  1  0.772996  0.283020  0.003647  1
  F  F21  1  0.998685  0.274122  0.213695  1
  F  F22  1  0.784144  0.502284  0.223710  1
  F  F23  1  0.502284  0.784144  0.723710  1
  F  F24  1  0.274122  0.998685  0.713695  1
  F  F25  1  0.283020  0.772996  0.503647  1
  F  F26  1  0.227004  0.716980  0.996353  1
  F  F27  1  0.001315  0.725878  0.786305  1
  F  F28  1  0.215856  0.497716  0.776290  1
  F  F29  1  0.497716  0.215856  0.276290  1
  F  F30  1  0.725878  0.001315  0.286305  1
  F  F31  1  0.716980  0.227004  0.496353  1
  F  F32  1  0.470326  0.529674  0.250000  1
  F  F33  1  0.745361  0.954543  0.973823  1
  F  F34  1  0.045457  0.254639  0.526177  1
  F  F35  1  0.254639  0.045457  0.026177  1
  F  F36  1  0.954543  0.745361  0.473823  1
  F  F37  1  0.529674  0.470326  0.750000  1
