# generated using pymatgen
data_Li8Zr3MnBr24
_symmetry_space_group_name_H-M   'P 1'
_cell_length_a   6.73195200
_cell_length_b   6.73195298
_cell_length_c   28.19443500
_cell_angle_alpha   90.00000000
_cell_angle_beta   90.00000000
_cell_angle_gamma   120.00000503
_symmetry_Int_Tables_number   1
_chemical_formula_structural   Li8Zr3MnBr24
_chemical_formula_sum   'Li8 Zr3 Mn1 Br24'
_cell_volume   1106.56286115
_cell_formula_units_Z   1
loop_
 _symmetry_equiv_pos_site_id
 _symmetry_equiv_pos_as_xyz
  1  'x, y, z'
loop_
 _atom_site_type_symbol
 _atom_site_label
 _atom_site_symmetry_multiplicity
 _atom_site_fract_x
 _atom_site_fract_y
 _atom_site_fract_z
 _atom_site_occupancy
  Li  Li0  1  0.000000  0.000000  0.249361  1
  Li  Li1  1  0.000000  0.000000  0.750639  1
  Li  Li2  1  0.333333  0.666667  0.999527  1
  Li  Li3  1  0.333333  0.666667  0.500450  1
  Li  Li4  1  0.333333  0.666667  0.249643  1
  Li  Li5  1  0.666667  0.333333  0.750357  1
  Li  Li6  1  0.666667  0.333333  0.000473  1
  Li  Li7  1  0.666667  0.333333  0.499550  1
  Zr  Zr8  1  0.000000  0.000000  0.500000  1
  Zr  Zr9  1  0.333333  0.666667  0.750809  1
  Zr  Zr10  1  0.666667  0.333333  0.249191  1
  Mn  Mn11  1  0.000000  0.000000  0.000000  1
  Br  Br12  1  0.344696  0.011691  0.303684  1
  Br  Br13  1  0.334522  0.988995  0.805129  1
  Br  Br14  1  0.000846  0.300797  0.050563  1
  Br  Br15  1  0.998844  0.321194  0.554381  1
  Br  Br16  1  0.988309  0.333006  0.303684  1
  Br  Br17  1  0.011005  0.345526  0.805129  1
  Br  Br18  1  0.345526  0.334522  0.194871  1
  Br  Br19  1  0.333006  0.344696  0.696316  1
  Br  Br20  1  0.321194  0.322349  0.445619  1
  Br  Br21  1  0.300797  0.299952  0.949437  1
  Br  Br22  1  0.677651  0.998844  0.445619  1
  Br  Br23  1  0.299952  0.999154  0.050563  1
  Br  Br24  1  0.322349  0.001156  0.554381  1
  Br  Br25  1  0.699203  0.700048  0.050563  1
  Br  Br26  1  0.678806  0.677651  0.554381  1
  Br  Br27  1  0.666994  0.655304  0.303684  1
  Br  Br28  1  0.654474  0.665478  0.805129  1
  Br  Br29  1  0.988995  0.654474  0.194871  1
  Br  Br30  1  0.011691  0.666994  0.696316  1
  Br  Br31  1  0.001156  0.678806  0.445619  1
  Br  Br32  1  0.999154  0.699203  0.949437  1
  Br  Br33  1  0.700048  0.000846  0.949437  1
  Br  Br34  1  0.665478  0.011005  0.194871  1
  Br  Br35  1  0.655304  0.988309  0.696316  1
