# generated using pymatgen
data_SmEu3Si10PdPt5
_symmetry_space_group_name_H-M   'P 1'
_cell_length_a   8.28593631
_cell_length_b   8.28838985
_cell_length_c   8.28836626
_cell_angle_alpha   137.42004935
_cell_angle_beta   105.00078089
_cell_angle_gamma   90.26306901
_symmetry_Int_Tables_number   1
_chemical_formula_structural   SmEu3Si10PdPt5
_chemical_formula_sum   'Sm1 Eu3 Si10 Pd1 Pt5'
_cell_volume   355.04366681
_cell_formula_units_Z   1
loop_
 _symmetry_equiv_pos_site_id
 _symmetry_equiv_pos_as_xyz
  1  'x, y, z'
loop_
 _atom_site_type_symbol
 _atom_site_label
 _atom_site_symmetry_multiplicity
 _atom_site_fract_x
 _atom_site_fract_y
 _atom_site_fract_z
 _atom_site_occupancy
  Sm  Sm0  1  0.896021  0.627933  0.266539  1
  Eu  Eu1  1  0.637419  0.871501  0.767446  1
  Eu  Eu2  1  0.362314  0.129622  0.233919  1
  Eu  Eu3  1  0.104864  0.370571  0.732857  1
  Si  Si4  1  0.271491  0.022007  0.750236  1
  Si  Si5  1  0.727304  0.977774  0.249413  1
  Si  Si6  1  0.727862  0.478606  0.749663  1
  Si  Si7  1  0.272087  0.521489  0.249359  1
  Si  Si8  1  0.460758  0.613131  0.849397  1
  Si  Si9  1  0.539367  0.388782  0.151892  1
  Si  Si10  1  0.762159  0.111387  0.649577  1
  Si  Si11  1  0.237130  0.886627  0.348791  1
  Si  Si12  1  0.000179  0.751228  0.751598  1
  Si  Si13  1  0.000341  0.248692  0.249067  1
  Pd  Pd14  1  0.501553  0.251451  0.752170  1
  Pt  Pt15  1  0.245909  0.636283  0.610200  1
  Pt  Pt16  1  0.753317  0.364967  0.389027  1
  Pt  Pt17  1  0.023777  0.136150  0.887100  1
  Pt  Pt18  1  0.974470  0.862333  0.111637  1
  Pt  Pt19  1  0.501678  0.749465  0.250113  1
