# generated using pymatgen
data_CaYbAl20Ir3Os
_symmetry_space_group_name_H-M   'P 1'
_cell_length_a   6.87365554
_cell_length_b   6.88406817
_cell_length_c   9.15319407
_cell_angle_alpha   89.92979019
_cell_angle_beta   89.88030466
_cell_angle_gamma   96.64256375
_symmetry_Int_Tables_number   1
_chemical_formula_structural   CaYbAl20Ir3Os
_chemical_formula_sum   'Ca1 Yb1 Al20 Ir3 Os1'
_cell_volume   430.20848784
_cell_formula_units_Z   1
loop_
 _symmetry_equiv_pos_site_id
 _symmetry_equiv_pos_as_xyz
  1  'x, y, z'
loop_
 _atom_site_type_symbol
 _atom_site_label
 _atom_site_symmetry_multiplicity
 _atom_site_fract_x
 _atom_site_fract_y
 _atom_site_fract_z
 _atom_site_occupancy
  Ca  Ca0  1  0.627118  0.374341  0.749559  1
  Yb  Yb1  1  0.372344  0.625959  0.250565  1
  Al  Al2  1  0.276575  0.019026  0.750241  1
  Al  Al3  1  0.019400  0.279639  0.252409  1
  Al  Al4  1  0.722937  0.980888  0.249749  1
  Al  Al5  1  0.980737  0.720796  0.747513  1
  Al  Al6  1  0.878519  0.122189  0.950619  1
  Al  Al7  1  0.121715  0.877610  0.050547  1
  Al  Al8  1  0.879090  0.124066  0.548205  1
  Al  Al9  1  0.121154  0.875817  0.450681  1
  Al  Al10  1  0.647237  0.915994  0.749783  1
  Al  Al11  1  0.916160  0.646675  0.250809  1
  Al  Al12  1  0.352459  0.083561  0.250185  1
  Al  Al13  1  0.084261  0.353606  0.749088  1
  Al  Al14  1  0.343397  0.657133  0.897328  1
  Al  Al15  1  0.656375  0.343086  0.103417  1
  Al  Al16  1  0.342397  0.655741  0.600560  1
  Al  Al17  1  0.657406  0.344521  0.398755  1
  Al  Al18  1  0.723175  0.722755  0.000736  1
  Al  Al19  1  0.723028  0.721471  0.500958  1
  Al  Al20  1  0.276759  0.277314  0.000240  1
  Al  Al21  1  0.276977  0.278515  0.498195  1
  Ir  Ir22  1  0.499740  0.999361  0.000254  1
  Ir  Ir23  1  0.000670  0.500310  0.000283  1
  Ir  Ir24  1  0.499714  0.999319  0.499681  1
  Os  Os25  1  0.000657  0.500309  0.499640  1
