# generated using pymatgen
data_Hf4Ru10PtRhC3
_symmetry_space_group_name_H-M   'P 1'
_cell_length_a   4.06198200
_cell_length_b   4.07366200
_cell_length_c   16.12412200
_cell_angle_alpha   90.00000000
_cell_angle_beta   90.00000000
_cell_angle_gamma   90.00000000
_symmetry_Int_Tables_number   1
_chemical_formula_structural   Hf4Ru10PtRhC3
_chemical_formula_sum   'Hf4 Ru10 Pt1 Rh1 C3'
_cell_volume   266.80813181
_cell_formula_units_Z   1
loop_
 _symmetry_equiv_pos_site_id
 _symmetry_equiv_pos_as_xyz
  1  'x, y, z'
loop_
 _atom_site_type_symbol
 _atom_site_label
 _atom_site_symmetry_multiplicity
 _atom_site_fract_x
 _atom_site_fract_y
 _atom_site_fract_z
 _atom_site_occupancy
  Hf  Hf0  1  0.000000  0.000000  0.879912  1
  Hf  Hf1  1  0.000000  0.000000  0.120088  1
  Hf  Hf2  1  0.000000  0.000000  0.373476  1
  Hf  Hf3  1  0.000000  0.000000  0.626524  1
  Ru  Ru4  1  0.500000  0.500000  0.879316  1
  Ru  Ru5  1  0.500000  0.500000  0.120684  1
  Ru  Ru6  1  0.500000  0.500000  0.373461  1
  Ru  Ru7  1  0.500000  0.500000  0.626539  1
  Ru  Ru8  1  0.500000  0.000000  0.249334  1
  Ru  Ru9  1  0.500000  0.000000  0.500000  1
  Ru  Ru10  1  0.500000  0.000000  0.750666  1
  Ru  Ru11  1  0.000000  0.500000  0.248756  1
  Ru  Ru12  1  0.000000  0.500000  0.500000  1
  Ru  Ru13  1  0.000000  0.500000  0.751244  1
  Pt  Pt14  1  0.000000  0.500000  0.000000  1
  Rh  Rh15  1  0.500000  0.000000  0.000000  1
  C  C16  1  0.500000  0.500000  0.242183  1
  C  C17  1  0.500000  0.500000  0.500000  1
  C  C18  1  0.500000  0.500000  0.757817  1
