# generated using pymatgen
data_Zr8Ta5Si16Mo7
_symmetry_space_group_name_H-M   'P 1'
_cell_length_a   6.77142315
_cell_length_b   6.77578281
_cell_length_c   12.60262200
_cell_angle_alpha   90.11478980
_cell_angle_beta   89.96667897
_cell_angle_gamma   90.01423895
_symmetry_Int_Tables_number   1
_chemical_formula_structural   Zr8Ta5Si16Mo7
_chemical_formula_sum   'Zr8 Ta5 Si16 Mo7'
_cell_volume   578.22835158
_cell_formula_units_Z   1
loop_
 _symmetry_equiv_pos_site_id
 _symmetry_equiv_pos_as_xyz
  1  'x, y, z'
loop_
 _atom_site_type_symbol
 _atom_site_label
 _atom_site_symmetry_multiplicity
 _atom_site_fract_x
 _atom_site_fract_y
 _atom_site_fract_z
 _atom_site_occupancy
  Zr  Zr0  1  0.004998  0.661799  0.031835  1
  Zr  Zr1  1  0.994951  0.338181  0.530986  1
  Zr  Zr2  1  0.662289  0.003030  0.968402  1
  Zr  Zr3  1  0.162326  0.493141  0.781674  1
  Zr  Zr4  1  0.837865  0.507046  0.281889  1
  Zr  Zr5  1  0.493578  0.161347  0.218897  1
  Zr  Zr6  1  0.506770  0.835785  0.718324  1
  Zr  Zr7  1  0.338871  0.992513  0.468031  1
  Ta  Ta8  1  0.666335  0.667516  0.498843  1
  Ta  Ta9  1  0.834210  0.167320  0.749929  1
  Ta  Ta10  1  0.166474  0.833485  0.250718  1
  Ta  Ta11  1  0.332984  0.333208  0.000357  1
  Ta  Ta12  1  0.660059  0.497871  0.876717  1
  Si  Si13  1  0.038762  0.709107  0.437621  1
  Si  Si14  1  0.961114  0.291452  0.938766  1
  Si  Si15  1  0.708530  0.039309  0.562198  1
  Si  Si16  1  0.208579  0.461281  0.188077  1
  Si  Si17  1  0.795476  0.541841  0.685200  1
  Si  Si18  1  0.459049  0.201825  0.812502  1
  Si  Si19  1  0.538215  0.790537  0.311843  1
  Si  Si20  1  0.291616  0.961124  0.063031  1
  Si  Si21  1  0.791867  0.873248  0.177147  1
  Si  Si22  1  0.292558  0.626689  0.572774  1
  Si  Si23  1  0.708529  0.371702  0.074276  1
  Si  Si24  1  0.626725  0.291956  0.427225  1
  Si  Si25  1  0.367684  0.711071  0.927039  1
  Si  Si26  1  0.126757  0.208204  0.323555  1
  Si  Si27  1  0.208597  0.128253  0.676576  1
  Si  Si28  1  0.875057  0.793054  0.821951  1
  Mo  Mo29  1  0.335109  0.499223  0.379874  1
  Mo  Mo30  1  0.835282  0.000498  0.370443  1
  Mo  Mo31  1  0.000716  0.163005  0.129393  1
  Mo  Mo32  1  0.002745  0.837964  0.628390  1
  Mo  Mo33  1  0.502187  0.338241  0.623764  1
  Mo  Mo34  1  0.162908  0.002796  0.871895  1
  Mo  Mo35  1  0.500230  0.665381  0.119856  1
