# generated using pymatgen
data_Ba2Ga4IrPt3
_symmetry_space_group_name_H-M   'P 1'
_cell_length_a   6.57534860
_cell_length_b   8.30840159
_cell_length_c   8.61522064
_cell_angle_alpha   84.80312673
_cell_angle_beta   89.46974206
_cell_angle_gamma   90.19342968
_symmetry_Int_Tables_number   1
_chemical_formula_structural   Ba2Ga4IrPt3
_chemical_formula_sum   'Ba4 Ga8 Ir2 Pt6'
_cell_volume   468.69601830
_cell_formula_units_Z   2
loop_
 _symmetry_equiv_pos_site_id
 _symmetry_equiv_pos_as_xyz
  1  'x, y, z'
loop_
 _atom_site_type_symbol
 _atom_site_label
 _atom_site_symmetry_multiplicity
 _atom_site_fract_x
 _atom_site_fract_y
 _atom_site_fract_z
 _atom_site_occupancy
  Ba  Ba0  1  0.889463  0.507880  0.762562  1
  Ba  Ba1  1  0.386658  0.993610  0.236299  1
  Ba  Ba2  1  0.613342  0.006390  0.763701  1
  Ba  Ba3  1  0.110537  0.492120  0.237438  1
  Ga  Ga4  1  0.849137  0.811856  0.441272  1
  Ga  Ga5  1  0.071489  0.873018  0.919943  1
  Ga  Ga6  1  0.655027  0.306950  0.439137  1
  Ga  Ga7  1  0.150863  0.188144  0.558728  1
  Ga  Ga8  1  0.578546  0.625745  0.073772  1
  Ga  Ga9  1  0.928511  0.126982  0.080057  1
  Ga  Ga10  1  0.344973  0.693050  0.560863  1
  Ga  Ga11  1  0.421454  0.374255  0.926228  1
  Ir  Ir12  1  0.902084  0.106035  0.373361  1
  Ir  Ir13  1  0.097916  0.893965  0.626639  1
  Pt  Pt14  1  0.168225  0.173730  0.853464  1
  Pt  Pt15  1  0.400347  0.394712  0.626889  1
  Pt  Pt16  1  0.332864  0.673849  0.855461  1
  Pt  Pt17  1  0.831775  0.826270  0.146536  1
  Pt  Pt18  1  0.667136  0.326151  0.144539  1
  Pt  Pt19  1  0.599653  0.605288  0.373111  1
