# generated using pymatgen
data_Tm2Sc3Co9As7
_symmetry_space_group_name_H-M   'P 1'
_cell_length_a   3.80419600
_cell_length_b   9.64915494
_cell_length_c   9.64915500
_cell_angle_alpha   120.00000363
_cell_angle_beta   90.00000000
_cell_angle_gamma   90.00000000
_symmetry_Int_Tables_number   1
_chemical_formula_structural   Tm2Sc3Co9As7
_chemical_formula_sum   'Tm2 Sc3 Co9 As7'
_cell_volume   306.74116550
_cell_formula_units_Z   1
loop_
 _symmetry_equiv_pos_site_id
 _symmetry_equiv_pos_as_xyz
  1  'x, y, z'
loop_
 _atom_site_type_symbol
 _atom_site_label
 _atom_site_symmetry_multiplicity
 _atom_site_fract_x
 _atom_site_fract_y
 _atom_site_fract_z
 _atom_site_occupancy
  Tm  Tm0  1  0.000000  0.666667  0.333333  1
  Tm  Tm1  1  0.500000  0.333333  0.666667  1
  Sc  Sc2  1  0.500000  0.770061  0.887709  1
  Sc  Sc3  1  0.500000  0.117647  0.229939  1
  Sc  Sc4  1  0.500000  0.112291  0.882353  1
  Co  Co5  1  0.000000  0.575221  0.939624  1
  Co  Co6  1  0.000000  0.364403  0.424779  1
  Co  Co7  1  0.000000  0.060376  0.635597  1
  Co  Co8  1  0.000000  0.876422  0.167201  1
  Co  Co9  1  0.000000  0.290779  0.123578  1
  Co  Co10  1  0.000000  0.832799  0.709221  1
  Co  Co11  1  0.500000  0.949532  0.393777  1
  Co  Co12  1  0.500000  0.444244  0.050468  1
  Co  Co13  1  0.500000  0.606223  0.555756  1
  As  As14  1  0.000000  0.000000  0.000000  1
  As  As15  1  0.500000  0.714871  0.131902  1
  As  As16  1  0.500000  0.417032  0.285129  1
  As  As17  1  0.500000  0.868098  0.582968  1
  As  As18  1  0.000000  0.573275  0.685453  1
  As  As19  1  0.000000  0.112177  0.426725  1
  As  As20  1  0.000000  0.314547  0.887823  1
