# generated using pymatgen
data_Sc2(PSe3)3
_symmetry_space_group_name_H-M   'P 1'
_cell_length_a   6.48117202
_cell_length_b   8.18853454
_cell_length_c   15.32362448
_cell_angle_alpha   91.73728049
_cell_angle_beta   102.20794570
_cell_angle_gamma   90.07473826
_symmetry_Int_Tables_number   1
_chemical_formula_structural   Sc2(PSe3)3
_chemical_formula_sum   'Sc4 P6 Se18'
_cell_volume   794.46430773
_cell_formula_units_Z   2
loop_
 _symmetry_equiv_pos_site_id
 _symmetry_equiv_pos_as_xyz
  1  'x, y, z'
loop_
 _atom_site_type_symbol
 _atom_site_label
 _atom_site_symmetry_multiplicity
 _atom_site_fract_x
 _atom_site_fract_y
 _atom_site_fract_z
 _atom_site_occupancy
  Sc  Sc0  1  0.557188  0.618867  0.115000  1
  Sc  Sc1  1  0.218853  0.941206  0.438545  1
  Sc  Sc2  1  0.442812  0.381133  0.885000  1
  Sc  Sc3  1  0.781147  0.058794  0.561455  1
  P  P4  1  0.325831  0.285593  0.635173  1
  P  P5  1  0.967292  0.617945  0.965866  1
  P  P6  1  0.655548  0.953690  0.296856  1
  P  P7  1  0.344452  0.046310  0.703144  1
  P  P8  1  0.032708  0.382055  0.034134  1
  P  P9  1  0.674169  0.714407  0.364827  1
  Se  Se10  1  0.144310  0.206082  0.943631  1
  Se  Se11  1  0.790686  0.535898  0.278788  1
  Se  Se12  1  0.467480  0.874495  0.606483  1
  Se  Se13  1  0.701983  0.320827  0.052859  1
  Se  Se14  1  0.364344  0.653432  0.391509  1
  Se  Se15  1  0.028145  0.968944  0.715360  1
  Se  Se16  1  0.256880  0.427095  0.161866  1
  Se  Se17  1  0.912444  0.764221  0.495071  1
  Se  Se18  1  0.567932  0.080884  0.830350  1
  Se  Se19  1  0.855690  0.793918  0.056369  1
  Se  Se20  1  0.532520  0.125505  0.393517  1
  Se  Se21  1  0.209314  0.464102  0.721212  1
  Se  Se22  1  0.298017  0.679173  0.947141  1
  Se  Se23  1  0.971855  0.031056  0.284640  1
  Se  Se24  1  0.635656  0.346568  0.608491  1
  Se  Se25  1  0.743120  0.572905  0.838134  1
  Se  Se26  1  0.432068  0.919116  0.169650  1
  Se  Se27  1  0.087556  0.235779  0.504929  1
