# generated using pymatgen
data_RbPuMnTe3
_symmetry_space_group_name_H-M   'P 1'
_cell_length_a   8.46929776
_cell_length_b   8.46929754
_cell_length_c   11.89065800
_cell_angle_alpha   90.00000000
_cell_angle_beta   90.00000000
_cell_angle_gamma   149.03791642
_symmetry_Int_Tables_number   1
_chemical_formula_structural   RbPuMnTe3
_chemical_formula_sum   'Rb2 Pu2 Mn2 Te6'
_cell_volume   438.79466810
_cell_formula_units_Z   2
loop_
 _symmetry_equiv_pos_site_id
 _symmetry_equiv_pos_as_xyz
  1  'x, y, z'
loop_
 _atom_site_type_symbol
 _atom_site_label
 _atom_site_symmetry_multiplicity
 _atom_site_fract_x
 _atom_site_fract_y
 _atom_site_fract_z
 _atom_site_occupancy
  Rb  Rb0  1  0.254921  0.745079  0.250000  1
  Rb  Rb1  1  0.745079  0.254921  0.750000  1
  Pu  Pu2  1  0.000000  0.000000  0.500000  1
  Pu  Pu3  1  0.000000  0.000000  0.000000  1
  Mn  Mn4  1  0.533874  0.466126  0.250000  1
  Mn  Mn5  1  0.466126  0.533874  0.750000  1
  Te  Te6  1  0.625464  0.374536  0.439096  1
  Te  Te7  1  0.374536  0.625464  0.560904  1
  Te  Te8  1  0.625464  0.374536  0.060904  1
  Te  Te9  1  0.374536  0.625464  0.939096  1
  Te  Te10  1  0.936259  0.063741  0.250000  1
  Te  Te11  1  0.063741  0.936259  0.750000  1
