# generated using pymatgen
data_Dy2Y2Al24IrPt8
_symmetry_space_group_name_H-M   'P 1'
_cell_length_a   7.52005883
_cell_length_b   7.54371491
_cell_length_c   13.17102022
_cell_angle_alpha   84.61767455
_cell_angle_beta   79.10855297
_cell_angle_gamma   59.90691417
_symmetry_Int_Tables_number   1
_chemical_formula_structural   Dy2Y2Al24IrPt8
_chemical_formula_sum   'Dy2 Y2 Al24 Ir1 Pt8'
_cell_volume   634.82477142
_cell_formula_units_Z   1
loop_
 _symmetry_equiv_pos_site_id
 _symmetry_equiv_pos_as_xyz
  1  'x, y, z'
loop_
 _atom_site_type_symbol
 _atom_site_label
 _atom_site_symmetry_multiplicity
 _atom_site_fract_x
 _atom_site_fract_y
 _atom_site_fract_z
 _atom_site_occupancy
  Dy  Dy0  1  0.733855  0.498466  0.808654  1
  Dy  Dy1  1  0.266145  0.501534  0.191346  1
  Y  Y2  1  0.393447  0.168430  0.808792  1
  Y  Y3  1  0.606553  0.831570  0.191208  1
  Al  Al4  1  0.686927  0.830709  0.945570  1
  Al  Al5  1  0.313073  0.169291  0.054430  1
  Al  Al6  1  0.146669  0.832146  0.561649  1
  Al  Al7  1  0.853331  0.167854  0.438351  1
  Al  Al8  1  0.480010  0.166733  0.558977  1
  Al  Al9  1  0.519990  0.833267  0.441023  1
  Al  Al10  1  0.217214  0.165092  0.328842  1
  Al  Al11  1  0.782786  0.834908  0.671158  1
  Al  Al12  1  0.436831  0.506933  0.671086  1
  Al  Al13  1  0.563169  0.493067  0.328914  1
  Al  Al14  1  0.109492  0.160125  0.669284  1
  Al  Al15  1  0.890508  0.839875  0.330716  1
  Al  Al16  1  0.349723  0.499184  0.945713  1
  Al  Al17  1  0.650277  0.500816  0.054287  1
  Al  Al18  1  0.014913  0.171261  0.954665  1
  Al  Al19  1  0.985087  0.828739  0.045335  1
  Al  Al20  1  0.186451  0.499297  0.441162  1
  Al  Al21  1  0.813549  0.500703  0.558838  1
  Al  Al22  1  0.734665  0.163678  0.183176  1
  Al  Al23  1  0.265335  0.836322  0.816824  1
  Al  Al24  1  0.061056  0.629878  0.817317  1
  Al  Al25  1  0.938944  0.370122  0.182683  1
  Al  Al26  1  0.855614  0.041636  0.816398  1
  Al  Al27  1  0.144386  0.958364  0.183602  1
  Ir  Ir28  1  0.000000  0.500000  0.000000  1
  Pt  Pt29  1  0.120064  0.492391  0.638567  1
  Pt  Pt30  1  0.879936  0.507609  0.361433  1
  Pt  Pt31  1  0.657363  0.171278  0.999930  1
  Pt  Pt32  1  0.342637  0.828722  0.000070  1
  Pt  Pt33  1  0.537611  0.166865  0.361845  1
  Pt  Pt34  1  0.462389  0.833135  0.638155  1
  Pt  Pt35  1  0.779117  0.174941  0.636882  1
  Pt  Pt36  1  0.220883  0.825059  0.363118  1
