# generated using pymatgen
data_TbDy(Zr4Pb3)2
_symmetry_space_group_name_H-M   'P 1'
_cell_length_a   8.75545248
_cell_length_b   8.83308835
_cell_length_c   5.96857500
_cell_angle_alpha   90.00000000
_cell_angle_beta   90.00000000
_cell_angle_gamma   120.44938202
_symmetry_Int_Tables_number   1
_chemical_formula_structural   TbDy(Zr4Pb3)2
_chemical_formula_sum   'Tb1 Dy1 Zr8 Pb6'
_cell_volume   397.93119734
_cell_formula_units_Z   1
loop_
 _symmetry_equiv_pos_site_id
 _symmetry_equiv_pos_as_xyz
  1  'x, y, z'
loop_
 _atom_site_type_symbol
 _atom_site_label
 _atom_site_symmetry_multiplicity
 _atom_site_fract_x
 _atom_site_fract_y
 _atom_site_fract_z
 _atom_site_occupancy
  Tb  Tb0  1  0.761588  0.999539  0.750000  1
  Dy  Dy1  1  0.766170  0.765565  0.250000  1
  Zr  Zr2  1  0.003775  0.253293  0.250000  1
  Zr  Zr3  1  0.331346  0.665403  0.499727  1
  Zr  Zr4  1  0.244819  0.001870  0.250000  1
  Zr  Zr5  1  0.663917  0.332085  0.500098  1
  Zr  Zr6  1  0.001600  0.749939  0.750000  1
  Zr  Zr7  1  0.331346  0.665403  0.000273  1
  Zr  Zr8  1  0.240549  0.239308  0.750000  1
  Zr  Zr9  1  0.663917  0.332085  0.999902  1
  Pb  Pb10  1  0.604514  0.600970  0.750000  1
  Pb  Pb11  1  0.387689  0.998963  0.750000  1
  Pb  Pb12  1  0.606376  0.003529  0.250000  1
  Pb  Pb13  1  0.001302  0.394228  0.750000  1
  Pb  Pb14  1  0.389835  0.390321  0.250000  1
  Pb  Pb15  1  0.001260  0.607499  0.250000  1
