# generated using pymatgen
data_Tb4DyP12Ir13Ru6
_symmetry_space_group_name_H-M   'P 1'
_cell_length_a   12.63592537
_cell_length_b   12.61924220
_cell_length_c   3.99185200
_cell_angle_alpha   90.00000000
_cell_angle_beta   90.00000000
_cell_angle_gamma   119.66788210
_symmetry_Int_Tables_number   1
_chemical_formula_structural   Tb4DyP12Ir13Ru6
_chemical_formula_sum   'Tb4 Dy1 P12 Ir13 Ru6'
_cell_volume   553.08147416
_cell_formula_units_Z   1
loop_
 _symmetry_equiv_pos_site_id
 _symmetry_equiv_pos_as_xyz
  1  'x, y, z'
loop_
 _atom_site_type_symbol
 _atom_site_label
 _atom_site_symmetry_multiplicity
 _atom_site_fract_x
 _atom_site_fract_y
 _atom_site_fract_z
 _atom_site_occupancy
  Tb  Tb0  1  0.667970  0.333650  0.000000  1
  Tb  Tb1  1  0.332820  0.665282  0.000000  1
  Tb  Tb2  1  0.816652  0.001605  0.500000  1
  Tb  Tb3  1  0.183214  0.184256  0.500000  1
  Dy  Dy4  1  0.999454  0.815763  0.500000  1
  P  P5  1  0.643860  0.004538  0.000000  1
  P  P6  1  0.363590  0.363356  0.000000  1
  P  P7  1  0.999420  0.636344  0.000000  1
  P  P8  1  0.688436  0.519784  0.500000  1
  P  P9  1  0.829860  0.308226  0.500000  1
  P  P10  1  0.308918  0.828631  0.500000  1
  P  P11  1  0.519474  0.686962  0.500000  1
  P  P12  1  0.181506  0.000541  0.000000  1
  P  P13  1  0.819394  0.820027  0.000000  1
  P  P14  1  0.997535  0.181095  0.000000  1
  P  P15  1  0.480608  0.170680  0.500000  1
  P  P16  1  0.168049  0.480233  0.500000  1
  Ir  Ir17  1  0.624609  0.807391  0.000000  1
  Ir  Ir18  1  0.182047  0.375805  0.000000  1
  Ir  Ir19  1  0.377530  0.181861  0.000000  1
  Ir  Ir20  1  0.194287  0.817964  0.000000  1
  Ir  Ir21  1  0.805033  0.623894  0.000000  1
  Ir  Ir22  1  0.868678  0.506641  0.500000  1
  Ir  Ir23  1  0.492260  0.363186  0.500000  1
  Ir  Ir24  1  0.636683  0.128488  0.500000  1
  Ir  Ir25  1  0.128536  0.637848  0.500000  1
  Ir  Ir26  1  0.360491  0.491580  0.500000  1
  Ir  Ir27  1  0.504753  0.865607  0.500000  1
  Ir  Ir28  1  0.000441  0.999731  0.000000  1
  Ir  Ir29  1  0.457703  0.997314  0.000000  1
  Ru  Ru30  1  0.713279  0.713597  0.500000  1
  Ru  Ru31  1  0.001636  0.288566  0.500000  1
  Ru  Ru32  1  0.544264  0.546913  0.000000  1
  Ru  Ru33  1  0.000991  0.454648  0.000000  1
  Ru  Ru34  1  0.819398  0.197874  0.000000  1
  Ru  Ru35  1  0.286622  0.000117  0.500000  1
