# generated using pymatgen
data_Cs3InTe3
_symmetry_space_group_name_H-M   'P 1'
_cell_length_a   15.42248400
_cell_length_b   9.53820191
_cell_length_c   12.21815287
_cell_angle_alpha   52.81089064
_cell_angle_beta   90.00000000
_cell_angle_gamma   90.00000000
_symmetry_Int_Tables_number   1
_chemical_formula_structural   Cs3InTe3
_chemical_formula_sum   'Cs12 In4 Te12'
_cell_volume   1431.82893078
_cell_formula_units_Z   4
loop_
 _symmetry_equiv_pos_site_id
 _symmetry_equiv_pos_as_xyz
  1  'x, y, z'
loop_
 _atom_site_type_symbol
 _atom_site_label
 _atom_site_symmetry_multiplicity
 _atom_site_fract_x
 _atom_site_fract_y
 _atom_site_fract_z
 _atom_site_occupancy
  Cs  Cs0  1  0.311117  0.148859  0.072257  1
  Cs  Cs1  1  0.688883  0.851141  0.927743  1
  Cs  Cs2  1  0.811117  0.851141  0.427743  1
  Cs  Cs3  1  0.895103  0.318455  0.402280  1
  Cs  Cs4  1  0.612831  0.362085  0.473709  1
  Cs  Cs5  1  0.112831  0.637915  0.026291  1
  Cs  Cs6  1  0.387169  0.637915  0.526291  1
  Cs  Cs7  1  0.887169  0.362085  0.973709  1
  Cs  Cs8  1  0.604897  0.318455  0.902280  1
  Cs  Cs9  1  0.104897  0.681545  0.597720  1
  Cs  Cs10  1  0.395103  0.681545  0.097720  1
  Cs  Cs11  1  0.188883  0.148859  0.572257  1
  In  In12  1  0.066452  0.944224  0.160201  1
  In  In13  1  0.566452  0.055776  0.339799  1
  In  In14  1  0.433548  0.944224  0.660201  1
  In  In15  1  0.933548  0.055776  0.839799  1
  Te  Te16  1  0.400562  0.172278  0.365698  1
  Te  Te17  1  0.900562  0.827722  0.134302  1
  Te  Te18  1  0.599438  0.827722  0.634302  1
  Te  Te19  1  0.099438  0.172278  0.865698  1
  Te  Te20  1  0.691947  0.324203  0.198271  1
  Te  Te21  1  0.191947  0.675797  0.301729  1
  Te  Te22  1  0.308053  0.675797  0.801729  1
  Te  Te23  1  0.808053  0.324203  0.698271  1
  Te  Te24  1  0.553454  0.864420  0.234779  1
  Te  Te25  1  0.053454  0.135580  0.265221  1
  Te  Te26  1  0.446546  0.135580  0.765221  1
  Te  Te27  1  0.946546  0.864420  0.734779  1
