# generated using pymatgen
data_NdTm5Co2(P3Ir4)4
_symmetry_space_group_name_H-M   'P 1'
_cell_length_a   3.91789700
_cell_length_b   11.08748000
_cell_length_c   12.78356600
_cell_angle_alpha   90.00000000
_cell_angle_beta   90.00000000
_cell_angle_gamma   90.00000000
_symmetry_Int_Tables_number   1
_chemical_formula_structural   NdTm5Co2(P3Ir4)4
_chemical_formula_sum   'Nd1 Tm5 Co2 P12 Ir16'
_cell_volume   555.31305280
_cell_formula_units_Z   1
loop_
 _symmetry_equiv_pos_site_id
 _symmetry_equiv_pos_as_xyz
  1  'x, y, z'
loop_
 _atom_site_type_symbol
 _atom_site_label
 _atom_site_symmetry_multiplicity
 _atom_site_fract_x
 _atom_site_fract_y
 _atom_site_fract_z
 _atom_site_occupancy
  Nd  Nd0  1  0.500000  0.000000  0.477821  1
  Tm  Tm1  1  0.000000  0.500000  0.522839  1
  Tm  Tm2  1  0.500000  0.815420  0.200015  1
  Tm  Tm3  1  0.500000  0.184580  0.200015  1
  Tm  Tm4  1  0.000000  0.683961  0.799530  1
  Tm  Tm5  1  0.000000  0.316039  0.799530  1
  Co  Co6  1  0.000000  0.500000  0.974834  1
  Co  Co7  1  0.500000  0.000000  0.022840  1
  P  P8  1  0.500000  0.500000  0.879438  1
  P  P9  1  0.000000  0.000000  0.118510  1
  P  P10  1  0.500000  0.500000  0.358928  1
  P  P11  1  0.000000  0.000000  0.645363  1
  P  P12  1  0.500000  0.316685  0.619605  1
  P  P13  1  0.500000  0.683315  0.619605  1
  P  P14  1  0.000000  0.185643  0.378980  1
  P  P15  1  0.000000  0.814357  0.378980  1
  P  P16  1  0.500000  0.850620  0.897036  1
  P  P17  1  0.500000  0.149380  0.897036  1
  P  P18  1  0.000000  0.647688  0.103165  1
  P  P19  1  0.000000  0.352312  0.103165  1
  Ir  Ir20  1  0.500000  0.500000  0.178193  1
  Ir  Ir21  1  0.000000  0.000000  0.824304  1
  Ir  Ir22  1  0.500000  0.500000  0.702284  1
  Ir  Ir23  1  0.000000  0.000000  0.293914  1
  Ir  Ir24  1  0.500000  0.339586  0.997412  1
  Ir  Ir25  1  0.500000  0.660414  0.997412  1
  Ir  Ir26  1  0.000000  0.161886  0.002882  1
  Ir  Ir27  1  0.000000  0.838114  0.002882  1
  Ir  Ir28  1  0.500000  0.295544  0.429252  1
  Ir  Ir29  1  0.500000  0.704456  0.429252  1
  Ir  Ir30  1  0.000000  0.211870  0.572180  1
  Ir  Ir31  1  0.000000  0.788130  0.572180  1
  Ir  Ir32  1  0.500000  0.869064  0.716160  1
  Ir  Ir33  1  0.500000  0.130936  0.716160  1
  Ir  Ir34  1  0.000000  0.630345  0.284149  1
  Ir  Ir35  1  0.000000  0.369655  0.284149  1
