# generated using pymatgen
data_Tb3ZrTa2(B2Ru5)2
_symmetry_space_group_name_H-M   'P 1'
_cell_length_a   9.63336436
_cell_length_b   9.63336436
_cell_length_c   3.13866700
_cell_angle_alpha   90.00000000
_cell_angle_beta   90.00000000
_cell_angle_gamma   89.70761372
_symmetry_Int_Tables_number   1
_chemical_formula_structural   Tb3ZrTa2(B2Ru5)2
_chemical_formula_sum   'Tb3 Zr1 Ta2 B4 Ru10'
_cell_volume   291.26986854
_cell_formula_units_Z   1
loop_
 _symmetry_equiv_pos_site_id
 _symmetry_equiv_pos_as_xyz
  1  'x, y, z'
loop_
 _atom_site_type_symbol
 _atom_site_label
 _atom_site_symmetry_multiplicity
 _atom_site_fract_x
 _atom_site_fract_y
 _atom_site_fract_z
 _atom_site_occupancy
  Tb  Tb0  1  0.174013  0.325987  0.000000  1
  Tb  Tb1  1  0.325564  0.824981  0.000000  1
  Tb  Tb2  1  0.675019  0.174436  0.000000  1
  Zr  Zr3  1  0.824920  0.675080  0.000000  1
  Ta  Ta4  1  0.499343  0.499416  0.000000  1
  Ta  Ta5  1  0.000584  0.000657  0.000000  1
  B  B6  1  0.623183  0.876817  0.000000  1
  B  B7  1  0.379597  0.120403  0.000000  1
  B  B8  1  0.119492  0.622375  0.000000  1
  B  B9  1  0.877625  0.380508  0.000000  1
  Ru  Ru10  1  0.578871  0.715397  0.500000  1
  Ru  Ru11  1  0.429175  0.281335  0.500000  1
  Ru  Ru12  1  0.064509  0.780856  0.500000  1
  Ru  Ru13  1  0.928471  0.219877  0.500000  1
  Ru  Ru14  1  0.280123  0.571529  0.500000  1
  Ru  Ru15  1  0.719144  0.435491  0.500000  1
  Ru  Ru16  1  0.218665  0.070825  0.500000  1
  Ru  Ru17  1  0.784603  0.921129  0.500000  1
  Ru  Ru18  1  0.502280  0.997720  0.500000  1
  Ru  Ru19  1  0.994818  0.505182  0.500000  1
