# generated using pymatgen
data_Hf8In4Co3Ni5
_symmetry_space_group_name_H-M   'P 1'
_cell_length_a   7.20399056
_cell_length_b   7.20399139
_cell_length_c   6.50908553
_cell_angle_alpha   90.02186986
_cell_angle_beta   89.97812703
_cell_angle_gamma   90.18970006
_symmetry_Int_Tables_number   1
_chemical_formula_structural   Hf8In4Co3Ni5
_chemical_formula_sum   'Hf8 In4 Co3 Ni5'
_cell_volume   337.80327417
_cell_formula_units_Z   1
loop_
 _symmetry_equiv_pos_site_id
 _symmetry_equiv_pos_as_xyz
  1  'x, y, z'
loop_
 _atom_site_type_symbol
 _atom_site_label
 _atom_site_symmetry_multiplicity
 _atom_site_fract_x
 _atom_site_fract_y
 _atom_site_fract_z
 _atom_site_occupancy
  Hf  Hf0  1  0.656661  0.343339  0.004072  1
  Hf  Hf1  1  0.337050  0.662950  0.006573  1
  Hf  Hf2  1  0.840546  0.835105  0.495960  1
  Hf  Hf3  1  0.164895  0.159454  0.495960  1
  Hf  Hf4  1  0.173206  0.166096  0.003870  1
  Hf  Hf5  1  0.833904  0.826794  0.003870  1
  Hf  Hf6  1  0.331547  0.668453  0.493845  1
  Hf  Hf7  1  0.664780  0.335220  0.496569  1
  In  In8  1  0.502050  0.999634  0.250192  1
  In  In9  1  0.000366  0.497950  0.250192  1
  In  In10  1  0.000397  0.496979  0.750105  1
  In  In11  1  0.503021  0.999603  0.750105  1
  Co  Co12  1  0.372554  0.373757  0.258264  1
  Co  Co13  1  0.626243  0.627446  0.258264  1
  Co  Co14  1  0.123027  0.876973  0.243040  1
  Ni  Ni15  1  0.872228  0.127772  0.237502  1
  Ni  Ni16  1  0.624686  0.626747  0.740367  1
  Ni  Ni17  1  0.373253  0.375314  0.740367  1
  Ni  Ni18  1  0.125652  0.874348  0.758549  1
  Ni  Ni19  1  0.873935  0.126065  0.762332  1
