# generated using pymatgen
data_Dy17Y3(Bi3Sb)3
_symmetry_space_group_name_H-M   'P 1'
_cell_length_a   8.21883065
_cell_length_b   9.49186500
_cell_length_c   12.01484710
_cell_angle_alpha   90.00000000
_cell_angle_beta   90.03004861
_cell_angle_gamma   90.00000000
_symmetry_Int_Tables_number   1
_chemical_formula_structural   Dy17Y3(Bi3Sb)3
_chemical_formula_sum   'Dy17 Y3 Bi9 Sb3'
_cell_volume   937.30249487
_cell_formula_units_Z   1
loop_
 _symmetry_equiv_pos_site_id
 _symmetry_equiv_pos_as_xyz
  1  'x, y, z'
loop_
 _atom_site_type_symbol
 _atom_site_label
 _atom_site_symmetry_multiplicity
 _atom_site_fract_x
 _atom_site_fract_y
 _atom_site_fract_z
 _atom_site_occupancy
  Dy  Dy0  1  0.148170  0.250000  0.716406  1
  Dy  Dy1  1  0.689064  0.562669  0.057337  1
  Dy  Dy2  1  0.190299  0.933962  0.442624  1
  Dy  Dy3  1  0.311092  0.062248  0.942789  1
  Dy  Dy4  1  0.808443  0.440156  0.558869  1
  Dy  Dy5  1  0.311092  0.437752  0.942789  1
  Dy  Dy6  1  0.808443  0.059844  0.558869  1
  Dy  Dy7  1  0.689064  0.937331  0.057337  1
  Dy  Dy8  1  0.190299  0.566038  0.442624  1
  Dy  Dy9  1  0.475446  0.250000  0.487903  1
  Dy  Dy10  1  0.972587  0.250000  0.012011  1
  Dy  Dy11  1  0.528712  0.750000  0.512738  1
  Dy  Dy12  1  0.027873  0.750000  0.987821  1
  Dy  Dy13  1  0.318065  0.250000  0.216313  1
  Dy  Dy14  1  0.811544  0.250000  0.278903  1
  Dy  Dy15  1  0.683229  0.750000  0.782073  1
  Dy  Dy16  1  0.183735  0.750000  0.717925  1
  Y  Y17  1  0.352641  0.750000  0.212873  1
  Y  Y18  1  0.852897  0.750000  0.286685  1
  Y  Y19  1  0.647310  0.250000  0.786927  1
  Bi  Bi20  1  0.092148  0.250000  0.456489  1
  Bi  Bi21  1  0.565362  0.995230  0.325574  1
  Bi  Bi22  1  0.065690  0.504012  0.174339  1
  Bi  Bi23  1  0.434050  0.495615  0.674576  1
  Bi  Bi24  1  0.934205  0.003954  0.825842  1
  Bi  Bi25  1  0.434050  0.004385  0.674576  1
  Bi  Bi26  1  0.934205  0.496046  0.825842  1
  Bi  Bi27  1  0.565362  0.504770  0.325574  1
  Bi  Bi28  1  0.065690  0.995988  0.174339  1
  Sb  Sb29  1  0.407801  0.750000  0.957973  1
  Sb  Sb30  1  0.908497  0.750000  0.541728  1
  Sb  Sb31  1  0.592935  0.250000  0.041326  1
