# generated using pymatgen
data_Ce3Y(B4Mo)4
_symmetry_space_group_name_H-M   'P 1'
_cell_length_a   3.68502500
_cell_length_b   6.05224218
_cell_length_c   11.70240728
_cell_angle_alpha   90.07157927
_cell_angle_beta   90.00000000
_cell_angle_gamma   90.00000000
_symmetry_Int_Tables_number   1
_chemical_formula_structural   Ce3Y(B4Mo)4
_chemical_formula_sum   'Ce3 Y1 B16 Mo4'
_cell_volume   260.99465093
_cell_formula_units_Z   1
loop_
 _symmetry_equiv_pos_site_id
 _symmetry_equiv_pos_as_xyz
  1  'x, y, z'
loop_
 _atom_site_type_symbol
 _atom_site_label
 _atom_site_symmetry_multiplicity
 _atom_site_fract_x
 _atom_site_fract_y
 _atom_site_fract_z
 _atom_site_occupancy
  Ce  Ce0  1  0.000000  0.125489  0.150809  1
  Ce  Ce1  1  0.000000  0.874398  0.848515  1
  Ce  Ce2  1  0.000000  0.624955  0.349790  1
  Y  Y3  1  0.000000  0.374653  0.650450  1
  B  B4  1  0.500000  0.023060  0.692367  1
  B  B5  1  0.500000  0.975053  0.308370  1
  B  B6  1  0.500000  0.524779  0.807150  1
  B  B7  1  0.500000  0.475635  0.192152  1
  B  B8  1  0.500000  0.115015  0.547475  1
  B  B9  1  0.500000  0.886617  0.453762  1
  B  B10  1  0.500000  0.613339  0.952496  1
  B  B11  1  0.500000  0.386399  0.046395  1
  B  B12  1  0.500000  0.287347  0.315467  1
  B  B13  1  0.500000  0.713617  0.685289  1
  B  B14  1  0.500000  0.785533  0.185512  1
  B  B15  1  0.500000  0.213350  0.814222  1
  B  B16  1  0.500000  0.365109  0.468051  1
  B  B17  1  0.500000  0.635261  0.532294  1
  B  B18  1  0.500000  0.864151  0.031765  1
  B  B19  1  0.500000  0.135741  0.967485  1
  Mo  Mo20  1  0.000000  0.129787  0.415586  1
  Mo  Mo21  1  0.000000  0.871206  0.584781  1
  Mo  Mo22  1  0.000000  0.630545  0.084965  1
  Mo  Mo23  1  0.000000  0.368960  0.914851  1
