# generated using pymatgen
data_Lu2B2SbRu2Rh3
_symmetry_space_group_name_H-M   'P 1'
_cell_length_a   9.50114200
_cell_length_b   9.50225405
_cell_length_c   3.08753300
_cell_angle_alpha   90.00000000
_cell_angle_beta   90.00000000
_cell_angle_gamma   90.00573425
_symmetry_Int_Tables_number   1
_chemical_formula_structural   Lu2B2SbRu2Rh3
_chemical_formula_sum   'Lu4 B4 Sb2 Ru4 Rh6'
_cell_volume   278.74947119
_cell_formula_units_Z   2
loop_
 _symmetry_equiv_pos_site_id
 _symmetry_equiv_pos_as_xyz
  1  'x, y, z'
loop_
 _atom_site_type_symbol
 _atom_site_label
 _atom_site_symmetry_multiplicity
 _atom_site_fract_x
 _atom_site_fract_y
 _atom_site_fract_z
 _atom_site_occupancy
  Lu  Lu0  1  0.828923  0.325072  0.000000  1
  Lu  Lu1  1  0.322611  0.171401  0.000000  1
  Lu  Lu2  1  0.672201  0.825384  0.000000  1
  Lu  Lu3  1  0.174603  0.675264  0.000000  1
  B  B4  1  0.620070  0.118639  0.000000  1
  B  B5  1  0.118305  0.377958  0.000000  1
  B  B6  1  0.881363  0.620584  0.000000  1
  B  B7  1  0.377427  0.881752  0.000000  1
  Sb  Sb8  1  0.003046  0.001795  0.000000  1
  Sb  Sb9  1  0.499864  0.499896  0.000000  1
  Ru  Ru10  1  0.070493  0.221413  0.500000  1
  Ru  Ru11  1  0.220217  0.926214  0.500000  1
  Ru  Ru12  1  0.501400  0.999900  0.500000  1
  Ru  Ru13  1  0.000131  0.502303  0.500000  1
  Rh  Rh14  1  0.779744  0.071435  0.500000  1
  Rh  Rh15  1  0.925419  0.780959  0.500000  1
  Rh  Rh16  1  0.429524  0.720323  0.500000  1
  Rh  Rh17  1  0.573877  0.278755  0.500000  1
  Rh  Rh18  1  0.721191  0.572418  0.500000  1
  Rh  Rh19  1  0.279589  0.428535  0.500000  1
