# generated using pymatgen
data_Ho4WI4
_symmetry_space_group_name_H-M   'P 1'
_cell_length_a   11.56705392
_cell_length_b   11.56705510
_cell_length_c   5.91177539
_cell_angle_alpha   90.26122842
_cell_angle_beta   90.26123129
_cell_angle_gamma   88.53847245
_symmetry_Int_Tables_number   1
_chemical_formula_structural   Ho4WI4
_chemical_formula_sum   'Ho8 W2 I8'
_cell_volume   790.70298261
_cell_formula_units_Z   2
loop_
 _symmetry_equiv_pos_site_id
 _symmetry_equiv_pos_as_xyz
  1  'x, y, z'
loop_
 _atom_site_type_symbol
 _atom_site_label
 _atom_site_symmetry_multiplicity
 _atom_site_fract_x
 _atom_site_fract_y
 _atom_site_fract_z
 _atom_site_occupancy
  Ho  Ho0  1  0.203523  0.912850  0.001991  1
  Ho  Ho1  1  0.796477  0.087150  0.998009  1
  Ho  Ho2  1  0.087150  0.796477  0.498009  1
  Ho  Ho3  1  0.912850  0.203523  0.501991  1
  Ho  Ho4  1  0.798637  0.918199  0.495942  1
  Ho  Ho5  1  0.201363  0.081801  0.504058  1
  Ho  Ho6  1  0.081801  0.201363  0.004058  1
  Ho  Ho7  1  0.918199  0.798637  0.995942  1
  W  W8  1  0.999881  0.000119  0.250000  1
  W  W9  1  0.000119  0.999881  0.750000  1
  I  I10  1  0.356469  0.849800  0.495956  1
  I  I11  1  0.643531  0.150200  0.504044  1
  I  I12  1  0.150200  0.643531  0.004044  1
  I  I13  1  0.849800  0.356469  0.995956  1
  I  I14  1  0.352307  0.141339  0.997647  1
  I  I15  1  0.647693  0.858661  0.002353  1
  I  I16  1  0.858661  0.647693  0.502353  1
  I  I17  1  0.141339  0.352307  0.497647  1
