# generated using pymatgen
data_LiSm2Si2(AsPd5)4
_symmetry_space_group_name_H-M   'P 1'
_cell_length_a   8.80177548
_cell_length_b   8.80177469
_cell_length_c   8.84675800
_cell_angle_alpha   59.83080212
_cell_angle_beta   59.83080512
_cell_angle_gamma   60.33840762
_symmetry_Int_Tables_number   1
_chemical_formula_structural   LiSm2Si2(AsPd5)4
_chemical_formula_sum   'Li1 Sm2 Si2 As4 Pd20'
_cell_volume   484.60392605
_cell_formula_units_Z   1
loop_
 _symmetry_equiv_pos_site_id
 _symmetry_equiv_pos_as_xyz
  1  'x, y, z'
loop_
 _atom_site_type_symbol
 _atom_site_label
 _atom_site_symmetry_multiplicity
 _atom_site_fract_x
 _atom_site_fract_y
 _atom_site_fract_z
 _atom_site_occupancy
  Li  Li0  1  0.000000  0.000000  0.000000  1
  Sm  Sm1  1  0.250000  0.250000  0.250000  1
  Sm  Sm2  1  0.750000  0.750000  0.750000  1
  Si  Si3  1  0.262775  0.262775  0.737225  1
  Si  Si4  1  0.737225  0.737225  0.262775  1
  As  As5  1  0.737336  0.262664  0.262664  1
  As  As6  1  0.262664  0.737336  0.737336  1
  As  As7  1  0.262664  0.737336  0.262664  1
  As  As8  1  0.737336  0.262664  0.737336  1
  Pd  Pd9  1  0.381335  0.381335  0.389523  1
  Pd  Pd10  1  0.618665  0.618665  0.610477  1
  Pd  Pd11  1  0.381335  0.381335  0.847805  1
  Pd  Pd12  1  0.389523  0.847805  0.381335  1
  Pd  Pd13  1  0.618665  0.618665  0.152195  1
  Pd  Pd14  1  0.610477  0.152195  0.618665  1
  Pd  Pd15  1  0.847805  0.389523  0.381335  1
  Pd  Pd16  1  0.152195  0.610477  0.618665  1
  Pd  Pd17  1  0.347295  0.006224  0.993776  1
  Pd  Pd18  1  0.652705  0.993776  0.006224  1
  Pd  Pd19  1  0.006224  0.347295  0.652705  1
  Pd  Pd20  1  0.993776  0.652705  0.347295  1
  Pd  Pd21  1  0.006224  0.347295  0.993776  1
  Pd  Pd22  1  0.652705  0.993776  0.347295  1
  Pd  Pd23  1  0.993776  0.652705  0.006224  1
  Pd  Pd24  1  0.347295  0.006224  0.652705  1
  Pd  Pd25  1  0.000000  0.000000  0.347808  1
  Pd  Pd26  1  0.000000  0.000000  0.652192  1
  Pd  Pd27  1  0.652192  0.347808  0.000000  1
  Pd  Pd28  1  0.347808  0.652192  0.000000  1
