# generated using pymatgen
data_Yb4ErIr2
_symmetry_space_group_name_H-M   'P 1'
_cell_length_a   6.53658029
_cell_length_b   7.31734692
_cell_length_c   8.51539433
_cell_angle_alpha   97.23241619
_cell_angle_beta   112.56985971
_cell_angle_gamma   89.99999965
_symmetry_Int_Tables_number   1
_chemical_formula_structural   Yb4ErIr2
_chemical_formula_sum   'Yb8 Er2 Ir4'
_cell_volume   372.58933451
_cell_formula_units_Z   2
loop_
 _symmetry_equiv_pos_site_id
 _symmetry_equiv_pos_as_xyz
  1  'x, y, z'
loop_
 _atom_site_type_symbol
 _atom_site_label
 _atom_site_symmetry_multiplicity
 _atom_site_fract_x
 _atom_site_fract_y
 _atom_site_fract_z
 _atom_site_occupancy
  Yb  Yb0  1  0.971596  0.922411  0.170833  1
  Yb  Yb1  1  0.800762  0.577589  0.829167  1
  Yb  Yb2  1  0.028404  0.077589  0.829167  1
  Yb  Yb3  1  0.199238  0.422411  0.170833  1
  Yb  Yb4  1  0.643369  0.819940  0.437461  1
  Yb  Yb5  1  0.205908  0.680060  0.562539  1
  Yb  Yb6  1  0.356631  0.180060  0.562539  1
  Yb  Yb7  1  0.794092  0.319940  0.437461  1
  Er  Er8  1  0.438023  0.750000  0.000000  1
  Er  Er9  1  0.561977  0.250000  0.000000  1
  Ir  Ir10  1  0.811806  0.573308  0.209782  1
  Ir  Ir11  1  0.602024  0.926692  0.790218  1
  Ir  Ir12  1  0.188195  0.426692  0.790218  1
  Ir  Ir13  1  0.397976  0.073308  0.209782  1
