# generated using pymatgen
data_SrY2Ga6Ni7Ir2
_symmetry_space_group_name_H-M   'P 1'
_cell_length_a   9.32886642
_cell_length_b   9.32886652
_cell_length_c   3.84051200
_cell_angle_alpha   90.00000000
_cell_angle_beta   90.00000000
_cell_angle_gamma   121.27198734
_symmetry_Int_Tables_number   1
_chemical_formula_structural   SrY2Ga6Ni7Ir2
_chemical_formula_sum   'Sr1 Y2 Ga6 Ni7 Ir2'
_cell_volume   285.67158959
_cell_formula_units_Z   1
loop_
 _symmetry_equiv_pos_site_id
 _symmetry_equiv_pos_as_xyz
  1  'x, y, z'
loop_
 _atom_site_type_symbol
 _atom_site_label
 _atom_site_symmetry_multiplicity
 _atom_site_fract_x
 _atom_site_fract_y
 _atom_site_fract_z
 _atom_site_occupancy
  Sr  Sr0  1  0.000000  0.000000  0.000000  1
  Y  Y1  1  0.325785  0.674215  0.500000  1
  Y  Y2  1  0.674215  0.325785  0.500000  1
  Ga  Ga3  1  0.331354  0.331354  0.500000  1
  Ga  Ga4  1  0.686128  0.994563  0.500000  1
  Ga  Ga5  1  0.668646  0.668646  0.500000  1
  Ga  Ga6  1  0.005437  0.313872  0.500000  1
  Ga  Ga7  1  0.994563  0.686128  0.500000  1
  Ga  Ga8  1  0.313872  0.005437  0.500000  1
  Ni  Ni9  1  0.191583  0.370836  0.000000  1
  Ni  Ni10  1  0.808417  0.629164  0.000000  1
  Ni  Ni11  1  0.178531  0.821469  0.000000  1
  Ni  Ni12  1  0.629164  0.808417  0.000000  1
  Ni  Ni13  1  0.370836  0.191583  0.000000  1
  Ni  Ni14  1  0.821469  0.178531  0.000000  1
  Ni  Ni15  1  0.500000  0.500000  0.000000  1
  Ir  Ir16  1  0.500000  0.000000  0.000000  1
  Ir  Ir17  1  0.000000  0.500000  0.000000  1
