# generated using pymatgen
data_Tb11Yb(PrPb2)8
_symmetry_space_group_name_H-M   'P 1'
_cell_length_a   8.34450900
_cell_length_b   8.41236756
_cell_length_c   15.93709400
_cell_angle_alpha   90.00000000
_cell_angle_beta   90.00000000
_cell_angle_gamma   90.02092989
_symmetry_Int_Tables_number   1
_chemical_formula_structural   Tb11Yb(PrPb2)8
_chemical_formula_sum   'Tb11 Yb1 Pr8 Pb16'
_cell_volume   1118.73733726
_cell_formula_units_Z   1
loop_
 _symmetry_equiv_pos_site_id
 _symmetry_equiv_pos_as_xyz
  1  'x, y, z'
loop_
 _atom_site_type_symbol
 _atom_site_label
 _atom_site_symmetry_multiplicity
 _atom_site_fract_x
 _atom_site_fract_y
 _atom_site_fract_z
 _atom_site_occupancy
  Tb  Tb0  1  0.634856  0.160158  0.622353  1
  Tb  Tb1  1  0.134165  0.340759  0.877855  1
  Tb  Tb2  1  0.368032  0.839727  0.121510  1
  Tb  Tb3  1  0.865693  0.660919  0.378550  1
  Tb  Tb4  1  0.368032  0.839727  0.378490  1
  Tb  Tb5  1  0.865693  0.660919  0.121450  1
  Tb  Tb6  1  0.634856  0.160158  0.877647  1
  Tb  Tb7  1  0.134165  0.340759  0.622145  1
  Tb  Tb8  1  0.800514  0.494996  0.750000  1
  Tb  Tb9  1  0.301348  0.004921  0.750000  1
  Tb  Tb10  1  0.198953  0.504727  0.250000  1
  Yb  Yb11  1  0.700395  0.995073  0.250000  1
  Pr  Pr12  1  0.478465  0.678265  0.597574  1
  Pr  Pr13  1  0.978286  0.822459  0.902502  1
  Pr  Pr14  1  0.520979  0.320376  0.097011  1
  Pr  Pr15  1  0.019634  0.177859  0.403028  1
  Pr  Pr16  1  0.520979  0.320376  0.402989  1
  Pr  Pr17  1  0.019634  0.177859  0.096972  1
  Pr  Pr18  1  0.478465  0.678265  0.902426  1
  Pr  Pr19  1  0.978286  0.822459  0.597498  1
  Pb  Pb20  1  0.704013  0.957989  0.458802  1
  Pb  Pb21  1  0.204690  0.539648  0.043416  1
  Pb  Pb22  1  0.295848  0.040802  0.957267  1
  Pb  Pb23  1  0.795303  0.460239  0.543110  1
  Pb  Pb24  1  0.295848  0.040802  0.542733  1
  Pb  Pb25  1  0.795303  0.460239  0.956890  1
  Pb  Pb26  1  0.704013  0.957989  0.041198  1
  Pb  Pb27  1  0.204690  0.539648  0.456584  1
  Pb  Pb28  1  0.438301  0.372282  0.750000  1
  Pb  Pb29  1  0.938583  0.126883  0.750000  1
  Pb  Pb30  1  0.562942  0.622721  0.250000  1
  Pb  Pb31  1  0.063986  0.874995  0.250000  1
  Pb  Pb32  1  0.667755  0.851571  0.750000  1
  Pb  Pb33  1  0.166824  0.649337  0.750000  1
  Pb  Pb34  1  0.326798  0.148433  0.250000  1
  Pb  Pb35  1  0.833676  0.355659  0.250000  1
