# generated using pymatgen
data_Ho2U2Ga12Pd
_symmetry_space_group_name_H-M   'P 1'
_cell_length_a   7.45421133
_cell_length_b   7.45421132
_cell_length_c   7.49340075
_cell_angle_alpha   109.36814883
_cell_angle_beta   109.36814423
_cell_angle_gamma   109.46552126
_symmetry_Int_Tables_number   1
_chemical_formula_structural   Ho2U2Ga12Pd
_chemical_formula_sum   'Ho2 U2 Ga12 Pd1'
_cell_volume   321.35897888
_cell_formula_units_Z   1
loop_
 _symmetry_equiv_pos_site_id
 _symmetry_equiv_pos_as_xyz
  1  'x, y, z'
loop_
 _atom_site_type_symbol
 _atom_site_label
 _atom_site_symmetry_multiplicity
 _atom_site_fract_x
 _atom_site_fract_y
 _atom_site_fract_z
 _atom_site_occupancy
  Ho  Ho0  1  0.500000  0.500000  0.500000  1
  Ho  Ho1  1  0.000000  0.000000  0.500000  1
  U  U2  1  0.000000  0.500000  0.000000  1
  U  U3  1  0.500000  0.000000  0.000000  1
  Ga  Ga4  1  0.499802  0.749366  0.249168  1
  Ga  Ga5  1  0.500198  0.250634  0.750832  1
  Ga  Ga6  1  0.250634  0.500198  0.750832  1
  Ga  Ga7  1  0.749366  0.499802  0.249168  1
  Ga  Ga8  1  0.750000  0.250000  0.500000  1
  Ga  Ga9  1  0.250000  0.750000  0.500000  1
  Ga  Ga10  1  0.997823  0.295426  0.293249  1
  Ga  Ga11  1  0.002177  0.704574  0.706751  1
  Ga  Ga12  1  0.295426  0.997823  0.293249  1
  Ga  Ga13  1  0.704574  0.002177  0.706751  1
  Ga  Ga14  1  0.295818  0.295818  0.000000  1
  Ga  Ga15  1  0.704182  0.704182  0.000000  1
  Pd  Pd16  1  0.000000  0.000000  0.000000  1
