# generated using pymatgen
data_Cd4CuOs3O14
_symmetry_space_group_name_H-M   'P 1'
_cell_length_a   7.32604022
_cell_length_b   7.23575855
_cell_length_c   7.32604000
_cell_angle_alpha   59.58639460
_cell_angle_beta   60.00000098
_cell_angle_gamma   59.58639957
_symmetry_Int_Tables_number   1
_chemical_formula_structural   Cd4CuOs3O14
_chemical_formula_sum   'Cd4 Cu1 Os3 O14'
_cell_volume   272.87524482
_cell_formula_units_Z   1
loop_
 _symmetry_equiv_pos_site_id
 _symmetry_equiv_pos_as_xyz
  1  'x, y, z'
loop_
 _atom_site_type_symbol
 _atom_site_label
 _atom_site_symmetry_multiplicity
 _atom_site_fract_x
 _atom_site_fract_y
 _atom_site_fract_z
 _atom_site_occupancy
  Cd  Cd0  1  0.125000  0.125000  0.125000  1
  Cd  Cd1  1  0.625000  0.125000  0.125000  1
  Cd  Cd2  1  0.125000  0.625000  0.125000  1
  Cd  Cd3  1  0.125000  0.125000  0.625000  1
  Cu  Cu4  1  0.625000  0.125000  0.625000  1
  Os  Os5  1  0.625000  0.625000  0.625000  1
  Os  Os6  1  0.125000  0.625000  0.625000  1
  Os  Os7  1  0.625000  0.625000  0.125000  1
  O  O8  1  0.252496  0.242513  0.252496  1
  O  O9  1  0.997504  0.007487  0.997504  1
  O  O10  1  0.554445  0.933251  0.554445  1
  O  O11  1  0.305755  0.687677  0.305755  1
  O  O12  1  0.549187  0.562323  0.944245  1
  O  O13  1  0.944245  0.562323  0.549187  1
  O  O14  1  0.554445  0.933251  0.957858  1
  O  O15  1  0.957858  0.933251  0.554445  1
  O  O16  1  0.944245  0.562323  0.944245  1
  O  O17  1  0.695555  0.316749  0.292142  1
  O  O18  1  0.305755  0.687677  0.700813  1
  O  O19  1  0.695555  0.316749  0.695555  1
  O  O20  1  0.292142  0.316749  0.695555  1
  O  O21  1  0.700813  0.687677  0.305755  1
