# generated using pymatgen
data_Hf3Mn4VAs4
_symmetry_space_group_name_H-M   'P 1'
_cell_length_a   3.68402600
_cell_length_b   6.48471815
_cell_length_c   7.61280848
_cell_angle_alpha   90.46361316
_cell_angle_beta   90.00000000
_cell_angle_gamma   90.00000000
_symmetry_Int_Tables_number   1
_chemical_formula_structural   Hf3Mn4VAs4
_chemical_formula_sum   'Hf3 Mn4 V1 As4'
_cell_volume   181.86305327
_cell_formula_units_Z   1
loop_
 _symmetry_equiv_pos_site_id
 _symmetry_equiv_pos_as_xyz
  1  'x, y, z'
loop_
 _atom_site_type_symbol
 _atom_site_label
 _atom_site_symmetry_multiplicity
 _atom_site_fract_x
 _atom_site_fract_y
 _atom_site_fract_z
 _atom_site_occupancy
  Hf  Hf0  1  0.750000  0.464929  0.827476  1
  Hf  Hf1  1  0.750000  0.958873  0.673504  1
  Hf  Hf2  1  0.250000  0.033500  0.321427  1
  Mn  Mn3  1  0.250000  0.634308  0.558398  1
  Mn  Mn4  1  0.750000  0.363393  0.441388  1
  Mn  Mn5  1  0.750000  0.870228  0.060454  1
  Mn  Mn6  1  0.250000  0.137081  0.943166  1
  V  V7  1  0.250000  0.537270  0.171648  1
  As  As8  1  0.250000  0.759362  0.877787  1
  As  As9  1  0.750000  0.253942  0.134168  1
  As  As10  1  0.750000  0.726675  0.359668  1
  As  As11  1  0.250000  0.260438  0.630914  1
