# generated using pymatgen
data_Y2Er5TmSb20
_symmetry_space_group_name_H-M   'P 1'
_cell_length_a   4.20680200
_cell_length_b   13.18219515
_cell_length_c   14.61913700
_cell_angle_alpha   78.34780352
_cell_angle_beta   90.00000000
_cell_angle_gamma   90.00000000
_symmetry_Int_Tables_number   1
_chemical_formula_structural   Y2Er5TmSb20
_chemical_formula_sum   'Y2 Er5 Tm1 Sb20'
_cell_volume   793.99532658
_cell_formula_units_Z   1
loop_
 _symmetry_equiv_pos_site_id
 _symmetry_equiv_pos_as_xyz
  1  'x, y, z'
loop_
 _atom_site_type_symbol
 _atom_site_label
 _atom_site_symmetry_multiplicity
 _atom_site_fract_x
 _atom_site_fract_y
 _atom_site_fract_z
 _atom_site_occupancy
  Y  Y0  1  0.250000  0.953608  0.359630  1
  Y  Y1  1  0.750000  0.046439  0.640437  1
  Er  Er2  1  0.750000  0.604637  0.229540  1
  Er  Er3  1  0.250000  0.662014  0.856109  1
  Er  Er4  1  0.750000  0.338003  0.143770  1
  Er  Er5  1  0.250000  0.668795  0.576242  1
  Er  Er6  1  0.750000  0.331257  0.423963  1
  Tm  Tm7  1  0.250000  0.395328  0.770435  1
  Sb  Sb8  1  0.250000  0.144598  0.779048  1
  Sb  Sb9  1  0.750000  0.855642  0.221004  1
  Sb  Sb10  1  0.250000  0.144770  0.482141  1
  Sb  Sb11  1  0.750000  0.855259  0.517878  1
  Sb  Sb12  1  0.250000  0.152990  0.171093  1
  Sb  Sb13  1  0.750000  0.846986  0.828872  1
  Sb  Sb14  1  0.250000  0.420554  0.975029  1
  Sb  Sb15  1  0.750000  0.579452  0.024592  1
  Sb  Sb16  1  0.750000  0.029095  0.909182  1
  Sb  Sb17  1  0.250000  0.970901  0.090746  1
  Sb  Sb18  1  0.750000  0.140424  0.322150  1
  Sb  Sb19  1  0.250000  0.859639  0.677851  1
  Sb  Sb20  1  0.750000  0.279583  0.936662  1
  Sb  Sb21  1  0.250000  0.720467  0.062958  1
  Sb  Sb22  1  0.750000  0.285863  0.653101  1
  Sb  Sb23  1  0.250000  0.714257  0.347152  1
  Sb  Sb24  1  0.750000  0.575899  0.734432  1
  Sb  Sb25  1  0.250000  0.423477  0.265709  1
  Sb  Sb26  1  0.750000  0.572335  0.447343  1
  Sb  Sb27  1  0.250000  0.427726  0.552930  1
