# generated using pymatgen
data_NdY(GaNi4)2
_symmetry_space_group_name_H-M   'P 1'
_cell_length_a   4.03716900
_cell_length_b   5.06272400
_cell_length_c   8.48609500
_cell_angle_alpha   90.00000000
_cell_angle_beta   90.00000000
_cell_angle_gamma   90.00000000
_symmetry_Int_Tables_number   1
_chemical_formula_structural   NdY(GaNi4)2
_chemical_formula_sum   'Nd1 Y1 Ga2 Ni8'
_cell_volume   173.44791000
_cell_formula_units_Z   1
loop_
 _symmetry_equiv_pos_site_id
 _symmetry_equiv_pos_as_xyz
  1  'x, y, z'
loop_
 _atom_site_type_symbol
 _atom_site_label
 _atom_site_symmetry_multiplicity
 _atom_site_fract_x
 _atom_site_fract_y
 _atom_site_fract_z
 _atom_site_occupancy
  Nd  Nd0  1  0.000000  0.000000  0.000000  1
  Y  Y1  1  0.000000  0.500000  0.500000  1
  Ga  Ga2  1  0.500000  0.500000  0.000000  1
  Ga  Ga3  1  0.500000  0.000000  0.500000  1
  Ni  Ni4  1  0.000000  0.000000  0.332561  1
  Ni  Ni5  1  0.000000  0.500000  0.828976  1
  Ni  Ni6  1  0.000000  0.500000  0.171024  1
  Ni  Ni7  1  0.000000  0.000000  0.667439  1
  Ni  Ni8  1  0.500000  0.252228  0.252455  1
  Ni  Ni9  1  0.500000  0.747772  0.747545  1
  Ni  Ni10  1  0.500000  0.747772  0.252455  1
  Ni  Ni11  1  0.500000  0.252228  0.747545  1
