# generated using pymatgen
data_SrCaPPt8
_symmetry_space_group_name_H-M   'P 1'
_cell_length_a   9.18306000
_cell_length_b   9.20085855
_cell_length_c   4.31248000
_cell_angle_alpha   90.00000000
_cell_angle_beta   90.00000000
_cell_angle_gamma   145.52888719
_symmetry_Int_Tables_number   1
_chemical_formula_structural   SrCaPPt8
_chemical_formula_sum   'Sr1 Ca1 P1 Pt8'
_cell_volume   206.23013886
_cell_formula_units_Z   1
loop_
 _symmetry_equiv_pos_site_id
 _symmetry_equiv_pos_as_xyz
  1  'x, y, z'
loop_
 _atom_site_type_symbol
 _atom_site_label
 _atom_site_symmetry_multiplicity
 _atom_site_fract_x
 _atom_site_fract_y
 _atom_site_fract_z
 _atom_site_occupancy
  Sr  Sr0  1  0.615595  0.375382  0.500000  1
  Ca  Ca1  1  0.372197  0.619720  0.500000  1
  P  P2  1  0.221284  0.219730  0.000000  1
  Pt  Pt3  1  0.108580  0.887317  0.000000  1
  Pt  Pt4  1  0.891577  0.109822  0.000000  1
  Pt  Pt5  1  0.492322  0.985664  0.000000  1
  Pt  Pt6  1  0.989234  0.489631  0.000000  1
  Pt  Pt7  1  0.197320  0.790208  0.500000  1
  Pt  Pt8  1  0.794440  0.193196  0.500000  1
  Pt  Pt9  1  0.008891  0.010585  0.500000  1
  Pt  Pt10  1  0.622159  0.632344  0.000000  1
