# generated using pymatgen
data_Nb12SiAu7N4
_symmetry_space_group_name_H-M   'P 1'
_cell_length_a   7.15037707
_cell_length_b   7.15037734
_cell_length_c   7.15037783
_cell_angle_alpha   90.15047066
_cell_angle_beta   90.15046897
_cell_angle_gamma   90.15047290
_symmetry_Int_Tables_number   1
_chemical_formula_structural   Nb12SiAu7N4
_chemical_formula_sum   'Nb12 Si1 Au7 N4'
_cell_volume   365.57997215
_cell_formula_units_Z   1
loop_
 _symmetry_equiv_pos_site_id
 _symmetry_equiv_pos_as_xyz
  1  'x, y, z'
loop_
 _atom_site_type_symbol
 _atom_site_label
 _atom_site_symmetry_multiplicity
 _atom_site_fract_x
 _atom_site_fract_y
 _atom_site_fract_z
 _atom_site_occupancy
  Nb  Nb0  1  0.787266  0.954029  0.377070  1
  Nb  Nb1  1  0.710896  0.042539  0.878210  1
  Nb  Nb2  1  0.208387  0.458715  0.127570  1
  Nb  Nb3  1  0.293566  0.540667  0.627433  1
  Nb  Nb4  1  0.954029  0.377070  0.787266  1
  Nb  Nb5  1  0.042539  0.878210  0.710896  1
  Nb  Nb6  1  0.458715  0.127570  0.208387  1
  Nb  Nb7  1  0.540667  0.627433  0.293566  1
  Nb  Nb8  1  0.377070  0.787266  0.954029  1
  Nb  Nb9  1  0.878210  0.710896  0.042539  1
  Nb  Nb10  1  0.127570  0.208387  0.458715  1
  Nb  Nb11  1  0.627433  0.293566  0.540667  1
  Si  Si12  1  0.068946  0.068946  0.068946  1
  Au  Au13  1  0.177656  0.830139  0.300896  1
  Au  Au14  1  0.300896  0.177656  0.830139  1
  Au  Au15  1  0.830139  0.300896  0.177656  1
  Au  Au16  1  0.685207  0.685207  0.685207  1
  Au  Au17  1  0.565652  0.430730  0.937171  1
  Au  Au18  1  0.430730  0.937171  0.565652  1
  Au  Au19  1  0.937171  0.565652  0.430730  1
  N  N20  1  0.872749  0.125309  0.622139  1
  N  N21  1  0.622139  0.872749  0.125309  1
  N  N22  1  0.125309  0.622139  0.872749  1
  N  N23  1  0.377061  0.377061  0.377061  1
