# generated using pymatgen
data_Tb5Tm3Pt4
_symmetry_space_group_name_H-M   'P 1'
_cell_length_a   4.76180600
_cell_length_b   7.15073701
_cell_length_c   8.76804138
_cell_angle_alpha   89.88371496
_cell_angle_beta   90.00000000
_cell_angle_gamma   90.00000000
_symmetry_Int_Tables_number   1
_chemical_formula_structural   Tb5Tm3Pt4
_chemical_formula_sum   'Tb5 Tm3 Pt4'
_cell_volume   298.55489791
_cell_formula_units_Z   1
loop_
 _symmetry_equiv_pos_site_id
 _symmetry_equiv_pos_as_xyz
  1  'x, y, z'
loop_
 _atom_site_type_symbol
 _atom_site_label
 _atom_site_symmetry_multiplicity
 _atom_site_fract_x
 _atom_site_fract_y
 _atom_site_fract_z
 _atom_site_occupancy
  Tb  Tb0  1  0.750000  0.645016  0.420290  1
  Tb  Tb1  1  0.250000  0.991706  0.330648  1
  Tb  Tb2  1  0.250000  0.488950  0.168145  1
  Tb  Tb3  1  0.750000  0.011173  0.671744  1
  Tb  Tb4  1  0.750000  0.510084  0.829542  1
  Tm  Tm5  1  0.250000  0.856667  0.921683  1
  Tm  Tm6  1  0.250000  0.355134  0.579382  1
  Tm  Tm7  1  0.750000  0.143552  0.078559  1
  Pt  Pt8  1  0.250000  0.253893  0.906513  1
  Pt  Pt9  1  0.250000  0.755662  0.596663  1
  Pt  Pt10  1  0.750000  0.745962  0.089549  1
  Pt  Pt11  1  0.750000  0.242204  0.407281  1
