# generated using pymatgen
data_TbDy(Ho2Rh)2
_symmetry_space_group_name_H-M   'P 1'
_cell_length_a   6.27136600
_cell_length_b   7.17258400
_cell_length_c   9.43925700
_cell_angle_alpha   90.00000000
_cell_angle_beta   90.00000000
_cell_angle_gamma   90.00000000
_symmetry_Int_Tables_number   1
_chemical_formula_structural   TbDy(Ho2Rh)2
_chemical_formula_sum   'Tb2 Dy2 Ho8 Rh4'
_cell_volume   424.59570907
_cell_formula_units_Z   2
loop_
 _symmetry_equiv_pos_site_id
 _symmetry_equiv_pos_as_xyz
  1  'x, y, z'
loop_
 _atom_site_type_symbol
 _atom_site_label
 _atom_site_symmetry_multiplicity
 _atom_site_fract_x
 _atom_site_fract_y
 _atom_site_fract_z
 _atom_site_occupancy
  Tb  Tb0  1  0.133635  0.467481  0.750000  1
  Tb  Tb1  1  0.366365  0.967481  0.750000  1
  Dy  Dy2  1  0.865265  0.533692  0.250000  1
  Dy  Dy3  1  0.634735  0.033692  0.250000  1
  Ho  Ho4  1  0.329324  0.677296  0.063680  1
  Ho  Ho5  1  0.170676  0.177296  0.436320  1
  Ho  Ho6  1  0.670506  0.322421  0.562665  1
  Ho  Ho7  1  0.829494  0.822421  0.937335  1
  Ho  Ho8  1  0.670506  0.322421  0.937335  1
  Ho  Ho9  1  0.829494  0.822421  0.562665  1
  Ho  Ho10  1  0.329324  0.677296  0.436320  1
  Ho  Ho11  1  0.170676  0.177296  0.063680  1
  Rh  Rh12  1  0.059175  0.881430  0.250000  1
  Rh  Rh13  1  0.440825  0.381430  0.250000  1
  Rh  Rh14  1  0.938511  0.117965  0.750000  1
  Rh  Rh15  1  0.561489  0.617965  0.750000  1
