# generated using pymatgen
data_Tb5Dy3(LuPb3)2
_symmetry_space_group_name_H-M   'P 1'
_cell_length_a   6.61960500
_cell_length_b   9.05255261
_cell_length_c   9.05505952
_cell_angle_alpha   120.00717102
_cell_angle_beta   90.00145770
_cell_angle_gamma   90.00037457
_symmetry_Int_Tables_number   1
_chemical_formula_structural   Tb5Dy3(LuPb3)2
_chemical_formula_sum   'Tb5 Dy3 Lu2 Pb6'
_cell_volume   469.88727854
_cell_formula_units_Z   1
loop_
 _symmetry_equiv_pos_site_id
 _symmetry_equiv_pos_as_xyz
  1  'x, y, z'
loop_
 _atom_site_type_symbol
 _atom_site_label
 _atom_site_symmetry_multiplicity
 _atom_site_fract_x
 _atom_site_fract_y
 _atom_site_fract_z
 _atom_site_occupancy
  Tb  Tb0  1  0.750649  0.237688  0.999836  1
  Tb  Tb1  1  0.750649  0.762243  0.761996  1
  Tb  Tb2  1  0.750671  0.000069  0.238461  1
  Tb  Tb3  1  0.249338  0.762131  0.999980  1
  Tb  Tb4  1  0.249340  0.237977  0.238015  1
  Dy  Dy5  1  0.249349  0.999955  0.762085  1
  Dy  Dy6  1  0.499941  0.333381  0.666717  1
  Dy  Dy7  1  0.499939  0.666569  0.333133  1
  Lu  Lu8  1  0.000052  0.666602  0.333173  1
  Lu  Lu9  1  0.000059  0.333390  0.666762  1
  Pb  Pb10  1  0.752878  0.604024  0.999922  1
  Pb  Pb11  1  0.752881  0.396076  0.396022  1
  Pb  Pb12  1  0.752842  0.999984  0.603887  1
  Pb  Pb13  1  0.247112  0.395395  0.999565  1
  Pb  Pb14  1  0.247155  0.604513  0.604076  1
  Pb  Pb15  1  0.247143  0.000001  0.396370  1
