# generated using pymatgen
data_Ac3La(Ni2I)2
_symmetry_space_group_name_H-M   'P 1'
_cell_length_a   4.18359400
_cell_length_b   4.18359427
_cell_length_c   18.35927000
_cell_angle_alpha   90.00000000
_cell_angle_beta   90.00000000
_cell_angle_gamma   119.99999783
_symmetry_Int_Tables_number   1
_chemical_formula_structural   Ac3La(Ni2I)2
_chemical_formula_sum   'Ac3 La1 Ni4 I2'
_cell_volume   278.28201634
_cell_formula_units_Z   1
loop_
 _symmetry_equiv_pos_site_id
 _symmetry_equiv_pos_as_xyz
  1  'x, y, z'
loop_
 _atom_site_type_symbol
 _atom_site_label
 _atom_site_symmetry_multiplicity
 _atom_site_fract_x
 _atom_site_fract_y
 _atom_site_fract_z
 _atom_site_occupancy
  Ac  Ac0  1  0.000000  0.000000  0.107662  1
  Ac  Ac1  1  0.000000  0.000000  0.895432  1
  Ac  Ac2  1  0.000000  0.000000  0.602004  1
  La  La3  1  0.000000  0.000000  0.395773  1
  Ni  Ni4  1  0.333333  0.666667  0.495479  1
  Ni  Ni5  1  0.666667  0.333333  0.495161  1
  Ni  Ni6  1  0.666667  0.333333  0.001244  1
  Ni  Ni7  1  0.333333  0.666667  0.001351  1
  I  I8  1  0.333333  0.666667  0.257054  1
  I  I9  1  0.666667  0.333333  0.748840  1
