# generated using pymatgen
data_Li4CaYb(TmSi4)2
_symmetry_space_group_name_H-M   'P 1'
_cell_length_a   3.78276000
_cell_length_b   7.72996695
_cell_length_c   10.32064082
_cell_angle_alpha   90.01342448
_cell_angle_beta   90.00000000
_cell_angle_gamma   90.00000000
_symmetry_Int_Tables_number   1
_chemical_formula_structural   Li4CaYb(TmSi4)2
_chemical_formula_sum   'Li4 Ca1 Yb1 Tm2 Si8'
_cell_volume   301.78182272
_cell_formula_units_Z   1
loop_
 _symmetry_equiv_pos_site_id
 _symmetry_equiv_pos_as_xyz
  1  'x, y, z'
loop_
 _atom_site_type_symbol
 _atom_site_label
 _atom_site_symmetry_multiplicity
 _atom_site_fract_x
 _atom_site_fract_y
 _atom_site_fract_z
 _atom_site_occupancy
  Li  Li0  1  0.250000  0.996628  0.392008  1
  Li  Li1  1  0.750000  0.012135  0.608405  1
  Li  Li2  1  0.250000  0.492328  0.108115  1
  Li  Li3  1  0.750000  0.510330  0.893952  1
  Ca  Ca4  1  0.750000  0.362349  0.364637  1
  Yb  Yb5  1  0.750000  0.859470  0.134398  1
  Tm  Tm6  1  0.250000  0.129504  0.863639  1
  Tm  Tm7  1  0.250000  0.631848  0.635857  1
  Si  Si8  1  0.750000  0.261230  0.059826  1
  Si  Si9  1  0.250000  0.737931  0.927165  1
  Si  Si10  1  0.750000  0.765217  0.439122  1
  Si  Si11  1  0.250000  0.240307  0.573754  1
  Si  Si12  1  0.750000  0.841423  0.813465  1
  Si  Si13  1  0.250000  0.154724  0.169929  1
  Si  Si14  1  0.750000  0.344096  0.687481  1
  Si  Si15  1  0.250000  0.660478  0.328244  1
