# generated using pymatgen
data_TbEr3(CdNi2)2
_symmetry_space_group_name_H-M   'P 1'
_cell_length_a   7.39112468
_cell_length_b   7.39112505
_cell_length_c   3.60913700
_cell_angle_alpha   90.00000000
_cell_angle_beta   90.00000000
_cell_angle_gamma   90.12097783
_symmetry_Int_Tables_number   1
_chemical_formula_structural   TbEr3(CdNi2)2
_chemical_formula_sum   'Tb1 Er3 Cd2 Ni4'
_cell_volume   197.16211953
_cell_formula_units_Z   1
loop_
 _symmetry_equiv_pos_site_id
 _symmetry_equiv_pos_as_xyz
  1  'x, y, z'
loop_
 _atom_site_type_symbol
 _atom_site_label
 _atom_site_symmetry_multiplicity
 _atom_site_fract_x
 _atom_site_fract_y
 _atom_site_fract_z
 _atom_site_occupancy
  Tb  Tb0  1  0.826629  0.673371  0.500000  1
  Er  Er1  1  0.673133  0.173980  0.500000  1
  Er  Er2  1  0.326020  0.826867  0.500000  1
  Er  Er3  1  0.173582  0.326418  0.500000  1
  Cd  Cd4  1  0.001031  0.001059  0.000000  1
  Cd  Cd5  1  0.498941  0.498969  0.000000  1
  Ni  Ni6  1  0.122876  0.617497  0.000000  1
  Ni  Ni7  1  0.882503  0.377124  0.000000  1
  Ni  Ni8  1  0.615762  0.884238  0.000000  1
  Ni  Ni9  1  0.379526  0.120474  0.000000  1
