# generated using pymatgen
data_Zr2In(Co3B2)3
_symmetry_space_group_name_H-M   'P 1'
_cell_length_a   5.72286007
_cell_length_b   5.72285975
_cell_length_c   5.72286014
_cell_angle_alpha   95.32358681
_cell_angle_beta   95.32358653
_cell_angle_gamma   95.32360097
_symmetry_Int_Tables_number   1
_chemical_formula_structural   Zr2In(Co3B2)3
_chemical_formula_sum   'Zr2 In1 Co9 B6'
_cell_volume   184.84238810
_cell_formula_units_Z   1
loop_
 _symmetry_equiv_pos_site_id
 _symmetry_equiv_pos_as_xyz
  1  'x, y, z'
loop_
 _atom_site_type_symbol
 _atom_site_label
 _atom_site_symmetry_multiplicity
 _atom_site_fract_x
 _atom_site_fract_y
 _atom_site_fract_z
 _atom_site_occupancy
  Zr  Zr0  1  0.673153  0.673153  0.673153  1
  Zr  Zr1  1  0.326847  0.326847  0.326847  1
  In  In2  1  0.000000  0.000000  0.000000  1
  Co  Co3  1  0.000000  0.000000  0.500000  1
  Co  Co4  1  0.500000  0.000000  0.000000  1
  Co  Co5  1  0.000000  0.500000  0.000000  1
  Co  Co6  1  0.699856  0.201092  0.699856  1
  Co  Co7  1  0.699856  0.699856  0.201092  1
  Co  Co8  1  0.201092  0.699856  0.699856  1
  Co  Co9  1  0.300144  0.798908  0.300144  1
  Co  Co10  1  0.300144  0.300144  0.798908  1
  Co  Co11  1  0.798908  0.300144  0.300144  1
  B  B12  1  0.615207  0.384793  0.000000  1
  B  B13  1  0.000000  0.615207  0.384793  1
  B  B14  1  0.384793  0.000000  0.615207  1
  B  B15  1  0.000000  0.384793  0.615207  1
  B  B16  1  0.615207  0.000000  0.384793  1
  B  B17  1  0.384793  0.615207  0.000000  1
