# generated using pymatgen
data_CsPu2O6
_symmetry_space_group_name_H-M   'P 1'
_cell_length_a   7.87863206
_cell_length_b   7.87690865
_cell_length_c   7.87665300
_cell_angle_alpha   119.99893060
_cell_angle_beta   90.00000000
_cell_angle_gamma   119.99529199
_symmetry_Int_Tables_number   1
_chemical_formula_structural   CsPu2O6
_chemical_formula_sum   'Cs2 Pu4 O12'
_cell_volume   345.67762027
_cell_formula_units_Z   2
loop_
 _symmetry_equiv_pos_site_id
 _symmetry_equiv_pos_as_xyz
  1  'x, y, z'
loop_
 _atom_site_type_symbol
 _atom_site_label
 _atom_site_symmetry_multiplicity
 _atom_site_fract_x
 _atom_site_fract_y
 _atom_site_fract_z
 _atom_site_occupancy
  Cs  Cs0  1  0.874998  0.749999  0.125000  1
  Cs  Cs1  1  0.125001  0.250000  0.874999  1
  Pu  Pu2  1  0.500000  0.000000  0.000000  1
  Pu  Pu3  1  0.500000  0.000000  0.500000  1
  Pu  Pu4  1  0.000000  0.500000  0.500000  1
  Pu  Pu5  1  0.500000  0.500000  0.500000  1
  O  O6  1  0.435660  0.249994  0.185659  1
  O  O7  1  0.814326  0.249987  0.185649  1
  O  O8  1  0.435662  0.871324  0.185663  1
  O  O9  1  0.185670  0.371322  0.435661  1
  O  O10  1  0.185673  0.750012  0.435662  1
  O  O11  1  0.564340  0.750005  0.435664  1
  O  O12  1  0.814329  0.628678  0.564339  1
  O  O13  1  0.435660  0.249994  0.564336  1
  O  O14  1  0.814327  0.249987  0.564339  1
  O  O15  1  0.185673  0.750012  0.814350  1
  O  O16  1  0.564340  0.750005  0.814340  1
  O  O17  1  0.564339  0.128675  0.814337  1
