# generated using pymatgen
data_Tb7Dy9Cd4Os3Pt
_symmetry_space_group_name_H-M   'P 1'
_cell_length_a   9.63021289
_cell_length_b   9.71672537
_cell_length_c   9.73468600
_cell_angle_alpha   59.93883576
_cell_angle_beta   59.64048180
_cell_angle_gamma   59.57925476
_symmetry_Int_Tables_number   1
_chemical_formula_structural   Tb7Dy9Cd4Os3Pt
_chemical_formula_sum   'Tb7 Dy9 Cd4 Os3 Pt1'
_cell_volume   639.99631231
_cell_formula_units_Z   1
loop_
 _symmetry_equiv_pos_site_id
 _symmetry_equiv_pos_as_xyz
  1  'x, y, z'
loop_
 _atom_site_type_symbol
 _atom_site_label
 _atom_site_symmetry_multiplicity
 _atom_site_fract_x
 _atom_site_fract_y
 _atom_site_fract_z
 _atom_site_occupancy
  Tb  Tb0  1  0.814226  0.804627  0.190574  1
  Tb  Tb1  1  0.937320  0.560675  0.561229  1
  Tb  Tb2  1  0.552968  0.940653  0.940188  1
  Tb  Tb3  1  0.552968  0.940653  0.566192  1
  Tb  Tb4  1  0.937320  0.560675  0.940776  1
  Tb  Tb5  1  0.552957  0.566417  0.940314  1
  Tb  Tb6  1  0.937497  0.940828  0.560837  1
  Dy  Dy7  1  0.346616  0.350337  0.349160  1
  Dy  Dy8  1  0.346616  0.350337  0.953886  1
  Dy  Dy9  1  0.346989  0.954472  0.349269  1
  Dy  Dy10  1  0.967971  0.344004  0.344012  1
  Dy  Dy11  1  0.813718  0.189756  0.190779  1
  Dy  Dy12  1  0.186264  0.810580  0.810954  1
  Dy  Dy13  1  0.186264  0.810580  0.192202  1
  Dy  Dy14  1  0.813718  0.189756  0.805748  1
  Dy  Dy15  1  0.186886  0.190611  0.811251  1
  Cd  Cd16  1  0.580806  0.579413  0.580195  1
  Cd  Cd17  1  0.580806  0.579413  0.259587  1
  Cd  Cd18  1  0.580867  0.258727  0.580203  1
  Cd  Cd19  1  0.255266  0.581144  0.581794  1
  Os  Os20  1  0.147951  0.137400  0.135849  1
  Os  Os21  1  0.147951  0.137400  0.578800  1
  Os  Os22  1  0.148769  0.578844  0.136194  1
  Pt  Pt23  1  0.577288  0.142698  0.140008  1
