# generated using pymatgen
data_Na2Cr(Ni3P2)3
_symmetry_space_group_name_H-M   'P 1'
_cell_length_a   3.63565900
_cell_length_b   10.36700400
_cell_length_c   11.86523200
_cell_angle_alpha   90.00000000
_cell_angle_beta   90.00000000
_cell_angle_gamma   90.00000000
_symmetry_Int_Tables_number   1
_chemical_formula_structural   Na2Cr(Ni3P2)3
_chemical_formula_sum   'Na4 Cr2 Ni18 P12'
_cell_volume   447.21117070
_cell_formula_units_Z   2
loop_
 _symmetry_equiv_pos_site_id
 _symmetry_equiv_pos_as_xyz
  1  'x, y, z'
loop_
 _atom_site_type_symbol
 _atom_site_label
 _atom_site_symmetry_multiplicity
 _atom_site_fract_x
 _atom_site_fract_y
 _atom_site_fract_z
 _atom_site_occupancy
  Na  Na0  1  0.250000  0.582702  0.705405  1
  Na  Na1  1  0.250000  0.917298  0.205405  1
  Na  Na2  1  0.750000  0.417438  0.295410  1
  Na  Na3  1  0.750000  0.082562  0.795410  1
  Cr  Cr4  1  0.250000  0.709731  0.988092  1
  Cr  Cr5  1  0.250000  0.790269  0.488092  1
  Ni  Ni6  1  0.750000  0.285780  0.008945  1
  Ni  Ni7  1  0.750000  0.214220  0.508945  1
  Ni  Ni8  1  0.250000  0.406921  0.487008  1
  Ni  Ni9  1  0.250000  0.093079  0.987008  1
  Ni  Ni10  1  0.750000  0.590497  0.513488  1
  Ni  Ni11  1  0.750000  0.909503  0.013488  1
  Ni  Ni12  1  0.250000  0.218778  0.177307  1
  Ni  Ni13  1  0.250000  0.281222  0.677307  1
  Ni  Ni14  1  0.750000  0.783182  0.822404  1
  Ni  Ni15  1  0.750000  0.716818  0.322404  1
  Ni  Ni16  1  0.250000  0.884206  0.700738  1
  Ni  Ni17  1  0.250000  0.615794  0.200738  1
  Ni  Ni18  1  0.750000  0.117231  0.300655  1
  Ni  Ni19  1  0.750000  0.382769  0.800655  1
  Ni  Ni20  1  0.250000  0.465386  0.930578  1
  Ni  Ni21  1  0.250000  0.034614  0.430578  1
  Ni  Ni22  1  0.750000  0.529658  0.069637  1
  Ni  Ni23  1  0.750000  0.970342  0.569637  1
  P  P24  1  0.250000  0.416120  0.114073  1
  P  P25  1  0.250000  0.083880  0.614073  1
  P  P26  1  0.750000  0.586729  0.887707  1
  P  P27  1  0.750000  0.913271  0.387707  1
  P  P28  1  0.250000  0.265776  0.868470  1
  P  P29  1  0.250000  0.234224  0.368470  1
  P  P30  1  0.750000  0.732583  0.129480  1
  P  P31  1  0.750000  0.767417  0.629480  1
  P  P32  1  0.250000  0.598202  0.391625  1
  P  P33  1  0.250000  0.901798  0.891625  1
  P  P34  1  0.750000  0.398939  0.608976  1
  P  P35  1  0.750000  0.101061  0.108976  1
