# generated using pymatgen
data_Dy7Er(Sc3Ga4)4
_symmetry_space_group_name_H-M   'P 1'
_cell_length_a   7.27823108
_cell_length_b   7.53882243
_cell_length_c   14.48214302
_cell_angle_alpha   89.98321758
_cell_angle_beta   90.00373903
_cell_angle_gamma   90.00355123
_symmetry_Int_Tables_number   1
_chemical_formula_structural   Dy7Er(Sc3Ga4)4
_chemical_formula_sum   'Dy7 Er1 Sc12 Ga16'
_cell_volume   794.62489277
_cell_formula_units_Z   1
loop_
 _symmetry_equiv_pos_site_id
 _symmetry_equiv_pos_as_xyz
  1  'x, y, z'
loop_
 _atom_site_type_symbol
 _atom_site_label
 _atom_site_symmetry_multiplicity
 _atom_site_fract_x
 _atom_site_fract_y
 _atom_site_fract_z
 _atom_site_occupancy
  Dy  Dy0  1  0.011616  0.176854  0.095740  1
  Dy  Dy1  1  0.988397  0.823123  0.904160  1
  Dy  Dy2  1  0.488348  0.676853  0.904363  1
  Dy  Dy3  1  0.988403  0.822937  0.595759  1
  Dy  Dy4  1  0.511592  0.323135  0.095738  1
  Dy  Dy5  1  0.011690  0.176788  0.404309  1
  Dy  Dy6  1  0.511633  0.323270  0.404485  1
  Er  Er7  1  0.488418  0.677290  0.595960  1
  Sc  Sc8  1  0.161715  0.503312  0.749815  1
  Sc  Sc9  1  0.838382  0.496848  0.250021  1
  Sc  Sc10  1  0.338489  0.003073  0.250015  1
  Sc  Sc11  1  0.661425  0.996662  0.749827  1
  Sc  Sc12  1  0.330393  0.175477  0.624371  1
  Sc  Sc13  1  0.669545  0.824477  0.375777  1
  Sc  Sc14  1  0.169806  0.675432  0.375680  1
  Sc  Sc15  1  0.669745  0.824647  0.124359  1
  Sc  Sc16  1  0.829926  0.324764  0.624302  1
  Sc  Sc17  1  0.330302  0.175384  0.875490  1
  Sc  Sc18  1  0.830204  0.324612  0.875538  1
  Sc  Sc19  1  0.169730  0.675441  0.124335  1
  Ga  Ga20  1  0.031875  0.117227  0.749943  1
  Ga  Ga21  1  0.968164  0.882730  0.250028  1
  Ga  Ga22  1  0.468154  0.617290  0.250032  1
  Ga  Ga23  1  0.531721  0.383107  0.749840  1
  Ga  Ga24  1  0.285184  0.872548  0.749775  1
  Ga  Ga25  1  0.715112  0.127067  0.250009  1
  Ga  Ga26  1  0.215164  0.372821  0.250057  1
  Ga  Ga27  1  0.784448  0.627316  0.749739  1
  Ga  Ga28  1  0.160488  0.465584  0.540022  1
  Ga  Ga29  1  0.840056  0.534901  0.460244  1
  Ga  Ga30  1  0.340359  0.964641  0.460369  1
  Ga  Ga31  1  0.840178  0.534902  0.039780  1
  Ga  Ga32  1  0.659608  0.034264  0.540046  1
  Ga  Ga33  1  0.159722  0.465100  0.960140  1
  Ga  Ga34  1  0.659790  0.034990  0.960121  1
  Ga  Ga35  1  0.340218  0.965137  0.039812  1
