# generated using pymatgen
data_Yb5Pr2Co4Sn13
_symmetry_space_group_name_H-M   'P 1'
_cell_length_a   11.16622800
_cell_length_b   11.16622800
_cell_length_c   4.59574600
_cell_angle_alpha   90.00000000
_cell_angle_beta   90.00000000
_cell_angle_gamma   90.00000000
_symmetry_Int_Tables_number   1
_chemical_formula_structural   Yb5Pr2Co4Sn13
_chemical_formula_sum   'Yb5 Pr2 Co4 Sn13'
_cell_volume   573.01897115
_cell_formula_units_Z   1
loop_
 _symmetry_equiv_pos_site_id
 _symmetry_equiv_pos_as_xyz
  1  'x, y, z'
loop_
 _atom_site_type_symbol
 _atom_site_label
 _atom_site_symmetry_multiplicity
 _atom_site_fract_x
 _atom_site_fract_y
 _atom_site_fract_z
 _atom_site_occupancy
  Yb  Yb0  1  0.000000  0.000000  0.000000  1
  Yb  Yb1  1  0.337253  0.671252  0.500000  1
  Yb  Yb2  1  0.662747  0.328748  0.500000  1
  Yb  Yb3  1  0.328748  0.337253  0.500000  1
  Yb  Yb4  1  0.671252  0.662747  0.500000  1
  Pr  Pr5  1  0.500000  0.000000  0.500000  1
  Pr  Pr6  1  0.000000  0.500000  0.500000  1
  Co  Co7  1  0.119964  0.724440  0.000000  1
  Co  Co8  1  0.880036  0.275560  0.000000  1
  Co  Co9  1  0.275560  0.119964  0.000000  1
  Co  Co10  1  0.724440  0.880036  0.000000  1
  Sn  Sn11  1  0.282651  0.889006  0.000000  1
  Sn  Sn12  1  0.717349  0.110994  0.000000  1
  Sn  Sn13  1  0.110994  0.282651  0.000000  1
  Sn  Sn14  1  0.889006  0.717349  0.000000  1
  Sn  Sn15  1  0.076250  0.806180  0.500000  1
  Sn  Sn16  1  0.923750  0.193820  0.500000  1
  Sn  Sn17  1  0.193820  0.076250  0.500000  1
  Sn  Sn18  1  0.806180  0.923750  0.500000  1
  Sn  Sn19  1  0.520985  0.784269  0.000000  1
  Sn  Sn20  1  0.479015  0.215731  0.000000  1
  Sn  Sn21  1  0.215731  0.520985  0.000000  1
  Sn  Sn22  1  0.784269  0.479015  0.000000  1
  Sn  Sn23  1  0.500000  0.500000  0.000000  1
