# generated using pymatgen
data_Sm(Fe2Tc)4
_symmetry_space_group_name_H-M   'P 1'
_cell_length_a   4.72691068
_cell_length_b   6.55356032
_cell_length_c   6.55355995
_cell_angle_alpha   82.52699896
_cell_angle_beta   68.86069197
_cell_angle_gamma   68.86068607
_symmetry_Int_Tables_number   1
_chemical_formula_structural   Sm(Fe2Tc)4
_chemical_formula_sum   'Sm1 Fe8 Tc4'
_cell_volume   176.61265206
_cell_formula_units_Z   1
loop_
 _symmetry_equiv_pos_site_id
 _symmetry_equiv_pos_as_xyz
  1  'x, y, z'
loop_
 _atom_site_type_symbol
 _atom_site_label
 _atom_site_symmetry_multiplicity
 _atom_site_fract_x
 _atom_site_fract_y
 _atom_site_fract_z
 _atom_site_occupancy
  Sm  Sm0  1  0.000000  0.000000  0.000000  1
  Fe  Fe1  1  0.000000  0.000000  0.500000  1
  Fe  Fe2  1  0.500000  0.000000  0.500000  1
  Fe  Fe3  1  0.500000  0.500000  0.000000  1
  Fe  Fe4  1  0.000000  0.500000  0.000000  1
  Fe  Fe5  1  0.500000  0.779769  0.220231  1
  Fe  Fe6  1  0.500000  0.220231  0.779769  1
  Fe  Fe7  1  0.720231  0.779769  0.779769  1
  Fe  Fe8  1  0.279769  0.220231  0.220231  1
  Tc  Tc9  1  0.000000  0.360207  0.639793  1
  Tc  Tc10  1  0.000000  0.639793  0.360207  1
  Tc  Tc11  1  0.639793  0.360207  0.360207  1
  Tc  Tc12  1  0.360207  0.639793  0.639793  1
