# generated using pymatgen
data_Tm10Ga3CoBi2
_symmetry_space_group_name_H-M   'P 1'
_cell_length_a   8.51953354
_cell_length_b   8.66964144
_cell_length_c   7.91929335
_cell_angle_alpha   61.60702505
_cell_angle_beta   63.53498975
_cell_angle_gamma   54.85796190
_symmetry_Int_Tables_number   1
_chemical_formula_structural   Tm10Ga3CoBi2
_chemical_formula_sum   'Tm10 Ga3 Co1 Bi2'
_cell_volume   408.57880900
_cell_formula_units_Z   1
loop_
 _symmetry_equiv_pos_site_id
 _symmetry_equiv_pos_as_xyz
  1  'x, y, z'
loop_
 _atom_site_type_symbol
 _atom_site_label
 _atom_site_symmetry_multiplicity
 _atom_site_fract_x
 _atom_site_fract_y
 _atom_site_fract_z
 _atom_site_occupancy
  Tm  Tm0  1  0.797575  0.484157  0.515843  1
  Tm  Tm1  1  0.453252  0.807755  0.192245  1
  Tm  Tm2  1  0.295672  0.981651  0.722812  1
  Tm  Tm3  1  0.000135  0.277188  0.018349  1
  Tm  Tm4  1  0.192245  0.546748  0.453252  1
  Tm  Tm5  1  0.515843  0.202425  0.797575  1
  Tm  Tm6  1  0.722812  0.999865  0.295672  1
  Tm  Tm7  1  0.018349  0.704328  0.000135  1
  Tm  Tm8  1  0.500146  0.499854  0.999648  1
  Tm  Tm9  1  0.999648  0.000352  0.500146  1
  Ga  Ga10  1  0.866318  0.133682  0.866318  1
  Ga  Ga11  1  0.641377  0.358623  0.361048  1
  Ga  Ga12  1  0.361048  0.638952  0.641377  1
  Co  Co13  1  0.122537  0.877463  0.122537  1
  Bi  Bi14  1  0.756520  0.743480  0.756520  1
  Bi  Bi15  1  0.256520  0.243480  0.256520  1
