# generated using pymatgen
data_Be6V3Si2W
_symmetry_space_group_name_H-M   'P 1'
_cell_length_a   4.42560400
_cell_length_b   4.42560444
_cell_length_c   7.42438200
_cell_angle_alpha   90.00000000
_cell_angle_beta   90.00000000
_cell_angle_gamma   119.99999671
_symmetry_Int_Tables_number   1
_chemical_formula_structural   Be6V3Si2W
_chemical_formula_sum   'Be6 V3 Si2 W1'
_cell_volume   125.93199992
_cell_formula_units_Z   1
loop_
 _symmetry_equiv_pos_site_id
 _symmetry_equiv_pos_as_xyz
  1  'x, y, z'
loop_
 _atom_site_type_symbol
 _atom_site_label
 _atom_site_symmetry_multiplicity
 _atom_site_fract_x
 _atom_site_fract_y
 _atom_site_fract_z
 _atom_site_occupancy
  Be  Be0  1  0.826006  0.652012  0.251411  1
  Be  Be1  1  0.173977  0.826023  0.748695  1
  Be  Be2  1  0.652047  0.826023  0.748695  1
  Be  Be3  1  0.347988  0.173994  0.251411  1
  Be  Be4  1  0.826006  0.173994  0.251411  1
  Be  Be5  1  0.173977  0.347953  0.748695  1
  V  V6  1  0.666667  0.333333  0.561146  1
  V  V7  1  0.666667  0.333333  0.937533  1
  V  V8  1  0.333333  0.666667  0.439704  1
  Si  Si9  1  0.000000  0.000000  0.997895  1
  Si  Si10  1  0.000000  0.000000  0.501493  1
  W  W11  1  0.333333  0.666667  0.061913  1
