# generated using pymatgen
data_TmLu2Hf(Al3Ir)6
_symmetry_space_group_name_H-M   'P 1'
_cell_length_a   7.51737200
_cell_length_b   7.51098567
_cell_length_c   9.36370300
_cell_angle_alpha   90.00000000
_cell_angle_beta   90.00000000
_cell_angle_gamma   119.62298029
_symmetry_Int_Tables_number   1
_chemical_formula_structural   TmLu2Hf(Al3Ir)6
_chemical_formula_sum   'Tm1 Lu2 Hf1 Al18 Ir6'
_cell_volume   459.59856187
_cell_formula_units_Z   1
loop_
 _symmetry_equiv_pos_site_id
 _symmetry_equiv_pos_as_xyz
  1  'x, y, z'
loop_
 _atom_site_type_symbol
 _atom_site_label
 _atom_site_symmetry_multiplicity
 _atom_site_fract_x
 _atom_site_fract_y
 _atom_site_fract_z
 _atom_site_occupancy
  Tm  Tm0  1  0.005768  0.327439  0.750000  1
  Lu  Lu1  1  0.671856  0.996130  0.250000  1
  Lu  Lu2  1  0.328633  0.006415  0.750000  1
  Hf  Hf3  1  0.997378  0.672636  0.250000  1
  Al  Al4  1  0.125982  0.123688  0.250000  1
  Al  Al5  1  0.871318  0.870293  0.750000  1
  Al  Al6  1  0.999699  0.337221  0.079467  1
  Al  Al7  1  0.999752  0.665069  0.927183  1
  Al  Al8  1  0.999752  0.665069  0.572817  1
  Al  Al9  1  0.333192  0.998297  0.420586  1
  Al  Al10  1  0.999699  0.337221  0.420533  1
  Al  Al11  1  0.664258  0.998810  0.575448  1
  Al  Al12  1  0.664258  0.998810  0.924552  1
  Al  Al13  1  0.333192  0.998297  0.079414  1
  Al  Al14  1  0.333344  0.333218  0.553514  1
  Al  Al15  1  0.668818  0.667188  0.441882  1
  Al  Al16  1  0.668818  0.667188  0.058118  1
  Al  Al17  1  0.333344  0.333218  0.946486  1
  Al  Al18  1  0.336562  0.549845  0.250000  1
  Al  Al19  1  0.660549  0.451372  0.750000  1
  Al  Al20  1  0.554721  0.343680  0.250000  1
  Al  Al21  1  0.450500  0.660036  0.750000  1
  Ir  Ir22  1  0.672718  0.327809  0.000924  1
  Ir  Ir23  1  0.327286  0.672720  0.001679  1
  Ir  Ir24  1  0.327286  0.672720  0.498321  1
  Ir  Ir25  1  0.672718  0.327809  0.499076  1
  Ir  Ir26  1  0.999300  0.998901  0.001119  1
  Ir  Ir27  1  0.999300  0.998901  0.498881  1
