# generated using pymatgen
data_LiLa10(ZnRh2)3
_symmetry_space_group_name_H-M   'P 1'
_cell_length_a   8.67041338
_cell_length_b   8.70927562
_cell_length_c   8.67041300
_cell_angle_alpha   109.56204179
_cell_angle_beta   109.38024209
_cell_angle_gamma   109.56204837
_symmetry_Int_Tables_number   1
_chemical_formula_structural   LiLa10(ZnRh2)3
_chemical_formula_sum   'Li1 La10 Zn3 Rh6'
_cell_volume   503.44463182
_cell_formula_units_Z   1
loop_
 _symmetry_equiv_pos_site_id
 _symmetry_equiv_pos_as_xyz
  1  'x, y, z'
loop_
 _atom_site_type_symbol
 _atom_site_label
 _atom_site_symmetry_multiplicity
 _atom_site_fract_x
 _atom_site_fract_y
 _atom_site_fract_z
 _atom_site_occupancy
  Li  Li0  1  0.000000  0.911068  0.500001  1
  La  La1  1  0.253629  0.688530  0.439754  1
  La  La2  1  0.748711  0.810046  0.055837  1
  La  La3  1  0.444164  0.254207  0.692874  1
  La  La4  1  0.686124  0.434902  0.246371  1
  La  La5  1  0.060247  0.748776  0.813876  1
  La  La6  1  0.807126  0.061334  0.751289  1
  La  La7  1  0.221672  0.221207  0.221486  1
  La  La8  1  0.499815  0.999535  0.278328  1
  La  La9  1  0.278514  0.499723  0.000186  1
  La  La10  1  0.000000  0.278011  0.500001  1
  Zn  Zn11  1  0.498082  0.999963  0.907996  1
  Zn  Zn12  1  0.592004  0.591968  0.590086  1
  Zn  Zn13  1  0.909914  0.501881  0.001919  1
  Rh  Rh14  1  0.254068  0.133035  0.889138  1
  Rh  Rh15  1  0.748979  0.370534  0.619676  1
  Rh  Rh16  1  0.880323  0.250859  0.129302  1
  Rh  Rh17  1  0.135070  0.878968  0.245934  1
  Rh  Rh18  1  0.610861  0.743899  0.364929  1
  Rh  Rh19  1  0.370697  0.621555  0.751021  1
