# generated using pymatgen
data_Nb12ZnGa8Co3N4
_symmetry_space_group_name_H-M   'P 1'
_cell_length_a   8.21010250
_cell_length_b   8.21010287
_cell_length_c   8.21010320
_cell_angle_alpha   60.26600897
_cell_angle_beta   60.26600743
_cell_angle_gamma   60.26601166
_symmetry_Int_Tables_number   1
_chemical_formula_structural   Nb12ZnGa8Co3N4
_chemical_formula_sum   'Nb12 Zn1 Ga8 Co3 N4'
_cell_volume   393.67496675
_cell_formula_units_Z   1
loop_
 _symmetry_equiv_pos_site_id
 _symmetry_equiv_pos_as_xyz
  1  'x, y, z'
loop_
 _atom_site_type_symbol
 _atom_site_label
 _atom_site_symmetry_multiplicity
 _atom_site_fract_x
 _atom_site_fract_y
 _atom_site_fract_z
 _atom_site_occupancy
  Nb  Nb0  1  0.442096  0.442096  0.055042  1
  Nb  Nb1  1  0.062030  0.439193  0.062030  1
  Nb  Nb2  1  0.439193  0.062030  0.062030  1
  Nb  Nb3  1  0.062030  0.062030  0.439193  1
  Nb  Nb4  1  0.442096  0.055042  0.442096  1
  Nb  Nb5  1  0.055042  0.442096  0.442096  1
  Nb  Nb6  1  0.807904  0.807904  0.194958  1
  Nb  Nb7  1  0.187970  0.810807  0.187970  1
  Nb  Nb8  1  0.810807  0.187970  0.187970  1
  Nb  Nb9  1  0.187970  0.187970  0.810807  1
  Nb  Nb10  1  0.807904  0.194958  0.807904  1
  Nb  Nb11  1  0.194958  0.807904  0.807904  1
  Zn  Zn12  1  0.625000  0.625000  0.625000  1
  Ga  Ga13  1  0.839981  0.839981  0.496827  1
  Ga  Ga14  1  0.839981  0.496827  0.839981  1
  Ga  Ga15  1  0.496827  0.839981  0.839981  1
  Ga  Ga16  1  0.834464  0.834464  0.834464  1
  Ga  Ga17  1  0.410019  0.410019  0.753173  1
  Ga  Ga18  1  0.410019  0.753173  0.410019  1
  Ga  Ga19  1  0.753173  0.410019  0.410019  1
  Ga  Ga20  1  0.415536  0.415536  0.415536  1
  Co  Co21  1  0.625000  0.625000  0.125000  1
  Co  Co22  1  0.625000  0.125000  0.625000  1
  Co  Co23  1  0.125000  0.625000  0.625000  1
  N  N24  1  0.125000  0.125000  0.625000  1
  N  N25  1  0.125000  0.625000  0.125000  1
  N  N26  1  0.625000  0.125000  0.125000  1
  N  N27  1  0.125000  0.125000  0.125000  1
