# generated using pymatgen
data_Tb2DyPa(CoB4)4
_symmetry_space_group_name_H-M   'P 1'
_cell_length_a   3.40318400
_cell_length_b   5.91214317
_cell_length_c   11.46247810
_cell_angle_alpha   90.02124709
_cell_angle_beta   90.00000000
_cell_angle_gamma   90.00000000
_symmetry_Int_Tables_number   1
_chemical_formula_structural   Tb2DyPa(CoB4)4
_chemical_formula_sum   'Tb2 Dy1 Pa1 Co4 B16'
_cell_volume   230.62631627
_cell_formula_units_Z   1
loop_
 _symmetry_equiv_pos_site_id
 _symmetry_equiv_pos_as_xyz
  1  'x, y, z'
loop_
 _atom_site_type_symbol
 _atom_site_label
 _atom_site_symmetry_multiplicity
 _atom_site_fract_x
 _atom_site_fract_y
 _atom_site_fract_z
 _atom_site_occupancy
  Tb  Tb0  1  0.500000  0.128338  0.650060  1
  Tb  Tb1  1  0.500000  0.872017  0.351513  1
  Dy  Dy2  1  0.500000  0.627580  0.848997  1
  Pa  Pa3  1  0.500000  0.372968  0.150028  1
  Co  Co4  1  0.500000  0.364717  0.408972  1
  Co  Co5  1  0.500000  0.634813  0.588777  1
  Co  Co6  1  0.500000  0.134233  0.911784  1
  Co  Co7  1  0.500000  0.864523  0.090412  1
  B  B8  1  0.000000  0.110969  0.045326  1
  B  B9  1  0.000000  0.888041  0.953396  1
  B  B10  1  0.000000  0.389447  0.546108  1
  B  B11  1  0.000000  0.611733  0.455021  1
  B  B12  1  0.000000  0.139724  0.467651  1
  B  B13  1  0.000000  0.860874  0.533048  1
  B  B14  1  0.000000  0.360762  0.964848  1
  B  B15  1  0.000000  0.638393  0.033015  1
  B  B16  1  0.000000  0.021122  0.190195  1
  B  B17  1  0.000000  0.976814  0.809802  1
  B  B18  1  0.000000  0.477820  0.690159  1
  B  B19  1  0.000000  0.522376  0.310699  1
  B  B20  1  0.000000  0.218089  0.315728  1
  B  B21  1  0.000000  0.782248  0.684769  1
  B  B22  1  0.000000  0.284087  0.815325  1
  B  B23  1  0.000000  0.718315  0.184367  1
