# generated using pymatgen
data_Dy3Tm2In2Bi
_symmetry_space_group_name_H-M   'P 1'
_cell_length_a   6.58388402
_cell_length_b   9.01915569
_cell_length_c   8.98708647
_cell_angle_alpha   119.81542060
_cell_angle_beta   90.00804433
_cell_angle_gamma   89.99037400
_symmetry_Int_Tables_number   1
_chemical_formula_structural   Dy3Tm2In2Bi
_chemical_formula_sum   'Dy6 Tm4 In4 Bi2'
_cell_volume   463.02278578
_cell_formula_units_Z   2
loop_
 _symmetry_equiv_pos_site_id
 _symmetry_equiv_pos_as_xyz
  1  'x, y, z'
loop_
 _atom_site_type_symbol
 _atom_site_label
 _atom_site_symmetry_multiplicity
 _atom_site_fract_x
 _atom_site_fract_y
 _atom_site_fract_z
 _atom_site_occupancy
  Dy  Dy0  1  0.749975  0.229055  0.991169  1
  Dy  Dy1  1  0.749964  0.770858  0.761594  1
  Dy  Dy2  1  0.749951  0.000138  0.239439  1
  Dy  Dy3  1  0.250037  0.764576  0.000291  1
  Dy  Dy4  1  0.250050  0.235389  0.235592  1
  Dy  Dy5  1  0.250034  0.000001  0.762855  1
  Tm  Tm6  1  0.492776  0.328856  0.667330  1
  Tm  Tm7  1  0.492915  0.671084  0.338490  1
  Tm  Tm8  1  0.007113  0.671099  0.338442  1
  Tm  Tm9  1  0.007199  0.328849  0.667245  1
  In  In10  1  0.749998  0.999904  0.594957  1
  In  In11  1  0.249996  0.398975  0.003446  1
  In  In12  1  0.250052  0.600776  0.603854  1
  In  In13  1  0.249987  0.000279  0.399292  1
  Bi  Bi14  1  0.750001  0.603434  0.999667  1
  Bi  Bi15  1  0.749950  0.396726  0.396340  1
