# generated using pymatgen
data_TbY3(Al8Ni3)3
_symmetry_space_group_name_H-M   'P 1'
_cell_length_a   7.32398206
_cell_length_b   7.35598528
_cell_length_c   12.81491135
_cell_angle_alpha   84.57261726
_cell_angle_beta   79.08842629
_cell_angle_gamma   59.96361731
_symmetry_Int_Tables_number   1
_chemical_formula_structural   TbY3(Al8Ni3)3
_chemical_formula_sum   'Tb1 Y3 Al24 Ni9'
_cell_volume   586.88274617
_cell_formula_units_Z   1
loop_
 _symmetry_equiv_pos_site_id
 _symmetry_equiv_pos_as_xyz
  1  'x, y, z'
loop_
 _atom_site_type_symbol
 _atom_site_label
 _atom_site_symmetry_multiplicity
 _atom_site_fract_x
 _atom_site_fract_y
 _atom_site_fract_z
 _atom_site_occupancy
  Tb  Tb0  1  0.265080  0.502050  0.194949  1
  Y  Y1  1  0.394340  0.168489  0.804972  1
  Y  Y2  1  0.605625  0.831479  0.195020  1
  Y  Y3  1  0.735011  0.497917  0.805064  1
  Al  Al4  1  0.680984  0.833557  0.948322  1
  Al  Al5  1  0.319036  0.166347  0.051697  1
  Al  Al6  1  0.146121  0.833346  0.559587  1
  Al  Al7  1  0.853875  0.166659  0.440447  1
  Al  Al8  1  0.480745  0.166742  0.557249  1
  Al  Al9  1  0.519264  0.833251  0.442757  1
  Al  Al10  1  0.214260  0.165375  0.337285  1
  Al  Al11  1  0.785734  0.834518  0.662728  1
  Al  Al12  1  0.439342  0.506756  0.662722  1
  Al  Al13  1  0.560775  0.493221  0.337271  1
  Al  Al14  1  0.111853  0.159222  0.661566  1
  Al  Al15  1  0.887994  0.840905  0.338460  1
  Al  Al16  1  0.353596  0.497144  0.948356  1
  Al  Al17  1  0.646434  0.502906  0.051635  1
  Al  Al18  1  0.012934  0.169136  0.961221  1
  Al  Al19  1  0.987023  0.830863  0.038796  1
  Al  Al20  1  0.186170  0.499723  0.442715  1
  Al  Al21  1  0.813812  0.500282  0.557315  1
  Al  Al22  1  0.729364  0.164059  0.184920  1
  Al  Al23  1  0.270753  0.835855  0.815053  1
  Al  Al24  1  0.062049  0.626835  0.813840  1
  Al  Al25  1  0.937827  0.373168  0.186129  1
  Al  Al26  1  0.851898  0.045598  0.815204  1
  Al  Al27  1  0.148081  0.954596  0.184775  1
  Ni  Ni28  1  0.119993  0.493217  0.637374  1
  Ni  Ni29  1  0.880040  0.506767  0.362607  1
  Ni  Ni30  1  0.659098  0.170411  0.000089  1
  Ni  Ni31  1  0.340941  0.829559  0.999886  1
  Ni  Ni32  1  0.538450  0.166953  0.362691  1
  Ni  Ni33  1  0.461527  0.833060  0.637324  1
  Ni  Ni34  1  0.779032  0.174117  0.637407  1
  Ni  Ni35  1  0.220918  0.825938  0.362595  1
  Ni  Ni36  1  0.000023  0.499977  0.999972  1
