# generated using pymatgen
data_Be2Os3W
_symmetry_space_group_name_H-M   'P 1'
_cell_length_a   4.67542499
_cell_length_b   4.67542523
_cell_length_c   4.56576775
_cell_angle_alpha   104.02881286
_cell_angle_beta   104.02879729
_cell_angle_gamma   121.77274257
_symmetry_Int_Tables_number   1
_chemical_formula_structural   Be2Os3W
_chemical_formula_sum   'Be2 Os3 W1'
_cell_volume   73.56820971
_cell_formula_units_Z   1
loop_
 _symmetry_equiv_pos_site_id
 _symmetry_equiv_pos_as_xyz
  1  'x, y, z'
loop_
 _atom_site_type_symbol
 _atom_site_label
 _atom_site_symmetry_multiplicity
 _atom_site_fract_x
 _atom_site_fract_y
 _atom_site_fract_z
 _atom_site_occupancy
  Be  Be0  1  0.247481  0.247481  0.994963  1
  Be  Be1  1  0.747481  0.747481  0.994963  1
  Os  Os2  1  0.162251  0.662251  0.824503  1
  Os  Os3  1  0.343767  0.157132  0.500899  1
  Os  Os4  1  0.657132  0.843767  0.500899  1
  W  W5  1  0.841887  0.341887  0.183775  1
