# generated using pymatgen
data_Nb3Zn3(Co5B2)2
_symmetry_space_group_name_H-M   'P 1'
_cell_length_a   8.63670827
_cell_length_b   8.63670827
_cell_length_c   2.93892500
_cell_angle_alpha   90.00000000
_cell_angle_beta   90.00000000
_cell_angle_gamma   90.89981622
_symmetry_Int_Tables_number   1
_chemical_formula_structural   Nb3Zn3(Co5B2)2
_chemical_formula_sum   'Nb3 Zn3 Co10 B4'
_cell_volume   219.19540425
_cell_formula_units_Z   1
loop_
 _symmetry_equiv_pos_site_id
 _symmetry_equiv_pos_as_xyz
  1  'x, y, z'
loop_
 _atom_site_type_symbol
 _atom_site_label
 _atom_site_symmetry_multiplicity
 _atom_site_fract_x
 _atom_site_fract_y
 _atom_site_fract_z
 _atom_site_occupancy
  Nb  Nb0  1  0.326406  0.826406  0.000000  1
  Nb  Nb1  1  0.175720  0.320802  0.000000  1
  Nb  Nb2  1  0.820802  0.675720  0.000000  1
  Zn  Zn3  1  0.678751  0.178751  0.000000  1
  Zn  Zn4  1  0.002446  0.998307  0.000000  1
  Zn  Zn5  1  0.498307  0.502446  0.000000  1
  Co  Co6  1  0.504955  0.004955  0.500000  1
  Co  Co7  1  0.998788  0.498788  0.500000  1
  Co  Co8  1  0.223456  0.066604  0.500000  1
  Co  Co9  1  0.779713  0.929036  0.500000  1
  Co  Co10  1  0.069546  0.777279  0.500000  1
  Co  Co11  1  0.720276  0.431411  0.500000  1
  Co  Co12  1  0.931411  0.220276  0.500000  1
  Co  Co13  1  0.277279  0.569546  0.500000  1
  Co  Co14  1  0.566604  0.723456  0.500000  1
  Co  Co15  1  0.429036  0.279713  0.500000  1
  B  B16  1  0.120860  0.620860  0.000000  1
  B  B17  1  0.875340  0.375340  0.000000  1
  B  B18  1  0.621161  0.879144  0.000000  1
  B  B19  1  0.379144  0.121161  0.000000  1
