# generated using pymatgen
data_Li8La7ErSn7Bi
_symmetry_space_group_name_H-M   'P 1'
_cell_length_a   9.67492504
_cell_length_b   9.67506593
_cell_length_c   7.80611911
_cell_angle_alpha   89.98286337
_cell_angle_beta   90.01135549
_cell_angle_gamma   119.99612462
_symmetry_Int_Tables_number   1
_chemical_formula_structural   Li8La7ErSn7Bi
_chemical_formula_sum   'Li8 La7 Er1 Sn7 Bi1'
_cell_volume   632.82595842
_cell_formula_units_Z   1
loop_
 _symmetry_equiv_pos_site_id
 _symmetry_equiv_pos_as_xyz
  1  'x, y, z'
loop_
 _atom_site_type_symbol
 _atom_site_label
 _atom_site_symmetry_multiplicity
 _atom_site_fract_x
 _atom_site_fract_y
 _atom_site_fract_z
 _atom_site_occupancy
  Li  Li0  1  0.167187  0.331134  0.220345  1
  Li  Li1  1  0.164514  0.835299  0.218518  1
  Li  Li2  1  0.668617  0.832786  0.219898  1
  Li  Li3  1  0.665550  0.334492  0.323157  1
  Li  Li4  1  0.830617  0.665608  0.708121  1
  Li  Li5  1  0.334407  0.169383  0.707922  1
  Li  Li6  1  0.833215  0.166843  0.713778  1
  Li  Li7  1  0.334303  0.665615  0.809124  1
  La  La8  1  0.999387  0.000749  0.000499  1
  La  La9  1  0.511145  0.023487  0.003377  1
  La  La10  1  0.511959  0.487814  0.002205  1
  La  La11  1  0.976207  0.488800  0.002960  1
  La  La12  1  0.999829  0.000111  0.502865  1
  La  La13  1  0.492620  0.983760  0.507865  1
  La  La14  1  0.015716  0.507200  0.507885  1
  Er  Er15  1  0.493862  0.506368  0.509075  1
  Sn  Sn16  1  0.827830  0.663475  0.277085  1
  Sn  Sn17  1  0.336580  0.172005  0.277301  1
  Sn  Sn18  1  0.833105  0.166863  0.267991  1
  Sn  Sn19  1  0.664626  0.335196  0.729883  1
  Sn  Sn20  1  0.171431  0.336193  0.765394  1
  Sn  Sn21  1  0.167296  0.833372  0.774296  1
  Sn  Sn22  1  0.664459  0.829223  0.765857  1
  Bi  Bi23  1  0.335537  0.664222  0.242583  1
