# generated using pymatgen
data_Sc2Tc5(NiP)7
_symmetry_space_group_name_H-M   'P 1'
_cell_length_a   9.17920913
_cell_length_b   9.22719726
_cell_length_c   3.66577400
_cell_angle_alpha   90.00000000
_cell_angle_beta   90.00000000
_cell_angle_gamma   119.49965888
_symmetry_Int_Tables_number   1
_chemical_formula_structural   Sc2Tc5(NiP)7
_chemical_formula_sum   'Sc2 Tc5 Ni7 P7'
_cell_volume   270.23338131
_cell_formula_units_Z   1
loop_
 _symmetry_equiv_pos_site_id
 _symmetry_equiv_pos_as_xyz
  1  'x, y, z'
loop_
 _atom_site_type_symbol
 _atom_site_label
 _atom_site_symmetry_multiplicity
 _atom_site_fract_x
 _atom_site_fract_y
 _atom_site_fract_z
 _atom_site_occupancy
  Sc  Sc0  1  0.332749  0.669784  0.000000  1
  Sc  Sc1  1  0.660346  0.327660  0.500000  1
  Tc  Tc2  1  0.875648  0.088123  0.500000  1
  Tc  Tc3  1  0.229338  0.126648  0.500000  1
  Tc  Tc4  1  0.046152  0.438771  0.500000  1
  Tc  Tc5  1  0.560421  0.609969  0.500000  1
  Tc  Tc6  1  0.915841  0.796135  0.500000  1
  Ni  Ni7  1  0.628943  0.068396  0.000000  1
  Ni  Ni8  1  0.116807  0.273388  0.000000  1
  Ni  Ni9  1  0.430631  0.365030  0.000000  1
  Ni  Ni10  1  0.932342  0.570093  0.000000  1
  Ni  Ni11  1  0.717436  0.840748  0.000000  1
  Ni  Ni12  1  0.168074  0.882605  0.000000  1
  Ni  Ni13  1  0.391267  0.946098  0.500000  1
  P  P14  1  0.999849  0.997665  0.000000  1
  P  P15  1  0.415034  0.117835  0.000000  1
  P  P16  1  0.876802  0.294781  0.000000  1
  P  P17  1  0.702321  0.581693  0.000000  1
  P  P18  1  0.282838  0.405878  0.500000  1
  P  P19  1  0.127481  0.719030  0.500000  1
  P  P20  1  0.589682  0.879676  0.500000  1
