# generated using pymatgen
data_Ce12GaFe6Si5
_symmetry_space_group_name_H-M   'P 1'
_cell_length_a   7.48166100
_cell_length_b   7.48166033
_cell_length_c   9.59643700
_cell_angle_alpha   90.00000000
_cell_angle_beta   90.00000000
_cell_angle_gamma   119.99999855
_symmetry_Int_Tables_number   1
_chemical_formula_structural   Ce12GaFe6Si5
_chemical_formula_sum   'Ce12 Ga1 Fe6 Si5'
_cell_volume   465.19674538
_cell_formula_units_Z   1
loop_
 _symmetry_equiv_pos_site_id
 _symmetry_equiv_pos_as_xyz
  1  'x, y, z'
loop_
 _atom_site_type_symbol
 _atom_site_label
 _atom_site_symmetry_multiplicity
 _atom_site_fract_x
 _atom_site_fract_y
 _atom_site_fract_z
 _atom_site_occupancy
  Ce  Ce0  1  0.000000  0.577179  0.500302  1
  Ce  Ce1  1  0.577179  0.000000  0.500302  1
  Ce  Ce2  1  0.422821  0.422821  0.500302  1
  Ce  Ce3  1  0.000000  0.427280  0.999573  1
  Ce  Ce4  1  0.427280  0.000000  0.999573  1
  Ce  Ce5  1  0.572720  0.572720  0.999573  1
  Ce  Ce6  1  0.000000  0.742560  0.177365  1
  Ce  Ce7  1  0.742560  0.000000  0.177365  1
  Ce  Ce8  1  0.257440  0.257440  0.177365  1
  Ce  Ce9  1  0.000000  0.258251  0.671083  1
  Ce  Ce10  1  0.258251  0.000000  0.671083  1
  Ce  Ce11  1  0.741749  0.741749  0.671083  1
  Ga  Ga12  1  0.000000  0.000000  0.919250  1
  Fe  Fe13  1  0.000000  0.350624  0.343924  1
  Fe  Fe14  1  0.350624  0.000000  0.343924  1
  Fe  Fe15  1  0.649376  0.649376  0.343924  1
  Fe  Fe16  1  0.000000  0.641815  0.841256  1
  Fe  Fe17  1  0.641815  0.000000  0.841256  1
  Fe  Fe18  1  0.358185  0.358185  0.841256  1
  Si  Si19  1  0.666667  0.333333  0.273913  1
  Si  Si20  1  0.333333  0.666667  0.273913  1
  Si  Si21  1  0.333333  0.666667  0.771198  1
  Si  Si22  1  0.666667  0.333333  0.771198  1
  Si  Si23  1  0.000000  0.000000  0.419277  1
