# generated using pymatgen
data_SrP12Ru3Rh
_symmetry_space_group_name_H-M   'P 1'
_cell_length_a   7.02857492
_cell_length_b   7.03797715
_cell_length_c   7.02857500
_cell_angle_alpha   109.49832415
_cell_angle_beta   109.44410537
_cell_angle_gamma   109.49831693
_symmetry_Int_Tables_number   1
_chemical_formula_structural   SrP12Ru3Rh
_chemical_formula_sum   'Sr1 P12 Ru3 Rh1'
_cell_volume   267.55629551
_cell_formula_units_Z   1
loop_
 _symmetry_equiv_pos_site_id
 _symmetry_equiv_pos_as_xyz
  1  'x, y, z'
loop_
 _atom_site_type_symbol
 _atom_site_label
 _atom_site_symmetry_multiplicity
 _atom_site_fract_x
 _atom_site_fract_y
 _atom_site_fract_z
 _atom_site_occupancy
  Sr  Sr0  1  0.000000  0.000000  0.000000  1
  P  P1  1  0.143372  0.785026  0.641374  1
  P  P2  1  0.144743  0.501903  0.361835  1
  P  P3  1  0.855257  0.498097  0.638165  1
  P  P4  1  0.358626  0.143652  0.501998  1
  P  P5  1  0.782909  0.642840  0.144743  1
  P  P6  1  0.856628  0.214974  0.358626  1
  P  P7  1  0.638165  0.140068  0.782909  1
  P  P8  1  0.498002  0.641653  0.856628  1
  P  P9  1  0.641374  0.856348  0.498002  1
  P  P10  1  0.501998  0.358347  0.143372  1
  P  P11  1  0.361835  0.859932  0.217091  1
  P  P12  1  0.217091  0.357160  0.855257  1
  Ru  Ru13  1  0.500000  0.000000  0.000000  1
  Ru  Ru14  1  0.500000  0.500000  0.500000  1
  Ru  Ru15  1  0.000000  0.000000  0.500000  1
  Rh  Rh16  1  0.000000  0.500000  0.000000  1
