# generated using pymatgen
data_Yb4As2Se
_symmetry_space_group_name_H-M   'P 1'
_cell_length_a   7.69530534
_cell_length_b   7.68431862
_cell_length_c   7.68643381
_cell_angle_alpha   109.36249928
_cell_angle_beta   109.50496088
_cell_angle_gamma   109.49383429
_symmetry_Int_Tables_number   1
_chemical_formula_structural   Yb4As2Se
_chemical_formula_sum   'Yb8 As4 Se2'
_cell_volume   350.11761390
_cell_formula_units_Z   2
loop_
 _symmetry_equiv_pos_site_id
 _symmetry_equiv_pos_as_xyz
  1  'x, y, z'
loop_
 _atom_site_type_symbol
 _atom_site_label
 _atom_site_symmetry_multiplicity
 _atom_site_fract_x
 _atom_site_fract_y
 _atom_site_fract_z
 _atom_site_occupancy
  Yb  Yb0  1  0.147408  0.499480  0.997399  1
  Yb  Yb1  1  0.496412  0.997432  0.636090  1
  Yb  Yb2  1  0.374418  0.371552  0.367295  1
  Yb  Yb3  1  0.001254  0.141091  0.508197  1
  Yb  Yb4  1  0.852592  0.852072  0.849991  1
  Yb  Yb5  1  0.998746  0.639837  0.506943  1
  Yb  Yb6  1  0.625582  0.497134  0.992877  1
  Yb  Yb7  1  0.503588  0.001020  0.139678  1
  As  As8  1  0.375022  0.629089  0.747307  1
  As  As9  1  0.248463  0.121584  0.877771  1
  As  As10  1  0.751537  0.373120  0.629308  1
  As  As11  1  0.624978  0.754067  0.372285  1
  Se  Se12  1  0.881125  0.251823  0.127991  1
  Se  Se13  1  0.118875  0.870698  0.246866  1
