# generated using pymatgen
data_CaTb2Yb(Si3Ni5)4
_symmetry_space_group_name_H-M   'P 1'
_cell_length_a   18.73579446
_cell_length_b   3.78185200
_cell_length_c   6.60913003
_cell_angle_alpha   90.00000000
_cell_angle_beta   90.03405253
_cell_angle_gamma   90.00000000
_symmetry_Int_Tables_number   1
_chemical_formula_structural   CaTb2Yb(Si3Ni5)4
_chemical_formula_sum   'Ca1 Tb2 Yb1 Si12 Ni20'
_cell_volume   468.29644621
_cell_formula_units_Z   1
loop_
 _symmetry_equiv_pos_site_id
 _symmetry_equiv_pos_as_xyz
  1  'x, y, z'
loop_
 _atom_site_type_symbol
 _atom_site_label
 _atom_site_symmetry_multiplicity
 _atom_site_fract_x
 _atom_site_fract_y
 _atom_site_fract_z
 _atom_site_occupancy
  Ca  Ca0  1  0.643255  0.250000  0.623131  1
  Tb  Tb1  1  0.356073  0.750000  0.376034  1
  Tb  Tb2  1  0.856807  0.750000  0.123979  1
  Yb  Yb3  1  0.143671  0.250000  0.877103  1
  Si  Si4  1  0.914577  0.250000  0.420303  1
  Si  Si5  1  0.413558  0.250000  0.079569  1
  Si  Si6  1  0.086307  0.750000  0.581512  1
  Si  Si7  1  0.585974  0.750000  0.920481  1
  Si  Si8  1  0.737805  0.250000  0.121508  1
  Si  Si9  1  0.237044  0.250000  0.378619  1
  Si  Si10  1  0.262068  0.750000  0.878812  1
  Si  Si11  1  0.762546  0.750000  0.621017  1
  Si  Si12  1  0.926024  0.250000  0.844015  1
  Si  Si13  1  0.425512  0.250000  0.655824  1
  Si  Si14  1  0.074571  0.750000  0.155567  1
  Si  Si15  1  0.574365  0.750000  0.343008  1
  Ni  Ni16  1  0.801025  0.250000  0.814323  1
  Ni  Ni17  1  0.300240  0.250000  0.685849  1
  Ni  Ni18  1  0.199202  0.750000  0.184877  1
  Ni  Ni19  1  0.700076  0.750000  0.312781  1
  Ni  Ni20  1  0.995419  0.250000  0.133442  1
  Ni  Ni21  1  0.494785  0.250000  0.365705  1
  Ni  Ni22  1  0.005019  0.750000  0.866283  1
  Ni  Ni23  1  0.503990  0.750000  0.633406  1
  Ni  Ni24  1  0.515069  0.250000  0.885268  1
  Ni  Ni25  1  0.016042  0.250000  0.616766  1
  Ni  Ni26  1  0.484375  0.750000  0.114942  1
  Ni  Ni27  1  0.985204  0.750000  0.385663  1
  Ni  Ni28  1  0.615837  0.250000  0.142493  1
  Ni  Ni29  1  0.115469  0.250000  0.356807  1
  Ni  Ni30  1  0.384257  0.750000  0.857311  1
  Ni  Ni31  1  0.884719  0.750000  0.642282  1
  Ni  Ni32  1  0.793547  0.250000  0.431230  1
  Ni  Ni33  1  0.292282  0.250000  0.068562  1
  Ni  Ni34  1  0.206338  0.750000  0.570494  1
  Ni  Ni35  1  0.706946  0.750000  0.931032  1
