# generated using pymatgen
data_La8ZnCuPd23
_symmetry_space_group_name_H-M   'P 1'
_cell_length_a   8.52136800
_cell_length_b   8.56201300
_cell_length_c   8.58335600
_cell_angle_alpha   90.00000000
_cell_angle_beta   90.00000000
_cell_angle_gamma   90.00000000
_symmetry_Int_Tables_number   1
_chemical_formula_structural   La8ZnCuPd23
_chemical_formula_sum   'La8 Zn1 Cu1 Pd23'
_cell_volume   626.24219961
_cell_formula_units_Z   1
loop_
 _symmetry_equiv_pos_site_id
 _symmetry_equiv_pos_as_xyz
  1  'x, y, z'
loop_
 _atom_site_type_symbol
 _atom_site_label
 _atom_site_symmetry_multiplicity
 _atom_site_fract_x
 _atom_site_fract_y
 _atom_site_fract_z
 _atom_site_occupancy
  La  La0  1  0.250661  0.249027  0.253087  1
  La  La1  1  0.749109  0.749476  0.748802  1
  La  La2  1  0.749109  0.749476  0.251198  1
  La  La3  1  0.749109  0.250524  0.748802  1
  La  La4  1  0.250661  0.249027  0.746913  1
  La  La5  1  0.250661  0.750973  0.253087  1
  La  La6  1  0.250661  0.750973  0.746913  1
  La  La7  1  0.749109  0.250524  0.251198  1
  Zn  Zn8  1  0.000087  0.000000  0.000000  1
  Cu  Cu9  1  0.263923  0.500000  0.000000  1
  Pd  Pd10  1  0.738029  0.500000  0.000000  1
  Pd  Pd11  1  0.999985  0.262165  0.500000  1
  Pd  Pd12  1  0.496907  0.264332  0.000000  1
  Pd  Pd13  1  0.999985  0.737835  0.500000  1
  Pd  Pd14  1  0.496907  0.735668  0.000000  1
  Pd  Pd15  1  0.499973  0.000000  0.261886  1
  Pd  Pd16  1  0.262118  0.000000  0.500000  1
  Pd  Pd17  1  0.499973  0.000000  0.738114  1
  Pd  Pd18  1  0.737820  0.000000  0.500000  1
  Pd  Pd19  1  0.001181  0.500000  0.261724  1
  Pd  Pd20  1  0.001181  0.500000  0.738276  1
  Pd  Pd21  1  0.253946  0.500000  0.500000  1
  Pd  Pd22  1  0.746036  0.500000  0.500000  1
  Pd  Pd23  1  0.499877  0.254224  0.500000  1
  Pd  Pd24  1  0.499877  0.745776  0.500000  1
  Pd  Pd25  1  0.497768  0.500000  0.252584  1
  Pd  Pd26  1  0.497768  0.500000  0.747416  1
  Pd  Pd27  1  0.297278  0.000000  0.000000  1
  Pd  Pd28  1  0.702136  0.000000  0.000000  1
  Pd  Pd29  1  0.004186  0.299637  0.000000  1
  Pd  Pd30  1  0.004186  0.700363  0.000000  1
  Pd  Pd31  1  0.999897  0.000000  0.297026  1
  Pd  Pd32  1  0.999897  0.000000  0.702974  1
