# generated using pymatgen
data_Yb4CdIn3Au4
_symmetry_space_group_name_H-M   'P 1'
_cell_length_a   4.35167600
_cell_length_b   7.51917539
_cell_length_c   8.83803058
_cell_angle_alpha   89.83003581
_cell_angle_beta   90.00000000
_cell_angle_gamma   90.00000000
_symmetry_Int_Tables_number   1
_chemical_formula_structural   Yb4CdIn3Au4
_chemical_formula_sum   'Yb4 Cd1 In3 Au4'
_cell_volume   289.18805961
_cell_formula_units_Z   1
loop_
 _symmetry_equiv_pos_site_id
 _symmetry_equiv_pos_as_xyz
  1  'x, y, z'
loop_
 _atom_site_type_symbol
 _atom_site_label
 _atom_site_symmetry_multiplicity
 _atom_site_fract_x
 _atom_site_fract_y
 _atom_site_fract_z
 _atom_site_occupancy
  Yb  Yb0  1  0.750000  0.957164  0.679339  1
  Yb  Yb1  1  0.250000  0.541087  0.183199  1
  Yb  Yb2  1  0.750000  0.457103  0.816394  1
  Yb  Yb3  1  0.250000  0.046468  0.321212  1
  Cd  Cd4  1  0.750000  0.356378  0.442492  1
  In  In5  1  0.250000  0.143064  0.942887  1
  In  In6  1  0.250000  0.641040  0.555046  1
  In  In7  1  0.750000  0.855802  0.058042  1
  Au  Au8  1  0.250000  0.246533  0.634648  1
  Au  Au9  1  0.250000  0.745617  0.866182  1
  Au  Au10  1  0.750000  0.254447  0.132497  1
  Au  Au11  1  0.750000  0.755295  0.368061  1
