# generated using pymatgen
data_Er2TiMnFe10P7
_symmetry_space_group_name_H-M   'P 1'
_cell_length_a   9.09718256
_cell_length_b   9.00126189
_cell_length_c   3.62169700
_cell_angle_alpha   90.00000000
_cell_angle_beta   90.00000000
_cell_angle_gamma   118.92331885
_symmetry_Int_Tables_number   1
_chemical_formula_structural   Er2TiMnFe10P7
_chemical_formula_sum   'Er2 Ti1 Mn1 Fe10 P7'
_cell_volume   259.57529401
_cell_formula_units_Z   1
loop_
 _symmetry_equiv_pos_site_id
 _symmetry_equiv_pos_as_xyz
  1  'x, y, z'
loop_
 _atom_site_type_symbol
 _atom_site_label
 _atom_site_symmetry_multiplicity
 _atom_site_fract_x
 _atom_site_fract_y
 _atom_site_fract_z
 _atom_site_occupancy
  Er  Er0  1  0.323615  0.660535  0.000000  1
  Er  Er1  1  0.006156  0.006496  0.500000  1
  Ti  Ti2  1  0.775566  0.553611  0.500000  1
  Mn  Mn3  1  0.450839  0.215315  0.500000  1
  Fe  Fe4  1  0.038801  0.278986  0.000000  1
  Fe  Fe5  1  0.716311  0.768127  0.000000  1
  Fe  Fe6  1  0.243229  0.965707  0.000000  1
  Fe  Fe7  1  0.546837  0.052816  0.000000  1
  Fe  Fe8  1  0.939212  0.485273  0.000000  1
  Fe  Fe9  1  0.509084  0.450751  0.000000  1
  Fe  Fe10  1  0.620616  0.896797  0.500000  1
  Fe  Fe11  1  0.102724  0.719806  0.500000  1
  Fe  Fe12  1  0.276588  0.379230  0.500000  1
  Fe  Fe13  1  0.789900  0.233775  0.500000  1
  P  P14  1  0.790920  0.054350  0.000000  1
  P  P15  1  0.977735  0.752177  0.000000  1
  P  P16  1  0.255384  0.222497  0.000000  1
  P  P17  1  0.373314  0.924961  0.500000  1
  P  P18  1  0.065777  0.445383  0.500000  1
  P  P19  1  0.530615  0.608228  0.500000  1
  P  P20  1  0.666773  0.325181  0.000000  1
