# generated using pymatgen
data_Y15Tm5Si15Hg
_symmetry_space_group_name_H-M   'P 1'
_cell_length_a   7.36947097
_cell_length_b   7.70945182
_cell_length_c   14.57604300
_cell_angle_alpha   90.02578122
_cell_angle_beta   90.02934190
_cell_angle_gamma   90.09695810
_symmetry_Int_Tables_number   1
_chemical_formula_structural   Y15Tm5Si15Hg
_chemical_formula_sum   'Y15 Tm5 Si15 Hg1'
_cell_volume   828.13040257
_cell_formula_units_Z   1
loop_
 _symmetry_equiv_pos_site_id
 _symmetry_equiv_pos_as_xyz
  1  'x, y, z'
loop_
 _atom_site_type_symbol
 _atom_site_label
 _atom_site_symmetry_multiplicity
 _atom_site_fract_x
 _atom_site_fract_y
 _atom_site_fract_z
 _atom_site_occupancy
  Y  Y0  1  0.176681  0.317934  0.880313  1
  Y  Y1  1  0.317404  0.821477  0.124609  1
  Y  Y2  1  0.817315  0.678469  0.375700  1
  Y  Y3  1  0.317665  0.822009  0.376115  1
  Y  Y4  1  0.817108  0.678344  0.124614  1
  Y  Y5  1  0.691441  0.170697  0.880590  1
  Y  Y6  1  0.175909  0.317431  0.618968  1
  Y  Y7  1  0.527624  0.689399  0.591725  1
  Y  Y8  1  0.026988  0.818844  0.905037  1
  Y  Y9  1  0.472832  0.318122  0.097257  1
  Y  Y10  1  0.972694  0.183678  0.401404  1
  Y  Y11  1  0.473756  0.318771  0.403479  1
  Y  Y12  1  0.973038  0.183313  0.098779  1
  Y  Y13  1  0.527639  0.689285  0.907917  1
  Y  Y14  1  0.026344  0.819256  0.594257  1
  Tm  Tm15  1  0.690981  0.170722  0.619637  1
  Tm  Tm16  1  0.854705  0.512659  0.749476  1
  Tm  Tm17  1  0.356253  0.981295  0.749854  1
  Tm  Tm18  1  0.147915  0.486004  0.250082  1
  Tm  Tm19  1  0.647114  0.013259  0.250340  1
  Si  Si20  1  0.648707  0.973573  0.457408  1
  Si  Si21  1  0.145505  0.529854  0.040968  1
  Si  Si22  1  0.354308  0.027360  0.959753  1
  Si  Si23  1  0.847188  0.471461  0.540247  1
  Si  Si24  1  0.356919  0.027887  0.541176  1
  Si  Si25  1  0.849611  0.473556  0.959623  1
  Si  Si26  1  0.646773  0.972962  0.043956  1
  Si  Si27  1  0.145206  0.529837  0.458998  1
  Si  Si28  1  0.981158  0.100536  0.748875  1
  Si  Si29  1  0.517849  0.599785  0.250290  1
  Si  Si30  1  0.019120  0.897816  0.250172  1
  Si  Si31  1  0.737446  0.872357  0.749087  1
  Si  Si32  1  0.222304  0.634594  0.749670  1
  Si  Si33  1  0.267620  0.130049  0.250294  1
  Si  Si34  1  0.766623  0.370870  0.250144  1
  Hg  Hg35  1  0.482258  0.396539  0.749185  1
