# generated using pymatgen
data_Co5Si3Mo4
_symmetry_space_group_name_H-M   'P 1'
_cell_length_a   4.74013781
_cell_length_b   4.74013707
_cell_length_c   7.53226400
_cell_angle_alpha   90.00000000
_cell_angle_beta   90.00000000
_cell_angle_gamma   119.74417620
_symmetry_Int_Tables_number   1
_chemical_formula_structural   Co5Si3Mo4
_chemical_formula_sum   'Co5 Si3 Mo4'
_cell_volume   146.94398641
_cell_formula_units_Z   1
loop_
 _symmetry_equiv_pos_site_id
 _symmetry_equiv_pos_as_xyz
  1  'x, y, z'
loop_
 _atom_site_type_symbol
 _atom_site_label
 _atom_site_symmetry_multiplicity
 _atom_site_fract_x
 _atom_site_fract_y
 _atom_site_fract_z
 _atom_site_occupancy
  Co  Co0  1  0.823300  0.674593  0.250000  1
  Co  Co1  1  0.325407  0.176700  0.250000  1
  Co  Co2  1  0.173835  0.826165  0.750000  1
  Co  Co3  1  0.171023  0.340584  0.750000  1
  Co  Co4  1  0.659416  0.828977  0.750000  1
  Si  Si5  1  0.814334  0.185666  0.250000  1
  Si  Si6  1  0.010056  0.989944  0.505670  1
  Si  Si7  1  0.010056  0.989944  0.994330  1
  Mo  Mo8  1  0.335839  0.664161  0.440190  1
  Mo  Mo9  1  0.670447  0.329553  0.570507  1
  Mo  Mo10  1  0.670447  0.329553  0.929493  1
  Mo  Mo11  1  0.335839  0.664161  0.059810  1
