# generated using pymatgen
data_La2Ga9Ru5
_symmetry_space_group_name_H-M   'P 1'
_cell_length_a   8.23816912
_cell_length_b   8.23816860
_cell_length_c   8.23816968
_cell_angle_alpha   135.35003113
_cell_angle_beta   135.35002391
_cell_angle_gamma   64.98681972
_symmetry_Int_Tables_number   1
_chemical_formula_structural   La2Ga9Ru5
_chemical_formula_sum   'La2 Ga9 Ru5'
_cell_volume   272.18195394
_cell_formula_units_Z   1
loop_
 _symmetry_equiv_pos_site_id
 _symmetry_equiv_pos_as_xyz
  1  'x, y, z'
loop_
 _atom_site_type_symbol
 _atom_site_label
 _atom_site_symmetry_multiplicity
 _atom_site_fract_x
 _atom_site_fract_y
 _atom_site_fract_z
 _atom_site_occupancy
  La  La0  1  0.000000  0.500000  0.500000  1
  La  La1  1  0.500000  0.000000  0.500000  1
  Ga  Ga2  1  0.444313  0.862074  0.000000  1
  Ga  Ga3  1  0.137926  0.137926  0.582238  1
  Ga  Ga4  1  0.862074  0.444313  0.000000  1
  Ga  Ga5  1  0.862074  0.862074  0.417762  1
  Ga  Ga6  1  0.555687  0.137926  0.000000  1
  Ga  Ga7  1  0.137926  0.555687  0.000000  1
  Ga  Ga8  1  0.555687  0.555687  0.417762  1
  Ga  Ga9  1  0.000000  0.000000  0.000000  1
  Ga  Ga10  1  0.444313  0.444313  0.582238  1
  Ru  Ru11  1  0.176308  0.176308  0.000000  1
  Ru  Ru12  1  0.823692  0.823692  0.000000  1
  Ru  Ru13  1  0.250000  0.750000  0.500000  1
  Ru  Ru14  1  0.750000  0.250000  0.500000  1
  Ru  Ru15  1  0.500000  0.500000  0.000000  1
