# generated using pymatgen
data_Y11Er5Cd4(RuPt)2
_symmetry_space_group_name_H-M   'P 1'
_cell_length_a   9.66575423
_cell_length_b   9.68309100
_cell_length_c   9.70687868
_cell_angle_alpha   59.59286806
_cell_angle_beta   59.67411310
_cell_angle_gamma   59.59421042
_symmetry_Int_Tables_number   1
_chemical_formula_structural   Y11Er5Cd4(RuPt)2
_chemical_formula_sum   'Y11 Er5 Cd4 Ru2 Pt2'
_cell_volume   636.87021235
_cell_formula_units_Z   1
loop_
 _symmetry_equiv_pos_site_id
 _symmetry_equiv_pos_as_xyz
  1  'x, y, z'
loop_
 _atom_site_type_symbol
 _atom_site_label
 _atom_site_symmetry_multiplicity
 _atom_site_fract_x
 _atom_site_fract_y
 _atom_site_fract_z
 _atom_site_occupancy
  Y  Y0  1  0.187895  0.815059  0.805700  1
  Y  Y1  1  0.188421  0.814535  0.190092  1
  Y  Y2  1  0.815384  0.187783  0.806051  1
  Y  Y3  1  0.187949  0.188382  0.810651  1
  Y  Y4  1  0.808312  0.808079  0.191831  1
  Y  Y5  1  0.938220  0.559389  0.566009  1
  Y  Y6  1  0.559369  0.936828  0.938049  1
  Y  Y7  1  0.559468  0.938491  0.565557  1
  Y  Y8  1  0.936958  0.558287  0.938797  1
  Y  Y9  1  0.563254  0.562432  0.939015  1
  Y  Y10  1  0.938193  0.938834  0.561552  1
  Er  Er11  1  0.348672  0.348304  0.352337  1
  Er  Er12  1  0.349959  0.349267  0.950075  1
  Er  Er13  1  0.345744  0.957003  0.349019  1
  Er  Er14  1  0.956017  0.345719  0.349630  1
  Er  Er15  1  0.814366  0.188821  0.189665  1
  Cd  Cd16  1  0.579051  0.578981  0.580287  1
  Cd  Cd17  1  0.579797  0.579788  0.258274  1
  Cd  Cd18  1  0.580435  0.256155  0.580865  1
  Cd  Cd19  1  0.256099  0.580449  0.580822  1
  Ru  Ru20  1  0.142709  0.145651  0.140517  1
  Ru  Ru21  1  0.145764  0.145186  0.569955  1
  Pt  Pt22  1  0.145775  0.570584  0.142319  1
  Pt  Pt23  1  0.572189  0.145997  0.142933  1
