# generated using pymatgen
data_RbCe3(NCl)3
_symmetry_space_group_name_H-M   'P 1'
_cell_length_a   6.89128737
_cell_length_b   6.89128718
_cell_length_c   11.18770000
_cell_angle_alpha   84.10112749
_cell_angle_beta   84.10113600
_cell_angle_gamma   119.94395973
_symmetry_Int_Tables_number   1
_chemical_formula_structural   RbCe3(NCl)3
_chemical_formula_sum   'Rb2 Ce6 N6 Cl6'
_cell_volume   450.56724619
_cell_formula_units_Z   2
loop_
 _symmetry_equiv_pos_site_id
 _symmetry_equiv_pos_as_xyz
  1  'x, y, z'
loop_
 _atom_site_type_symbol
 _atom_site_label
 _atom_site_symmetry_multiplicity
 _atom_site_fract_x
 _atom_site_fract_y
 _atom_site_fract_z
 _atom_site_occupancy
  Rb  Rb0  1  0.666598  0.333402  0.000000  1
  Rb  Rb1  1  0.333402  0.666598  0.000000  1
  Ce  Ce2  1  0.208277  0.208277  0.374497  1
  Ce  Ce3  1  0.541579  0.874170  0.374979  1
  Ce  Ce4  1  0.874170  0.541579  0.374979  1
  Ce  Ce5  1  0.125830  0.458421  0.625021  1
  Ce  Ce6  1  0.458421  0.125830  0.625021  1
  Ce  Ce7  1  0.791723  0.791723  0.625503  1
  N  N8  1  0.139556  0.139556  0.579053  1
  N  N9  1  0.472583  0.806939  0.580609  1
  N  N10  1  0.806939  0.472583  0.580609  1
  N  N11  1  0.193061  0.527417  0.419391  1
  N  N12  1  0.527417  0.193061  0.419391  1
  N  N13  1  0.860444  0.860444  0.420947  1
  Cl  Cl14  1  0.064691  0.738524  0.806888  1
  Cl  Cl15  1  0.389974  0.389974  0.806823  1
  Cl  Cl16  1  0.738524  0.064691  0.806888  1
  Cl  Cl17  1  0.261476  0.935309  0.193112  1
  Cl  Cl18  1  0.610026  0.610026  0.193177  1
  Cl  Cl19  1  0.935309  0.261476  0.193112  1
