# generated using pymatgen
data_YV6InO18
_symmetry_space_group_name_H-M   'P 1'
_cell_length_a   7.18656313
_cell_length_b   8.16079172
_cell_length_c   9.22924100
_cell_angle_alpha   106.00685801
_cell_angle_beta   112.98898414
_cell_angle_gamma   64.02609515
_symmetry_Int_Tables_number   1
_chemical_formula_structural   YV6InO18
_chemical_formula_sum   'Y1 V6 In1 O18'
_cell_volume   444.35878151
_cell_formula_units_Z   1
loop_
 _symmetry_equiv_pos_site_id
 _symmetry_equiv_pos_as_xyz
  1  'x, y, z'
loop_
 _atom_site_type_symbol
 _atom_site_label
 _atom_site_symmetry_multiplicity
 _atom_site_fract_x
 _atom_site_fract_y
 _atom_site_fract_z
 _atom_site_occupancy
  Y  Y0  1  0.203010  0.855801  0.740094  1
  V  V1  1  0.745420  0.604105  0.016821  1
  V  V2  1  0.981395  0.916396  0.070733  1
  V  V3  1  0.430044  0.802173  0.417420  1
  V  V4  1  0.658848  0.107854  0.500190  1
  V  V5  1  0.166539  0.404480  0.566372  1
  V  V6  1  0.199074  0.308531  0.927197  1
  In  In7  1  0.679951  0.357849  0.244793  1
  O  O8  1  0.363822  0.407287  0.071432  1
  O  O9  1  0.822342  0.142207  0.077666  1
  O  O10  1  0.845502  0.786619  0.086855  1
  O  O11  1  0.676264  0.581082  0.162659  1
  O  O12  1  0.228174  0.876894  0.234043  1
  O  O13  1  0.640564  0.162080  0.330011  1
  O  O14  1  0.001592  0.321888  0.404690  1
  O  O15  1  0.534134  0.571196  0.413776  1
  O  O16  1  0.640310  0.886963  0.459792  1
  O  O17  1  0.317662  0.899578  0.564519  1
  O  O18  1  0.108726  0.627774  0.565094  1
  O  O19  1  0.445674  0.276634  0.575847  1
  O  O20  1  0.899646  0.093600  0.639058  1
  O  O21  1  0.137240  0.382191  0.742628  1
  O  O22  1  0.528762  0.652261  0.851543  1
  O  O23  1  0.040628  0.842273  0.898558  1
  O  O24  1  0.313041  0.077821  0.917462  1
  O  O25  1  0.948427  0.391069  0.970946  1
