# generated using pymatgen
data_Er2Tm3(OsO6)2
_symmetry_space_group_name_H-M   'P 1'
_cell_length_a   6.80498335
_cell_length_b   6.80498275
_cell_length_c   7.40369623
_cell_angle_alpha   74.04924128
_cell_angle_beta   74.04925138
_cell_angle_gamma   48.74305220
_symmetry_Int_Tables_number   1
_chemical_formula_structural   Er2Tm3(OsO6)2
_chemical_formula_sum   'Er2 Tm3 Os2 O12'
_cell_volume   245.73042954
_cell_formula_units_Z   1
loop_
 _symmetry_equiv_pos_site_id
 _symmetry_equiv_pos_as_xyz
  1  'x, y, z'
loop_
 _atom_site_type_symbol
 _atom_site_label
 _atom_site_symmetry_multiplicity
 _atom_site_fract_x
 _atom_site_fract_y
 _atom_site_fract_z
 _atom_site_occupancy
  Er  Er0  1  0.800362  0.800362  0.358580  1
  Er  Er1  1  0.199638  0.199638  0.641420  1
  Tm  Tm2  1  0.187911  0.187911  0.172695  1
  Tm  Tm3  1  0.812089  0.812089  0.827305  1
  Tm  Tm4  1  0.500000  0.500000  0.500000  1
  Os  Os5  1  0.280306  0.719694  0.000000  1
  Os  Os6  1  0.719694  0.280306  0.000000  1
  O  O7  1  0.413851  0.921879  0.912970  1
  O  O8  1  0.078121  0.586149  0.087030  1
  O  O9  1  0.586149  0.078121  0.087030  1
  O  O10  1  0.921879  0.413851  0.912970  1
  O  O11  1  0.599764  0.096503  0.572545  1
  O  O12  1  0.903497  0.400236  0.427455  1
  O  O13  1  0.400236  0.903497  0.427455  1
  O  O14  1  0.000143  0.000143  0.822637  1
  O  O15  1  0.999857  0.999857  0.177363  1
  O  O16  1  0.498048  0.498048  0.794529  1
  O  O17  1  0.501952  0.501952  0.205471  1
  O  O18  1  0.096503  0.599764  0.572545  1
