# generated using pymatgen
data_Zr3V2(ReMo)2
_symmetry_space_group_name_H-M   'P 1'
_cell_length_a   5.28662884
_cell_length_b   5.29493315
_cell_length_c   13.05875870
_cell_angle_alpha   89.97992880
_cell_angle_beta   90.07196546
_cell_angle_gamma   119.93709053
_symmetry_Int_Tables_number   1
_chemical_formula_structural   Zr3V2(ReMo)2
_chemical_formula_sum   'Zr6 V4 Re4 Mo4'
_cell_volume   316.77173572
_cell_formula_units_Z   2
loop_
 _symmetry_equiv_pos_site_id
 _symmetry_equiv_pos_as_xyz
  1  'x, y, z'
loop_
 _atom_site_type_symbol
 _atom_site_label
 _atom_site_symmetry_multiplicity
 _atom_site_fract_x
 _atom_site_fract_y
 _atom_site_fract_z
 _atom_site_occupancy
  Zr  Zr0  1  0.334085  0.665997  0.918556  1
  Zr  Zr1  1  0.000734  0.000544  0.247441  1
  Zr  Zr2  1  0.666712  0.332590  0.583307  1
  Zr  Zr3  1  0.332922  0.667476  0.667861  1
  Zr  Zr4  1  0.999867  0.999795  0.001249  1
  Zr  Zr5  1  0.665920  0.334249  0.331504  1
  V  V6  1  0.666618  0.330701  0.958651  1
  V  V7  1  0.999042  0.499191  0.123178  1
  V  V8  1  0.666219  0.833776  0.457883  1
  V  V9  1  0.334791  0.166981  0.793920  1
  Re  Re10  1  0.501825  0.498966  0.122343  1
  Re  Re11  1  0.165982  0.833804  0.457987  1
  Re  Re12  1  0.832031  0.167042  0.794819  1
  Re  Re13  1  0.501949  0.002326  0.122499  1
  Mo  Mo14  1  0.166023  0.333466  0.457961  1
  Mo  Mo15  1  0.832026  0.664273  0.794438  1
  Mo  Mo16  1  0.334288  0.668826  0.290327  1
  Mo  Mo17  1  0.998968  0.999994  0.626075  1
