# generated using pymatgen
data_TlInSb2(SeO3)8
_symmetry_space_group_name_H-M   'P 1'
_cell_length_a   8.41769832
_cell_length_b   8.52365442
_cell_length_c   8.41239469
_cell_angle_alpha   89.07179388
_cell_angle_beta   90.06821350
_cell_angle_gamma   90.05183506
_symmetry_Int_Tables_number   1
_chemical_formula_structural   TlInSb2(SeO3)8
_chemical_formula_sum   'Tl1 In1 Sb2 Se8 O24'
_cell_volume   603.50567855
_cell_formula_units_Z   1
loop_
 _symmetry_equiv_pos_site_id
 _symmetry_equiv_pos_as_xyz
  1  'x, y, z'
loop_
 _atom_site_type_symbol
 _atom_site_label
 _atom_site_symmetry_multiplicity
 _atom_site_fract_x
 _atom_site_fract_y
 _atom_site_fract_z
 _atom_site_occupancy
  Tl  Tl0  1  0.000000  0.500000  0.000000  1
  In  In1  1  0.500000  0.500000  0.500000  1
  Sb  Sb2  1  0.000000  0.000000  0.500000  1
  Sb  Sb3  1  0.500000  0.000000  0.000000  1
  Se  Se4  1  0.341418  0.669071  0.162139  1
  Se  Se5  1  0.837434  0.331018  0.341344  1
  Se  Se6  1  0.675432  0.835362  0.676214  1
  Se  Se7  1  0.174133  0.158546  0.825323  1
  Se  Se8  1  0.658582  0.330929  0.837861  1
  Se  Se9  1  0.162566  0.668982  0.658656  1
  Se  Se10  1  0.324568  0.164638  0.323786  1
  Se  Se11  1  0.825867  0.841454  0.174677  1
  O  O12  1  0.261784  0.547790  0.023077  1
  O  O13  1  0.749550  0.447763  0.477832  1
  O  O14  1  0.764559  0.976755  0.546239  1
  O  O15  1  0.265190  0.015320  0.952283  1
  O  O16  1  0.544875  0.972795  0.764590  1
  O  O17  1  0.477624  0.547669  0.249677  1
  O  O18  1  0.974436  0.458382  0.261741  1
  O  O19  1  0.045956  0.020023  0.734596  1
  O  O20  1  0.974342  0.231877  0.477002  1
  O  O21  1  0.549669  0.752534  0.546736  1
  O  O22  1  0.481646  0.768652  0.030832  1
  O  O23  1  0.046167  0.234416  0.956153  1
  O  O24  1  0.738216  0.452210  0.976923  1
  O  O25  1  0.250450  0.552237  0.522168  1
  O  O26  1  0.235441  0.023245  0.453761  1
  O  O27  1  0.734810  0.984680  0.047717  1
  O  O28  1  0.455125  0.027205  0.235410  1
  O  O29  1  0.522376  0.452331  0.750323  1
  O  O30  1  0.025564  0.541618  0.738259  1
  O  O31  1  0.954044  0.979977  0.265404  1
  O  O32  1  0.025658  0.768123  0.522998  1
  O  O33  1  0.450331  0.247466  0.453264  1
  O  O34  1  0.518354  0.231348  0.969168  1
  O  O35  1  0.953833  0.765584  0.043847  1
