# generated using pymatgen
data_CsMnMoF6
_symmetry_space_group_name_H-M   'P 1'
_cell_length_a   7.87758890
_cell_length_b   7.87759019
_cell_length_c   7.87758956
_cell_angle_alpha   119.76885202
_cell_angle_beta   120.92391826
_cell_angle_gamma   89.40402274
_symmetry_Int_Tables_number   1
_chemical_formula_structural   CsMnMoF6
_chemical_formula_sum   'Cs2 Mn2 Mo2 F12'
_cell_volume   343.79847146
_cell_formula_units_Z   2
loop_
 _symmetry_equiv_pos_site_id
 _symmetry_equiv_pos_as_xyz
  1  'x, y, z'
loop_
 _atom_site_type_symbol
 _atom_site_label
 _atom_site_symmetry_multiplicity
 _atom_site_fract_x
 _atom_site_fract_y
 _atom_site_fract_z
 _atom_site_occupancy
  Cs  Cs0  1  0.615386  0.865386  0.750000  1
  Cs  Cs1  1  0.384614  0.134614  0.250000  1
  Mn  Mn2  1  0.500000  0.500000  0.000000  1
  Mn  Mn3  1  0.000000  0.500000  0.500000  1
  Mo  Mo4  1  0.000000  0.500000  0.000000  1
  Mo  Mo5  1  0.000000  0.000000  0.500000  1
  F  F6  1  0.068492  0.818492  0.250000  1
  F  F7  1  0.679715  0.429715  0.250000  1
  F  F8  1  0.071135  0.827194  0.646138  1
  F  F9  1  0.681056  0.424997  0.853862  1
  F  F10  1  0.681056  0.827194  0.256059  1
  F  F11  1  0.071135  0.424997  0.243941  1
  F  F12  1  0.931508  0.181508  0.750000  1
  F  F13  1  0.320285  0.570285  0.750000  1
  F  F14  1  0.928865  0.172806  0.353862  1
  F  F15  1  0.318944  0.575003  0.146138  1
  F  F16  1  0.318944  0.172806  0.743941  1
  F  F17  1  0.928865  0.575003  0.756059  1
