# generated using pymatgen
data_Cd3Pd4PbO14
_symmetry_space_group_name_H-M   'P 1'
_cell_length_a   7.26118893
_cell_length_b   7.23305533
_cell_length_c   7.23305600
_cell_angle_alpha   59.99999694
_cell_angle_beta   60.12808239
_cell_angle_gamma   60.12808386
_symmetry_Int_Tables_number   1
_chemical_formula_structural   Cd3Pd4PbO14
_chemical_formula_sum   'Cd3 Pd4 Pb1 O14'
_cell_volume   269.13762778
_cell_formula_units_Z   1
loop_
 _symmetry_equiv_pos_site_id
 _symmetry_equiv_pos_as_xyz
  1  'x, y, z'
loop_
 _atom_site_type_symbol
 _atom_site_label
 _atom_site_symmetry_multiplicity
 _atom_site_fract_x
 _atom_site_fract_y
 _atom_site_fract_z
 _atom_site_occupancy
  Cd  Cd0  1  0.125000  0.625000  0.125000  1
  Cd  Cd1  1  0.125000  0.125000  0.625000  1
  Cd  Cd2  1  0.125000  0.125000  0.125000  1
  Pd  Pd3  1  0.125000  0.625000  0.625000  1
  Pd  Pd4  1  0.625000  0.125000  0.625000  1
  Pd  Pd5  1  0.625000  0.625000  0.125000  1
  Pd  Pd6  1  0.625000  0.625000  0.625000  1
  Pb  Pb7  1  0.625000  0.125000  0.125000  1
  O  O8  1  0.706501  0.714215  0.289642  1
  O  O9  1  0.292669  0.291093  0.708119  1
  O  O10  1  0.706501  0.289642  0.714215  1
  O  O11  1  0.292669  0.708119  0.291093  1
  O  O12  1  0.292669  0.708119  0.708119  1
  O  O13  1  0.706501  0.289642  0.289642  1
  O  O14  1  0.543499  0.535785  0.960358  1
  O  O15  1  0.957331  0.958907  0.541881  1
  O  O16  1  0.543499  0.960358  0.535785  1
  O  O17  1  0.957331  0.541881  0.958907  1
  O  O18  1  0.957331  0.541881  0.541881  1
  O  O19  1  0.543499  0.960358  0.960358  1
  O  O20  1  0.260361  0.246547  0.246547  1
  O  O21  1  0.989639  0.003453  0.003453  1
