# generated using pymatgen
data_Sr2Cd3InAu3
_symmetry_space_group_name_H-M   'P 1'
_cell_length_a   15.29900081
_cell_length_b   15.29954667
_cell_length_c   4.58278400
_cell_angle_alpha   90.00000000
_cell_angle_beta   90.00000000
_cell_angle_gamma   119.85043294
_symmetry_Int_Tables_number   1
_chemical_formula_structural   Sr2Cd3InAu3
_chemical_formula_sum   'Sr8 Cd12 In4 Au12'
_cell_volume   930.36683467
_cell_formula_units_Z   4
loop_
 _symmetry_equiv_pos_site_id
 _symmetry_equiv_pos_as_xyz
  1  'x, y, z'
loop_
 _atom_site_type_symbol
 _atom_site_label
 _atom_site_symmetry_multiplicity
 _atom_site_fract_x
 _atom_site_fract_y
 _atom_site_fract_z
 _atom_site_occupancy
  Sr  Sr0  1  0.451608  0.999581  0.000000  1
  Sr  Sr1  1  0.000370  0.451342  0.000000  1
  Sr  Sr2  1  0.547308  0.548071  0.000000  1
  Sr  Sr3  1  0.334501  0.667297  0.000000  1
  Sr  Sr4  1  0.666324  0.333238  0.000000  1
  Sr  Sr5  1  0.820277  0.000021  0.500000  1
  Sr  Sr6  1  0.000777  0.821383  0.500000  1
  Sr  Sr7  1  0.179355  0.179617  0.500000  1
  Cd  Cd8  1  0.180654  0.380156  0.000000  1
  Cd  Cd9  1  0.619261  0.801090  0.000000  1
  Cd  Cd10  1  0.380150  0.180766  0.000000  1
  Cd  Cd11  1  0.281835  0.004320  0.500000  1
  Cd  Cd12  1  0.004460  0.281939  0.500000  1
  Cd  Cd13  1  0.717665  0.721827  0.500000  1
  Cd  Cd14  1  0.347006  0.471228  0.500000  1
  Cd  Cd15  1  0.529153  0.876372  0.500000  1
  Cd  Cd16  1  0.471462  0.347472  0.500000  1
  Cd  Cd17  1  0.124092  0.650639  0.500000  1
  Cd  Cd18  1  0.876203  0.525975  0.500000  1
  Cd  Cd19  1  0.650482  0.123793  0.500000  1
  In  In20  1  0.199908  0.817145  0.000000  1
  In  In21  1  0.801022  0.618394  0.000000  1
  In  In22  1  0.817574  0.199646  0.000000  1
  In  In23  1  0.000313  0.001007  0.000000  1
  Au  Au24  1  0.169804  0.492538  0.500000  1
  Au  Au25  1  0.506876  0.676464  0.500000  1
  Au  Au26  1  0.492430  0.169765  0.500000  1
  Au  Au27  1  0.322251  0.830114  0.500000  1
  Au  Au28  1  0.677677  0.508362  0.500000  1
  Au  Au29  1  0.830062  0.321289  0.500000  1
  Au  Au30  1  0.174420  0.997605  0.000000  1
  Au  Au31  1  0.997498  0.174860  0.000000  1
  Au  Au32  1  0.825759  0.823481  0.000000  1
  Au  Au33  1  0.658024  0.000591  0.000000  1
  Au  Au34  1  0.000014  0.659125  0.000000  1
  Au  Au35  1  0.343424  0.343485  0.000000  1
