# generated using pymatgen
data_Lu4Ga4Co3Pd
_symmetry_space_group_name_H-M   'P 1'
_cell_length_a   4.35067100
_cell_length_b   6.85905257
_cell_length_c   7.05611475
_cell_angle_alpha   89.73428890
_cell_angle_beta   90.00000000
_cell_angle_gamma   90.00000000
_symmetry_Int_Tables_number   1
_chemical_formula_structural   Lu4Ga4Co3Pd
_chemical_formula_sum   'Lu4 Ga4 Co3 Pd1'
_cell_volume   210.56265059
_cell_formula_units_Z   1
loop_
 _symmetry_equiv_pos_site_id
 _symmetry_equiv_pos_as_xyz
  1  'x, y, z'
loop_
 _atom_site_type_symbol
 _atom_site_label
 _atom_site_symmetry_multiplicity
 _atom_site_fract_x
 _atom_site_fract_y
 _atom_site_fract_z
 _atom_site_occupancy
  Lu  Lu0  1  0.250000  0.492474  0.202783  1
  Lu  Lu1  1  0.750000  0.511656  0.802115  1
  Lu  Lu2  1  0.750000  0.008763  0.691180  1
  Lu  Lu3  1  0.250000  0.975905  0.305907  1
  Ga  Ga4  1  0.250000  0.792075  0.898820  1
  Ga  Ga5  1  0.750000  0.194375  0.122658  1
  Ga  Ga6  1  0.750000  0.698717  0.398497  1
  Ga  Ga7  1  0.250000  0.304845  0.585147  1
  Co  Co8  1  0.250000  0.668487  0.563109  1
  Co  Co9  1  0.750000  0.343013  0.435973  1
  Co  Co10  1  0.750000  0.836462  0.064286  1
  Pd  Pd11  1  0.250000  0.173229  0.929525  1
