# generated using pymatgen
data_Pr10Sn3Bi3Cl2
_symmetry_space_group_name_H-M   'P 1'
_cell_length_a   9.66683101
_cell_length_b   9.61190840
_cell_length_c   6.74082800
_cell_angle_alpha   90.00000000
_cell_angle_beta   90.00000000
_cell_angle_gamma   120.41793930
_symmetry_Int_Tables_number   1
_chemical_formula_structural   Pr10Sn3Bi3Cl2
_chemical_formula_sum   'Pr10 Sn3 Bi3 Cl2'
_cell_volume   540.12362789
_cell_formula_units_Z   1
loop_
 _symmetry_equiv_pos_site_id
 _symmetry_equiv_pos_as_xyz
  1  'x, y, z'
loop_
 _atom_site_type_symbol
 _atom_site_label
 _atom_site_symmetry_multiplicity
 _atom_site_fract_x
 _atom_site_fract_y
 _atom_site_fract_z
 _atom_site_occupancy
  Pr  Pr0  1  0.263457  0.994753  0.750000  1
  Pr  Pr1  1  0.732696  0.999946  0.250000  1
  Pr  Pr2  1  0.995406  0.262296  0.750000  1
  Pr  Pr3  1  0.004352  0.740597  0.250000  1
  Pr  Pr4  1  0.741196  0.740473  0.750000  1
  Pr  Pr5  1  0.262873  0.258320  0.250000  1
  Pr  Pr6  1  0.333391  0.671655  0.500655  1
  Pr  Pr7  1  0.666529  0.329553  0.500867  1
  Pr  Pr8  1  0.666529  0.329553  0.999133  1
  Pr  Pr9  1  0.333391  0.671655  0.999345  1
  Sn  Sn10  1  0.613140  0.999031  0.750000  1
  Sn  Sn11  1  0.387365  0.000288  0.250000  1
  Sn  Sn12  1  0.998707  0.612799  0.750000  1
  Bi  Bi13  1  0.001194  0.386621  0.250000  1
  Bi  Bi14  1  0.384968  0.385198  0.750000  1
  Bi  Bi15  1  0.614848  0.613875  0.250000  1
  Cl  Cl16  1  0.999979  0.001694  0.499379  1
  Cl  Cl17  1  0.999979  0.001694  0.000621  1
