# generated using pymatgen
data_Ce6Al24NiOs6Pt
_symmetry_space_group_name_H-M   'P 1'
_cell_length_a   8.89382500
_cell_length_b   8.87788099
_cell_length_c   9.50897844
_cell_angle_alpha   90.12540172
_cell_angle_beta   90.00000000
_cell_angle_gamma   120.05943773
_symmetry_Int_Tables_number   1
_chemical_formula_structural   Ce6Al24NiOs6Pt
_chemical_formula_sum   'Ce6 Al24 Ni1 Os6 Pt1'
_cell_volume   649.83122981
_cell_formula_units_Z   1
loop_
 _symmetry_equiv_pos_site_id
 _symmetry_equiv_pos_as_xyz
  1  'x, y, z'
loop_
 _atom_site_type_symbol
 _atom_site_label
 _atom_site_symmetry_multiplicity
 _atom_site_fract_x
 _atom_site_fract_y
 _atom_site_fract_z
 _atom_site_occupancy
  Ce  Ce0  1  0.194718  0.389436  0.252235  1
  Ce  Ce1  1  0.805282  0.610564  0.747765  1
  Ce  Ce2  1  0.612760  0.802293  0.252778  1
  Ce  Ce3  1  0.387240  0.197707  0.747222  1
  Ce  Ce4  1  0.189534  0.802293  0.252778  1
  Ce  Ce5  1  0.810466  0.197707  0.747222  1
  Al  Al6  1  0.331837  0.663675  0.023996  1
  Al  Al7  1  0.668163  0.336325  0.976004  1
  Al  Al8  1  0.666464  0.332926  0.519560  1
  Al  Al9  1  0.333536  0.667074  0.480440  1
  Al  Al10  1  0.163677  0.327354  0.577172  1
  Al  Al11  1  0.836323  0.672646  0.422828  1
  Al  Al12  1  0.673865  0.837468  0.578084  1
  Al  Al13  1  0.836785  0.673570  0.076286  1
  Al  Al14  1  0.326135  0.162532  0.421916  1
  Al  Al15  1  0.163215  0.326430  0.923714  1
  Al  Al16  1  0.163601  0.837468  0.578084  1
  Al  Al17  1  0.323472  0.165949  0.076918  1
  Al  Al18  1  0.836399  0.162532  0.421916  1
  Al  Al19  1  0.676528  0.834051  0.923082  1
  Al  Al20  1  0.842477  0.165949  0.076918  1
  Al  Al21  1  0.157523  0.834051  0.923082  1
  Al  Al22  1  0.561889  0.123777  0.251538  1
  Al  Al23  1  0.438111  0.876223  0.748462  1
  Al  Al24  1  0.874205  0.436138  0.248972  1
  Al  Al25  1  0.125795  0.563862  0.751028  1
  Al  Al26  1  0.561934  0.436138  0.248972  1
  Al  Al27  1  0.438066  0.563862  0.751028  1
  Al  Al28  1  0.999462  0.998925  0.256373  1
  Al  Al29  1  0.000538  0.001075  0.743627  1
  Ni  Ni30  1  0.000000  0.000000  0.500000  1
  Os  Os31  1  0.000000  0.500000  0.000000  1
  Os  Os32  1  0.500000  0.000000  0.500000  1
  Os  Os33  1  0.500000  0.500000  0.000000  1
  Os  Os34  1  0.000000  0.500000  0.500000  1
  Os  Os35  1  0.500000  0.500000  0.500000  1
  Os  Os36  1  0.000000  0.000000  0.000000  1
  Pt  Pt37  1  0.500000  0.000000  0.000000  1
