# generated using pymatgen
data_HoEr10(Lu3Bi4)3
_symmetry_space_group_name_H-M   'P 1'
_cell_length_a   8.15545032
_cell_length_b   9.43215704
_cell_length_c   11.90916700
_cell_angle_alpha   89.99015929
_cell_angle_beta   90.01617261
_cell_angle_gamma   89.97490896
_symmetry_Int_Tables_number   1
_chemical_formula_structural   HoEr10(Lu3Bi4)3
_chemical_formula_sum   'Ho1 Er10 Lu9 Bi12'
_cell_volume   916.09452965
_cell_formula_units_Z   1
loop_
 _symmetry_equiv_pos_site_id
 _symmetry_equiv_pos_as_xyz
  1  'x, y, z'
loop_
 _atom_site_type_symbol
 _atom_site_label
 _atom_site_symmetry_multiplicity
 _atom_site_fract_x
 _atom_site_fract_y
 _atom_site_fract_z
 _atom_site_occupancy
  Ho  Ho0  1  0.146487  0.248411  0.717083  1
  Er  Er1  1  0.185956  0.750001  0.717841  1
  Er  Er2  1  0.686451  0.749258  0.782815  1
  Er  Er3  1  0.813323  0.250089  0.282350  1
  Er  Er4  1  0.313429  0.249382  0.217557  1
  Er  Er5  1  0.192333  0.937560  0.439897  1
  Er  Er6  1  0.309031  0.063252  0.941439  1
  Er  Er7  1  0.807398  0.437562  0.559552  1
  Er  Er8  1  0.355032  0.750303  0.216955  1
  Er  Er9  1  0.852736  0.748348  0.282313  1
  Er  Er10  1  0.645794  0.249642  0.782939  1
  Lu  Lu11  1  0.021982  0.749329  0.989461  1
  Lu  Lu12  1  0.523034  0.750373  0.510631  1
  Lu  Lu13  1  0.977093  0.248909  0.011214  1
  Lu  Lu14  1  0.477164  0.250057  0.489045  1
  Lu  Lu15  1  0.308448  0.430756  0.941500  1
  Lu  Lu16  1  0.808851  0.069631  0.559095  1
  Lu  Lu17  1  0.690669  0.931291  0.058640  1
  Lu  Lu18  1  0.191225  0.569884  0.440525  1
  Lu  Lu19  1  0.692535  0.565474  0.059308  1
  Bi  Bi20  1  0.434961  0.002937  0.673023  1
  Bi  Bi21  1  0.934028  0.496007  0.827450  1
  Bi  Bi22  1  0.565874  0.503570  0.326886  1
  Bi  Bi23  1  0.065670  0.995536  0.173021  1
  Bi  Bi24  1  0.567290  0.996221  0.327115  1
  Bi  Bi25  1  0.066547  0.503229  0.172416  1
  Bi  Bi26  1  0.433698  0.496490  0.672706  1
  Bi  Bi27  1  0.932518  0.002595  0.827818  1
  Bi  Bi28  1  0.402924  0.745208  0.956811  1
  Bi  Bi29  1  0.903402  0.754747  0.542600  1
  Bi  Bi30  1  0.597883  0.249144  0.043685  1
  Bi  Bi31  1  0.096235  0.254807  0.456308  1
