# generated using pymatgen
data_Sc7Nb13Si16
_symmetry_space_group_name_H-M   'P 1'
_cell_length_a   6.70136797
_cell_length_b   6.89319100
_cell_length_c   13.12110064
_cell_angle_alpha   89.87217509
_cell_angle_beta   90.15126262
_cell_angle_gamma   89.92230043
_symmetry_Int_Tables_number   1
_chemical_formula_structural   Sc7Nb13Si16
_chemical_formula_sum   'Sc7 Nb13 Si16'
_cell_volume   606.10943952
_cell_formula_units_Z   1
loop_
 _symmetry_equiv_pos_site_id
 _symmetry_equiv_pos_as_xyz
  1  'x, y, z'
loop_
 _atom_site_type_symbol
 _atom_site_label
 _atom_site_symmetry_multiplicity
 _atom_site_fract_x
 _atom_site_fract_y
 _atom_site_fract_z
 _atom_site_occupancy
  Sc  Sc0  1  0.000096  0.825657  0.903953  1
  Sc  Sc1  1  0.499630  0.325382  0.095439  1
  Sc  Sc2  1  0.000164  0.173277  0.404964  1
  Sc  Sc3  1  0.500407  0.327816  0.405737  1
  Sc  Sc4  1  0.998921  0.173683  0.095682  1
  Sc  Sc5  1  0.499902  0.673851  0.905442  1
  Sc  Sc6  1  0.997418  0.824804  0.594745  1
  Nb  Nb7  1  0.499801  0.676775  0.598688  1
  Nb  Nb8  1  0.660842  0.174706  0.623655  1
  Nb  Nb9  1  0.163974  0.327864  0.874239  1
  Nb  Nb10  1  0.337826  0.825950  0.124750  1
  Nb  Nb11  1  0.838054  0.674214  0.375617  1
  Nb  Nb12  1  0.339922  0.823646  0.376213  1
  Nb  Nb13  1  0.837883  0.673335  0.125099  1
  Nb  Nb14  1  0.661922  0.174360  0.873624  1
  Nb  Nb15  1  0.165041  0.328412  0.624019  1
  Nb  Nb16  1  0.836419  0.495348  0.748979  1
  Nb  Nb17  1  0.337967  0.003134  0.747365  1
  Nb  Nb18  1  0.163614  0.504708  0.250868  1
  Nb  Nb19  1  0.662631  0.994358  0.250710  1
  Si  Si20  1  0.669216  0.965330  0.461634  1
  Si  Si21  1  0.168558  0.532203  0.039859  1
  Si  Si22  1  0.330297  0.033136  0.960076  1
  Si  Si23  1  0.825634  0.468294  0.539316  1
  Si  Si24  1  0.331272  0.031189  0.539648  1
  Si  Si25  1  0.831370  0.467084  0.960318  1
  Si  Si26  1  0.668643  0.967892  0.039728  1
  Si  Si27  1  0.171306  0.533295  0.461302  1
  Si  Si28  1  0.459763  0.389545  0.749033  1
  Si  Si29  1  0.960321  0.112896  0.749286  1
  Si  Si30  1  0.540811  0.612046  0.249616  1
  Si  Si31  1  0.040884  0.886677  0.250156  1
  Si  Si32  1  0.704393  0.861790  0.749555  1
  Si  Si33  1  0.203914  0.638442  0.750193  1
  Si  Si34  1  0.295601  0.137079  0.250308  1
  Si  Si35  1  0.795586  0.361819  0.250183  1
