# generated using pymatgen
data_Ta8Nb5Sn3
_symmetry_space_group_name_H-M   'P 1'
_cell_length_a   5.35876300
_cell_length_b   5.32876100
_cell_length_c   10.55917400
_cell_angle_alpha   90.00000000
_cell_angle_beta   90.00000000
_cell_angle_gamma   90.00000000
_symmetry_Int_Tables_number   1
_chemical_formula_structural   Ta8Nb5Sn3
_chemical_formula_sum   'Ta8 Nb5 Sn3'
_cell_volume   301.52320361
_cell_formula_units_Z   1
loop_
 _symmetry_equiv_pos_site_id
 _symmetry_equiv_pos_as_xyz
  1  'x, y, z'
loop_
 _atom_site_type_symbol
 _atom_site_label
 _atom_site_symmetry_multiplicity
 _atom_site_fract_x
 _atom_site_fract_y
 _atom_site_fract_z
 _atom_site_occupancy
  Ta  Ta0  1  0.000000  0.500000  0.377025  1
  Ta  Ta1  1  0.500000  0.243683  0.499791  1
  Ta  Ta2  1  0.752529  0.000000  0.257396  1
  Ta  Ta3  1  0.752148  0.000000  0.743101  1
  Ta  Ta4  1  0.500000  0.756317  0.499791  1
  Ta  Ta5  1  0.247471  0.000000  0.257396  1
  Ta  Ta6  1  0.247852  0.000000  0.743101  1
  Ta  Ta7  1  0.000000  0.000000  0.499819  1
  Nb  Nb8  1  0.000000  0.500000  0.873889  1
  Nb  Nb9  1  0.500000  0.245425  0.999981  1
  Nb  Nb10  1  0.000000  0.500000  0.125276  1
  Nb  Nb11  1  0.000000  0.500000  0.623795  1
  Nb  Nb12  1  0.500000  0.754575  0.999981  1
  Sn  Sn13  1  0.500000  0.500000  0.248561  1
  Sn  Sn14  1  0.500000  0.500000  0.750963  1
  Sn  Sn15  1  0.000000  0.000000  0.000134  1
