# generated using pymatgen
data_YSc6Co6AgSn22
_symmetry_space_group_name_H-M   'P 1'
_cell_length_a   9.52648500
_cell_length_b   9.52648523
_cell_length_c   9.80152800
_cell_angle_alpha   90.00000000
_cell_angle_beta   90.00000000
_cell_angle_gamma   120.00000266
_symmetry_Int_Tables_number   1
_chemical_formula_structural   YSc6Co6AgSn22
_chemical_formula_sum   'Y1 Sc6 Co6 Ag1 Sn22'
_cell_volume   770.35302371
_cell_formula_units_Z   1
loop_
 _symmetry_equiv_pos_site_id
 _symmetry_equiv_pos_as_xyz
  1  'x, y, z'
loop_
 _atom_site_type_symbol
 _atom_site_label
 _atom_site_symmetry_multiplicity
 _atom_site_fract_x
 _atom_site_fract_y
 _atom_site_fract_z
 _atom_site_occupancy
  Y  Y0  1  0.000000  0.000000  0.000000  1
  Sc  Sc1  1  0.034996  0.517498  0.309807  1
  Sc  Sc2  1  0.482502  0.965004  0.309807  1
  Sc  Sc3  1  0.482502  0.517498  0.309807  1
  Sc  Sc4  1  0.965004  0.482502  0.690193  1
  Sc  Sc5  1  0.517498  0.034996  0.690193  1
  Sc  Sc6  1  0.517498  0.482502  0.690193  1
  Co  Co7  1  0.169622  0.830378  0.800908  1
  Co  Co8  1  0.660756  0.830378  0.800908  1
  Co  Co9  1  0.169622  0.339244  0.800908  1
  Co  Co10  1  0.830378  0.169622  0.199092  1
  Co  Co11  1  0.339244  0.169622  0.199092  1
  Co  Co12  1  0.830378  0.660756  0.199092  1
  Ag  Ag13  1  0.000000  0.000000  0.500000  1
  Sn  Sn14  1  0.118232  0.881768  0.277710  1
  Sn  Sn15  1  0.763537  0.881768  0.277710  1
  Sn  Sn16  1  0.118232  0.236463  0.277710  1
  Sn  Sn17  1  0.881768  0.118232  0.722290  1
  Sn  Sn18  1  0.236463  0.118232  0.722290  1
  Sn  Sn19  1  0.881768  0.763537  0.722290  1
  Sn  Sn20  1  0.348311  0.000000  0.000000  1
  Sn  Sn21  1  0.651689  0.651689  0.000000  1
  Sn  Sn22  1  0.000000  0.348311  0.000000  1
  Sn  Sn23  1  0.348311  0.348311  0.000000  1
  Sn  Sn24  1  0.000000  0.651689  0.000000  1
  Sn  Sn25  1  0.651689  0.000000  0.000000  1
  Sn  Sn26  1  0.781337  0.562673  0.455753  1
  Sn  Sn27  1  0.781337  0.218663  0.455753  1
  Sn  Sn28  1  0.437327  0.218663  0.455753  1
  Sn  Sn29  1  0.218663  0.437327  0.544247  1
  Sn  Sn30  1  0.218663  0.781337  0.544247  1
  Sn  Sn31  1  0.562673  0.781337  0.544247  1
  Sn  Sn32  1  0.666667  0.333333  0.180515  1
  Sn  Sn33  1  0.333333  0.666667  0.819485  1
  Sn  Sn34  1  0.666667  0.333333  0.860375  1
  Sn  Sn35  1  0.333333  0.666667  0.139625  1
