# generated using pymatgen
data_Lu16Cd4NiIr3
_symmetry_space_group_name_H-M   'P 1'
_cell_length_a   9.41983936
_cell_length_b   9.41983908
_cell_length_c   9.41984021
_cell_angle_alpha   60.08317707
_cell_angle_beta   60.08317573
_cell_angle_gamma   60.08317505
_symmetry_Int_Tables_number   1
_chemical_formula_structural   Lu16Cd4NiIr3
_chemical_formula_sum   'Lu16 Cd4 Ni1 Ir3'
_cell_volume   592.15215310
_cell_formula_units_Z   1
loop_
 _symmetry_equiv_pos_site_id
 _symmetry_equiv_pos_as_xyz
  1  'x, y, z'
loop_
 _atom_site_type_symbol
 _atom_site_label
 _atom_site_symmetry_multiplicity
 _atom_site_fract_x
 _atom_site_fract_y
 _atom_site_fract_z
 _atom_site_occupancy
  Lu  Lu0  1  0.599071  0.599071  0.599071  1
  Lu  Lu1  1  0.597953  0.597953  0.203252  1
  Lu  Lu2  1  0.597953  0.203252  0.597953  1
  Lu  Lu3  1  0.203252  0.597953  0.597953  1
  Lu  Lu4  1  0.062507  0.439128  0.439128  1
  Lu  Lu5  1  0.438466  0.060680  0.060680  1
  Lu  Lu6  1  0.439128  0.062507  0.439128  1
  Lu  Lu7  1  0.060680  0.438466  0.060680  1
  Lu  Lu8  1  0.439128  0.439128  0.062507  1
  Lu  Lu9  1  0.060680  0.060680  0.438466  1
  Lu  Lu10  1  0.188134  0.812019  0.812019  1
  Lu  Lu11  1  0.814403  0.186829  0.186829  1
  Lu  Lu12  1  0.812019  0.188134  0.812019  1
  Lu  Lu13  1  0.186829  0.814403  0.186829  1
  Lu  Lu14  1  0.812019  0.812019  0.188134  1
  Lu  Lu15  1  0.186829  0.186829  0.814403  1
  Cd  Cd16  1  0.830940  0.830940  0.830940  1
  Cd  Cd17  1  0.831476  0.831476  0.506055  1
  Cd  Cd18  1  0.831476  0.506055  0.831476  1
  Cd  Cd19  1  0.506055  0.831476  0.831476  1
  Ni  Ni20  1  0.392222  0.392222  0.392222  1
  Ir  Ir21  1  0.392067  0.392067  0.824652  1
  Ir  Ir22  1  0.392067  0.824652  0.392067  1
  Ir  Ir23  1  0.824652  0.392067  0.392067  1
