# generated using pymatgen
data_Ca2PrTaO6
_symmetry_space_group_name_H-M   'P 1'
_cell_length_a   5.93707991
_cell_length_b   5.67027011
_cell_length_c   9.97785828
_cell_angle_alpha   55.53466292
_cell_angle_beta   89.50471853
_cell_angle_gamma   89.73407010
_symmetry_Int_Tables_number   1
_chemical_formula_structural   Ca2PrTaO6
_chemical_formula_sum   'Ca4 Pr2 Ta2 O12'
_cell_volume   276.93120865
_cell_formula_units_Z   2
loop_
 _symmetry_equiv_pos_site_id
 _symmetry_equiv_pos_as_xyz
  1  'x, y, z'
loop_
 _atom_site_type_symbol
 _atom_site_label
 _atom_site_symmetry_multiplicity
 _atom_site_fract_x
 _atom_site_fract_y
 _atom_site_fract_z
 _atom_site_occupancy
  Ca  Ca0  1  0.550210  0.272674  0.741807  1
  Ca  Ca1  1  0.449790  0.727326  0.258193  1
  Ca  Ca2  1  0.500000  0.500000  0.000000  1
  Ca  Ca3  1  0.000000  0.500000  0.500000  1
  Pr  Pr4  1  0.059195  0.729940  0.753890  1
  Pr  Pr5  1  0.940805  0.270060  0.246110  1
  Ta  Ta6  1  0.500000  0.000000  0.500000  1
  Ta  Ta7  1  0.000000  0.000000  0.000000  1
  O  O8  1  0.448006  0.892481  0.728405  1
  O  O9  1  0.551994  0.107519  0.271595  1
  O  O10  1  0.940050  0.114735  0.771385  1
  O  O11  1  0.059950  0.885265  0.228615  1
  O  O12  1  0.785945  0.763122  0.566580  1
  O  O13  1  0.214055  0.236878  0.433420  1
  O  O14  1  0.275869  0.253072  0.922622  1
  O  O15  1  0.724131  0.746928  0.077378  1
  O  O16  1  0.316297  0.659662  0.559534  1
  O  O17  1  0.683703  0.340338  0.440466  1
  O  O18  1  0.826227  0.341483  0.954414  1
  O  O19  1  0.173773  0.658517  0.045586  1
