# generated using pymatgen
data_Zr8TaTi11Ge16
_symmetry_space_group_name_H-M   'P 1'
_cell_length_a   6.82156000
_cell_length_b   6.93177154
_cell_length_c   13.14453800
_cell_angle_alpha   90.00000000
_cell_angle_beta   90.00000000
_cell_angle_gamma   90.03636533
_symmetry_Int_Tables_number   1
_chemical_formula_structural   Zr8TaTi11Ge16
_chemical_formula_sum   'Zr8 Ta1 Ti11 Ge16'
_cell_volume   621.54586684
_cell_formula_units_Z   1
loop_
 _symmetry_equiv_pos_site_id
 _symmetry_equiv_pos_as_xyz
  1  'x, y, z'
loop_
 _atom_site_type_symbol
 _atom_site_label
 _atom_site_symmetry_multiplicity
 _atom_site_fract_x
 _atom_site_fract_y
 _atom_site_fract_z
 _atom_site_occupancy
  Zr  Zr0  1  0.490610  0.674664  0.594098  1
  Zr  Zr1  1  0.990831  0.824681  0.905861  1
  Zr  Zr2  1  0.510680  0.324112  0.094772  1
  Zr  Zr3  1  0.009213  0.174095  0.405076  1
  Zr  Zr4  1  0.510680  0.324112  0.405228  1
  Zr  Zr5  1  0.009213  0.174095  0.094924  1
  Zr  Zr6  1  0.490610  0.674664  0.905902  1
  Zr  Zr7  1  0.990831  0.824681  0.594139  1
  Ta  Ta8  1  0.670376  0.994493  0.250000  1
  Ti  Ti9  1  0.657331  0.167005  0.626526  1
  Ti  Ti10  1  0.156951  0.333737  0.874044  1
  Ti  Ti11  1  0.343281  0.833739  0.125324  1
  Ti  Ti12  1  0.841252  0.668037  0.374658  1
  Ti  Ti13  1  0.343281  0.833739  0.374676  1
  Ti  Ti14  1  0.841252  0.668037  0.125342  1
  Ti  Ti15  1  0.657331  0.167005  0.873474  1
  Ti  Ti16  1  0.156951  0.333737  0.625956  1
  Ti  Ti17  1  0.829483  0.494487  0.750000  1
  Ti  Ti18  1  0.330245  0.004405  0.750000  1
  Ti  Ti19  1  0.170220  0.506161  0.250000  1
  Ge  Ge20  1  0.682988  0.958687  0.461186  1
  Ge  Ge21  1  0.182592  0.540652  0.040908  1
  Ge  Ge22  1  0.317334  0.041483  0.958917  1
  Ge  Ge23  1  0.817530  0.458264  0.540805  1
  Ge  Ge24  1  0.317334  0.041483  0.541083  1
  Ge  Ge25  1  0.817530  0.458264  0.959195  1
  Ge  Ge26  1  0.682988  0.958687  0.038814  1
  Ge  Ge27  1  0.182592  0.540652  0.459092  1
  Ge  Ge28  1  0.458838  0.377918  0.750000  1
  Ge  Ge29  1  0.959472  0.121873  0.750000  1
  Ge  Ge30  1  0.538943  0.619915  0.250000  1
  Ge  Ge31  1  0.043652  0.875925  0.250000  1
  Ge  Ge32  1  0.690078  0.856369  0.750000  1
  Ge  Ge33  1  0.189832  0.643160  0.750000  1
  Ge  Ge34  1  0.305698  0.145575  0.250000  1
  Ge  Ge35  1  0.811981  0.361415  0.250000  1
