# generated using pymatgen
data_Er3Tm5Sc12Si15Au
_symmetry_space_group_name_H-M   'P 1'
_cell_length_a   7.08413250
_cell_length_b   7.34594183
_cell_length_c   13.99625606
_cell_angle_alpha   89.94011189
_cell_angle_beta   89.67155747
_cell_angle_gamma   90.15742832
_symmetry_Int_Tables_number   1
_chemical_formula_structural   Er3Tm5Sc12Si15Au
_chemical_formula_sum   'Er3 Tm5 Sc12 Si15 Au1'
_cell_volume   728.34479451
_cell_formula_units_Z   1
loop_
 _symmetry_equiv_pos_site_id
 _symmetry_equiv_pos_as_xyz
  1  'x, y, z'
loop_
 _atom_site_type_symbol
 _atom_site_label
 _atom_site_symmetry_multiplicity
 _atom_site_fract_x
 _atom_site_fract_y
 _atom_site_fract_z
 _atom_site_occupancy
  Er  Er0  1  0.012505  0.176157  0.097267  1
  Er  Er1  1  0.987266  0.824387  0.903711  1
  Er  Er2  1  0.487282  0.677520  0.903554  1
  Tm  Tm3  1  0.988092  0.826815  0.597546  1
  Tm  Tm4  1  0.512137  0.322952  0.096530  1
  Tm  Tm5  1  0.010923  0.174940  0.400168  1
  Tm  Tm6  1  0.509593  0.324029  0.401313  1
  Tm  Tm7  1  0.490776  0.676378  0.598650  1
  Sc  Sc8  1  0.162689  0.502249  0.751034  1
  Sc  Sc9  1  0.837510  0.497609  0.250774  1
  Sc  Sc10  1  0.338223  0.001710  0.249423  1
  Sc  Sc11  1  0.663498  0.995383  0.750655  1
  Sc  Sc12  1  0.337678  0.175952  0.625719  1
  Sc  Sc13  1  0.666839  0.823428  0.373694  1
  Sc  Sc14  1  0.169119  0.673815  0.373361  1
  Sc  Sc15  1  0.670055  0.824082  0.125343  1
  Sc  Sc16  1  0.828463  0.325443  0.625446  1
  Sc  Sc17  1  0.328927  0.175468  0.875787  1
  Sc  Sc18  1  0.830263  0.322662  0.875717  1
  Sc  Sc19  1  0.169351  0.676774  0.125205  1
  Si  Si20  1  0.034376  0.116731  0.750645  1
  Si  Si21  1  0.967066  0.886230  0.249291  1
  Si  Si22  1  0.467085  0.613468  0.248464  1
  Si  Si23  1  0.534292  0.386641  0.752157  1
  Si  Si24  1  0.284568  0.871860  0.750695  1
  Si  Si25  1  0.713680  0.130058  0.249120  1
  Si  Si26  1  0.214811  0.369024  0.248039  1
  Si  Si27  1  0.786731  0.629295  0.752467  1
  Si  Si28  1  0.834059  0.536192  0.459558  1
  Si  Si29  1  0.339721  0.964019  0.459998  1
  Si  Si30  1  0.842315  0.534996  0.038981  1
  Si  Si31  1  0.659162  0.035328  0.538002  1
  Si  Si32  1  0.157235  0.464787  0.961663  1
  Si  Si33  1  0.658082  0.034552  0.961148  1
  Si  Si34  1  0.342184  0.964956  0.039312  1
  Au  Au35  1  0.163446  0.464110  0.539563  1
