# generated using pymatgen
data_Zr3Mo3AsP2
_symmetry_space_group_name_H-M   'P 1'
_cell_length_a   7.03647600
_cell_length_b   7.03647516
_cell_length_c   3.47017100
_cell_angle_alpha   90.00000000
_cell_angle_beta   90.00000000
_cell_angle_gamma   120.00000395
_symmetry_Int_Tables_number   1
_chemical_formula_structural   Zr3Mo3AsP2
_chemical_formula_sum   'Zr3 Mo3 As1 P2'
_cell_volume   148.79620683
_cell_formula_units_Z   1
loop_
 _symmetry_equiv_pos_site_id
 _symmetry_equiv_pos_as_xyz
  1  'x, y, z'
loop_
 _atom_site_type_symbol
 _atom_site_label
 _atom_site_symmetry_multiplicity
 _atom_site_fract_x
 _atom_site_fract_y
 _atom_site_fract_z
 _atom_site_occupancy
  Zr  Zr0  1  0.397473  0.406872  0.500000  1
  Zr  Zr1  1  0.593128  0.990601  0.500000  1
  Zr  Zr2  1  0.009399  0.602527  0.500000  1
  Mo  Mo3  1  0.004576  0.251720  0.000000  1
  Mo  Mo4  1  0.247143  0.995424  0.000000  1
  Mo  Mo5  1  0.748280  0.752857  0.000000  1
  As  As6  1  0.666667  0.333333  0.000000  1
  P  P7  1  0.333333  0.666667  0.000000  1
  P  P8  1  0.000000  0.000000  0.500000  1
