# generated using pymatgen
data_Er5LuFe3Si6Ru
_symmetry_space_group_name_H-M   'P 1'
_cell_length_a   5.61043107
_cell_length_b   5.61043121
_cell_length_c   13.50705329
_cell_angle_alpha   89.81597181
_cell_angle_beta   90.18402794
_cell_angle_gamma   137.28667159
_symmetry_Int_Tables_number   1
_chemical_formula_structural   Er5LuFe3Si6Ru
_chemical_formula_sum   'Er5 Lu1 Fe3 Si6 Ru1'
_cell_volume   288.39778359
_cell_formula_units_Z   1
loop_
 _symmetry_equiv_pos_site_id
 _symmetry_equiv_pos_as_xyz
  1  'x, y, z'
loop_
 _atom_site_type_symbol
 _atom_site_label
 _atom_site_symmetry_multiplicity
 _atom_site_fract_x
 _atom_site_fract_y
 _atom_site_fract_z
 _atom_site_occupancy
  Er  Er0  1  0.363937  0.636063  0.750417  1
  Er  Er1  1  0.918463  0.081537  0.112322  1
  Er  Er2  1  0.079209  0.920791  0.889978  1
  Er  Er3  1  0.080922  0.919078  0.613156  1
  Er  Er4  1  0.922379  0.077621  0.383982  1
  Lu  Lu5  1  0.638007  0.361993  0.248907  1
  Fe  Fe6  1  0.213815  0.786185  0.417920  1
  Fe  Fe7  1  0.213024  0.786976  0.081597  1
  Fe  Fe8  1  0.783926  0.216074  0.921210  1
  Si  Si9  1  0.324158  0.675842  0.249284  1
  Si  Si10  1  0.673667  0.326333  0.754979  1
  Si  Si11  1  0.623245  0.376755  0.040702  1
  Si  Si12  1  0.373657  0.626343  0.961112  1
  Si  Si13  1  0.383307  0.616693  0.534738  1
  Si  Si14  1  0.620901  0.379099  0.457044  1
  Ru  Ru15  1  0.787383  0.212617  0.582654  1
