# generated using pymatgen
data_Ba2ZnAsP
_symmetry_space_group_name_H-M   'P 1'
_cell_length_a   8.28990193
_cell_length_b   8.16649766
_cell_length_c   8.16649729
_cell_angle_alpha   132.64699354
_cell_angle_beta   130.43171389
_cell_angle_gamma   70.68134005
_symmetry_Int_Tables_number   1
_chemical_formula_structural   Ba2ZnAsP
_chemical_formula_sum   'Ba4 Zn2 As2 P2'
_cell_volume   303.66533606
_cell_formula_units_Z   2
loop_
 _symmetry_equiv_pos_site_id
 _symmetry_equiv_pos_as_xyz
  1  'x, y, z'
loop_
 _atom_site_type_symbol
 _atom_site_label
 _atom_site_symmetry_multiplicity
 _atom_site_fract_x
 _atom_site_fract_y
 _atom_site_fract_z
 _atom_site_occupancy
  Ba  Ba0  1  0.660855  0.858687  0.802168  1
  Ba  Ba1  1  0.339145  0.141313  0.197832  1
  Ba  Ba2  1  0.944737  0.636989  0.307748  1
  Ba  Ba3  1  0.055263  0.363011  0.692252  1
  Zn  Zn4  1  0.500000  0.259638  0.759638  1
  Zn  Zn5  1  0.500000  0.740362  0.240362  1
  As  As6  1  0.190682  0.891841  0.298840  1
  As  As7  1  0.809318  0.108159  0.701160  1
  P  P8  1  0.405655  0.605642  0.800012  1
  P  P9  1  0.594345  0.394358  0.199988  1
