# generated using pymatgen
data_Ho8Al(Pd11Au)2
_symmetry_space_group_name_H-M   'P 1'
_cell_length_a   8.31288600
_cell_length_b   8.37755100
_cell_length_c   8.36804000
_cell_angle_alpha   90.00000000
_cell_angle_beta   90.00000000
_cell_angle_gamma   90.00000000
_symmetry_Int_Tables_number   1
_chemical_formula_structural   Ho8Al(Pd11Au)2
_chemical_formula_sum   'Ho8 Al1 Pd22 Au2'
_cell_volume   582.76391557
_cell_formula_units_Z   1
loop_
 _symmetry_equiv_pos_site_id
 _symmetry_equiv_pos_as_xyz
  1  'x, y, z'
loop_
 _atom_site_type_symbol
 _atom_site_label
 _atom_site_symmetry_multiplicity
 _atom_site_fract_x
 _atom_site_fract_y
 _atom_site_fract_z
 _atom_site_occupancy
  Ho  Ho0  1  0.252149  0.244333  0.251981  1
  Ho  Ho1  1  0.747413  0.747274  0.747620  1
  Ho  Ho2  1  0.747413  0.747274  0.252380  1
  Ho  Ho3  1  0.747413  0.252726  0.747620  1
  Ho  Ho4  1  0.252149  0.244333  0.748019  1
  Ho  Ho5  1  0.252149  0.755667  0.251981  1
  Ho  Ho6  1  0.252149  0.755667  0.748019  1
  Ho  Ho7  1  0.747413  0.252726  0.252380  1
  Al  Al8  1  0.999355  0.000000  0.000000  1
  Pd  Pd9  1  0.741127  0.500000  0.000000  1
  Pd  Pd10  1  0.000321  0.259484  0.500000  1
  Pd  Pd11  1  0.500050  0.259745  0.000000  1
  Pd  Pd12  1  0.000321  0.740516  0.500000  1
  Pd  Pd13  1  0.500050  0.740255  0.000000  1
  Pd  Pd14  1  0.500991  0.000000  0.260233  1
  Pd  Pd15  1  0.259534  0.000000  0.500000  1
  Pd  Pd16  1  0.500991  0.000000  0.739767  1
  Pd  Pd17  1  0.740359  0.000000  0.500000  1
  Pd  Pd18  1  0.000935  0.500000  0.258794  1
  Pd  Pd19  1  0.000935  0.500000  0.741206  1
  Pd  Pd20  1  0.747482  0.500000  0.500000  1
  Pd  Pd21  1  0.499827  0.252661  0.500000  1
  Pd  Pd22  1  0.499827  0.747339  0.500000  1
  Pd  Pd23  1  0.499301  0.500000  0.253405  1
  Pd  Pd24  1  0.499301  0.500000  0.746595  1
  Pd  Pd25  1  0.289839  0.000000  0.000000  1
  Pd  Pd26  1  0.710097  0.000000  0.000000  1
  Pd  Pd27  1  0.000210  0.287242  0.000000  1
  Pd  Pd28  1  0.000210  0.712758  0.000000  1
  Pd  Pd29  1  0.998487  0.000000  0.288004  1
  Pd  Pd30  1  0.998487  0.000000  0.711996  1
  Au  Au31  1  0.260423  0.500000  0.000000  1
  Au  Au32  1  0.253295  0.500000  0.500000  1
