# generated using pymatgen
data_K2TbU(CuSe3)2
_symmetry_space_group_name_H-M   'P 1'
_cell_length_a   4.10454200
_cell_length_b   7.70149141
_cell_length_c   10.65975736
_cell_angle_alpha   89.86185637
_cell_angle_beta   90.00000000
_cell_angle_gamma   74.54525994
_symmetry_Int_Tables_number   1
_chemical_formula_structural   K2TbU(CuSe3)2
_chemical_formula_sum   'K2 Tb1 U1 Cu2 Se6'
_cell_volume   324.78129604
_cell_formula_units_Z   1
loop_
 _symmetry_equiv_pos_site_id
 _symmetry_equiv_pos_as_xyz
  1  'x, y, z'
loop_
 _atom_site_type_symbol
 _atom_site_label
 _atom_site_symmetry_multiplicity
 _atom_site_fract_x
 _atom_site_fract_y
 _atom_site_fract_z
 _atom_site_occupancy
  K  K0  1  0.253997  0.492007  0.229073  1
  K  K1  1  0.746004  0.507994  0.770927  1
  Tb  Tb2  1  0.000000  0.000000  0.000000  1
  U  U3  1  0.000000  0.000000  0.500000  1
  Cu  Cu4  1  0.533658  0.932685  0.252562  1
  Cu  Cu5  1  0.466343  0.067314  0.747438  1
  Se  Se6  1  0.626263  0.747475  0.064646  1
  Se  Se7  1  0.935792  0.128416  0.259397  1
  Se  Se8  1  0.623134  0.753735  0.443389  1
  Se  Se9  1  0.376867  0.246265  0.556612  1
  Se  Se10  1  0.064209  0.871583  0.740603  1
  Se  Se11  1  0.373738  0.252525  0.935354  1
