# generated using pymatgen
data_Rh2SF18
_symmetry_space_group_name_H-M   'P 1'
_cell_length_a   8.98270555
_cell_length_b   8.98276647
_cell_length_c   5.32826802
_cell_angle_alpha   85.44659952
_cell_angle_beta   85.44685889
_cell_angle_gamma   60.91313776
_symmetry_Int_Tables_number   1
_chemical_formula_structural   Rh2SF18
_chemical_formula_sum   'Rh2 S1 F18'
_cell_volume   374.11700658
_cell_formula_units_Z   1
loop_
 _symmetry_equiv_pos_site_id
 _symmetry_equiv_pos_as_xyz
  1  'x, y, z'
loop_
 _atom_site_type_symbol
 _atom_site_label
 _atom_site_symmetry_multiplicity
 _atom_site_fract_x
 _atom_site_fract_y
 _atom_site_fract_z
 _atom_site_occupancy
  Rh  Rh0  1  0.668438  0.668433  0.409601  1
  Rh  Rh1  1  0.999995  0.999991  0.999828  1
  S  S2  1  0.331566  0.331567  0.590388  1
  F  F3  1  0.260195  0.508608  0.428922  1
  F  F4  1  0.926165  0.926166  0.298713  1
  F  F5  1  0.073808  0.073810  0.701291  1
  F  F6  1  0.786554  0.077134  0.867491  1
  F  F7  1  0.922855  0.213466  0.132609  1
  F  F8  1  0.213464  0.922856  0.132609  1
  F  F9  1  0.077133  0.786554  0.867490  1
  F  F10  1  0.461339  0.751932  0.598494  1
  F  F11  1  0.751933  0.461339  0.598495  1
  F  F12  1  0.259668  0.259669  0.393407  1
  F  F13  1  0.752560  0.752561  0.640193  1
  F  F14  1  0.403532  0.403532  0.787219  1
  F  F15  1  0.584228  0.584228  0.179203  1
  F  F16  1  0.402927  0.154557  0.751873  1
  F  F17  1  0.875457  0.585019  0.220689  1
  F  F18  1  0.585019  0.875456  0.220689  1
  F  F19  1  0.154556  0.402928  0.751874  1
  F  F20  1  0.508608  0.260195  0.428922  1
