# generated using pymatgen
data_La4Th4Al3Ga5Rh8
_symmetry_space_group_name_H-M   'P 1'
_cell_length_a   4.20628400
_cell_length_b   7.29495277
_cell_length_c   16.35801619
_cell_angle_alpha   90.18812265
_cell_angle_beta   90.00000000
_cell_angle_gamma   90.00000000
_symmetry_Int_Tables_number   1
_chemical_formula_structural   La4Th4Al3Ga5Rh8
_chemical_formula_sum   'La4 Th4 Al3 Ga5 Rh8'
_cell_volume   501.93718300
_cell_formula_units_Z   1
loop_
 _symmetry_equiv_pos_site_id
 _symmetry_equiv_pos_as_xyz
  1  'x, y, z'
loop_
 _atom_site_type_symbol
 _atom_site_label
 _atom_site_symmetry_multiplicity
 _atom_site_fract_x
 _atom_site_fract_y
 _atom_site_fract_z
 _atom_site_occupancy
  La  La0  1  0.250000  0.657103  0.559021  1
  La  La1  1  0.750000  0.343315  0.440546  1
  La  La2  1  0.750000  0.839856  0.059352  1
  La  La3  1  0.250000  0.159331  0.942115  1
  Th  Th4  1  0.250000  0.531193  0.779145  1
  Th  Th5  1  0.750000  0.467901  0.218901  1
  Th  Th6  1  0.750000  0.969059  0.279649  1
  Th  Th7  1  0.250000  0.031011  0.720936  1
  Al  Al8  1  0.750000  0.495437  0.938421  1
  Al  Al9  1  0.750000  0.995807  0.560958  1
  Al  Al10  1  0.250000  0.005049  0.439376  1
  Ga  Ga11  1  0.250000  0.644345  0.350318  1
  Ga  Ga12  1  0.750000  0.355211  0.649259  1
  Ga  Ga13  1  0.750000  0.856865  0.850617  1
  Ga  Ga14  1  0.250000  0.140351  0.149412  1
  Ga  Ga15  1  0.250000  0.507748  0.060613  1
  Rh  Rh16  1  0.250000  0.751898  0.187588  1
  Rh  Rh17  1  0.750000  0.252433  0.814550  1
  Rh  Rh18  1  0.750000  0.751519  0.685661  1
  Rh  Rh19  1  0.250000  0.249753  0.314036  1
  Rh  Rh20  1  0.250000  0.712450  0.925117  1
  Rh  Rh21  1  0.750000  0.282711  0.073706  1
  Rh  Rh22  1  0.750000  0.789729  0.426894  1
  Rh  Rh23  1  0.250000  0.209924  0.573807  1
