# generated using pymatgen
data_Cs3K3Nb4(Cu3Se8)2
_symmetry_space_group_name_H-M   'P 1'
_cell_length_a   5.77876591
_cell_length_b   13.09626199
_cell_length_c   14.44411774
_cell_angle_alpha   69.67985359
_cell_angle_beta   77.99668252
_cell_angle_gamma   77.31381472
_symmetry_Int_Tables_number   1
_chemical_formula_structural   Cs3K3Nb4(Cu3Se8)2
_chemical_formula_sum   'Cs3 K3 Nb4 Cu6 Se16'
_cell_volume   989.66239677
_cell_formula_units_Z   1
loop_
 _symmetry_equiv_pos_site_id
 _symmetry_equiv_pos_as_xyz
  1  'x, y, z'
loop_
 _atom_site_type_symbol
 _atom_site_label
 _atom_site_symmetry_multiplicity
 _atom_site_fract_x
 _atom_site_fract_y
 _atom_site_fract_z
 _atom_site_occupancy
  Cs  Cs0  1  0.713769  0.711161  0.914682  1
  Cs  Cs1  1  0.342101  0.790556  0.588639  1
  Cs  Cs2  1  0.286112  0.289444  0.088895  1
  K  K3  1  0.652036  0.201417  0.400872  1
  K  K4  1  0.002504  0.496171  0.502967  1
  K  K5  1  0.002398  0.002002  0.997266  1
  Nb  Nb6  1  0.159961  0.467549  0.773071  1
  Nb  Nb7  1  0.398436  0.040214  0.721830  1
  Nb  Nb8  1  0.838681  0.527967  0.233957  1
  Nb  Nb9  1  0.603952  0.965327  0.272201  1
  Cu  Cu10  1  0.272522  0.252004  0.750117  1
  Cu  Cu11  1  0.726149  0.747018  0.252175  1
  Cu  Cu12  1  0.894823  0.044959  0.721549  1
  Cu  Cu13  1  0.662726  0.461297  0.773560  1
  Cu  Cu14  1  0.106496  0.960350  0.273056  1
  Cu  Cu15  1  0.336349  0.532417  0.233830  1
  Se  Se16  1  0.946220  0.311828  0.869784  1
  Se  Se17  1  0.126002  0.196218  0.629147  1
  Se  Se18  1  0.055314  0.682389  0.136545  1
  Se  Se19  1  0.872397  0.810399  0.369119  1
  Se  Se20  1  0.490281  0.407378  0.656724  1
  Se  Se21  1  0.549100  0.095717  0.841279  1
  Se  Se22  1  0.508101  0.591886  0.348337  1
  Se  Se23  1  0.454821  0.903781  0.156424  1
  Se  Se24  1  0.878440  0.616425  0.680658  1
  Se  Se25  1  0.172681  0.889124  0.813081  1
  Se  Se26  1  0.117296  0.376371  0.326622  1
  Se  Se27  1  0.831546  0.115269  0.180661  1
  Se  Se28  1  0.734296  0.983094  0.609196  1
  Se  Se29  1  0.321766  0.533144  0.879589  1
  Se  Se30  1  0.266417  0.032852  0.377922  1
  Se  Se31  1  0.676308  0.464272  0.126246  1
