# generated using pymatgen
data_Zr4Si8TcOs5
_symmetry_space_group_name_H-M   'P 1'
_cell_length_a   9.96477880
_cell_length_b   9.96477850
_cell_length_c   13.44819100
_cell_angle_alpha   53.66300067
_cell_angle_beta   53.66300194
_cell_angle_gamma   31.53726618
_symmetry_Int_Tables_number   1
_chemical_formula_structural   Zr4Si8TcOs5
_chemical_formula_sum   'Zr8 Si16 Tc2 Os10'
_cell_volume   550.37485771
_cell_formula_units_Z   2
loop_
 _symmetry_equiv_pos_site_id
 _symmetry_equiv_pos_as_xyz
  1  'x, y, z'
loop_
 _atom_site_type_symbol
 _atom_site_label
 _atom_site_symmetry_multiplicity
 _atom_site_fract_x
 _atom_site_fract_y
 _atom_site_fract_z
 _atom_site_occupancy
  Zr  Zr0  1  0.040591  0.295081  0.634145  1
  Zr  Zr1  1  0.704919  0.959409  0.865855  1
  Zr  Zr2  1  0.958926  0.706159  0.364962  1
  Zr  Zr3  1  0.293841  0.041074  0.135038  1
  Zr  Zr4  1  0.298910  0.551987  0.649269  1
  Zr  Zr5  1  0.448013  0.701090  0.850731  1
  Zr  Zr6  1  0.701699  0.445522  0.350717  1
  Zr  Zr7  1  0.554478  0.298301  0.149283  1
  Si  Si8  1  0.975251  0.251400  0.893879  1
  Si  Si9  1  0.748600  0.024749  0.606121  1
  Si  Si10  1  0.025389  0.747676  0.106800  1
  Si  Si11  1  0.252324  0.974611  0.393200  1
  Si  Si12  1  0.140764  0.387702  0.897555  1
  Si  Si13  1  0.612298  0.859236  0.602445  1
  Si  Si14  1  0.856414  0.612399  0.103440  1
  Si  Si15  1  0.387601  0.143586  0.396560  1
  Si  Si16  1  0.083559  0.574911  0.565286  1
  Si  Si17  1  0.425089  0.916441  0.934714  1
  Si  Si18  1  0.912597  0.427441  0.435142  1
  Si  Si19  1  0.572559  0.087403  0.064858  1
  Si  Si20  1  0.621311  0.378689  0.750000  1
  Si  Si21  1  0.382472  0.617528  0.250000  1
  Si  Si22  1  0.128236  0.871764  0.750000  1
  Si  Si23  1  0.870540  0.129460  0.250000  1
  Tc  Tc24  1  0.760261  0.486592  0.065701  1
  Tc  Tc25  1  0.513408  0.239739  0.434299  1
  Os  Os26  1  0.907723  0.132419  0.585188  1
  Os  Os27  1  0.867581  0.092277  0.914812  1
  Os  Os28  1  0.099509  0.860328  0.414588  1
  Os  Os29  1  0.139672  0.900491  0.085412  1
  Os  Os30  1  0.828347  0.647028  0.780544  1
  Os  Os31  1  0.352972  0.171653  0.719456  1
  Os  Os32  1  0.171102  0.353838  0.218160  1
  Os  Os33  1  0.646162  0.828898  0.281840  1
  Os  Os34  1  0.235637  0.518757  0.930103  1
  Os  Os35  1  0.481243  0.764363  0.569897  1
