# generated using pymatgen
data_HoLu(SeO3)3
_symmetry_space_group_name_H-M   'P 1'
_cell_length_a   7.02579968
_cell_length_b   8.05725767
_cell_length_c   9.00225342
_cell_angle_alpha   71.51603534
_cell_angle_beta   70.13365557
_cell_angle_gamma   66.13151530
_symmetry_Int_Tables_number   1
_chemical_formula_structural   HoLu(SeO3)3
_chemical_formula_sum   'Ho2 Lu2 Se6 O18'
_cell_volume   428.63306430
_cell_formula_units_Z   2
loop_
 _symmetry_equiv_pos_site_id
 _symmetry_equiv_pos_as_xyz
  1  'x, y, z'
loop_
 _atom_site_type_symbol
 _atom_site_label
 _atom_site_symmetry_multiplicity
 _atom_site_fract_x
 _atom_site_fract_y
 _atom_site_fract_z
 _atom_site_occupancy
  Ho  Ho0  1  0.334132  0.727042  0.590873  1
  Ho  Ho1  1  0.665868  0.272958  0.409127  1
  Lu  Lu2  1  0.742154  0.735407  0.797379  1
  Lu  Lu3  1  0.257846  0.264593  0.202621  1
  Se  Se4  1  0.426738  0.777383  0.196002  1
  Se  Se5  1  0.573262  0.222617  0.803998  1
  Se  Se6  1  0.147290  0.749130  0.966473  1
  Se  Se7  1  0.852710  0.250870  0.033527  1
  Se  Se8  1  0.886831  0.758611  0.413913  1
  Se  Se9  1  0.113169  0.241389  0.586087  1
  O  O10  1  0.651544  0.791713  0.047132  1
  O  O11  1  0.348456  0.208287  0.952868  1
  O  O12  1  0.359752  0.947927  0.303124  1
  O  O13  1  0.640248  0.052073  0.696876  1
  O  O14  1  0.517733  0.595264  0.350864  1
  O  O15  1  0.482267  0.404736  0.649136  1
  O  O16  1  0.167266  0.562852  0.123050  1
  O  O17  1  0.832734  0.437148  0.876950  1
  O  O18  1  0.410313  0.710051  0.849385  1
  O  O19  1  0.589687  0.289949  0.150615  1
  O  O20  1  0.344151  0.253170  0.433886  1
  O  O21  1  0.655849  0.746830  0.566114  1
  O  O22  1  0.967230  0.294026  0.443806  1
  O  O23  1  0.032770  0.705974  0.556194  1
  O  O24  1  0.157824  0.011770  0.656247  1
  O  O25  1  0.842176  0.988230  0.343753  1
  O  O26  1  0.935936  0.306593  0.167613  1
  O  O27  1  0.064064  0.693407  0.832387  1
