# generated using pymatgen
data_Lu12InFe3Sb
_symmetry_space_group_name_H-M   'P 1'
_cell_length_a   8.18640642
_cell_length_b   8.18640760
_cell_length_c   8.18640719
_cell_angle_alpha   108.15623134
_cell_angle_beta   108.91721829
_cell_angle_gamma   111.35768640
_symmetry_Int_Tables_number   1
_chemical_formula_structural   Lu12InFe3Sb
_chemical_formula_sum   'Lu12 In1 Fe3 Sb1'
_cell_volume   421.97340974
_cell_formula_units_Z   1
loop_
 _symmetry_equiv_pos_site_id
 _symmetry_equiv_pos_as_xyz
  1  'x, y, z'
loop_
 _atom_site_type_symbol
 _atom_site_label
 _atom_site_symmetry_multiplicity
 _atom_site_fract_x
 _atom_site_fract_y
 _atom_site_fract_z
 _atom_site_occupancy
  Lu  Lu0  1  0.305173  0.310594  0.615767  1
  Lu  Lu1  1  0.694827  0.689406  0.384233  1
  Lu  Lu2  1  0.694827  0.310594  0.005421  1
  Lu  Lu3  1  0.305173  0.689406  0.994579  1
  Lu  Lu4  1  0.190351  0.425668  0.235317  1
  Lu  Lu5  1  0.809649  0.574332  0.764683  1
  Lu  Lu6  1  0.190351  0.955034  0.764683  1
  Lu  Lu7  1  0.959467  0.194253  0.765216  1
  Lu  Lu8  1  0.809649  0.044966  0.235317  1
  Lu  Lu9  1  0.040533  0.805747  0.234784  1
  Lu  Lu10  1  0.429037  0.194253  0.234784  1
  Lu  Lu11  1  0.570963  0.805747  0.765216  1
  In  In12  1  0.000000  0.500000  0.500000  1
  Fe  Fe13  1  0.383035  0.383035  0.000000  1
  Fe  Fe14  1  0.616965  0.616965  0.000000  1
  Fe  Fe15  1  0.000000  0.000000  0.000000  1
  Sb  Sb16  1  0.500000  0.000000  0.500000  1
