# generated using pymatgen
data_YTm15MgIn3Rh4
_symmetry_space_group_name_H-M   'P 1'
_cell_length_a   9.54005109
_cell_length_b   9.53916704
_cell_length_c   9.55301764
_cell_angle_alpha   60.06531646
_cell_angle_beta   60.07829739
_cell_angle_gamma   59.90427070
_symmetry_Int_Tables_number   1
_chemical_formula_structural   YTm15MgIn3Rh4
_chemical_formula_sum   'Y1 Tm15 Mg1 In3 Rh4'
_cell_volume   614.95222167
_cell_formula_units_Z   1
loop_
 _symmetry_equiv_pos_site_id
 _symmetry_equiv_pos_as_xyz
  1  'x, y, z'
loop_
 _atom_site_type_symbol
 _atom_site_label
 _atom_site_symmetry_multiplicity
 _atom_site_fract_x
 _atom_site_fract_y
 _atom_site_fract_z
 _atom_site_occupancy
  Y  Y0  1  0.062292  0.062303  0.438091  1
  Tm  Tm1  1  0.437582  0.063493  0.436674  1
  Tm  Tm2  1  0.061278  0.439811  0.060457  1
  Tm  Tm3  1  0.047062  0.650223  0.650326  1
  Tm  Tm4  1  0.435748  0.435705  0.064436  1
  Tm  Tm5  1  0.650241  0.046976  0.650389  1
  Tm  Tm6  1  0.188263  0.811243  0.187530  1
  Tm  Tm7  1  0.188212  0.188243  0.811294  1
  Tm  Tm8  1  0.808991  0.809045  0.191494  1
  Tm  Tm9  1  0.439826  0.061287  0.060464  1
  Tm  Tm10  1  0.811178  0.188311  0.187534  1
  Tm  Tm11  1  0.063497  0.437557  0.436694  1
  Tm  Tm12  1  0.808818  0.191513  0.809937  1
  Tm  Tm13  1  0.191491  0.808842  0.809911  1
  Tm  Tm14  1  0.649581  0.649613  0.047677  1
  Tm  Tm15  1  0.651115  0.651094  0.652120  1
  Mg  Mg16  1  0.421761  0.421763  0.421754  1
  In  In17  1  0.748344  0.418153  0.416640  1
  In  In18  1  0.418129  0.748305  0.416655  1
  In  In19  1  0.416833  0.416805  0.749289  1
  Rh  Rh20  1  0.857687  0.857658  0.426243  1
  Rh  Rh21  1  0.857084  0.857020  0.858807  1
  Rh  Rh22  1  0.426999  0.857967  0.857794  1
  Rh  Rh23  1  0.857992  0.427070  0.857788  1
