# generated using pymatgen
data_Li4DyY3O8
_symmetry_space_group_name_H-M   'P 1'
_cell_length_a   3.39618800
_cell_length_b   5.31744303
_cell_length_c   11.23969905
_cell_angle_alpha   90.01116338
_cell_angle_beta   90.00000000
_cell_angle_gamma   90.00000000
_symmetry_Int_Tables_number   1
_chemical_formula_structural   Li4DyY3O8
_chemical_formula_sum   'Li4 Dy1 Y3 O8'
_cell_volume   202.97812815
_cell_formula_units_Z   1
loop_
 _symmetry_equiv_pos_site_id
 _symmetry_equiv_pos_as_xyz
  1  'x, y, z'
loop_
 _atom_site_type_symbol
 _atom_site_label
 _atom_site_symmetry_multiplicity
 _atom_site_fract_x
 _atom_site_fract_y
 _atom_site_fract_z
 _atom_site_occupancy
  Li  Li0  1  0.250000  0.097625  0.067145  1
  Li  Li1  1  0.250000  0.402402  0.567148  1
  Li  Li2  1  0.750000  0.597633  0.432909  1
  Li  Li3  1  0.750000  0.902371  0.932838  1
  Dy  Dy4  1  0.750000  0.952834  0.640338  1
  Y  Y5  1  0.250000  0.047124  0.359901  1
  Y  Y6  1  0.250000  0.452870  0.859589  1
  Y  Y7  1  0.750000  0.547129  0.140220  1
  O  O8  1  0.250000  0.190171  0.705613  1
  O  O9  1  0.750000  0.242901  0.474036  1
  O  O10  1  0.750000  0.256952  0.973712  1
  O  O11  1  0.250000  0.309019  0.205728  1
  O  O12  1  0.750000  0.691321  0.794003  1
  O  O13  1  0.250000  0.743110  0.026084  1
  O  O14  1  0.250000  0.757556  0.526507  1
  O  O15  1  0.750000  0.808981  0.294229  1
