# generated using pymatgen
data_Dy7Y3Al3Ru
_symmetry_space_group_name_H-M   'P 1'
_cell_length_a   9.55817500
_cell_length_b   9.55817493
_cell_length_c   9.63161500
_cell_angle_alpha   90.00000000
_cell_angle_beta   90.00000000
_cell_angle_gamma   120.00000369
_symmetry_Int_Tables_number   1
_chemical_formula_structural   Dy7Y3Al3Ru
_chemical_formula_sum   'Dy14 Y6 Al6 Ru2'
_cell_volume   762.04335864
_cell_formula_units_Z   2
loop_
 _symmetry_equiv_pos_site_id
 _symmetry_equiv_pos_as_xyz
  1  'x, y, z'
loop_
 _atom_site_type_symbol
 _atom_site_label
 _atom_site_symmetry_multiplicity
 _atom_site_fract_x
 _atom_site_fract_y
 _atom_site_fract_z
 _atom_site_occupancy
  Dy  Dy0  1  0.000000  0.000000  0.500000  1
  Dy  Dy1  1  0.000000  0.000000  0.000000  1
  Dy  Dy2  1  0.206959  0.793041  0.439844  1
  Dy  Dy3  1  0.206959  0.413920  0.439844  1
  Dy  Dy4  1  0.586080  0.793041  0.439844  1
  Dy  Dy5  1  0.793041  0.206959  0.560156  1
  Dy  Dy6  1  0.793041  0.586080  0.560156  1
  Dy  Dy7  1  0.413920  0.206959  0.560156  1
  Dy  Dy8  1  0.793041  0.206959  0.939844  1
  Dy  Dy9  1  0.793041  0.586080  0.939844  1
  Dy  Dy10  1  0.413920  0.206959  0.939844  1
  Dy  Dy11  1  0.206959  0.793041  0.060156  1
  Dy  Dy12  1  0.206959  0.413920  0.060156  1
  Dy  Dy13  1  0.586080  0.793041  0.060156  1
  Y  Y14  1  0.539964  0.460036  0.250000  1
  Y  Y15  1  0.539964  0.079929  0.250000  1
  Y  Y16  1  0.920071  0.460036  0.250000  1
  Y  Y17  1  0.460036  0.539964  0.750000  1
  Y  Y18  1  0.460036  0.920071  0.750000  1
  Y  Y19  1  0.079929  0.539964  0.750000  1
  Al  Al20  1  0.888406  0.111594  0.250000  1
  Al  Al21  1  0.888406  0.776813  0.250000  1
  Al  Al22  1  0.223187  0.111594  0.250000  1
  Al  Al23  1  0.111594  0.888406  0.750000  1
  Al  Al24  1  0.111594  0.223187  0.750000  1
  Al  Al25  1  0.776813  0.888406  0.750000  1
  Ru  Ru26  1  0.333333  0.666667  0.250000  1
  Ru  Ru27  1  0.666667  0.333333  0.750000  1
