# generated using pymatgen
data_PrMnOs2C
_symmetry_space_group_name_H-M   'P 1'
_cell_length_a   3.97424703
_cell_length_b   5.83135685
_cell_length_c   7.38307300
_cell_angle_alpha   90.00000000
_cell_angle_beta   90.00000000
_cell_angle_gamma   70.06176608
_symmetry_Int_Tables_number   1
_chemical_formula_structural   PrMnOs2C
_chemical_formula_sum   'Pr2 Mn2 Os4 C2'
_cell_volume   160.84870684
_cell_formula_units_Z   2
loop_
 _symmetry_equiv_pos_site_id
 _symmetry_equiv_pos_as_xyz
  1  'x, y, z'
loop_
 _atom_site_type_symbol
 _atom_site_label
 _atom_site_symmetry_multiplicity
 _atom_site_fract_x
 _atom_site_fract_y
 _atom_site_fract_z
 _atom_site_occupancy
  Pr  Pr0  1  0.958977  0.082925  0.250001  1
  Pr  Pr1  1  0.041024  0.917074  0.750000  1
  Mn  Mn2  1  0.229069  0.540653  0.250001  1
  Mn  Mn3  1  0.770930  0.459348  0.750000  1
  Os  Os4  1  0.669824  0.659642  0.059739  1
  Os  Os5  1  0.669824  0.659642  0.440261  1
  Os  Os6  1  0.330176  0.340358  0.559740  1
  Os  Os7  1  0.330176  0.340358  0.940260  1
  C  C8  1  0.500001  0.000000  0.000000  1
  C  C9  1  0.500001  0.000000  0.500000  1
