# generated using pymatgen
data_CuBiIr4(PbO7)2
_symmetry_space_group_name_H-M   'P 1'
_cell_length_a   7.33740037
_cell_length_b   7.35524793
_cell_length_c   7.20811296
_cell_angle_alpha   59.38260144
_cell_angle_beta   59.40488297
_cell_angle_gamma   60.08023903
_symmetry_Int_Tables_number   1
_chemical_formula_structural   CuBiIr4(PbO7)2
_chemical_formula_sum   'Cu1 Bi1 Ir4 Pb2 O14'
_cell_volume   272.68592489
_cell_formula_units_Z   1
loop_
 _symmetry_equiv_pos_site_id
 _symmetry_equiv_pos_as_xyz
  1  'x, y, z'
loop_
 _atom_site_type_symbol
 _atom_site_label
 _atom_site_symmetry_multiplicity
 _atom_site_fract_x
 _atom_site_fract_y
 _atom_site_fract_z
 _atom_site_occupancy
  Cu  Cu0  1  0.125000  0.125000  0.625000  1
  Bi  Bi1  1  0.125000  0.625000  0.125000  1
  Ir  Ir2  1  0.125000  0.625000  0.625000  1
  Ir  Ir3  1  0.625000  0.125000  0.625000  1
  Ir  Ir4  1  0.625000  0.625000  0.125000  1
  Ir  Ir5  1  0.625000  0.625000  0.625000  1
  Pb  Pb6  1  0.625000  0.125000  0.125000  1
  Pb  Pb7  1  0.125000  0.125000  0.125000  1
  O  O8  1  0.708381  0.706118  0.290828  1
  O  O9  1  0.301329  0.301034  0.704525  1
  O  O10  1  0.693114  0.301034  0.704525  1
  O  O11  1  0.294672  0.706118  0.290828  1
  O  O12  1  0.299781  0.694696  0.705743  1
  O  O13  1  0.707129  0.295217  0.290524  1
  O  O14  1  0.541619  0.543882  0.959172  1
  O  O15  1  0.948671  0.948966  0.545475  1
  O  O16  1  0.556886  0.948966  0.545475  1
  O  O17  1  0.955328  0.543882  0.959172  1
  O  O18  1  0.950219  0.555304  0.544257  1
  O  O19  1  0.542871  0.954783  0.959476  1
  O  O20  1  0.229623  0.239914  0.300841  1
  O  O21  1  0.020377  0.010086  0.949159  1
