# generated using pymatgen
data_Tb9Nd8Tm3Ga16
_symmetry_space_group_name_H-M   'P 1'
_cell_length_a   7.97283818
_cell_length_b   7.97283828
_cell_length_c   14.75627400
_cell_angle_alpha   90.01226714
_cell_angle_beta   89.98773286
_cell_angle_gamma   90.00873407
_symmetry_Int_Tables_number   1
_chemical_formula_structural   Tb9Nd8Tm3Ga16
_chemical_formula_sum   'Tb9 Nd8 Tm3 Ga16'
_cell_volume   937.99946417
_cell_formula_units_Z   1
loop_
 _symmetry_equiv_pos_site_id
 _symmetry_equiv_pos_as_xyz
  1  'x, y, z'
loop_
 _atom_site_type_symbol
 _atom_site_label
 _atom_site_symmetry_multiplicity
 _atom_site_fract_x
 _atom_site_fract_y
 _atom_site_fract_z
 _atom_site_occupancy
  Tb  Tb0  1  0.492177  0.360584  0.124666  1
  Tb  Tb1  1  0.991804  0.139593  0.625553  1
  Tb  Tb2  1  0.859982  0.007813  0.874977  1
  Tb  Tb3  1  0.139593  0.991804  0.374447  1
  Tb  Tb4  1  0.508380  0.640397  0.625364  1
  Tb  Tb5  1  0.360584  0.492177  0.875334  1
  Tb  Tb6  1  0.640397  0.508380  0.374636  1
  Tb  Tb7  1  0.007813  0.859982  0.125023  1
  Tb  Tb8  1  0.317412  0.317412  0.500000  1
  Nd  Nd9  1  0.640962  0.991233  0.458055  1
  Nd  Nd10  1  0.359346  0.008347  0.958061  1
  Nd  Nd11  1  0.991233  0.640962  0.541945  1
  Nd  Nd12  1  0.491700  0.859384  0.208010  1
  Nd  Nd13  1  0.508919  0.140142  0.708854  1
  Nd  Nd14  1  0.859384  0.491700  0.791990  1
  Nd  Nd15  1  0.140142  0.508919  0.291146  1
  Nd  Nd16  1  0.008347  0.359346  0.041939  1
  Tm  Tm17  1  0.182619  0.817013  0.749961  1
  Tm  Tm18  1  0.817013  0.182619  0.250039  1
  Tm  Tm19  1  0.683110  0.683110  0.000000  1
  Ga  Ga20  1  0.289701  0.935420  0.562505  1
  Ga  Ga21  1  0.709959  0.062636  0.062218  1
  Ga  Ga22  1  0.935420  0.289701  0.437495  1
  Ga  Ga23  1  0.438132  0.208708  0.310967  1
  Ga  Ga24  1  0.562763  0.790458  0.812535  1
  Ga  Ga25  1  0.208708  0.438132  0.689033  1
  Ga  Ga26  1  0.790458  0.562763  0.187465  1
  Ga  Ga27  1  0.062636  0.709959  0.937782  1
  Ga  Ga28  1  0.797691  0.846270  0.689144  1
  Ga  Ga29  1  0.202506  0.153223  0.188578  1
  Ga  Ga30  1  0.846270  0.797691  0.310856  1
  Ga  Ga31  1  0.347071  0.703412  0.438860  1
  Ga  Ga32  1  0.653589  0.297546  0.939096  1
  Ga  Ga33  1  0.703412  0.347071  0.561140  1
  Ga  Ga34  1  0.297546  0.653589  0.060904  1
  Ga  Ga35  1  0.153223  0.202506  0.811422  1
