# generated using pymatgen
data_Tb6Lu10MgAg3Rh4
_symmetry_space_group_name_H-M   'P 1'
_cell_length_a   9.46337334
_cell_length_b   9.45594327
_cell_length_c   9.45594300
_cell_angle_alpha   60.00000446
_cell_angle_beta   60.02597327
_cell_angle_gamma   60.02596979
_symmetry_Int_Tables_number   1
_chemical_formula_structural   Tb6Lu10MgAg3Rh4
_chemical_formula_sum   'Tb6 Lu10 Mg1 Ag3 Rh4'
_cell_volume   598.56465670
_cell_formula_units_Z   1
loop_
 _symmetry_equiv_pos_site_id
 _symmetry_equiv_pos_as_xyz
  1  'x, y, z'
loop_
 _atom_site_type_symbol
 _atom_site_label
 _atom_site_symmetry_multiplicity
 _atom_site_fract_x
 _atom_site_fract_y
 _atom_site_fract_z
 _atom_site_occupancy
  Tb  Tb0  1  0.936002  0.562623  0.562623  1
  Tb  Tb1  1  0.562830  0.936855  0.936855  1
  Tb  Tb2  1  0.562830  0.936855  0.563461  1
  Tb  Tb3  1  0.936002  0.562623  0.938752  1
  Tb  Tb4  1  0.562830  0.563461  0.936855  1
  Tb  Tb5  1  0.936002  0.938752  0.562623  1
  Lu  Lu6  1  0.352390  0.349821  0.349821  1
  Lu  Lu7  1  0.352390  0.349821  0.947966  1
  Lu  Lu8  1  0.352390  0.947966  0.349821  1
  Lu  Lu9  1  0.931174  0.356275  0.356275  1
  Lu  Lu10  1  0.814537  0.185221  0.185221  1
  Lu  Lu11  1  0.183819  0.816193  0.816193  1
  Lu  Lu12  1  0.183819  0.816193  0.183794  1
  Lu  Lu13  1  0.814537  0.185221  0.815022  1
  Lu  Lu14  1  0.183819  0.183794  0.816193  1
  Lu  Lu15  1  0.814537  0.815022  0.185221  1
  Mg  Mg16  1  0.286167  0.571278  0.571278  1
  Ag  Ag17  1  0.581078  0.583233  0.583233  1
  Ag  Ag18  1  0.581078  0.583233  0.252459  1
  Ag  Ag19  1  0.581078  0.252459  0.583233  1
  Rh  Rh20  1  0.140548  0.146088  0.146088  1
  Rh  Rh21  1  0.140548  0.146088  0.567273  1
  Rh  Rh22  1  0.140548  0.567273  0.146088  1
  Rh  Rh23  1  0.569046  0.143651  0.143651  1
