# generated using pymatgen
data_La15PrMgHg3Os4
_symmetry_space_group_name_H-M   'P 1'
_cell_length_a   10.06774536
_cell_length_b   10.11536076
_cell_length_c   10.11564300
_cell_angle_alpha   59.99908028
_cell_angle_beta   59.84250015
_cell_angle_gamma   59.80406992
_symmetry_Int_Tables_number   1
_chemical_formula_structural   La15PrMgHg3Os4
_chemical_formula_sum   'La15 Pr1 Mg1 Hg3 Os4'
_cell_volume   726.48022207
_cell_formula_units_Z   1
loop_
 _symmetry_equiv_pos_site_id
 _symmetry_equiv_pos_as_xyz
  1  'x, y, z'
loop_
 _atom_site_type_symbol
 _atom_site_label
 _atom_site_symmetry_multiplicity
 _atom_site_fract_x
 _atom_site_fract_y
 _atom_site_fract_z
 _atom_site_occupancy
  La  La0  1  0.342215  0.343448  0.345216  1
  La  La1  1  0.342215  0.343448  0.969123  1
  La  La2  1  0.343016  0.964887  0.346049  1
  La  La3  1  0.954249  0.346767  0.349493  1
  La  La4  1  0.808322  0.192953  0.190535  1
  La  La5  1  0.189529  0.811570  0.810496  1
  La  La6  1  0.189529  0.811570  0.188406  1
  La  La7  1  0.808322  0.192953  0.808190  1
  La  La8  1  0.189676  0.189439  0.810443  1
  La  La9  1  0.809044  0.809540  0.190708  1
  La  La10  1  0.942099  0.560025  0.557019  1
  La  La11  1  0.558348  0.943781  0.941903  1
  La  La12  1  0.558348  0.943781  0.555969  1
  La  La13  1  0.942099  0.560025  0.940858  1
  La  La14  1  0.557724  0.557899  0.942188  1
  Pr  Pr15  1  0.940871  0.941592  0.558768  1
  Mg  Mg16  1  0.296884  0.567918  0.567599  1
  Hg  Hg17  1  0.579190  0.585195  0.586497  1
  Hg  Hg18  1  0.579190  0.585195  0.249116  1
  Hg  Hg19  1  0.579563  0.248936  0.585750  1
  Os  Os20  1  0.135262  0.137534  0.139874  1
  Os  Os21  1  0.135262  0.137534  0.587331  1
  Os  Os22  1  0.133897  0.587423  0.139339  1
  Os  Os23  1  0.585148  0.136583  0.139134  1
