# generated using pymatgen
data_LuPa(SnPt)2
_symmetry_space_group_name_H-M   'P 1'
_cell_length_a   6.63329700
_cell_length_b   4.67000400
_cell_length_c   9.35464600
_cell_angle_alpha   90.00000000
_cell_angle_beta   90.00000000
_cell_angle_gamma   90.00000000
_symmetry_Int_Tables_number   1
_chemical_formula_structural   LuPa(SnPt)2
_chemical_formula_sum   'Lu2 Pa2 Sn4 Pt4'
_cell_volume   289.78376652
_cell_formula_units_Z   2
loop_
 _symmetry_equiv_pos_site_id
 _symmetry_equiv_pos_as_xyz
  1  'x, y, z'
loop_
 _atom_site_type_symbol
 _atom_site_label
 _atom_site_symmetry_multiplicity
 _atom_site_fract_x
 _atom_site_fract_y
 _atom_site_fract_z
 _atom_site_occupancy
  Lu  Lu0  1  0.001915  0.000000  0.376624  1
  Lu  Lu1  1  0.501915  0.500001  0.623376  1
  Pa  Pa2  1  0.498506  0.500001  0.125998  1
  Pa  Pa3  1  0.998505  0.000000  0.874001  1
  Sn  Sn4  1  0.997014  0.500001  0.132009  1
  Sn  Sn5  1  0.502504  0.000000  0.381980  1
  Sn  Sn6  1  0.002505  0.500001  0.618022  1
  Sn  Sn7  1  0.497015  0.000000  0.867991  1
  Pt  Pt8  1  0.745446  0.000000  0.122370  1
  Pt  Pt9  1  0.254612  0.500001  0.370817  1
  Pt  Pt10  1  0.754613  0.000000  0.629184  1
  Pt  Pt11  1  0.245446  0.500001  0.877631  1
