# generated using pymatgen
data_LaCu3NiIr
_symmetry_space_group_name_H-M   'P 1'
_cell_length_a   5.22845937
_cell_length_b   5.22846035
_cell_length_c   4.10144600
_cell_angle_alpha   90.00000000
_cell_angle_beta   90.00000000
_cell_angle_gamma   122.46768407
_symmetry_Int_Tables_number   1
_chemical_formula_structural   LaCu3NiIr
_chemical_formula_sum   'La1 Cu3 Ni1 Ir1'
_cell_volume   94.59533068
_cell_formula_units_Z   1
loop_
 _symmetry_equiv_pos_site_id
 _symmetry_equiv_pos_as_xyz
  1  'x, y, z'
loop_
 _atom_site_type_symbol
 _atom_site_label
 _atom_site_symmetry_multiplicity
 _atom_site_fract_x
 _atom_site_fract_y
 _atom_site_fract_z
 _atom_site_occupancy
  La  La0  1  0.500889  0.499111  0.000000  1
  Cu  Cu1  1  0.171520  0.828480  0.000000  1
  Cu  Cu2  1  0.996042  0.501440  0.500000  1
  Cu  Cu3  1  0.498560  0.003958  0.500000  1
  Ni  Ni4  1  0.836563  0.163437  0.000000  1
  Ir  Ir5  1  0.996426  0.003574  0.500000  1
