# generated using pymatgen
data_Cs4Al4Si3GeTe16
_symmetry_space_group_name_H-M   'P 1'
_cell_length_a   18.40413678
_cell_length_b   7.76856841
_cell_length_c   8.76210600
_cell_angle_alpha   70.31416747
_cell_angle_beta   90.25535806
_cell_angle_gamma   90.10868449
_symmetry_Int_Tables_number   1
_chemical_formula_structural   Cs4Al4Si3GeTe16
_chemical_formula_sum   'Cs4 Al4 Si3 Ge1 Te16'
_cell_volume   1179.52125277
_cell_formula_units_Z   1
loop_
 _symmetry_equiv_pos_site_id
 _symmetry_equiv_pos_as_xyz
  1  'x, y, z'
loop_
 _atom_site_type_symbol
 _atom_site_label
 _atom_site_symmetry_multiplicity
 _atom_site_fract_x
 _atom_site_fract_y
 _atom_site_fract_z
 _atom_site_occupancy
  Cs  Cs0  1  0.397431  0.954349  0.180741  1
  Cs  Cs1  1  0.896119  0.046562  0.818572  1
  Cs  Cs2  1  0.602653  0.526593  0.831552  1
  Cs  Cs3  1  0.101458  0.472583  0.168479  1
  Al  Al4  1  0.584108  0.165923  0.478451  1
  Al  Al5  1  0.082217  0.832373  0.521307  1
  Al  Al6  1  0.271848  0.589976  0.699592  1
  Al  Al7  1  0.772203  0.412387  0.300821  1
  Si  Si8  1  0.920859  0.683037  0.458853  1
  Si  Si9  1  0.726314  0.915020  0.279372  1
  Si  Si10  1  0.224639  0.083833  0.720482  1
  Ge  Ge11  1  0.419637  0.318569  0.541227  1
  Te  Te12  1  0.597372  0.880764  0.380657  1
  Te  Te13  1  0.095159  0.116683  0.620458  1
  Te  Te14  1  0.411689  0.605696  0.631800  1
  Te  Te15  1  0.912066  0.404810  0.371808  1
  Te  Te16  1  0.801372  0.790322  0.539310  1
  Te  Te17  1  0.296135  0.205925  0.457954  1
  Te  Te18  1  0.200474  0.717255  0.428895  1
  Te  Te19  1  0.702288  0.283267  0.571834  1
  Te  Te20  1  0.765395  0.227233  0.096899  1
  Te  Te21  1  0.264425  0.772990  0.904816  1
  Te  Te22  1  0.236340  0.267210  0.908053  1
  Te  Te23  1  0.735722  0.733370  0.090224  1
  Te  Te24  1  0.997198  0.927757  0.258804  1
  Te  Te25  1  0.500984  0.066592  0.743592  1
  Te  Te26  1  0.990484  0.600238  0.723946  1
  Te  Te27  1  0.493402  0.398682  0.271505  1
