# generated using pymatgen
data_Pr20Ir7Ru2Rh3
_symmetry_space_group_name_H-M   'P 1'
_cell_length_a   11.32461952
_cell_length_b   11.32466425
_cell_length_c   6.69056545
_cell_angle_alpha   90.02392891
_cell_angle_beta   90.03453872
_cell_angle_gamma   89.99978390
_symmetry_Int_Tables_number   1
_chemical_formula_structural   Pr20Ir7Ru2Rh3
_chemical_formula_sum   'Pr20 Ir7 Ru2 Rh3'
_cell_volume   858.04815361
_cell_formula_units_Z   1
loop_
 _symmetry_equiv_pos_site_id
 _symmetry_equiv_pos_as_xyz
  1  'x, y, z'
loop_
 _atom_site_type_symbol
 _atom_site_label
 _atom_site_symmetry_multiplicity
 _atom_site_fract_x
 _atom_site_fract_y
 _atom_site_fract_z
 _atom_site_occupancy
  Pr  Pr0  1  0.293843  0.088001  0.386666  1
  Pr  Pr1  1  0.294078  0.912000  0.886370  1
  Pr  Pr2  1  0.705175  0.087538  0.885089  1
  Pr  Pr3  1  0.705392  0.910597  0.386934  1
  Pr  Pr4  1  0.587999  0.793929  0.886608  1
  Pr  Pr5  1  0.586628  0.206080  0.386873  1
  Pr  Pr6  1  0.411772  0.794035  0.386600  1
  Pr  Pr7  1  0.411851  0.206041  0.886568  1
  Pr  Pr8  1  0.209573  0.409045  0.616347  1
  Pr  Pr9  1  0.209467  0.591061  0.116407  1
  Pr  Pr10  1  0.790346  0.410417  0.116303  1
  Pr  Pr11  1  0.790467  0.590985  0.616643  1
  Pr  Pr12  1  0.909143  0.709684  0.116445  1
  Pr  Pr13  1  0.909451  0.291179  0.617640  1
  Pr  Pr14  1  0.090929  0.709515  0.616807  1
  Pr  Pr15  1  0.092380  0.291066  0.115911  1
  Pr  Pr16  1  0.000015  0.999741  0.494026  1
  Pr  Pr17  1  0.000162  0.999894  0.994400  1
  Pr  Pr18  1  0.500002  0.500038  0.994271  1
  Pr  Pr19  1  0.499951  0.500028  0.494088  1
  Ir  Ir20  1  0.848495  0.845360  0.749001  1
  Ir  Ir21  1  0.151207  0.154890  0.749216  1
  Ir  Ir22  1  0.151840  0.844745  0.249032  1
  Ir  Ir23  1  0.655685  0.347947  0.749176  1
  Ir  Ir24  1  0.655318  0.651653  0.249016  1
  Ir  Ir25  1  0.344775  0.348116  0.248890  1
  Ir  Ir26  1  0.344959  0.651658  0.749092  1
  Ru  Ru27  1  0.500654  0.000382  0.121950  1
  Ru  Ru28  1  0.500490  0.000361  0.621861  1
  Rh  Rh29  1  0.848565  0.155135  0.249005  1
  Rh  Rh30  1  0.999696  0.499597  0.881531  1
  Rh  Rh31  1  0.999691  0.499283  0.381243  1
