# generated using pymatgen
data_Yb2GaFe3Br16
_symmetry_space_group_name_H-M   'P 1'
_cell_length_a   7.60620180
_cell_length_b   7.83147803
_cell_length_c   14.30671500
_cell_angle_alpha   87.66955670
_cell_angle_beta   90.02628184
_cell_angle_gamma   89.87878021
_symmetry_Int_Tables_number   1
_chemical_formula_structural   Yb2GaFe3Br16
_chemical_formula_sum   'Yb2 Ga1 Fe3 Br16'
_cell_volume   851.51269334
_cell_formula_units_Z   1
loop_
 _symmetry_equiv_pos_site_id
 _symmetry_equiv_pos_as_xyz
  1  'x, y, z'
loop_
 _atom_site_type_symbol
 _atom_site_label
 _atom_site_symmetry_multiplicity
 _atom_site_fract_x
 _atom_site_fract_y
 _atom_site_fract_z
 _atom_site_occupancy
  Yb  Yb0  1  0.752733  0.073693  0.813277  1
  Yb  Yb1  1  0.246127  0.075471  0.312758  1
  Ga  Ga2  1  0.934194  0.221857  0.578516  1
  Fe  Fe3  1  0.066012  0.218316  0.080016  1
  Fe  Fe4  1  0.572734  0.640460  0.780062  1
  Fe  Fe5  1  0.427328  0.640313  0.280081  1
  Br  Br6  1  0.426122  0.615367  0.641290  1
  Br  Br7  1  0.573642  0.615342  0.141135  1
  Br  Br8  1  0.868906  0.734656  0.758685  1
  Br  Br9  1  0.130886  0.735871  0.258985  1
  Br  Br10  1  0.938673  0.479194  0.495592  1
  Br  Br11  1  0.062381  0.475119  0.997388  1
  Br  Br12  1  0.917764  0.002203  0.995773  1
  Br  Br13  1  0.081917  0.999323  0.497765  1
  Br  Br14  1  0.642650  0.126961  0.617292  1
  Br  Br15  1  0.359081  0.129225  0.117736  1
  Br  Br16  1  0.565649  0.377393  0.872560  1
  Br  Br17  1  0.434337  0.376951  0.372212  1
  Br  Br18  1  0.445856  0.868014  0.865320  1
  Br  Br19  1  0.552911  0.867732  0.365483  1
  Br  Br20  1  0.933052  0.232297  0.231458  1
  Br  Br21  1  0.067043  0.229043  0.731020  1
