# generated using pymatgen
data_Dy16Cd4CoIrOs2
_symmetry_space_group_name_H-M   'P 1'
_cell_length_a   9.64717253
_cell_length_b   9.59412404
_cell_length_c   9.71027700
_cell_angle_alpha   59.59870316
_cell_angle_beta   59.78338401
_cell_angle_gamma   59.40097876
_symmetry_Int_Tables_number   1
_chemical_formula_structural   Dy16Cd4CoIrOs2
_chemical_formula_sum   'Dy16 Cd4 Co1 Ir1 Os2'
_cell_volume   629.63573087
_cell_formula_units_Z   1
loop_
 _symmetry_equiv_pos_site_id
 _symmetry_equiv_pos_as_xyz
  1  'x, y, z'
loop_
 _atom_site_type_symbol
 _atom_site_label
 _atom_site_symmetry_multiplicity
 _atom_site_fract_x
 _atom_site_fract_y
 _atom_site_fract_z
 _atom_site_occupancy
  Dy  Dy0  1  0.594484  0.604102  0.593047  1
  Dy  Dy1  1  0.594484  0.604102  0.208368  1
  Dy  Dy2  1  0.597739  0.208213  0.597024  1
  Dy  Dy3  1  0.213035  0.601855  0.592554  1
  Dy  Dy4  1  0.061153  0.436986  0.442109  1
  Dy  Dy5  1  0.437189  0.057245  0.065385  1
  Dy  Dy6  1  0.437189  0.057245  0.440182  1
  Dy  Dy7  1  0.061153  0.436986  0.059752  1
  Dy  Dy8  1  0.439506  0.438542  0.060976  1
  Dy  Dy9  1  0.064352  0.055022  0.440313  1
  Dy  Dy10  1  0.188096  0.806220  0.816030  1
  Dy  Dy11  1  0.806096  0.190550  0.191063  1
  Dy  Dy12  1  0.806096  0.190550  0.812291  1
  Dy  Dy13  1  0.188096  0.806220  0.189655  1
  Dy  Dy14  1  0.814667  0.810278  0.187527  1
  Dy  Dy15  1  0.190691  0.190904  0.809203  1
  Cd  Cd16  1  0.830676  0.829369  0.831459  1
  Cd  Cd17  1  0.830676  0.829369  0.508497  1
  Cd  Cd18  1  0.830586  0.506837  0.831288  1
  Cd  Cd19  1  0.506631  0.829750  0.831809  1
  Co  Co20  1  0.393263  0.831781  0.387478  1
  Ir  Ir21  1  0.829068  0.393876  0.388528  1
  Os  Os22  1  0.392539  0.391997  0.386560  1
  Os  Os23  1  0.392539  0.391997  0.828903  1
