# generated using pymatgen
data_La3Dy5Sc12Si15Ge
_symmetry_space_group_name_H-M   'P 1'
_cell_length_a   7.18946734
_cell_length_b   7.45982163
_cell_length_c   14.15306094
_cell_angle_alpha   90.22709006
_cell_angle_beta   90.03368899
_cell_angle_gamma   90.12511865
_symmetry_Int_Tables_number   1
_chemical_formula_structural   La3Dy5Sc12Si15Ge
_chemical_formula_sum   'La3 Dy5 Sc12 Si15 Ge1'
_cell_volume   759.05109536
_cell_formula_units_Z   1
loop_
 _symmetry_equiv_pos_site_id
 _symmetry_equiv_pos_as_xyz
  1  'x, y, z'
loop_
 _atom_site_type_symbol
 _atom_site_label
 _atom_site_symmetry_multiplicity
 _atom_site_fract_x
 _atom_site_fract_y
 _atom_site_fract_z
 _atom_site_occupancy
  La  La0  1  0.010169  0.170560  0.098325  1
  La  La1  1  0.986813  0.830868  0.903506  1
  La  La2  1  0.490399  0.671785  0.903790  1
  Dy  Dy3  1  0.987453  0.824953  0.595962  1
  Dy  Dy4  1  0.510127  0.325085  0.101723  1
  Dy  Dy5  1  0.011434  0.175436  0.401611  1
  Dy  Dy6  1  0.512863  0.323510  0.403359  1
  Dy  Dy7  1  0.490903  0.677122  0.595914  1
  Sc  Sc8  1  0.161318  0.500709  0.748369  1
  Sc  Sc9  1  0.838883  0.497760  0.252032  1
  Sc  Sc10  1  0.339498  0.000615  0.251941  1
  Sc  Sc11  1  0.661525  0.999911  0.746884  1
  Sc  Sc12  1  0.332974  0.173387  0.623320  1
  Sc  Sc13  1  0.668139  0.823827  0.375037  1
  Sc  Sc14  1  0.167956  0.676753  0.375583  1
  Sc  Sc15  1  0.667035  0.823940  0.128569  1
  Sc  Sc16  1  0.830727  0.323353  0.622119  1
  Sc  Sc17  1  0.332349  0.176353  0.872336  1
  Sc  Sc18  1  0.829070  0.326200  0.872806  1
  Sc  Sc19  1  0.170863  0.672648  0.127625  1
  Si  Si20  1  0.034457  0.123431  0.746399  1
  Si  Si21  1  0.965995  0.877173  0.252872  1
  Si  Si22  1  0.466326  0.617062  0.252317  1
  Si  Si23  1  0.534490  0.378117  0.746237  1
  Si  Si24  1  0.286841  0.877982  0.744417  1
  Si  Si25  1  0.710043  0.124850  0.253861  1
  Si  Si26  1  0.216086  0.376043  0.253507  1
  Si  Si27  1  0.788362  0.622284  0.744012  1
  Si  Si28  1  0.838113  0.536407  0.458840  1
  Si  Si29  1  0.341921  0.964953  0.459745  1
  Si  Si30  1  0.842168  0.534484  0.042073  1
  Si  Si31  1  0.657811  0.034589  0.538698  1
  Si  Si32  1  0.152798  0.461515  0.961537  1
  Si  Si33  1  0.649421  0.045113  0.963236  1
  Si  Si34  1  0.350797  0.968000  0.041907  1
  Ge  Ge35  1  0.163876  0.463222  0.539532  1
