# generated using pymatgen
data_Ba6Li2Ag19Pb3
_symmetry_space_group_name_H-M   'P 1'
_cell_length_a   10.09647600
_cell_length_b   10.09647489
_cell_length_c   8.57404100
_cell_angle_alpha   90.00000000
_cell_angle_beta   90.00000000
_cell_angle_gamma   119.99999708
_symmetry_Int_Tables_number   1
_chemical_formula_structural   Ba6Li2Ag19Pb3
_chemical_formula_sum   'Ba6 Li2 Ag19 Pb3'
_cell_volume   756.93011998
_cell_formula_units_Z   1
loop_
 _symmetry_equiv_pos_site_id
 _symmetry_equiv_pos_as_xyz
  1  'x, y, z'
loop_
 _atom_site_type_symbol
 _atom_site_label
 _atom_site_symmetry_multiplicity
 _atom_site_fract_x
 _atom_site_fract_y
 _atom_site_fract_z
 _atom_site_occupancy
  Ba  Ba0  1  0.519042  0.038083  0.243590  1
  Ba  Ba1  1  0.475227  0.950453  0.754385  1
  Ba  Ba2  1  0.961917  0.480958  0.243590  1
  Ba  Ba3  1  0.049547  0.524773  0.754385  1
  Ba  Ba4  1  0.519042  0.480958  0.243590  1
  Ba  Ba5  1  0.475227  0.524773  0.754385  1
  Li  Li6  1  0.000000  0.000000  0.001517  1
  Li  Li7  1  0.000000  0.000000  0.501664  1
  Ag  Ag8  1  0.162099  0.324197  0.062581  1
  Ag  Ag9  1  0.839134  0.678267  0.937417  1
  Ag  Ag10  1  0.675803  0.837901  0.062581  1
  Ag  Ag11  1  0.838934  0.677866  0.563359  1
  Ag  Ag12  1  0.321733  0.160866  0.937417  1
  Ag  Ag13  1  0.161207  0.322415  0.437064  1
  Ag  Ag14  1  0.162099  0.837901  0.062581  1
  Ag  Ag15  1  0.322134  0.161066  0.563359  1
  Ag  Ag16  1  0.839134  0.160866  0.937417  1
  Ag  Ag17  1  0.677585  0.838793  0.437064  1
  Ag  Ag18  1  0.838934  0.161066  0.563359  1
  Ag  Ag19  1  0.161207  0.838793  0.437064  1
  Ag  Ag20  1  0.900357  0.800714  0.251028  1
  Ag  Ag21  1  0.098935  0.197871  0.751008  1
  Ag  Ag22  1  0.199286  0.099643  0.251028  1
  Ag  Ag23  1  0.802129  0.901065  0.751008  1
  Ag  Ag24  1  0.900357  0.099643  0.251028  1
  Ag  Ag25  1  0.098935  0.901065  0.751008  1
  Ag  Ag26  1  0.333333  0.666667  0.068802  1
  Pb  Pb27  1  0.666667  0.333333  0.933062  1
  Pb  Pb28  1  0.666667  0.333333  0.565165  1
  Pb  Pb29  1  0.333333  0.666667  0.428499  1
