# generated using pymatgen
data_YTh3(InCu2)2
_symmetry_space_group_name_H-M   'P 1'
_cell_length_a   7.61717288
_cell_length_b   7.61717288
_cell_length_c   3.91246700
_cell_angle_alpha   90.00000000
_cell_angle_beta   90.00000000
_cell_angle_gamma   91.20032512
_symmetry_Int_Tables_number   1
_chemical_formula_structural   YTh3(InCu2)2
_chemical_formula_sum   'Y1 Th3 In2 Cu4'
_cell_volume   226.95669708
_cell_formula_units_Z   1
loop_
 _symmetry_equiv_pos_site_id
 _symmetry_equiv_pos_as_xyz
  1  'x, y, z'
loop_
 _atom_site_type_symbol
 _atom_site_label
 _atom_site_symmetry_multiplicity
 _atom_site_fract_x
 _atom_site_fract_y
 _atom_site_fract_z
 _atom_site_occupancy
  Y  Y0  1  0.822250  0.677750  0.500000  1
  Th  Th1  1  0.679389  0.176951  0.500000  1
  Th  Th2  1  0.323049  0.820611  0.500000  1
  Th  Th3  1  0.175981  0.324019  0.500000  1
  In  In4  1  0.506231  0.503246  0.000000  1
  In  In5  1  0.996754  0.993769  0.000000  1
  Cu  Cu6  1  0.115206  0.620583  0.000000  1
  Cu  Cu7  1  0.879417  0.384794  0.000000  1
  Cu  Cu8  1  0.620996  0.879004  0.000000  1
  Cu  Cu9  1  0.380728  0.119272  0.000000  1
