# generated using pymatgen
data_Sr4Fe5PtN6
_symmetry_space_group_name_H-M   'P 1'
_cell_length_a   6.55913299
_cell_length_b   6.55913242
_cell_length_c   6.39203414
_cell_angle_alpha   88.80249318
_cell_angle_beta   88.80247992
_cell_angle_gamma   117.33626202
_symmetry_Int_Tables_number   1
_chemical_formula_structural   Sr4Fe5PtN6
_chemical_formula_sum   'Sr4 Fe5 Pt1 N6'
_cell_volume   244.09204855
_cell_formula_units_Z   1
loop_
 _symmetry_equiv_pos_site_id
 _symmetry_equiv_pos_as_xyz
  1  'x, y, z'
loop_
 _atom_site_type_symbol
 _atom_site_label
 _atom_site_symmetry_multiplicity
 _atom_site_fract_x
 _atom_site_fract_y
 _atom_site_fract_z
 _atom_site_occupancy
  Sr  Sr0  1  0.823184  0.670047  0.892964  1
  Sr  Sr1  1  0.329953  0.176816  0.607036  1
  Sr  Sr2  1  0.170537  0.324940  0.098638  1
  Sr  Sr3  1  0.675060  0.829463  0.401362  1
  Fe  Fe4  1  0.190728  0.809272  0.250000  1
  Fe  Fe5  1  0.547244  0.147158  0.112989  1
  Fe  Fe6  1  0.419032  0.823589  0.902323  1
  Fe  Fe7  1  0.852842  0.452756  0.387011  1
  Fe  Fe8  1  0.176411  0.580968  0.597677  1
  Pt  Pt9  1  0.810482  0.189518  0.750000  1
  N  N10  1  0.415307  0.584693  0.750000  1
  N  N11  1  0.600791  0.399209  0.250000  1
  N  N12  1  0.017288  0.741470  0.495009  1
  N  N13  1  0.705666  0.993056  0.021739  1
  N  N14  1  0.006944  0.294334  0.478261  1
  N  N15  1  0.258530  0.982712  0.004991  1
