# generated using pymatgen
data_CsCdGaF6
_symmetry_space_group_name_H-M   'P 1'
_cell_length_a   7.70988700
_cell_length_b   7.64736200
_cell_length_c   10.56949000
_cell_angle_alpha   90.00000000
_cell_angle_beta   90.00000000
_cell_angle_gamma   90.00000000
_symmetry_Int_Tables_number   1
_chemical_formula_structural   CsCdGaF6
_chemical_formula_sum   'Cs4 Cd4 Ga4 F24'
_cell_volume   623.18026814
_cell_formula_units_Z   4
loop_
 _symmetry_equiv_pos_site_id
 _symmetry_equiv_pos_as_xyz
  1  'x, y, z'
loop_
 _atom_site_type_symbol
 _atom_site_label
 _atom_site_symmetry_multiplicity
 _atom_site_fract_x
 _atom_site_fract_y
 _atom_site_fract_z
 _atom_site_occupancy
  Cs  Cs0  1  0.018659  0.250000  0.631016  1
  Cs  Cs1  1  0.981341  0.750000  0.368984  1
  Cs  Cs2  1  0.481341  0.750000  0.131016  1
  Cs  Cs3  1  0.518659  0.250000  0.868984  1
  Cd  Cd4  1  0.216614  0.250000  0.254817  1
  Cd  Cd5  1  0.783386  0.750000  0.745183  1
  Cd  Cd6  1  0.283386  0.750000  0.754817  1
  Cd  Cd7  1  0.716614  0.250000  0.245183  1
  Ga  Ga8  1  0.000000  0.000000  0.000000  1
  Ga  Ga9  1  0.500000  0.000000  0.500000  1
  Ga  Ga10  1  0.000000  0.500000  0.000000  1
  Ga  Ga11  1  0.500000  0.500000  0.500000  1
  F  F12  1  0.295581  0.042281  0.403291  1
  F  F13  1  0.704419  0.957719  0.596709  1
  F  F14  1  0.204419  0.957719  0.903291  1
  F  F15  1  0.704419  0.542281  0.596709  1
  F  F16  1  0.795581  0.042281  0.096709  1
  F  F17  1  0.295581  0.457719  0.403291  1
  F  F18  1  0.795581  0.457719  0.096709  1
  F  F19  1  0.204419  0.542281  0.903291  1
  F  F20  1  0.551305  0.250000  0.512203  1
  F  F21  1  0.448695  0.750000  0.487797  1
  F  F22  1  0.948695  0.750000  0.012203  1
  F  F23  1  0.051305  0.250000  0.987797  1
  F  F24  1  0.135358  0.507179  0.151484  1
  F  F25  1  0.864642  0.492821  0.848516  1
  F  F26  1  0.364642  0.492821  0.651484  1
  F  F27  1  0.864642  0.007179  0.848516  1
  F  F28  1  0.635358  0.507179  0.348516  1
  F  F29  1  0.135358  0.992821  0.151484  1
  F  F30  1  0.635358  0.992821  0.348516  1
  F  F31  1  0.364642  0.007179  0.651484  1
  F  F32  1  0.461409  0.250000  0.151779  1
  F  F33  1  0.538591  0.750000  0.848221  1
  F  F34  1  0.038591  0.750000  0.651779  1
  F  F35  1  0.961409  0.250000  0.348221  1
