# generated using pymatgen
data_Y3Mg2CdSn2Au
_symmetry_space_group_name_H-M   'P 1'
_cell_length_a   7.53189700
_cell_length_b   7.47897193
_cell_length_c   4.50935000
_cell_angle_alpha   90.00000000
_cell_angle_beta   90.00000000
_cell_angle_gamma   120.23437110
_symmetry_Int_Tables_number   1
_chemical_formula_structural   Y3Mg2CdSn2Au
_chemical_formula_sum   'Y3 Mg2 Cd1 Sn2 Au1'
_cell_volume   219.46250719
_cell_formula_units_Z   1
loop_
 _symmetry_equiv_pos_site_id
 _symmetry_equiv_pos_as_xyz
  1  'x, y, z'
loop_
 _atom_site_type_symbol
 _atom_site_label
 _atom_site_symmetry_multiplicity
 _atom_site_fract_x
 _atom_site_fract_y
 _atom_site_fract_z
 _atom_site_occupancy
  Y  Y0  1  0.587775  0.000000  0.000000  1
  Y  Y1  1  0.002900  0.594096  0.000000  1
  Y  Y2  1  0.408804  0.405904  0.000000  1
  Mg  Mg3  1  0.000855  0.233360  0.500000  1
  Mg  Mg4  1  0.767495  0.766640  0.500000  1
  Cd  Cd5  1  0.240123  0.000000  0.500000  1
  Sn  Sn6  1  0.334585  0.663284  0.500000  1
  Sn  Sn7  1  0.671302  0.336716  0.500000  1
  Au  Au8  1  0.986161  0.000000  0.000000  1
