# generated using pymatgen
data_Dy8Lu2OsRu3
_symmetry_space_group_name_H-M   'P 1'
_cell_length_a   6.32145059
_cell_length_b   7.26347039
_cell_length_c   8.44547889
_cell_angle_alpha   96.80196771
_cell_angle_beta   112.13258932
_cell_angle_gamma   89.87857231
_symmetry_Int_Tables_number   1
_chemical_formula_structural   Dy8Lu2OsRu3
_chemical_formula_sum   'Dy8 Lu2 Os1 Ru3'
_cell_volume   356.29676991
_cell_formula_units_Z   1
loop_
 _symmetry_equiv_pos_site_id
 _symmetry_equiv_pos_as_xyz
  1  'x, y, z'
loop_
 _atom_site_type_symbol
 _atom_site_label
 _atom_site_symmetry_multiplicity
 _atom_site_fract_x
 _atom_site_fract_y
 _atom_site_fract_z
 _atom_site_occupancy
  Dy  Dy0  1  0.522769  0.083865  0.814894  1
  Dy  Dy1  1  0.477528  0.917119  0.185283  1
  Dy  Dy2  1  0.708831  0.416571  0.185725  1
  Dy  Dy3  1  0.292005  0.583555  0.815742  1
  Dy  Dy4  1  0.296953  0.312924  0.432429  1
  Dy  Dy5  1  0.701375  0.686406  0.566750  1
  Dy  Dy6  1  0.865356  0.187246  0.567890  1
  Dy  Dy7  1  0.135323  0.812398  0.431786  1
  Lu  Lu8  1  0.077694  0.250843  0.000471  1
  Lu  Lu9  1  0.923658  0.749296  0.000432  1
  Os  Os10  1  0.318030  0.575655  0.216705  1
  Ru  Ru11  1  0.680636  0.423926  0.782350  1
  Ru  Ru12  1  0.101692  0.925390  0.781873  1
  Ru  Ru13  1  0.898150  0.074806  0.217670  1
