# generated using pymatgen
data_Li2B4(IrPt)3
_symmetry_space_group_name_H-M   'P 1'
_cell_length_a   6.91258718
_cell_length_b   6.07838518
_cell_length_c   5.52506609
_cell_angle_alpha   72.88568571
_cell_angle_beta   57.36682471
_cell_angle_gamma   52.12897030
_symmetry_Int_Tables_number   1
_chemical_formula_structural   Li2B4(IrPt)3
_chemical_formula_sum   'Li2 B4 Ir3 Pt3'
_cell_volume   154.09188526
_cell_formula_units_Z   1
loop_
 _symmetry_equiv_pos_site_id
 _symmetry_equiv_pos_as_xyz
  1  'x, y, z'
loop_
 _atom_site_type_symbol
 _atom_site_label
 _atom_site_symmetry_multiplicity
 _atom_site_fract_x
 _atom_site_fract_y
 _atom_site_fract_z
 _atom_site_occupancy
  Li  Li0  1  0.940335  0.752874  0.411811  1
  Li  Li1  1  0.499518  0.305543  0.355694  1
  B  B2  1  0.042454  0.004043  0.575264  1
  B  B3  1  0.667518  0.821761  0.172255  1
  B  B4  1  0.445080  0.568811  0.910227  1
  B  B5  1  0.264359  0.195316  0.863720  1
  Ir  Ir6  1  0.357014  0.865114  0.138312  1
  Ir  Ir7  1  0.614000  0.147404  0.858093  1
  Ir  Ir8  1  0.384238  0.889252  0.612364  1
  Pt  Pt9  1  0.865207  0.379729  0.342122  1
  Pt  Pt10  1  0.873641  0.380099  0.838806  1
  Pt  Pt11  1  0.101841  0.634853  0.866133  1
