# generated using pymatgen
data_CdGa4HgCl16
_symmetry_space_group_name_H-M   'P 1'
_cell_length_a   9.94983496
_cell_length_b   9.94983514
_cell_length_c   11.99703400
_cell_angle_alpha   55.11772749
_cell_angle_beta   55.11771973
_cell_angle_gamma   49.96292614
_symmetry_Int_Tables_number   1
_chemical_formula_structural   CdGa4HgCl16
_chemical_formula_sum   'Cd1 Ga4 Hg1 Cl16'
_cell_volume   705.50671722
_cell_formula_units_Z   1
loop_
 _symmetry_equiv_pos_site_id
 _symmetry_equiv_pos_as_xyz
  1  'x, y, z'
loop_
 _atom_site_type_symbol
 _atom_site_label
 _atom_site_symmetry_multiplicity
 _atom_site_fract_x
 _atom_site_fract_y
 _atom_site_fract_z
 _atom_site_occupancy
  Cd  Cd0  1  0.006748  0.993252  0.750000  1
  Ga  Ga1  1  0.658989  0.165825  0.036315  1
  Ga  Ga2  1  0.342060  0.833894  0.962351  1
  Ga  Ga3  1  0.834175  0.341011  0.463685  1
  Ga  Ga4  1  0.166106  0.657940  0.537649  1
  Hg  Hg5  1  0.989889  0.010111  0.250000  1
  Cl  Cl6  1  0.878997  0.811474  0.528582  1
  Cl  Cl7  1  0.119694  0.185504  0.475697  1
  Cl  Cl8  1  0.690006  0.625058  0.449548  1
  Cl  Cl9  1  0.625006  0.690783  0.950158  1
  Cl  Cl10  1  0.814496  0.880306  0.024303  1
  Cl  Cl11  1  0.847679  0.335868  0.273524  1
  Cl  Cl12  1  0.167550  0.709434  0.166016  1
  Cl  Cl13  1  0.290566  0.832450  0.333984  1
  Cl  Cl14  1  0.151467  0.667749  0.726428  1
  Cl  Cl15  1  0.309217  0.374994  0.549842  1
  Cl  Cl16  1  0.664132  0.152321  0.226476  1
  Cl  Cl17  1  0.188526  0.121003  0.971418  1
  Cl  Cl18  1  0.374942  0.309994  0.050452  1
  Cl  Cl19  1  0.332251  0.848533  0.773572  1
  Cl  Cl20  1  0.712286  0.164776  0.667886  1
  Cl  Cl21  1  0.835224  0.287714  0.832114  1
