# generated using pymatgen
data_Sm3NpTc4F28
_symmetry_space_group_name_H-M   'P 1'
_cell_length_a   5.68026441
_cell_length_b   9.11431196
_cell_length_c   12.21661617
_cell_angle_alpha   62.18869670
_cell_angle_beta   90.01600765
_cell_angle_gamma   89.97518105
_symmetry_Int_Tables_number   1
_chemical_formula_structural   Sm3NpTc4F28
_chemical_formula_sum   'Sm3 Np1 Tc4 F28'
_cell_volume   559.41702151
_cell_formula_units_Z   1
loop_
 _symmetry_equiv_pos_site_id
 _symmetry_equiv_pos_as_xyz
  1  'x, y, z'
loop_
 _atom_site_type_symbol
 _atom_site_label
 _atom_site_symmetry_multiplicity
 _atom_site_fract_x
 _atom_site_fract_y
 _atom_site_fract_z
 _atom_site_occupancy
  Sm  Sm0  1  0.257353  0.192460  0.735374  1
  Sm  Sm1  1  0.241111  0.187608  0.235423  1
  Sm  Sm2  1  0.741455  0.812491  0.264575  1
  Np  Np3  1  0.758698  0.811221  0.764724  1
  Tc  Tc4  1  0.756460  0.273193  0.957682  1
  Tc  Tc5  1  0.256251  0.726831  0.541878  1
  Tc  Tc6  1  0.243975  0.726605  0.043177  1
  Tc  Tc7  1  0.743258  0.273837  0.457105  1
  F  F8  1  0.444973  0.709613  0.917202  1
  F  F9  1  0.943734  0.290330  0.582548  1
  F  F10  1  0.556346  0.291759  0.081438  1
  F  F11  1  0.055902  0.707849  0.417930  1
  F  F12  1  0.454657  0.278670  0.546056  1
  F  F13  1  0.952513  0.720151  0.954818  1
  F  F14  1  0.546050  0.719693  0.455007  1
  F  F15  1  0.046040  0.280165  0.044648  1
  F  F16  1  0.769112  0.517494  0.860420  1
  F  F17  1  0.269582  0.482641  0.639504  1
  F  F18  1  0.230993  0.483105  0.139250  1
  F  F19  1  0.730248  0.516118  0.361073  1
  F  F20  1  0.757742  0.030545  0.052173  1
  F  F21  1  0.257663  0.969961  0.447711  1
  F  F22  1  0.242258  0.970120  0.945761  1
  F  F23  1  0.740533  0.029360  0.553913  1
  F  F24  1  0.974422  0.730544  0.635995  1
  F  F25  1  0.476297  0.270102  0.863143  1
  F  F26  1  0.022859  0.269787  0.364287  1
  F  F27  1  0.524713  0.729761  0.136309  1
  F  F28  1  0.048333  0.744956  0.169448  1
  F  F29  1  0.548383  0.255029  0.330642  1
  F  F30  1  0.950862  0.255026  0.829980  1
  F  F31  1  0.452867  0.743605  0.670163  1
  F  F32  1  0.414055  0.969805  0.231008  1
  F  F33  1  0.913891  0.030787  0.268947  1
  F  F34  1  0.589121  0.030590  0.769244  1
  F  F35  1  0.087290  0.968187  0.731442  1
