# generated using pymatgen
data_Tb2Mg(Al3Cu4)3
_symmetry_space_group_name_H-M   'P 1'
_cell_length_a   10.40308552
_cell_length_b   8.23140401
_cell_length_c   7.88299866
_cell_angle_alpha   80.38618784
_cell_angle_beta   51.27284286
_cell_angle_gamma   48.34097813
_symmetry_Int_Tables_number   1
_chemical_formula_structural   Tb2Mg(Al3Cu4)3
_chemical_formula_sum   'Tb2 Mg1 Al9 Cu12'
_cell_volume   355.78577111
_cell_formula_units_Z   1
loop_
 _symmetry_equiv_pos_site_id
 _symmetry_equiv_pos_as_xyz
  1  'x, y, z'
loop_
 _atom_site_type_symbol
 _atom_site_label
 _atom_site_symmetry_multiplicity
 _atom_site_fract_x
 _atom_site_fract_y
 _atom_site_fract_z
 _atom_site_occupancy
  Tb  Tb0  1  0.000000  0.000000  0.000000  1
  Tb  Tb1  1  0.250000  0.250000  0.250000  1
  Mg  Mg2  1  0.500000  0.500000  0.500000  1
  Al  Al3  1  0.750000  0.750000  0.750000  1
  Al  Al4  1  0.756686  0.070289  0.833090  1
  Al  Al5  1  0.833090  0.339935  0.756686  1
  Al  Al6  1  0.070289  0.756686  0.339935  1
  Al  Al7  1  0.339935  0.833090  0.070289  1
  Al  Al8  1  0.494290  0.178294  0.415115  1
  Al  Al9  1  0.415115  0.912301  0.494290  1
  Al  Al10  1  0.178294  0.494290  0.912301  1
  Al  Al11  1  0.912301  0.415115  0.178294  1
  Cu  Cu12  1  0.625418  0.122621  0.627103  1
  Cu  Cu13  1  0.627103  0.624857  0.625418  1
  Cu  Cu14  1  0.122621  0.625418  0.624857  1
  Cu  Cu15  1  0.624857  0.627103  0.122621  1
  Cu  Cu16  1  0.490161  0.434269  0.181445  1
  Cu  Cu17  1  0.181445  0.894124  0.490161  1
  Cu  Cu18  1  0.434269  0.490161  0.894124  1
  Cu  Cu19  1  0.894124  0.181445  0.434269  1
  Cu  Cu20  1  0.758756  0.815108  0.065929  1
  Cu  Cu21  1  0.065929  0.360208  0.758756  1
  Cu  Cu22  1  0.815108  0.758756  0.360208  1
  Cu  Cu23  1  0.360208  0.065929  0.815108  1
