# generated using pymatgen
data_Ce4DyY5ZnAgPb6
_symmetry_space_group_name_H-M   'P 1'
_cell_length_a   9.56986600
_cell_length_b   9.56645048
_cell_length_c   6.48285200
_cell_angle_alpha   90.00000000
_cell_angle_beta   90.00000000
_cell_angle_gamma   119.98820073
_symmetry_Int_Tables_number   1
_chemical_formula_structural   Ce4DyY5ZnAgPb6
_chemical_formula_sum   'Ce4 Dy1 Y5 Zn1 Ag1 Pb6'
_cell_volume   514.04962559
_cell_formula_units_Z   1
loop_
 _symmetry_equiv_pos_site_id
 _symmetry_equiv_pos_as_xyz
  1  'x, y, z'
loop_
 _atom_site_type_symbol
 _atom_site_label
 _atom_site_symmetry_multiplicity
 _atom_site_fract_x
 _atom_site_fract_y
 _atom_site_fract_z
 _atom_site_occupancy
  Ce  Ce0  1  0.666818  0.333510  0.500079  1
  Ce  Ce1  1  0.333182  0.666691  0.500079  1
  Ce  Ce2  1  0.333183  0.666704  0.999923  1
  Ce  Ce3  1  0.666817  0.333522  0.999923  1
  Dy  Dy4  1  0.000000  0.724761  0.749021  1
  Y  Y5  1  0.724765  0.724789  0.251188  1
  Y  Y6  1  0.275235  0.000024  0.251188  1
  Y  Y7  1  0.000000  0.275067  0.251188  1
  Y  Y8  1  0.275235  0.275333  0.748819  1
  Y  Y9  1  0.724765  0.000098  0.748819  1
  Zn  Zn10  1  0.000000  0.999503  0.500558  1
  Ag  Ag11  1  0.000000  0.999468  0.999287  1
  Pb  Pb12  1  0.372209  0.372263  0.249368  1
  Pb  Pb13  1  0.627791  0.000054  0.249368  1
  Pb  Pb14  1  0.000000  0.628025  0.249370  1
  Pb  Pb15  1  0.628084  0.627958  0.750607  1
  Pb  Pb16  1  0.371916  0.999874  0.750607  1
  Pb  Pb17  1  0.000000  0.372355  0.750611  1
