# generated using pymatgen
data_Tm2Fe4Co7NiP7
_symmetry_space_group_name_H-M   'P 1'
_cell_length_a   8.96471455
_cell_length_b   8.95853900
_cell_length_c   3.60638400
_cell_angle_alpha   90.00000000
_cell_angle_beta   90.00000000
_cell_angle_gamma   119.96072633
_symmetry_Int_Tables_number   1
_chemical_formula_structural   Tm2Fe4Co7NiP7
_chemical_formula_sum   'Tm2 Fe4 Co7 Ni1 P7'
_cell_volume   250.92734325
_cell_formula_units_Z   1
loop_
 _symmetry_equiv_pos_site_id
 _symmetry_equiv_pos_as_xyz
  1  'x, y, z'
loop_
 _atom_site_type_symbol
 _atom_site_label
 _atom_site_symmetry_multiplicity
 _atom_site_fract_x
 _atom_site_fract_y
 _atom_site_fract_z
 _atom_site_occupancy
  Tm  Tm0  1  0.332565  0.664713  0.000000  1
  Tm  Tm1  1  0.000952  0.000378  0.500000  1
  Fe  Fe2  1  0.548920  0.490706  0.000000  1
  Fe  Fe3  1  0.759304  0.209086  0.500000  1
  Fe  Fe4  1  0.447636  0.237392  0.500000  1
  Fe  Fe5  1  0.791448  0.553849  0.500000  1
  Co  Co6  1  0.235184  0.271901  0.000000  1
  Co  Co7  1  0.038293  0.765644  0.000000  1
  Co  Co8  1  0.940358  0.450584  0.000000  1
  Co  Co9  1  0.508266  0.056152  0.000000  1
  Co  Co10  1  0.102524  0.384510  0.500000  1
  Co  Co11  1  0.280207  0.897527  0.500000  1
  Co  Co12  1  0.617585  0.720828  0.500000  1
  Ni  Ni13  1  0.729485  0.963446  0.000000  1
  P  P14  1  0.968219  0.223318  0.000000  1
  P  P15  1  0.256816  0.037444  0.000000  1
  P  P16  1  0.780554  0.740634  0.000000  1
  P  P17  1  0.069345  0.622834  0.500000  1
  P  P18  1  0.547844  0.928179  0.500000  1
  P  P19  1  0.379990  0.447882  0.500000  1
  P  P20  1  0.664507  0.332989  0.000000  1
