# generated using pymatgen
data_Li4MnN3
_symmetry_space_group_name_H-M   'P 1'
_cell_length_a   8.54586246
_cell_length_b   8.54580674
_cell_length_c   8.54586280
_cell_angle_alpha   147.64608607
_cell_angle_beta   114.76144717
_cell_angle_gamma   74.71645207
_symmetry_Int_Tables_number   1
_chemical_formula_structural   Li4MnN3
_chemical_formula_sum   'Li16 Mn4 N12'
_cell_volume   298.01295605
_cell_formula_units_Z   4
loop_
 _symmetry_equiv_pos_site_id
 _symmetry_equiv_pos_as_xyz
  1  'x, y, z'
loop_
 _atom_site_type_symbol
 _atom_site_label
 _atom_site_symmetry_multiplicity
 _atom_site_fract_x
 _atom_site_fract_y
 _atom_site_fract_z
 _atom_site_occupancy
  Li  Li0  1  0.877611  0.952500  0.993465  1
  Li  Li1  1  0.622389  0.615853  0.074889  1
  Li  Li2  1  0.040965  0.547500  0.425111  1
  Li  Li3  1  0.459036  0.884147  0.506537  1
  Li  Li4  1  0.122389  0.047500  0.006535  1
  Li  Li5  1  0.377611  0.384147  0.925111  1
  Li  Li6  1  0.959035  0.452500  0.574889  1
  Li  Li7  1  0.540963  0.115853  0.493464  1
  Li  Li8  1  0.474377  0.224377  0.250001  1
  Li  Li9  1  0.025623  0.275623  0.750000  1
  Li  Li10  1  0.525623  0.775623  0.749999  1
  Li  Li11  1  0.974377  0.724377  0.250000  1
  Li  Li12  1  0.249999  0.632926  0.382926  1
  Li  Li13  1  0.749999  0.867074  0.117073  1
  Li  Li14  1  0.750001  0.367074  0.617074  1
  Li  Li15  1  0.250001  0.132926  0.882927  1
  Mn  Mn16  1  0.668768  0.418769  0.250000  1
  Mn  Mn17  1  0.831231  0.081231  0.749999  1
  Mn  Mn18  1  0.331232  0.581231  0.750000  1
  Mn  Mn19  1  0.168769  0.918769  0.250001  1
  N  N20  1  0.848347  0.750000  0.598347  1
  N  N21  1  0.651654  0.250000  0.901654  1
  N  N22  1  0.151653  0.250000  0.401653  1
  N  N23  1  0.348346  0.750000  0.098346  1
  N  N24  1  0.463269  0.499280  0.284251  1
  N  N25  1  0.036732  0.320984  0.036012  1
  N  N26  1  0.784971  0.000720  0.463989  1
  N  N27  1  0.715029  0.179016  0.215748  1
  N  N28  1  0.536731  0.500720  0.715749  1
  N  N29  1  0.963268  0.679016  0.963988  1
  N  N30  1  0.215029  0.999280  0.536011  1
  N  N31  1  0.284971  0.820984  0.784252  1
