# generated using pymatgen
data_RbCu(S2O7)2
_symmetry_space_group_name_H-M   'P 1'
_cell_length_a   6.09344027
_cell_length_b   7.33994543
_cell_length_c   9.43428246
_cell_angle_alpha   106.37679172
_cell_angle_beta   96.76385947
_cell_angle_gamma   99.95386664
_symmetry_Int_Tables_number   1
_chemical_formula_structural   RbCu(S2O7)2
_chemical_formula_sum   'Rb1 Cu1 S4 O14'
_cell_volume   392.50080558
_cell_formula_units_Z   1
loop_
 _symmetry_equiv_pos_site_id
 _symmetry_equiv_pos_as_xyz
  1  'x, y, z'
loop_
 _atom_site_type_symbol
 _atom_site_label
 _atom_site_symmetry_multiplicity
 _atom_site_fract_x
 _atom_site_fract_y
 _atom_site_fract_z
 _atom_site_occupancy
  Rb  Rb0  1  0.500000  0.000000  0.000000  1
  Cu  Cu1  1  0.500000  0.500000  0.500000  1
  S  S2  1  0.920771  0.703562  0.727871  1
  S  S3  1  0.079229  0.296438  0.272129  1
  S  S4  1  0.670570  0.335872  0.736418  1
  S  S5  1  0.329430  0.664128  0.263582  1
  O  O6  1  0.806920  0.624358  0.563122  1
  O  O7  1  0.193080  0.375642  0.436878  1
  O  O8  1  0.492054  0.432120  0.676927  1
  O  O9  1  0.507946  0.567880  0.323073  1
  O  O10  1  0.158740  0.770432  0.733846  1
  O  O11  1  0.841260  0.229568  0.266154  1
  O  O12  1  0.802467  0.829755  0.820579  1
  O  O13  1  0.197533  0.170245  0.179421  1
  O  O14  1  0.620734  0.315935  0.877290  1
  O  O15  1  0.379266  0.684065  0.122710  1
  O  O16  1  0.908319  0.509347  0.783164  1
  O  O17  1  0.091681  0.490653  0.216836  1
  O  O18  1  0.716208  0.175633  0.625564  1
  O  O19  1  0.283792  0.824367  0.374436  1
