# generated using pymatgen
data_Rb9Ba3(NbAs4)2
_symmetry_space_group_name_H-M   'P 1'
_cell_length_a   10.80467593
_cell_length_b   10.95218184
_cell_length_c   8.24267344
_cell_angle_alpha   90.01684607
_cell_angle_beta   91.12703306
_cell_angle_gamma   118.76679263
_symmetry_Int_Tables_number   1
_chemical_formula_structural   Rb9Ba3(NbAs4)2
_chemical_formula_sum   'Rb9 Ba3 Nb2 As8'
_cell_volume   854.79886143
_cell_formula_units_Z   1
loop_
 _symmetry_equiv_pos_site_id
 _symmetry_equiv_pos_as_xyz
  1  'x, y, z'
loop_
 _atom_site_type_symbol
 _atom_site_label
 _atom_site_symmetry_multiplicity
 _atom_site_fract_x
 _atom_site_fract_y
 _atom_site_fract_z
 _atom_site_occupancy
  Rb  Rb0  1  0.532836  0.061103  0.105287  1
  Rb  Rb1  1  0.855901  0.131859  0.807133  1
  Rb  Rb2  1  0.274134  0.129309  0.788687  1
  Rb  Rb3  1  0.868948  0.735030  0.798131  1
  Rb  Rb4  1  0.140231  0.863864  0.282985  1
  Rb  Rb5  1  0.728639  0.872204  0.296177  1
  Rb  Rb6  1  0.127755  0.266049  0.281015  1
  Rb  Rb7  1  0.472908  0.942785  0.602472  1
  Rb  Rb8  1  0.940509  0.468514  0.107852  1
  Ba  Ba9  1  0.473847  0.530671  0.609862  1
  Ba  Ba10  1  0.058942  0.529213  0.604064  1
  Ba  Ba11  1  0.532383  0.471239  0.110666  1
  Nb  Nb12  1  0.666910  0.339453  0.504997  1
  Nb  Nb13  1  0.331339  0.659432  0.999988  1
  As  As14  1  0.659206  0.353685  0.809521  1
  As  As15  1  0.327867  0.643137  0.310485  1
  As  As16  1  0.203847  0.780966  0.890447  1
  As  As17  1  0.581774  0.775296  0.904907  1
  As  As18  1  0.214939  0.415985  0.879617  1
  As  As19  1  0.802004  0.218032  0.421677  1
  As  As20  1  0.416924  0.223160  0.394374  1
  As  As21  1  0.788156  0.589014  0.404054  1
