# generated using pymatgen
data_CaLa6OsBr12
_symmetry_space_group_name_H-M   'P 1'
_cell_length_a   9.84325847
_cell_length_b   9.84873912
_cell_length_c   9.61295323
_cell_angle_alpha   107.04934689
_cell_angle_beta   107.07122755
_cell_angle_gamma   107.33692440
_symmetry_Int_Tables_number   1
_chemical_formula_structural   CaLa6OsBr12
_chemical_formula_sum   'Ca1 La6 Os1 Br12'
_cell_volume   772.85180741
_cell_formula_units_Z   1
loop_
 _symmetry_equiv_pos_site_id
 _symmetry_equiv_pos_as_xyz
  1  'x, y, z'
loop_
 _atom_site_type_symbol
 _atom_site_label
 _atom_site_symmetry_multiplicity
 _atom_site_fract_x
 _atom_site_fract_y
 _atom_site_fract_z
 _atom_site_occupancy
  Ca  Ca0  1  0.500000  0.500000  0.500000  1
  La  La1  1  0.110759  0.320452  0.026756  1
  La  La2  1  0.323237  0.028024  0.112862  1
  La  La3  1  0.026850  0.103688  0.304634  1
  La  La4  1  0.973150  0.896313  0.695366  1
  La  La5  1  0.676763  0.971977  0.887138  1
  La  La6  1  0.889241  0.679548  0.973244  1
  Os  Os7  1  0.000000  0.000000  0.000000  1
  Br  Br8  1  0.214727  0.683905  0.068730  1
  Br  Br9  1  0.457994  0.379468  0.168608  1
  Br  Br10  1  0.684405  0.069830  0.217834  1
  Br  Br11  1  0.930655  0.782779  0.318785  1
  Br  Br12  1  0.175125  0.459737  0.383021  1
  Br  Br13  1  0.381033  0.173283  0.462630  1
  Br  Br14  1  0.618967  0.826717  0.537371  1
  Br  Br15  1  0.824875  0.540263  0.616979  1
  Br  Br16  1  0.069345  0.217221  0.681216  1
  Br  Br17  1  0.315595  0.930170  0.782166  1
  Br  Br18  1  0.542006  0.620532  0.831393  1
  Br  Br19  1  0.785273  0.316096  0.931270  1
