# generated using pymatgen
data_Cs6K3In(BiSb)2
_symmetry_space_group_name_H-M   'P 1'
_cell_length_a   11.32904445
_cell_length_b   11.33935834
_cell_length_c   11.91919400
_cell_angle_alpha   90.00000000
_cell_angle_beta   90.00000000
_cell_angle_gamma   120.00212260
_symmetry_Int_Tables_number   1
_chemical_formula_structural   Cs6K3In(BiSb)2
_chemical_formula_sum   'Cs12 K6 In2 Bi4 Sb4'
_cell_volume   1326.01974603
_cell_formula_units_Z   2
loop_
 _symmetry_equiv_pos_site_id
 _symmetry_equiv_pos_as_xyz
  1  'x, y, z'
loop_
 _atom_site_type_symbol
 _atom_site_label
 _atom_site_symmetry_multiplicity
 _atom_site_fract_x
 _atom_site_fract_y
 _atom_site_fract_z
 _atom_site_occupancy
  Cs  Cs0  1  0.209215  0.415862  0.542241  1
  Cs  Cs1  1  0.793815  0.209376  0.042547  1
  Cs  Cs2  1  0.415079  0.207844  0.041010  1
  Cs  Cs3  1  0.584440  0.790620  0.542540  1
  Cs  Cs4  1  0.207234  0.792157  0.541021  1
  Cs  Cs5  1  0.793348  0.584139  0.457758  1
  Cs  Cs6  1  0.793815  0.209376  0.457453  1
  Cs  Cs7  1  0.793348  0.584139  0.042242  1
  Cs  Cs8  1  0.415079  0.207844  0.458990  1
  Cs  Cs9  1  0.584440  0.790620  0.957460  1
  Cs  Cs10  1  0.209215  0.415862  0.957759  1
  Cs  Cs11  1  0.207234  0.792157  0.958979  1
  K  K12  1  0.116773  0.236410  0.250000  1
  K  K13  1  0.882470  0.117360  0.750000  1
  K  K14  1  0.236359  0.119588  0.750000  1
  K  K15  1  0.765122  0.882645  0.250000  1
  K  K16  1  0.116814  0.880421  0.250000  1
  K  K17  1  0.880375  0.763599  0.750000  1
  In  In18  1  0.328793  0.664415  0.250000  1
  In  In19  1  0.664374  0.335575  0.750000  1
  Bi  Bi20  1  0.480947  0.518263  0.250000  1
  Bi  Bi21  1  0.962676  0.481731  0.750000  1
  Bi  Bi22  1  0.518370  0.037339  0.750000  1
  Bi  Bi23  1  0.481026  0.962656  0.250000  1
  Sb  Sb24  1  0.039804  0.519770  0.250000  1
  Sb  Sb25  1  0.520031  0.480235  0.750000  1
  Sb  Sb26  1  0.999904  0.999998  0.999999  1
  Sb  Sb27  1  0.999904  0.999998  0.500001  1
