# generated using pymatgen
data_LiNd13Th3Mg(CdIr2)2
_symmetry_space_group_name_H-M   'P 1'
_cell_length_a   9.97437777
_cell_length_b   10.00586745
_cell_length_c   10.00586700
_cell_angle_alpha   60.15330636
_cell_angle_beta   60.04254045
_cell_angle_gamma   60.04254194
_symmetry_Int_Tables_number   1
_chemical_formula_structural   LiNd13Th3Mg(CdIr2)2
_chemical_formula_sum   'Li1 Nd13 Th3 Mg1 Cd2 Ir4'
_cell_volume   707.39265276
_cell_formula_units_Z   1
loop_
 _symmetry_equiv_pos_site_id
 _symmetry_equiv_pos_as_xyz
  1  'x, y, z'
loop_
 _atom_site_type_symbol
 _atom_site_label
 _atom_site_symmetry_multiplicity
 _atom_site_fract_x
 _atom_site_fract_y
 _atom_site_fract_z
 _atom_site_occupancy
  Li  Li0  1  0.572754  0.575811  0.271957  1
  Nd  Nd1  1  0.953234  0.348835  0.349114  1
  Nd  Nd2  1  0.811384  0.189310  0.189412  1
  Nd  Nd3  1  0.190650  0.810505  0.809434  1
  Nd  Nd4  1  0.189930  0.811224  0.188405  1
  Nd  Nd5  1  0.811043  0.189102  0.808700  1
  Nd  Nd6  1  0.191846  0.190509  0.808986  1
  Nd  Nd7  1  0.812687  0.812548  0.186247  1
  Nd  Nd8  1  0.941114  0.562627  0.563531  1
  Nd  Nd9  1  0.560556  0.939325  0.937790  1
  Nd  Nd10  1  0.561888  0.938894  0.563824  1
  Nd  Nd11  1  0.940159  0.561338  0.936118  1
  Nd  Nd12  1  0.562169  0.563013  0.938673  1
  Nd  Nd13  1  0.939123  0.936372  0.562122  1
  Th  Th14  1  0.343684  0.345783  0.347174  1
  Th  Th15  1  0.345488  0.346711  0.960992  1
  Th  Th16  1  0.344977  0.962239  0.346345  1
  Mg  Mg17  1  0.574273  0.577071  0.577366  1
  Cd  Cd18  1  0.580096  0.258716  0.579724  1
  Cd  Cd19  1  0.257109  0.582040  0.579682  1
  Ir  Ir20  1  0.151573  0.141755  0.140557  1
  Ir  Ir21  1  0.150515  0.142911  0.565720  1
  Ir  Ir22  1  0.150529  0.567011  0.142055  1
  Ir  Ir23  1  0.563216  0.146347  0.146067  1
