# generated using pymatgen
data_Pr2HoEr(Zn5Sn)2
_symmetry_space_group_name_H-M   'P 1'
_cell_length_a   8.46380708
_cell_length_b   8.46380836
_cell_length_c   9.02915000
_cell_angle_alpha   90.00000000
_cell_angle_beta   90.00000000
_cell_angle_gamma   149.74540517
_symmetry_Int_Tables_number   1
_chemical_formula_structural   Pr2HoEr(Zn5Sn)2
_chemical_formula_sum   'Pr2 Ho1 Er1 Zn10 Sn2'
_cell_volume   325.89214307
_cell_formula_units_Z   1
loop_
 _symmetry_equiv_pos_site_id
 _symmetry_equiv_pos_as_xyz
  1  'x, y, z'
loop_
 _atom_site_type_symbol
 _atom_site_label
 _atom_site_symmetry_multiplicity
 _atom_site_fract_x
 _atom_site_fract_y
 _atom_site_fract_z
 _atom_site_occupancy
  Pr  Pr0  1  0.999957  0.000043  0.500107  1
  Pr  Pr1  1  0.999957  0.000043  0.999893  1
  Ho  Ho2  1  0.204932  0.795068  0.250000  1
  Er  Er3  1  0.795055  0.204945  0.750000  1
  Zn  Zn4  1  0.812131  0.187869  0.390345  1
  Zn  Zn5  1  0.187958  0.812042  0.609917  1
  Zn  Zn6  1  0.812131  0.187869  0.109655  1
  Zn  Zn7  1  0.187958  0.812042  0.890083  1
  Zn  Zn8  1  0.658500  0.341500  0.482432  1
  Zn  Zn9  1  0.341514  0.658486  0.517780  1
  Zn  Zn10  1  0.658500  0.341500  0.017568  1
  Zn  Zn11  1  0.341514  0.658486  0.982220  1
  Zn  Zn12  1  0.393660  0.606340  0.250000  1
  Zn  Zn13  1  0.606426  0.393574  0.750000  1
  Sn  Sn14  1  0.557180  0.442820  0.250000  1
  Sn  Sn15  1  0.442629  0.557371  0.750000  1
