# generated using pymatgen
data_Ca2CeSm(NiB4)4
_symmetry_space_group_name_H-M   'P 1'
_cell_length_a   6.87309915
_cell_length_b   6.87309902
_cell_length_c   6.87309871
_cell_angle_alpha   112.80063219
_cell_angle_beta   112.80063207
_cell_angle_gamma   102.99985236
_symmetry_Int_Tables_number   1
_chemical_formula_structural   Ca2CeSm(NiB4)4
_chemical_formula_sum   'Ca2 Ce1 Sm1 Ni4 B16'
_cell_volume   247.58588777
_cell_formula_units_Z   1
loop_
 _symmetry_equiv_pos_site_id
 _symmetry_equiv_pos_as_xyz
  1  'x, y, z'
loop_
 _atom_site_type_symbol
 _atom_site_label
 _atom_site_symmetry_multiplicity
 _atom_site_fract_x
 _atom_site_fract_y
 _atom_site_fract_z
 _atom_site_occupancy
  Ca  Ca0  1  0.796868  0.796868  0.000000  1
  Ca  Ca1  1  0.203132  0.203132  0.000000  1
  Ce  Ce2  1  0.250000  0.750000  0.500000  1
  Sm  Sm3  1  0.750000  0.250000  0.500000  1
  Ni  Ni4  1  0.273272  0.500033  0.773238  1
  Ni  Ni5  1  0.726795  0.500033  0.226762  1
  Ni  Ni6  1  0.499967  0.726728  0.226762  1
  Ni  Ni7  1  0.499967  0.273205  0.773238  1
  B  B8  1  0.276266  0.111535  0.389778  1
  B  B9  1  0.721758  0.886488  0.610222  1
  B  B10  1  0.276266  0.886488  0.164730  1
  B  B11  1  0.721758  0.111535  0.835270  1
  B  B12  1  0.113512  0.723734  0.835270  1
  B  B13  1  0.888465  0.278242  0.164730  1
  B  B14  1  0.113512  0.278242  0.389778  1
  B  B15  1  0.888465  0.723734  0.610222  1
  B  B16  1  0.112247  0.112134  0.528039  1
  B  B17  1  0.584094  0.584207  0.471961  1
  B  B18  1  0.112247  0.584207  0.000113  1
  B  B19  1  0.584094  0.112134  0.999887  1
  B  B20  1  0.887866  0.887753  0.471961  1
  B  B21  1  0.415793  0.415906  0.528039  1
  B  B22  1  0.887866  0.415906  0.000113  1
  B  B23  1  0.415793  0.887753  0.999887  1
