# generated using pymatgen
data_Tm3Cd(Rh2O7)2
_symmetry_space_group_name_H-M   'P 1'
_cell_length_a   7.24394937
_cell_length_b   7.14424753
_cell_length_c   7.24395100
_cell_angle_alpha   59.53726764
_cell_angle_beta   59.99999714
_cell_angle_gamma   59.53726056
_symmetry_Int_Tables_number   1
_chemical_formula_structural   Tm3Cd(Rh2O7)2
_chemical_formula_sum   'Tm3 Cd1 Rh4 O14'
_cell_volume   263.22016406
_cell_formula_units_Z   1
loop_
 _symmetry_equiv_pos_site_id
 _symmetry_equiv_pos_as_xyz
  1  'x, y, z'
loop_
 _atom_site_type_symbol
 _atom_site_label
 _atom_site_symmetry_multiplicity
 _atom_site_fract_x
 _atom_site_fract_y
 _atom_site_fract_z
 _atom_site_occupancy
  Tm  Tm0  1  0.125000  0.125000  0.125000  1
  Tm  Tm1  1  0.625000  0.125000  0.125000  1
  Tm  Tm2  1  0.125000  0.125000  0.625000  1
  Cd  Cd3  1  0.125000  0.625000  0.125000  1
  Rh  Rh4  1  0.625000  0.625000  0.625000  1
  Rh  Rh5  1  0.625000  0.625000  0.125000  1
  Rh  Rh6  1  0.125000  0.625000  0.625000  1
  Rh  Rh7  1  0.625000  0.125000  0.625000  1
  O  O8  1  0.251885  0.244343  0.251885  1
  O  O9  1  0.294017  0.714525  0.294017  1
  O  O10  1  0.961623  0.965808  0.536285  1
  O  O11  1  0.536285  0.965808  0.536285  1
  O  O12  1  0.697440  0.714525  0.294017  1
  O  O13  1  0.955983  0.535475  0.552560  1
  O  O14  1  0.713715  0.284192  0.713715  1
  O  O15  1  0.288377  0.284192  0.713715  1
  O  O16  1  0.713715  0.284192  0.288377  1
  O  O17  1  0.294017  0.714525  0.697440  1
  O  O18  1  0.955983  0.535475  0.955983  1
  O  O19  1  0.552560  0.535475  0.955983  1
  O  O20  1  0.998115  0.005657  0.998115  1
  O  O21  1  0.536285  0.965808  0.961623  1
