# generated using pymatgen
data_CaErRh2O7
_symmetry_space_group_name_H-M   'P 1'
_cell_length_a   7.23418494
_cell_length_b   7.23418360
_cell_length_c   7.23418526
_cell_angle_alpha   120.18160497
_cell_angle_beta   119.93498126
_cell_angle_gamma   89.89918530
_symmetry_Int_Tables_number   1
_chemical_formula_structural   CaErRh2O7
_chemical_formula_sum   'Ca2 Er2 Rh4 O14'
_cell_volume   267.46547407
_cell_formula_units_Z   2
loop_
 _symmetry_equiv_pos_site_id
 _symmetry_equiv_pos_as_xyz
  1  'x, y, z'
loop_
 _atom_site_type_symbol
 _atom_site_label
 _atom_site_symmetry_multiplicity
 _atom_site_fract_x
 _atom_site_fract_y
 _atom_site_fract_z
 _atom_site_occupancy
  Ca  Ca0  1  0.500000  0.500000  0.500000  1
  Ca  Ca1  1  0.500000  0.000000  0.000000  1
  Er  Er2  1  0.500000  0.500000  0.000000  1
  Er  Er3  1  0.000000  0.500000  0.500000  1
  Rh  Rh4  1  0.000000  0.000000  0.500000  1
  Rh  Rh5  1  0.000000  0.500000  0.000000  1
  Rh  Rh6  1  0.000000  0.000000  0.000000  1
  Rh  Rh7  1  0.500000  0.000000  0.500000  1
  O  O8  1  0.366411  0.616411  0.750000  1
  O  O9  1  0.633589  0.383589  0.250000  1
  O  O10  1  0.325702  0.075702  0.250000  1
  O  O11  1  0.915983  0.665983  0.250000  1
  O  O12  1  0.329813  0.668254  0.242020  1
  O  O13  1  0.926234  0.087793  0.257980  1
  O  O14  1  0.329813  0.087793  0.661560  1
  O  O15  1  0.926234  0.668254  0.838440  1
  O  O16  1  0.674298  0.924298  0.750000  1
  O  O17  1  0.084017  0.334017  0.750000  1
  O  O18  1  0.670187  0.331746  0.757980  1
  O  O19  1  0.073766  0.912207  0.742020  1
  O  O20  1  0.670187  0.912207  0.338440  1
  O  O21  1  0.073766  0.331746  0.161560  1
