# generated using pymatgen
data_Tb3Th(TiAl3)2
_symmetry_space_group_name_H-M   'P 1'
_cell_length_a   9.62236829
_cell_length_b   9.62236904
_cell_length_c   9.62236916
_cell_angle_alpha   34.49404125
_cell_angle_beta   34.49403252
_cell_angle_gamma   34.49404269
_symmetry_Int_Tables_number   1
_chemical_formula_structural   Tb3Th(TiAl3)2
_chemical_formula_sum   'Tb3 Th1 Ti2 Al6'
_cell_volume   254.91241629
_cell_formula_units_Z   1
loop_
 _symmetry_equiv_pos_site_id
 _symmetry_equiv_pos_as_xyz
  1  'x, y, z'
loop_
 _atom_site_type_symbol
 _atom_site_label
 _atom_site_symmetry_multiplicity
 _atom_site_fract_x
 _atom_site_fract_y
 _atom_site_fract_z
 _atom_site_occupancy
  Tb  Tb0  1  0.186536  0.186536  0.186536  1
  Tb  Tb1  1  0.814550  0.814550  0.814550  1
  Tb  Tb2  1  0.312996  0.312996  0.312996  1
  Th  Th3  1  0.685875  0.685875  0.685875  1
  Ti  Ti4  1  0.999869  0.999869  0.999869  1
  Ti  Ti5  1  0.499835  0.499835  0.499835  1
  Al  Al6  1  0.751091  0.250231  0.250231  1
  Al  Al7  1  0.249286  0.749749  0.749749  1
  Al  Al8  1  0.250231  0.751091  0.250231  1
  Al  Al9  1  0.749749  0.249286  0.749749  1
  Al  Al10  1  0.250231  0.250231  0.751091  1
  Al  Al11  1  0.749749  0.749749  0.249286  1
