# generated using pymatgen
data_Sc12Ir2PtBr16
_symmetry_space_group_name_H-M   'P 1'
_cell_length_a   8.90322909
_cell_length_b   11.06655413
_cell_length_c   11.67540872
_cell_angle_alpha   117.22621774
_cell_angle_beta   101.70630091
_cell_angle_gamma   101.30206763
_symmetry_Int_Tables_number   1
_chemical_formula_structural   Sc12Ir2PtBr16
_chemical_formula_sum   'Sc12 Ir2 Pt1 Br16'
_cell_volume   944.92441652
_cell_formula_units_Z   1
loop_
 _symmetry_equiv_pos_site_id
 _symmetry_equiv_pos_as_xyz
  1  'x, y, z'
loop_
 _atom_site_type_symbol
 _atom_site_label
 _atom_site_symmetry_multiplicity
 _atom_site_fract_x
 _atom_site_fract_y
 _atom_site_fract_z
 _atom_site_occupancy
  Sc  Sc0  1  0.083888  0.252337  0.348112  1
  Sc  Sc1  1  0.916112  0.747663  0.651888  1
  Sc  Sc2  1  0.774004  0.538317  0.317179  1
  Sc  Sc3  1  0.225996  0.461683  0.682821  1
  Sc  Sc4  1  0.286792  0.748545  0.652143  1
  Sc  Sc5  1  0.713208  0.251455  0.347857  1
  Sc  Sc6  1  0.144570  0.538218  0.317741  1
  Sc  Sc7  1  0.855430  0.461782  0.682259  1
  Sc  Sc8  1  0.399977  0.349488  0.260192  1
  Sc  Sc9  1  0.600023  0.650512  0.739808  1
  Sc  Sc10  1  0.455413  0.295701  0.521707  1
  Sc  Sc11  1  0.544587  0.704299  0.478293  1
  Ir  Ir12  1  0.339920  0.500235  0.499409  1
  Ir  Ir13  1  0.660081  0.499765  0.500591  1
  Pt  Pt14  1  0.000000  0.500000  0.500000  1
  Br  Br15  1  0.396392  0.745909  0.891197  1
  Br  Br16  1  0.603608  0.254091  0.108803  1
  Br  Br17  1  0.192682  0.976377  0.788658  1
  Br  Br18  1  0.807318  0.023623  0.211342  1
  Br  Br19  1  0.334897  0.086052  0.245639  1
  Br  Br20  1  0.665103  0.913948  0.754361  1
  Br  Br21  1  0.555778  0.436971  0.804862  1
  Br  Br22  1  0.444222  0.563029  0.195138  1
  Br  Br23  1  0.308882  0.833717  0.462161  1
  Br  Br24  1  0.691118  0.166283  0.537839  1
  Br  Br25  1  0.163060  0.165403  0.533720  1
  Br  Br26  1  0.836940  0.834597  0.466280  1
  Br  Br27  1  0.926117  0.580387  0.155671  1
  Br  Br28  1  0.073883  0.419613  0.844329  1
  Br  Br29  1  0.929010  0.744442  0.891379  1
  Br  Br30  1  0.070990  0.255558  0.108621  1
