# generated using pymatgen
data_HfZrTiGa3
_symmetry_space_group_name_H-M   'P 1'
_cell_length_a   5.57225300
_cell_length_b   8.50764500
_cell_length_c   9.10472700
_cell_angle_alpha   90.00000000
_cell_angle_beta   90.00000000
_cell_angle_gamma   90.00000000
_symmetry_Int_Tables_number   1
_chemical_formula_structural   HfZrTiGa3
_chemical_formula_sum   'Hf4 Zr4 Ti4 Ga12'
_cell_volume   431.62552011
_cell_formula_units_Z   4
loop_
 _symmetry_equiv_pos_site_id
 _symmetry_equiv_pos_as_xyz
  1  'x, y, z'
loop_
 _atom_site_type_symbol
 _atom_site_label
 _atom_site_symmetry_multiplicity
 _atom_site_fract_x
 _atom_site_fract_y
 _atom_site_fract_z
 _atom_site_occupancy
  Hf  Hf0  1  0.750000  0.361163  0.187004  1
  Hf  Hf1  1  0.250000  0.638837  0.812996  1
  Hf  Hf2  1  0.750000  0.861163  0.812996  1
  Hf  Hf3  1  0.250000  0.138837  0.187004  1
  Zr  Zr4  1  0.750000  0.472290  0.617340  1
  Zr  Zr5  1  0.250000  0.527710  0.382660  1
  Zr  Zr6  1  0.750000  0.972290  0.382660  1
  Zr  Zr7  1  0.250000  0.027710  0.617340  1
  Ti  Ti8  1  0.000000  0.750000  0.108349  1
  Ti  Ti9  1  0.500000  0.250000  0.891651  1
  Ti  Ti10  1  0.000000  0.250000  0.891651  1
  Ti  Ti11  1  0.500000  0.750000  0.108349  1
  Ga  Ga12  1  0.000000  0.750000  0.566957  1
  Ga  Ga13  1  0.500000  0.250000  0.433043  1
  Ga  Ga14  1  0.000000  0.250000  0.433043  1
  Ga  Ga15  1  0.500000  0.750000  0.566957  1
  Ga  Ga16  1  0.750000  0.045440  0.080103  1
  Ga  Ga17  1  0.250000  0.954560  0.919897  1
  Ga  Ga18  1  0.750000  0.545440  0.919897  1
  Ga  Ga19  1  0.250000  0.454560  0.080103  1
  Ga  Ga20  1  0.750000  0.135105  0.661566  1
  Ga  Ga21  1  0.250000  0.864895  0.338434  1
  Ga  Ga22  1  0.750000  0.635105  0.338434  1
  Ga  Ga23  1  0.250000  0.364895  0.661566  1
