# generated using pymatgen
data_Gd6Y4Si5Pb
_symmetry_space_group_name_H-M   'P 1'
_cell_length_a   8.56629100
_cell_length_b   8.60163436
_cell_length_c   6.46003800
_cell_angle_alpha   90.00000000
_cell_angle_beta   90.00000000
_cell_angle_gamma   119.86416725
_symmetry_Int_Tables_number   1
_chemical_formula_structural   Gd6Y4Si5Pb
_chemical_formula_sum   'Gd6 Y4 Si5 Pb1'
_cell_volume   412.79299264
_cell_formula_units_Z   1
loop_
 _symmetry_equiv_pos_site_id
 _symmetry_equiv_pos_as_xyz
  1  'x, y, z'
loop_
 _atom_site_type_symbol
 _atom_site_label
 _atom_site_symmetry_multiplicity
 _atom_site_fract_x
 _atom_site_fract_y
 _atom_site_fract_z
 _atom_site_occupancy
  Gd  Gd0  1  0.997393  0.242302  0.250000  1
  Gd  Gd1  1  0.755091  0.757698  0.250000  1
  Gd  Gd2  1  0.330657  0.655502  0.495557  1
  Gd  Gd3  1  0.675158  0.344498  0.004443  1
  Gd  Gd4  1  0.675158  0.344498  0.495557  1
  Gd  Gd5  1  0.330657  0.655502  0.004443  1
  Y  Y6  1  0.988906  0.747730  0.750000  1
  Y  Y7  1  0.765779  0.000000  0.750000  1
  Y  Y8  1  0.241176  0.252270  0.750000  1
  Y  Y9  1  0.241688  0.000000  0.250000  1
  Si  Si10  1  0.392315  0.389556  0.250000  1
  Si  Si11  1  0.002758  0.610444  0.250000  1
  Si  Si12  1  0.998970  0.393299  0.750000  1
  Si  Si13  1  0.605671  0.606701  0.750000  1
  Si  Si14  1  0.604289  0.000000  0.250000  1
  Pb  Pb15  1  0.394334  0.000000  0.750000  1
