# generated using pymatgen
data_Ba3MoF10
_symmetry_space_group_name_H-M   'P 1'
_cell_length_a   8.78063477
_cell_length_b   8.78063495
_cell_length_c   6.12022000
_cell_angle_alpha   90.00000000
_cell_angle_beta   90.00000000
_cell_angle_gamma   101.02908937
_symmetry_Int_Tables_number   1
_chemical_formula_structural   Ba3MoF10
_chemical_formula_sum   'Ba6 Mo2 F20'
_cell_volume   463.15091619
_cell_formula_units_Z   2
loop_
 _symmetry_equiv_pos_site_id
 _symmetry_equiv_pos_as_xyz
  1  'x, y, z'
loop_
 _atom_site_type_symbol
 _atom_site_label
 _atom_site_symmetry_multiplicity
 _atom_site_fract_x
 _atom_site_fract_y
 _atom_site_fract_z
 _atom_site_occupancy
  Ba  Ba0  1  0.832861  0.601705  0.750000  1
  Ba  Ba1  1  0.167139  0.398295  0.250000  1
  Ba  Ba2  1  0.398295  0.167139  0.750000  1
  Ba  Ba3  1  0.601705  0.832861  0.250000  1
  Ba  Ba4  1  0.887991  0.112009  0.750000  1
  Ba  Ba5  1  0.112009  0.887991  0.250000  1
  Mo  Mo6  1  0.326153  0.673847  0.750000  1
  Mo  Mo7  1  0.673847  0.326153  0.250000  1
  F  F8  1  0.140156  0.140156  0.500000  1
  F  F9  1  0.859844  0.859844  0.500000  1
  F  F10  1  0.859844  0.859844  0.000000  1
  F  F11  1  0.140156  0.140156  0.000000  1
  F  F12  1  0.114514  0.652061  0.538230  1
  F  F13  1  0.885486  0.347939  0.461770  1
  F  F14  1  0.885486  0.347939  0.038230  1
  F  F15  1  0.347939  0.885486  0.961770  1
  F  F16  1  0.114514  0.652061  0.961770  1
  F  F17  1  0.652061  0.114514  0.038230  1
  F  F18  1  0.652061  0.114514  0.461770  1
  F  F19  1  0.347939  0.885486  0.538230  1
  F  F20  1  0.248188  0.436619  0.750000  1
  F  F21  1  0.751812  0.563381  0.250000  1
  F  F22  1  0.563381  0.751812  0.750000  1
  F  F23  1  0.436619  0.248188  0.250000  1
  F  F24  1  0.602951  0.397049  0.539910  1
  F  F25  1  0.397049  0.602951  0.460090  1
  F  F26  1  0.397049  0.602951  0.039910  1
  F  F27  1  0.602951  0.397049  0.960090  1
