# generated using pymatgen
data_Yb5SnIrPd
_symmetry_space_group_name_H-M   'P 1'
_cell_length_a   8.99116517
_cell_length_b   8.99107340
_cell_length_c   8.95048046
_cell_angle_alpha   128.78296321
_cell_angle_beta   128.78317292
_cell_angle_gamma   75.69483927
_symmetry_Int_Tables_number   1
_chemical_formula_structural   Yb5SnIrPd
_chemical_formula_sum   'Yb10 Sn2 Ir2 Pd2'
_cell_volume   426.92819155
_cell_formula_units_Z   2
loop_
 _symmetry_equiv_pos_site_id
 _symmetry_equiv_pos_as_xyz
  1  'x, y, z'
loop_
 _atom_site_type_symbol
 _atom_site_label
 _atom_site_symmetry_multiplicity
 _atom_site_fract_x
 _atom_site_fract_y
 _atom_site_fract_z
 _atom_site_occupancy
  Yb  Yb0  1  0.000001  0.999998  0.999999  1
  Yb  Yb1  1  0.499998  0.500001  0.999999  1
  Yb  Yb2  1  0.804845  0.304845  0.848125  1
  Yb  Yb3  1  0.195156  0.695154  0.151871  1
  Yb  Yb4  1  0.456718  0.956718  0.151874  1
  Yb  Yb5  1  0.294245  0.467668  0.500004  1
  Yb  Yb6  1  0.032336  0.205758  0.500002  1
  Yb  Yb7  1  0.543278  0.043279  0.848122  1
  Yb  Yb8  1  0.705757  0.532334  0.500001  1
  Yb  Yb9  1  0.967667  0.794245  0.500002  1
  Sn  Sn10  1  0.249998  0.250003  0.000002  1
  Sn  Sn11  1  0.750001  0.749996  0.999997  1
  Ir  Ir12  1  0.127163  0.627163  0.754326  1
  Ir  Ir13  1  0.872836  0.372837  0.245674  1
  Pd  Pd14  1  0.627621  0.872383  0.500001  1
  Pd  Pd15  1  0.372381  0.127618  0.499999  1
