# generated using pymatgen
data_Tb7Yb(ZrIr3)2
_symmetry_space_group_name_H-M   'P 1'
_cell_length_a   10.88547924
_cell_length_b   10.87121400
_cell_length_c   6.30471200
_cell_angle_alpha   90.00000000
_cell_angle_beta   90.25080027
_cell_angle_gamma   90.00000000
_symmetry_Int_Tables_number   1
_chemical_formula_structural   Tb7Yb(ZrIr3)2
_chemical_formula_sum   'Tb14 Yb2 Zr4 Ir12'
_cell_volume   746.08222117
_cell_formula_units_Z   2
loop_
 _symmetry_equiv_pos_site_id
 _symmetry_equiv_pos_as_xyz
  1  'x, y, z'
loop_
 _atom_site_type_symbol
 _atom_site_label
 _atom_site_symmetry_multiplicity
 _atom_site_fract_x
 _atom_site_fract_y
 _atom_site_fract_z
 _atom_site_occupancy
  Tb  Tb0  1  0.710061  0.084802  0.875471  1
  Tb  Tb1  1  0.710061  0.915198  0.375471  1
  Tb  Tb2  1  0.584014  0.791332  0.873717  1
  Tb  Tb3  1  0.584014  0.208668  0.373717  1
  Tb  Tb4  1  0.413487  0.792374  0.372751  1
  Tb  Tb5  1  0.413487  0.207626  0.872751  1
  Tb  Tb6  1  0.210479  0.414762  0.628137  1
  Tb  Tb7  1  0.210479  0.585238  0.128137  1
  Tb  Tb8  1  0.789924  0.413418  0.125976  1
  Tb  Tb9  1  0.789924  0.586582  0.625976  1
  Tb  Tb10  1  0.913892  0.710772  0.126512  1
  Tb  Tb11  1  0.913892  0.289228  0.626512  1
  Tb  Tb12  1  0.086953  0.710193  0.627201  1
  Tb  Tb13  1  0.086953  0.289807  0.127201  1
  Yb  Yb14  1  0.288355  0.086279  0.371839  1
  Yb  Yb15  1  0.288355  0.913721  0.871839  1
  Zr  Zr16  1  0.001267  0.999993  0.498203  1
  Zr  Zr17  1  0.001267  0.000007  0.998203  1
  Zr  Zr18  1  0.500011  0.499973  0.999048  1
  Zr  Zr19  1  0.500011  0.500027  0.499048  1
  Ir  Ir20  1  0.857695  0.143646  0.249463  1
  Ir  Ir21  1  0.857695  0.856354  0.749463  1
  Ir  Ir22  1  0.140171  0.148501  0.751737  1
  Ir  Ir23  1  0.140171  0.851499  0.251737  1
  Ir  Ir24  1  0.642870  0.355833  0.750174  1
  Ir  Ir25  1  0.642870  0.644167  0.250174  1
  Ir  Ir26  1  0.356768  0.358496  0.247101  1
  Ir  Ir27  1  0.356768  0.641504  0.747101  1
  Ir  Ir28  1  0.504028  0.000351  0.120979  1
  Ir  Ir29  1  0.504028  0.999649  0.620979  1
  Ir  Ir30  1  0.000027  0.500087  0.881691  1
  Ir  Ir31  1  0.000027  0.499913  0.381691  1
