# generated using pymatgen
data_Mo2IrRu4Rh
_symmetry_space_group_name_H-M   'P 1'
_cell_length_a   5.50671244
_cell_length_b   5.50671307
_cell_length_c   4.38837000
_cell_angle_alpha   90.00000000
_cell_angle_beta   90.00000000
_cell_angle_gamma   119.83395433
_symmetry_Int_Tables_number   1
_chemical_formula_structural   Mo2IrRu4Rh
_chemical_formula_sum   'Mo2 Ir1 Ru4 Rh1'
_cell_volume   115.43644447
_cell_formula_units_Z   1
loop_
 _symmetry_equiv_pos_site_id
 _symmetry_equiv_pos_as_xyz
  1  'x, y, z'
loop_
 _atom_site_type_symbol
 _atom_site_label
 _atom_site_symmetry_multiplicity
 _atom_site_fract_x
 _atom_site_fract_y
 _atom_site_fract_z
 _atom_site_occupancy
  Mo  Mo0  1  0.663639  0.336361  0.250000  1
  Mo  Mo1  1  0.336907  0.663093  0.750000  1
  Ir  Ir2  1  0.166057  0.833943  0.250000  1
  Ru  Ru3  1  0.331915  0.171616  0.750000  1
  Ru  Ru4  1  0.828384  0.668085  0.750000  1
  Ru  Ru5  1  0.669046  0.829823  0.250000  1
  Ru  Ru6  1  0.170177  0.330954  0.250000  1
  Rh  Rh7  1  0.833875  0.166125  0.750000  1
