# generated using pymatgen
data_Tb2Sm4IrI10
_symmetry_space_group_name_H-M   'P 1'
_cell_length_a   7.84197603
_cell_length_b   9.84487806
_cell_length_c   9.89096100
_cell_angle_alpha   107.52077991
_cell_angle_beta   96.54192524
_cell_angle_gamma   104.68287190
_symmetry_Int_Tables_number   1
_chemical_formula_structural   Tb2Sm4IrI10
_chemical_formula_sum   'Tb2 Sm4 Ir1 I10'
_cell_volume   689.26716156
_cell_formula_units_Z   1
loop_
 _symmetry_equiv_pos_site_id
 _symmetry_equiv_pos_as_xyz
  1  'x, y, z'
loop_
 _atom_site_type_symbol
 _atom_site_label
 _atom_site_symmetry_multiplicity
 _atom_site_fract_x
 _atom_site_fract_y
 _atom_site_fract_z
 _atom_site_occupancy
  Tb  Tb0  1  0.348589  0.124078  0.166101  1
  Tb  Tb1  1  0.651411  0.875922  0.833899  1
  Sm  Sm2  1  0.118007  0.042390  0.759544  1
  Sm  Sm3  1  0.881993  0.957610  0.240456  1
  Sm  Sm4  1  0.969801  0.286269  0.086831  1
  Sm  Sm5  1  0.030199  0.713731  0.913169  1
  Ir  Ir6  1  0.000000  0.000000  0.000000  1
  I  I7  1  0.546315  0.182690  0.910869  1
  I  I8  1  0.453685  0.817310  0.089131  1
  I  I9  1  0.355753  0.449335  0.272737  1
  I  I10  1  0.644247  0.550665  0.727263  1
  I  I11  1  0.258686  0.086773  0.457568  1
  I  I12  1  0.741314  0.913227  0.542432  1
  I  I13  1  0.775614  0.258083  0.347985  1
  I  I14  1  0.224386  0.741917  0.652015  1
  I  I15  1  0.089597  0.372709  0.821345  1
  I  I16  1  0.910403  0.627291  0.178655  1
