# generated using pymatgen
data_DyEr5(AlAu)6
_symmetry_space_group_name_H-M   'P 1'
_cell_length_a   7.37014334
_cell_length_b   7.37142269
_cell_length_c   7.96527900
_cell_angle_alpha   90.00000000
_cell_angle_beta   90.00000000
_cell_angle_gamma   120.05505234
_symmetry_Int_Tables_number   1
_chemical_formula_structural   DyEr5(AlAu)6
_chemical_formula_sum   'Dy1 Er5 Al6 Au6'
_cell_volume   374.55679820
_cell_formula_units_Z   1
loop_
 _symmetry_equiv_pos_site_id
 _symmetry_equiv_pos_as_xyz
  1  'x, y, z'
loop_
 _atom_site_type_symbol
 _atom_site_label
 _atom_site_symmetry_multiplicity
 _atom_site_fract_x
 _atom_site_fract_y
 _atom_site_fract_z
 _atom_site_occupancy
  Dy  Dy0  1  0.414562  0.412207  0.250000  1
  Er  Er1  1  0.586646  0.997656  0.750000  1
  Er  Er2  1  0.002397  0.588904  0.750000  1
  Er  Er3  1  0.411197  0.413331  0.750000  1
  Er  Er4  1  0.997918  0.586472  0.250000  1
  Er  Er5  1  0.588523  0.002445  0.250000  1
  Al  Al6  1  0.752919  0.752902  0.999262  1
  Al  Al7  1  0.247081  0.999773  0.999744  1
  Al  Al8  1  0.999781  0.247158  0.999654  1
  Al  Al9  1  0.752919  0.752902  0.500738  1
  Al  Al10  1  0.247081  0.999773  0.500256  1
  Al  Al11  1  0.999781  0.247158  0.500346  1
  Au  Au12  1  0.999464  0.998997  0.750000  1
  Au  Au13  1  0.998352  0.999093  0.250000  1
  Au  Au14  1  0.667629  0.333012  0.995387  1
  Au  Au15  1  0.667629  0.333012  0.504613  1
  Au  Au16  1  0.333060  0.667601  0.498188  1
  Au  Au17  1  0.333060  0.667601  0.001812  1
