# generated using pymatgen
data_Sr2BiSb(PO5)2
_symmetry_space_group_name_H-M   'P 1'
_cell_length_a   5.94410293
_cell_length_b   6.91646201
_cell_length_c   7.04465431
_cell_angle_alpha   106.33528254
_cell_angle_beta   109.21282285
_cell_angle_gamma   102.38126564
_symmetry_Int_Tables_number   1
_chemical_formula_structural   Sr2BiSb(PO5)2
_chemical_formula_sum   'Sr2 Bi1 Sb1 P2 O10'
_cell_volume   246.93253187
_cell_formula_units_Z   1
loop_
 _symmetry_equiv_pos_site_id
 _symmetry_equiv_pos_as_xyz
  1  'x, y, z'
loop_
 _atom_site_type_symbol
 _atom_site_label
 _atom_site_symmetry_multiplicity
 _atom_site_fract_x
 _atom_site_fract_y
 _atom_site_fract_z
 _atom_site_occupancy
  Sr  Sr0  1  0.185040  0.122288  0.838252  1
  Sr  Sr1  1  0.820700  0.888886  0.169534  1
  Bi  Bi2  1  0.379748  0.725147  0.446084  1
  Sb  Sb3  1  0.612051  0.253609  0.559508  1
  P  P4  1  0.188932  0.659714  0.872786  1
  P  P5  1  0.808006  0.338554  0.123817  1
  O  O6  1  0.270045  0.005280  0.472610  1
  O  O7  1  0.929704  0.580666  0.275427  1
  O  O8  1  0.638914  0.321906  0.890032  1
  O  O9  1  0.372765  0.783594  0.795611  1
  O  O10  1  0.366875  0.669143  0.098506  1
  O  O11  1  0.739110  0.007213  0.537009  1
  O  O12  1  0.997853  0.775055  0.890473  1
  O  O13  1  0.055640  0.420290  0.717042  1
  O  O14  1  0.013668  0.236991  0.120069  1
  O  O15  1  0.620951  0.211665  0.193239  1
