# generated using pymatgen
data_PrZn9Cu2
_symmetry_space_group_name_H-M   'P 1'
_cell_length_a   8.23921140
_cell_length_b   8.23921144
_cell_length_c   8.23921105
_cell_angle_alpha   99.65436492
_cell_angle_beta   99.65436238
_cell_angle_gamma   131.65099674
_symmetry_Int_Tables_number   1
_chemical_formula_structural   PrZn9Cu2
_chemical_formula_sum   'Pr2 Zn18 Cu4'
_cell_volume   381.27350538
_cell_formula_units_Z   2
loop_
 _symmetry_equiv_pos_site_id
 _symmetry_equiv_pos_as_xyz
  1  'x, y, z'
loop_
 _atom_site_type_symbol
 _atom_site_label
 _atom_site_symmetry_multiplicity
 _atom_site_fract_x
 _atom_site_fract_y
 _atom_site_fract_z
 _atom_site_occupancy
  Pr  Pr0  1  0.500000  0.500000  0.000000  1
  Pr  Pr1  1  0.750000  0.250000  0.500000  1
  Zn  Zn2  1  0.854380  0.436742  0.174601  1
  Zn  Zn3  1  0.320221  0.145620  0.582361  1
  Zn  Zn4  1  0.262141  0.436742  0.582361  1
  Zn  Zn5  1  0.320221  0.737859  0.174601  1
  Zn  Zn6  1  0.987859  0.313258  0.917639  1
  Zn  Zn7  1  0.262141  0.679779  0.825399  1
  Zn  Zn8  1  0.250000  0.750000  0.500000  1
  Zn  Zn9  1  0.987859  0.070221  0.674601  1
  Zn  Zn10  1  0.000000  0.000000  0.000000  1
  Zn  Zn11  1  0.686742  0.012141  0.082361  1
  Zn  Zn12  1  0.395620  0.313258  0.325399  1
  Zn  Zn13  1  0.929779  0.012141  0.325399  1
  Zn  Zn14  1  0.854380  0.679779  0.417639  1
  Zn  Zn15  1  0.563258  0.737859  0.417639  1
  Zn  Zn16  1  0.686742  0.604380  0.674601  1
  Zn  Zn17  1  0.395620  0.070221  0.082361  1
  Zn  Zn18  1  0.929779  0.604380  0.917639  1
  Zn  Zn19  1  0.563258  0.145620  0.825399  1
  Cu  Cu20  1  0.125000  0.875000  0.750000  1
  Cu  Cu21  1  0.625000  0.875000  0.750000  1
  Cu  Cu22  1  0.125000  0.875000  0.250000  1
  Cu  Cu23  1  0.125000  0.375000  0.250000  1
