# generated using pymatgen
data_Gd10Si4RuPb
_symmetry_space_group_name_H-M   'P 1'
_cell_length_a   7.58534839
_cell_length_b   7.58534826
_cell_length_c   9.06599300
_cell_angle_alpha   114.72987402
_cell_angle_beta   114.72988190
_cell_angle_gamma   90.00000620
_symmetry_Int_Tables_number   1
_chemical_formula_structural   Gd10Si4RuPb
_chemical_formula_sum   'Gd10 Si4 Ru1 Pb1'
_cell_volume   420.54946581
_cell_formula_units_Z   1
loop_
 _symmetry_equiv_pos_site_id
 _symmetry_equiv_pos_as_xyz
  1  'x, y, z'
loop_
 _atom_site_type_symbol
 _atom_site_label
 _atom_site_symmetry_multiplicity
 _atom_site_fract_x
 _atom_site_fract_y
 _atom_site_fract_z
 _atom_site_occupancy
  Gd  Gd0  1  0.477103  0.477103  0.954205  1
  Gd  Gd1  1  0.022897  0.022897  0.045795  1
  Gd  Gd2  1  0.943363  0.793307  0.281695  1
  Gd  Gd3  1  0.338333  0.488390  0.281695  1
  Gd  Gd4  1  0.793307  0.338333  0.281695  1
  Gd  Gd5  1  0.488390  0.943363  0.281695  1
  Gd  Gd6  1  0.011610  0.161667  0.718305  1
  Gd  Gd7  1  0.706693  0.556637  0.718305  1
  Gd  Gd8  1  0.161667  0.706693  0.718305  1
  Gd  Gd9  1  0.556637  0.011610  0.718305  1
  Si  Si10  1  0.619774  0.880226  0.000000  1
  Si  Si11  1  0.380226  0.119774  0.000000  1
  Si  Si12  1  0.880226  0.380226  0.000000  1
  Si  Si13  1  0.119774  0.619774  0.000000  1
  Ru  Ru14  1  0.750000  0.750000  0.500000  1
  Pb  Pb15  1  0.250000  0.250000  0.500000  1
