# generated using pymatgen
data_Zr2Co3Os
_symmetry_space_group_name_H-M   'P 1'
_cell_length_a   4.94998500
_cell_length_b   4.94998546
_cell_length_c   8.20451900
_cell_angle_alpha   90.00000000
_cell_angle_beta   90.00000000
_cell_angle_gamma   120.00000361
_symmetry_Int_Tables_number   1
_chemical_formula_structural   Zr2Co3Os
_chemical_formula_sum   'Zr4 Co6 Os2'
_cell_volume   174.09710404
_cell_formula_units_Z   2
loop_
 _symmetry_equiv_pos_site_id
 _symmetry_equiv_pos_as_xyz
  1  'x, y, z'
loop_
 _atom_site_type_symbol
 _atom_site_label
 _atom_site_symmetry_multiplicity
 _atom_site_fract_x
 _atom_site_fract_y
 _atom_site_fract_z
 _atom_site_occupancy
  Zr  Zr0  1  0.333333  0.666667  0.433230  1
  Zr  Zr1  1  0.666667  0.333333  0.566770  1
  Zr  Zr2  1  0.666667  0.333333  0.933230  1
  Zr  Zr3  1  0.333333  0.666667  0.066770  1
  Co  Co4  1  0.828772  0.171228  0.250000  1
  Co  Co5  1  0.828772  0.657545  0.250000  1
  Co  Co6  1  0.342455  0.171228  0.250000  1
  Co  Co7  1  0.171228  0.828772  0.750000  1
  Co  Co8  1  0.171228  0.342455  0.750000  1
  Co  Co9  1  0.657545  0.828772  0.750000  1
  Os  Os10  1  0.000000  0.000000  0.500000  1
  Os  Os11  1  0.000000  0.000000  0.000000  1
