# generated using pymatgen
data_Dy20Ni3Bi8Ru
_symmetry_space_group_name_H-M   'P 1'
_cell_length_a   8.05225192
_cell_length_b   8.95077300
_cell_length_c   12.42027297
_cell_angle_alpha   90.00000000
_cell_angle_beta   90.14118220
_cell_angle_gamma   90.00000000
_symmetry_Int_Tables_number   1
_chemical_formula_structural   Dy20Ni3Bi8Ru
_chemical_formula_sum   'Dy20 Ni3 Bi8 Ru1'
_cell_volume   895.17453482
_cell_formula_units_Z   1
loop_
 _symmetry_equiv_pos_site_id
 _symmetry_equiv_pos_as_xyz
  1  'x, y, z'
loop_
 _atom_site_type_symbol
 _atom_site_label
 _atom_site_symmetry_multiplicity
 _atom_site_fract_x
 _atom_site_fract_y
 _atom_site_fract_z
 _atom_site_occupancy
  Dy  Dy0  1  0.842201  0.750000  0.794455  1
  Dy  Dy1  1  0.155588  0.250000  0.202786  1
  Dy  Dy2  1  0.346171  0.250000  0.701344  1
  Dy  Dy3  1  0.653450  0.750000  0.296925  1
  Dy  Dy4  1  0.377465  0.750000  0.694356  1
  Dy  Dy5  1  0.621691  0.250000  0.306648  1
  Dy  Dy6  1  0.878031  0.250000  0.808532  1
  Dy  Dy7  1  0.121375  0.750000  0.190649  1
  Dy  Dy8  1  0.951539  0.750000  0.502186  1
  Dy  Dy9  1  0.047428  0.250000  0.497804  1
  Dy  Dy10  1  0.454448  0.250000  0.999322  1
  Dy  Dy11  1  0.546136  0.750000  0.001041  1
  Dy  Dy12  1  0.677760  0.039350  0.565086  1
  Dy  Dy13  1  0.323470  0.958934  0.436287  1
  Dy  Dy14  1  0.177782  0.961190  0.935772  1
  Dy  Dy15  1  0.323470  0.541066  0.436287  1
  Dy  Dy16  1  0.821996  0.040140  0.063815  1
  Dy  Dy17  1  0.677760  0.460650  0.565086  1
  Dy  Dy18  1  0.821996  0.459860  0.063815  1
  Dy  Dy19  1  0.177782  0.538810  0.935772  1
  Ni  Ni20  1  0.431127  0.250000  0.489369  1
  Ni  Ni21  1  0.066097  0.250000  0.991264  1
  Ni  Ni22  1  0.932670  0.750000  0.007463  1
  Bi  Bi23  1  0.570954  0.490629  0.827657  1
  Bi  Bi24  1  0.428138  0.508313  0.173226  1
  Bi  Bi25  1  0.070961  0.507302  0.674488  1
  Bi  Bi26  1  0.428138  0.991687  0.173226  1
  Bi  Bi27  1  0.930314  0.491928  0.325606  1
  Bi  Bi28  1  0.570954  0.009371  0.827657  1
  Bi  Bi29  1  0.930314  0.008072  0.325606  1
  Bi  Bi30  1  0.070961  0.992698  0.674488  1
  Ru  Ru31  1  0.571835  0.750000  0.511984  1
