# generated using pymatgen
data_Pr3Si2IrOs
_symmetry_space_group_name_H-M   'P 1'
_cell_length_a   5.81453356
_cell_length_b   5.81453347
_cell_length_c   13.39597900
_cell_angle_alpha   90.00000000
_cell_angle_beta   90.00000000
_cell_angle_gamma   137.14724861
_symmetry_Int_Tables_number   1
_chemical_formula_structural   Pr3Si2IrOs
_chemical_formula_sum   'Pr6 Si4 Ir2 Os2'
_cell_volume   308.02612905
_cell_formula_units_Z   2
loop_
 _symmetry_equiv_pos_site_id
 _symmetry_equiv_pos_as_xyz
  1  'x, y, z'
loop_
 _atom_site_type_symbol
 _atom_site_label
 _atom_site_symmetry_multiplicity
 _atom_site_fract_x
 _atom_site_fract_y
 _atom_site_fract_z
 _atom_site_occupancy
  Pr  Pr0  1  0.767041  0.232959  0.602805  1
  Pr  Pr1  1  0.523486  0.476514  0.250000  1
  Pr  Pr2  1  0.232959  0.767041  0.397195  1
  Pr  Pr3  1  0.767041  0.232959  0.897195  1
  Pr  Pr4  1  0.476514  0.523486  0.750000  1
  Pr  Pr5  1  0.232959  0.767041  0.102805  1
  Si  Si6  1  0.056037  0.943963  0.586524  1
  Si  Si7  1  0.056037  0.943963  0.913476  1
  Si  Si8  1  0.943963  0.056037  0.413476  1
  Si  Si9  1  0.943963  0.056037  0.086524  1
  Ir  Ir10  1  0.823161  0.176839  0.250000  1
  Ir  Ir11  1  0.176839  0.823161  0.750000  1
  Os  Os12  1  0.500000  0.500000  0.000000  1
  Os  Os13  1  0.500000  0.500000  0.500000  1
