# generated using pymatgen
data_Er3ScFe12(P3Rh2)4
_symmetry_space_group_name_H-M   'P 1'
_cell_length_a   3.74732600
_cell_length_b   10.29029529
_cell_length_c   12.16036841
_cell_angle_alpha   90.02855693
_cell_angle_beta   90.00000000
_cell_angle_gamma   90.00000000
_symmetry_Int_Tables_number   1
_chemical_formula_structural   Er3ScFe12(P3Rh2)4
_chemical_formula_sum   'Er3 Sc1 Fe12 P12 Rh8'
_cell_volume   468.91701583
_cell_formula_units_Z   1
loop_
 _symmetry_equiv_pos_site_id
 _symmetry_equiv_pos_as_xyz
  1  'x, y, z'
loop_
 _atom_site_type_symbol
 _atom_site_label
 _atom_site_symmetry_multiplicity
 _atom_site_fract_x
 _atom_site_fract_y
 _atom_site_fract_z
 _atom_site_occupancy
  Er  Er0  1  0.250000  0.919586  0.212164  1
  Er  Er1  1  0.750000  0.419787  0.287718  1
  Er  Er2  1  0.750000  0.080673  0.787840  1
  Sc  Sc3  1  0.250000  0.579322  0.712061  1
  Fe  Fe4  1  0.250000  0.224733  0.170432  1
  Fe  Fe5  1  0.250000  0.276503  0.670784  1
  Fe  Fe6  1  0.750000  0.774367  0.829747  1
  Fe  Fe7  1  0.750000  0.723231  0.329314  1
  Fe  Fe8  1  0.250000  0.874377  0.697637  1
  Fe  Fe9  1  0.250000  0.622708  0.196922  1
  Fe  Fe10  1  0.750000  0.122763  0.303241  1
  Fe  Fe11  1  0.750000  0.378894  0.801001  1
  Fe  Fe12  1  0.250000  0.460896  0.932549  1
  Fe  Fe13  1  0.250000  0.040291  0.436079  1
  Fe  Fe14  1  0.750000  0.541716  0.063329  1
  Fe  Fe15  1  0.750000  0.957649  0.565769  1
  P  P16  1  0.250000  0.430279  0.111605  1
  P  P17  1  0.250000  0.069590  0.613616  1
  P  P18  1  0.750000  0.570590  0.883500  1
  P  P19  1  0.750000  0.928880  0.387806  1
  P  P20  1  0.250000  0.273457  0.852086  1
  P  P21  1  0.250000  0.227435  0.352898  1
  P  P22  1  0.750000  0.727268  0.147273  1
  P  P23  1  0.750000  0.768929  0.649228  1
  P  P24  1  0.250000  0.604867  0.377477  1
  P  P25  1  0.250000  0.894598  0.877641  1
  P  P26  1  0.750000  0.396991  0.622981  1
  P  P27  1  0.750000  0.106074  0.122623  1
  Rh  Rh28  1  0.250000  0.708421  0.986252  1
  Rh  Rh29  1  0.250000  0.791104  0.485640  1
  Rh  Rh30  1  0.750000  0.293621  0.013526  1
  Rh  Rh31  1  0.750000  0.208388  0.515277  1
  Rh  Rh32  1  0.250000  0.405534  0.478436  1
  Rh  Rh33  1  0.250000  0.095558  0.977683  1
  Rh  Rh34  1  0.750000  0.595220  0.525740  1
  Rh  Rh35  1  0.750000  0.905702  0.022123  1
