# generated using pymatgen
data_LaGd8YSn6
_symmetry_space_group_name_H-M   'P 1'
_cell_length_a   9.30648886
_cell_length_b   9.30648801
_cell_length_c   9.30648900
_cell_angle_alpha   96.19570404
_cell_angle_beta   96.19571586
_cell_angle_gamma   141.64214780
_symmetry_Int_Tables_number   1
_chemical_formula_structural   LaGd8YSn6
_chemical_formula_sum   'La1 Gd8 Y1 Sn6'
_cell_volume   472.44342751
_cell_formula_units_Z   1
loop_
 _symmetry_equiv_pos_site_id
 _symmetry_equiv_pos_as_xyz
  1  'x, y, z'
loop_
 _atom_site_type_symbol
 _atom_site_label
 _atom_site_symmetry_multiplicity
 _atom_site_fract_x
 _atom_site_fract_y
 _atom_site_fract_z
 _atom_site_occupancy
  La  La0  1  0.750000  0.250000  0.500000  1
  Gd  Gd1  1  0.918413  0.217889  0.135357  1
  Gd  Gd2  1  0.216944  0.081587  0.299475  1
  Gd  Gd3  1  0.782111  0.917468  0.700525  1
  Gd  Gd4  1  0.082532  0.783056  0.864643  1
  Gd  Gd5  1  0.717889  0.418413  0.135357  1
  Gd  Gd6  1  0.283056  0.582532  0.864643  1
  Gd  Gd7  1  0.581587  0.716944  0.299475  1
  Gd  Gd8  1  0.417468  0.282111  0.700525  1
  Y  Y9  1  0.250000  0.750000  0.500000  1
  Sn  Sn10  1  0.750000  0.750000  0.000000  1
  Sn  Sn11  1  0.250000  0.250000  0.000000  1
  Sn  Sn12  1  0.846847  0.671466  0.500000  1
  Sn  Sn13  1  0.653153  0.153153  0.824619  1
  Sn  Sn14  1  0.328534  0.828534  0.175381  1
  Sn  Sn15  1  0.171466  0.346847  0.500000  1
