# generated using pymatgen
data_Nd8Hf11Si16Tc
_symmetry_space_group_name_H-M   'P 1'
_cell_length_a   7.35909132
_cell_length_b   7.35909202
_cell_length_c   13.49310648
_cell_angle_alpha   89.86880262
_cell_angle_beta   90.13119336
_cell_angle_gamma   89.94884467
_symmetry_Int_Tables_number   1
_chemical_formula_structural   Nd8Hf11Si16Tc
_chemical_formula_sum   'Nd8 Hf11 Si16 Tc1'
_cell_volume   730.73165467
_cell_formula_units_Z   1
loop_
 _symmetry_equiv_pos_site_id
 _symmetry_equiv_pos_as_xyz
  1  'x, y, z'
loop_
 _atom_site_type_symbol
 _atom_site_label
 _atom_site_symmetry_multiplicity
 _atom_site_fract_x
 _atom_site_fract_y
 _atom_site_fract_z
 _atom_site_occupancy
  Nd  Nd0  1  0.997865  0.342407  0.211664  1
  Nd  Nd1  1  0.006060  0.656090  0.717057  1
  Nd  Nd2  1  0.157528  0.492872  0.465395  1
  Nd  Nd3  1  0.502215  0.845105  0.033418  1
  Nd  Nd4  1  0.845105  0.502215  0.966582  1
  Nd  Nd5  1  0.492872  0.157528  0.534605  1
  Nd  Nd6  1  0.342407  0.997865  0.788336  1
  Nd  Nd7  1  0.656090  0.006060  0.282943  1
  Hf  Hf8  1  0.825581  0.825581  0.500000  1
  Hf  Hf9  1  0.323686  0.674871  0.248774  1
  Hf  Hf10  1  0.674871  0.323686  0.751226  1
  Hf  Hf11  1  0.150388  0.996234  0.372301  1
  Hf  Hf12  1  0.851951  0.005094  0.877253  1
  Hf  Hf13  1  0.504961  0.650394  0.624400  1
  Hf  Hf14  1  0.348016  0.491038  0.879320  1
  Hf  Hf15  1  0.491038  0.348016  0.120680  1
  Hf  Hf16  1  0.650394  0.504961  0.375600  1
  Hf  Hf17  1  0.996234  0.150388  0.627699  1
  Hf  Hf18  1  0.005094  0.851951  0.122747  1
  Si  Si19  1  0.364992  0.297963  0.312529  1
  Si  Si20  1  0.633733  0.702933  0.816031  1
  Si  Si21  1  0.203527  0.865045  0.564819  1
  Si  Si22  1  0.133068  0.796293  0.934650  1
  Si  Si23  1  0.796293  0.133068  0.065350  1
  Si  Si24  1  0.865045  0.203527  0.435181  1
  Si  Si25  1  0.297963  0.364992  0.687471  1
  Si  Si26  1  0.702933  0.633733  0.183969  1
  Si  Si27  1  0.289727  0.053285  0.181281  1
  Si  Si28  1  0.708006  0.950779  0.685993  1
  Si  Si29  1  0.449391  0.792139  0.434617  1
  Si  Si30  1  0.208654  0.551500  0.065073  1
  Si  Si31  1  0.551500  0.208654  0.934927  1
  Si  Si32  1  0.792139  0.449391  0.565383  1
  Si  Si33  1  0.053285  0.289727  0.818719  1
  Si  Si34  1  0.950779  0.708006  0.314007  1
  Tc  Tc35  1  0.176611  0.176611  0.000000  1
