# generated using pymatgen
data_Pr4Sm4Sc12Si15Pt
_symmetry_space_group_name_H-M   'P 1'
_cell_length_a   7.20559450
_cell_length_b   7.55577838
_cell_length_c   14.15151488
_cell_angle_alpha   89.99519845
_cell_angle_beta   90.05879939
_cell_angle_gamma   90.24655996
_symmetry_Int_Tables_number   1
_chemical_formula_structural   Pr4Sm4Sc12Si15Pt
_chemical_formula_sum   'Pr4 Sm4 Sc12 Si15 Pt1'
_cell_volume   770.45576721
_cell_formula_units_Z   1
loop_
 _symmetry_equiv_pos_site_id
 _symmetry_equiv_pos_as_xyz
  1  'x, y, z'
loop_
 _atom_site_type_symbol
 _atom_site_label
 _atom_site_symmetry_multiplicity
 _atom_site_fract_x
 _atom_site_fract_y
 _atom_site_fract_z
 _atom_site_occupancy
  Pr  Pr0  1  0.011832  0.175656  0.097562  1
  Pr  Pr1  1  0.990948  0.824637  0.904852  1
  Pr  Pr2  1  0.488653  0.673741  0.904811  1
  Pr  Pr3  1  0.990753  0.824236  0.594240  1
  Sm  Sm4  1  0.511356  0.324588  0.098226  1
  Sm  Sm5  1  0.012733  0.177423  0.401748  1
  Sm  Sm6  1  0.511573  0.324321  0.402765  1
  Sm  Sm7  1  0.487697  0.675802  0.595873  1
  Sc  Sc8  1  0.157432  0.497807  0.749627  1
  Sc  Sc9  1  0.839219  0.499738  0.250259  1
  Sc  Sc10  1  0.339752  0.001881  0.250414  1
  Sc  Sc11  1  0.665109  0.003235  0.749685  1
  Sc  Sc12  1  0.323569  0.173430  0.625128  1
  Sc  Sc13  1  0.671252  0.826374  0.373299  1
  Sc  Sc14  1  0.172454  0.675515  0.373539  1
  Sc  Sc15  1  0.671906  0.826747  0.127525  1
  Sc  Sc16  1  0.829227  0.323300  0.624922  1
  Sc  Sc17  1  0.324251  0.173165  0.874100  1
  Sc  Sc18  1  0.828459  0.323983  0.874282  1
  Sc  Sc19  1  0.171921  0.675278  0.127195  1
  Si  Si20  1  0.969373  0.877695  0.250976  1
  Si  Si21  1  0.469072  0.618993  0.250351  1
  Si  Si22  1  0.530894  0.381376  0.749011  1
  Si  Si23  1  0.289982  0.877390  0.748934  1
  Si  Si24  1  0.710063  0.124148  0.251300  1
  Si  Si25  1  0.213185  0.378346  0.251079  1
  Si  Si26  1  0.781359  0.618548  0.748646  1
  Si  Si27  1  0.156229  0.463140  0.537280  1
  Si  Si28  1  0.846099  0.534297  0.459355  1
  Si  Si29  1  0.349121  0.964793  0.459545  1
  Si  Si30  1  0.845732  0.536421  0.040453  1
  Si  Si31  1  0.652244  0.036447  0.538218  1
  Si  Si32  1  0.154002  0.463798  0.962396  1
  Si  Si33  1  0.652459  0.038680  0.962059  1
  Si  Si34  1  0.351073  0.965286  0.040653  1
  Pt  Pt35  1  0.029019  0.119784  0.749689  1
