# generated using pymatgen
data_Nd3Sc(SeO3)6
_symmetry_space_group_name_H-M   'P 1'
_cell_length_a   7.28108088
_cell_length_b   8.27125506
_cell_length_c   9.15687820
_cell_angle_alpha   70.78202735
_cell_angle_beta   70.14687339
_cell_angle_gamma   65.85839288
_symmetry_Int_Tables_number   1
_chemical_formula_structural   Nd3Sc(SeO3)6
_chemical_formula_sum   'Nd3 Sc1 Se6 O18'
_cell_volume   461.54394859
_cell_formula_units_Z   1
loop_
 _symmetry_equiv_pos_site_id
 _symmetry_equiv_pos_as_xyz
  1  'x, y, z'
loop_
 _atom_site_type_symbol
 _atom_site_label
 _atom_site_symmetry_multiplicity
 _atom_site_fract_x
 _atom_site_fract_y
 _atom_site_fract_z
 _atom_site_occupancy
  Nd  Nd0  1  0.328083  0.738843  0.590109  1
  Nd  Nd1  1  0.661484  0.275474  0.405830  1
  Nd  Nd2  1  0.742148  0.730153  0.803434  1
  Sc  Sc3  1  0.247829  0.260261  0.197763  1
  Se  Se4  1  0.420487  0.793681  0.193087  1
  Se  Se5  1  0.568810  0.228072  0.809703  1
  Se  Se6  1  0.153585  0.730128  0.979271  1
  Se  Se7  1  0.859579  0.237225  0.036887  1
  Se  Se8  1  0.889347  0.757034  0.413472  1
  Se  Se9  1  0.114822  0.250579  0.569021  1
  O  O10  1  0.646331  0.800260  0.058173  1
  O  O11  1  0.354862  0.212802  0.962008  1
  O  O12  1  0.350612  0.963447  0.295178  1
  O  O13  1  0.625723  0.063817  0.705882  1
  O  O14  1  0.501104  0.611110  0.347020  1
  O  O15  1  0.477904  0.408582  0.657775  1
  O  O16  1  0.184837  0.536086  0.125218  1
  O  O17  1  0.844569  0.416150  0.877161  1
  O  O18  1  0.402171  0.707896  0.859623  1
  O  O19  1  0.605059  0.286524  0.148383  1
  O  O20  1  0.340858  0.246249  0.417744  1
  O  O21  1  0.659812  0.750710  0.557030  1
  O  O22  1  0.974755  0.292899  0.431147  1
  O  O23  1  0.030664  0.706123  0.553703  1
  O  O24  1  0.147589  0.029171  0.658395  1
  O  O25  1  0.849459  0.980571  0.341420  1
  O  O26  1  0.950224  0.295213  0.161981  1
  O  O27  1  0.067293  0.690940  0.843582  1
