# generated using pymatgen
data_HfAl2(Ga2Cu3)2
_symmetry_space_group_name_H-M   'P 1'
_cell_length_a   5.21320686
_cell_length_b   6.49609289
_cell_length_c   6.49609361
_cell_angle_alpha   99.90645181
_cell_angle_beta   113.65679291
_cell_angle_gamma   66.34320892
_symmetry_Int_Tables_number   1
_chemical_formula_structural   HfAl2(Ga2Cu3)2
_chemical_formula_sum   'Hf1 Al2 Ga4 Cu6'
_cell_volume   184.55681709
_cell_formula_units_Z   1
loop_
 _symmetry_equiv_pos_site_id
 _symmetry_equiv_pos_as_xyz
  1  'x, y, z'
loop_
 _atom_site_type_symbol
 _atom_site_label
 _atom_site_symmetry_multiplicity
 _atom_site_fract_x
 _atom_site_fract_y
 _atom_site_fract_z
 _atom_site_occupancy
  Hf  Hf0  1  0.000000  0.000000  0.000000  1
  Al  Al1  1  0.681764  0.818236  0.181764  1
  Al  Al2  1  0.318236  0.181764  0.818236  1
  Ga  Ga3  1  0.659079  0.340921  0.659079  1
  Ga  Ga4  1  0.340921  0.659079  0.340921  1
  Ga  Ga5  1  0.000000  0.345855  0.345855  1
  Ga  Ga6  1  0.000000  0.654145  0.654145  1
  Cu  Cu7  1  0.500000  0.000000  0.500000  1
  Cu  Cu8  1  0.000000  0.000000  0.500000  1
  Cu  Cu9  1  0.500000  0.500000  0.000000  1
  Cu  Cu10  1  0.000000  0.500000  0.000000  1
  Cu  Cu11  1  0.500000  0.765051  0.765051  1
  Cu  Cu12  1  0.500000  0.234949  0.234949  1
