# generated using pymatgen
data_MnRuBr18
_symmetry_space_group_name_H-M   'P 1'
_cell_length_a   9.05319193
_cell_length_b   9.05319037
_cell_length_c   9.05318999
_cell_angle_alpha   90.27470237
_cell_angle_beta   90.27470188
_cell_angle_gamma   90.27469997
_symmetry_Int_Tables_number   1
_chemical_formula_structural   MnRuBr18
_chemical_formula_sum   'Mn1 Ru1 Br18'
_cell_volume   741.97622937
_cell_formula_units_Z   1
loop_
 _symmetry_equiv_pos_site_id
 _symmetry_equiv_pos_as_xyz
  1  'x, y, z'
loop_
 _atom_site_type_symbol
 _atom_site_label
 _atom_site_symmetry_multiplicity
 _atom_site_fract_x
 _atom_site_fract_y
 _atom_site_fract_z
 _atom_site_occupancy
  Mn  Mn0  1  0.000000  0.000000  0.000000  1
  Ru  Ru1  1  0.500000  0.500000  0.500000  1
  Br  Br2  1  0.275797  0.990624  0.021143  1
  Br  Br3  1  0.021143  0.275797  0.990624  1
  Br  Br4  1  0.990624  0.021143  0.275797  1
  Br  Br5  1  0.724203  0.009376  0.978857  1
  Br  Br6  1  0.978857  0.724203  0.009376  1
  Br  Br7  1  0.009376  0.978857  0.724203  1
  Br  Br8  1  0.625017  0.245145  0.119312  1
  Br  Br9  1  0.119312  0.625017  0.245145  1
  Br  Br10  1  0.245145  0.119312  0.625017  1
  Br  Br11  1  0.374983  0.754855  0.880688  1
  Br  Br12  1  0.880688  0.374983  0.754855  1
  Br  Br13  1  0.754855  0.880688  0.374983  1
  Br  Br14  1  0.482478  0.224986  0.519078  1
  Br  Br15  1  0.519078  0.482478  0.224986  1
  Br  Br16  1  0.224986  0.519078  0.482478  1
  Br  Br17  1  0.517522  0.775014  0.480922  1
  Br  Br18  1  0.480922  0.517522  0.775014  1
  Br  Br19  1  0.775014  0.480922  0.517522  1
