# generated using pymatgen
data_Sm8Tm12Ga5Si11
_symmetry_space_group_name_H-M   'P 1'
_cell_length_a   7.51392952
_cell_length_b   7.81577469
_cell_length_c   14.90372000
_cell_angle_alpha   89.98846134
_cell_angle_beta   90.10458071
_cell_angle_gamma   90.07407657
_symmetry_Int_Tables_number   1
_chemical_formula_structural   Sm8Tm12Ga5Si11
_chemical_formula_sum   'Sm8 Tm12 Ga5 Si11'
_cell_volume   875.25124200
_cell_formula_units_Z   1
loop_
 _symmetry_equiv_pos_site_id
 _symmetry_equiv_pos_as_xyz
  1  'x, y, z'
loop_
 _atom_site_type_symbol
 _atom_site_label
 _atom_site_symmetry_multiplicity
 _atom_site_fract_x
 _atom_site_fract_y
 _atom_site_fract_z
 _atom_site_occupancy
  Sm  Sm0  1  0.017638  0.177363  0.399823  1
  Sm  Sm1  1  0.517435  0.322865  0.399967  1
  Sm  Sm2  1  0.484735  0.678413  0.899142  1
  Sm  Sm3  1  0.482449  0.680664  0.599602  1
  Sm  Sm4  1  0.982587  0.819532  0.599434  1
  Sm  Sm5  1  0.982735  0.825616  0.899484  1
  Sm  Sm6  1  0.516191  0.321296  0.101552  1
  Sm  Sm7  1  0.015881  0.178514  0.101887  1
  Tm  Tm8  1  0.326093  0.173084  0.624128  1
  Tm  Tm9  1  0.674815  0.822555  0.375558  1
  Tm  Tm10  1  0.661947  0.993061  0.751154  1
  Tm  Tm11  1  0.173993  0.677350  0.375465  1
  Tm  Tm12  1  0.824662  0.323931  0.875587  1
  Tm  Tm13  1  0.825881  0.326277  0.623978  1
  Tm  Tm14  1  0.838532  0.493615  0.250490  1
  Tm  Tm15  1  0.339411  0.005386  0.251533  1
  Tm  Tm16  1  0.328070  0.175703  0.873997  1
  Tm  Tm17  1  0.173209  0.672957  0.126060  1
  Tm  Tm18  1  0.672421  0.826418  0.125203  1
  Tm  Tm19  1  0.160993  0.506027  0.750766  1
  Ga  Ga20  1  0.156105  0.463960  0.538245  1
  Ga  Ga21  1  0.842569  0.535849  0.039227  1
  Ga  Ga22  1  0.342473  0.963832  0.038340  1
  Ga  Ga23  1  0.156569  0.464753  0.960176  1
  Ga  Ga24  1  0.656186  0.036043  0.538224  1
  Si  Si25  1  0.279700  0.875364  0.749571  1
  Si  Si26  1  0.468759  0.612520  0.251411  1
  Si  Si27  1  0.030918  0.112675  0.749203  1
  Si  Si28  1  0.531575  0.389039  0.749184  1
  Si  Si29  1  0.969083  0.888144  0.250633  1
  Si  Si30  1  0.718655  0.125360  0.251041  1
  Si  Si31  1  0.348394  0.967184  0.459541  1
  Si  Si32  1  0.848197  0.532789  0.459578  1
  Si  Si33  1  0.780575  0.625025  0.749205  1
  Si  Si34  1  0.218949  0.373810  0.251386  1
  Si  Si35  1  0.651614  0.033027  0.960225  1
