# generated using pymatgen
data_Dy4AlFeRu6
_symmetry_space_group_name_H-M   'P 1'
_cell_length_a   5.46818193
_cell_length_b   5.17996986
_cell_length_c   8.85427000
_cell_angle_alpha   90.00000000
_cell_angle_beta   90.00000000
_cell_angle_gamma   121.82901119
_symmetry_Int_Tables_number   1
_chemical_formula_structural   Dy4AlFeRu6
_chemical_formula_sum   'Dy4 Al1 Fe1 Ru6'
_cell_volume   213.08389318
_cell_formula_units_Z   1
loop_
 _symmetry_equiv_pos_site_id
 _symmetry_equiv_pos_as_xyz
  1  'x, y, z'
loop_
 _atom_site_type_symbol
 _atom_site_label
 _atom_site_symmetry_multiplicity
 _atom_site_fract_x
 _atom_site_fract_y
 _atom_site_fract_z
 _atom_site_occupancy
  Dy  Dy0  1  0.670387  0.340397  0.567894  1
  Dy  Dy1  1  0.331076  0.662155  0.437143  1
  Dy  Dy2  1  0.331076  0.662155  0.062857  1
  Dy  Dy3  1  0.670387  0.340397  0.932106  1
  Al  Al4  1  0.835743  0.671832  0.250000  1
  Fe  Fe5  1  0.156495  0.312009  0.750000  1
  Ru  Ru6  1  0.006903  0.013930  0.502151  1
  Ru  Ru7  1  0.006903  0.013930  0.997849  1
  Ru  Ru8  1  0.176392  0.823811  0.750000  1
  Ru  Ru9  1  0.646709  0.823896  0.750000  1
  Ru  Ru10  1  0.822240  0.168288  0.250000  1
  Ru  Ru11  1  0.345688  0.167199  0.250000  1
