# generated using pymatgen
data_Nb12V3Co8ReN4
_symmetry_space_group_name_H-M   'P 1'
_cell_length_a   8.10637045
_cell_length_b   8.05931731
_cell_length_c   8.05931700
_cell_angle_alpha   59.99999718
_cell_angle_beta   60.19182229
_cell_angle_gamma   60.19182260
_symmetry_Int_Tables_number   1
_chemical_formula_structural   Nb12V3Co8ReN4
_chemical_formula_sum   'Nb12 V3 Co8 Re1 N4'
_cell_volume   373.38860323
_cell_formula_units_Z   1
loop_
 _symmetry_equiv_pos_site_id
 _symmetry_equiv_pos_as_xyz
  1  'x, y, z'
loop_
 _atom_site_type_symbol
 _atom_site_label
 _atom_site_symmetry_multiplicity
 _atom_site_fract_x
 _atom_site_fract_y
 _atom_site_fract_z
 _atom_site_occupancy
  Nb  Nb0  1  0.808702  0.807268  0.192015  1
  Nb  Nb1  1  0.194743  0.195753  0.804752  1
  Nb  Nb2  1  0.808702  0.192015  0.807268  1
  Nb  Nb3  1  0.194743  0.804752  0.195753  1
  Nb  Nb4  1  0.194743  0.804752  0.804752  1
  Nb  Nb5  1  0.808702  0.192015  0.192015  1
  Nb  Nb6  1  0.441298  0.442732  0.057985  1
  Nb  Nb7  1  0.055257  0.054247  0.445248  1
  Nb  Nb8  1  0.441298  0.057985  0.442732  1
  Nb  Nb9  1  0.055257  0.445248  0.054247  1
  Nb  Nb10  1  0.055257  0.445248  0.445248  1
  Nb  Nb11  1  0.441298  0.057985  0.057985  1
  V  V12  1  0.625000  0.125000  0.625000  1
  V  V13  1  0.625000  0.625000  0.125000  1
  V  V14  1  0.625000  0.625000  0.625000  1
  Co  Co15  1  0.730423  0.423193  0.423193  1
  Co  Co16  1  0.431369  0.728184  0.420224  1
  Co  Co17  1  0.431369  0.420224  0.728184  1
  Co  Co18  1  0.431369  0.420224  0.420224  1
  Co  Co19  1  0.519577  0.826807  0.826807  1
  Co  Co20  1  0.818631  0.521816  0.829776  1
  Co  Co21  1  0.818631  0.829776  0.521816  1
  Co  Co22  1  0.818631  0.829776  0.829776  1
  Re  Re23  1  0.125000  0.625000  0.625000  1
  N  N24  1  0.625000  0.125000  0.125000  1
  N  N25  1  0.125000  0.625000  0.125000  1
  N  N26  1  0.125000  0.125000  0.625000  1
  N  N27  1  0.125000  0.125000  0.125000  1
