# generated using pymatgen
data_CrP2PdRu2
_symmetry_space_group_name_H-M   'P 1'
_cell_length_a   3.82037100
_cell_length_b   6.28168600
_cell_length_c   6.89710800
_cell_angle_alpha   90.00000000
_cell_angle_beta   90.00000000
_cell_angle_gamma   90.00000000
_symmetry_Int_Tables_number   1
_chemical_formula_structural   CrP2PdRu2
_chemical_formula_sum   'Cr2 P4 Pd2 Ru4'
_cell_volume   165.51935679
_cell_formula_units_Z   2
loop_
 _symmetry_equiv_pos_site_id
 _symmetry_equiv_pos_as_xyz
  1  'x, y, z'
loop_
 _atom_site_type_symbol
 _atom_site_label
 _atom_site_symmetry_multiplicity
 _atom_site_fract_x
 _atom_site_fract_y
 _atom_site_fract_z
 _atom_site_occupancy
  Cr  Cr0  1  0.250000  0.031739  0.168272  1
  Cr  Cr1  1  0.250000  0.531739  0.331728  1
  P  P2  1  0.250000  0.776660  0.616715  1
  P  P3  1  0.250000  0.276660  0.883285  1
  P  P4  1  0.750000  0.222879  0.377009  1
  P  P5  1  0.750000  0.722879  0.122991  1
  Pd  Pd6  1  0.750000  0.966921  0.840743  1
  Pd  Pd7  1  0.750000  0.466921  0.659257  1
  Ru  Ru8  1  0.250000  0.148820  0.569403  1
  Ru  Ru9  1  0.250000  0.648820  0.930597  1
  Ru  Ru10  1  0.750000  0.852983  0.433125  1
  Ru  Ru11  1  0.750000  0.352983  0.066875  1
