# generated using pymatgen
data_Nd15Dy5Si15Hg
_symmetry_space_group_name_H-M   'P 1'
_cell_length_a   7.61737903
_cell_length_b   7.95177443
_cell_length_c   15.03671000
_cell_angle_alpha   89.96923291
_cell_angle_beta   89.92791183
_cell_angle_gamma   89.93393817
_symmetry_Int_Tables_number   1
_chemical_formula_structural   Nd15Dy5Si15Hg
_chemical_formula_sum   'Nd15 Dy5 Si15 Hg1'
_cell_volume   910.79732579
_cell_formula_units_Z   1
loop_
 _symmetry_equiv_pos_site_id
 _symmetry_equiv_pos_as_xyz
  1  'x, y, z'
loop_
 _atom_site_type_symbol
 _atom_site_label
 _atom_site_symmetry_multiplicity
 _atom_site_fract_x
 _atom_site_fract_y
 _atom_site_fract_z
 _atom_site_occupancy
  Nd  Nd0  1  0.465357  0.685562  0.899535  1
  Nd  Nd1  1  0.965717  0.813821  0.899057  1
  Nd  Nd2  1  0.184363  0.680522  0.119981  1
  Nd  Nd3  1  0.698337  0.828844  0.118649  1
  Nd  Nd4  1  0.309616  0.178630  0.875347  1
  Nd  Nd5  1  0.183642  0.679336  0.382302  1
  Nd  Nd6  1  0.034099  0.183144  0.096819  1
  Nd  Nd7  1  0.310650  0.179488  0.623185  1
  Nd  Nd8  1  0.533979  0.310319  0.406996  1
  Nd  Nd9  1  0.810455  0.322305  0.875589  1
  Nd  Nd10  1  0.966005  0.814064  0.599870  1
  Nd  Nd11  1  0.466706  0.685720  0.598449  1
  Nd  Nd12  1  0.032045  0.182146  0.404917  1
  Nd  Nd13  1  0.697688  0.828062  0.381717  1
  Nd  Nd14  1  0.533545  0.310028  0.093595  1
  Dy  Dy15  1  0.141646  0.515248  0.749699  1
  Dy  Dy16  1  0.810723  0.323342  0.624972  1
  Dy  Dy17  1  0.864588  0.486279  0.250695  1
  Dy  Dy18  1  0.362459  0.021872  0.250392  1
  Dy  Dy19  1  0.640252  0.987096  0.749286  1
  Si  Si20  1  0.230578  0.364457  0.250499  1
  Si  Si21  1  0.854613  0.521178  0.461560  1
  Si  Si22  1  0.515538  0.403856  0.747329  1
  Si  Si23  1  0.636605  0.025075  0.954746  1
  Si  Si24  1  0.009643  0.100500  0.747795  1
  Si  Si25  1  0.757377  0.625232  0.747884  1
  Si  Si26  1  0.747835  0.127526  0.250393  1
  Si  Si27  1  0.364831  0.974258  0.459644  1
  Si  Si28  1  0.990020  0.905181  0.250814  1
  Si  Si29  1  0.362963  0.973337  0.040229  1
  Si  Si30  1  0.642237  0.029509  0.544751  1
  Si  Si31  1  0.137876  0.472315  0.957754  1
  Si  Si32  1  0.131578  0.470254  0.544210  1
  Si  Si33  1  0.859341  0.522763  0.041755  1
  Si  Si34  1  0.256177  0.871716  0.749066  1
  Hg  Hg35  1  0.490919  0.597013  0.250519  1
