# generated using pymatgen
data_La4GdIr2Ru
_symmetry_space_group_name_H-M   'P 1'
_cell_length_a   11.41005100
_cell_length_b   11.41005100
_cell_length_c   6.71314200
_cell_angle_alpha   90.00000000
_cell_angle_beta   90.00000000
_cell_angle_gamma   90.00000000
_symmetry_Int_Tables_number   1
_chemical_formula_structural   La4GdIr2Ru
_chemical_formula_sum   'La16 Gd4 Ir8 Ru4'
_cell_volume   873.97901492
_cell_formula_units_Z   4
loop_
 _symmetry_equiv_pos_site_id
 _symmetry_equiv_pos_as_xyz
  1  'x, y, z'
loop_
 _atom_site_type_symbol
 _atom_site_label
 _atom_site_symmetry_multiplicity
 _atom_site_fract_x
 _atom_site_fract_y
 _atom_site_fract_z
 _atom_site_occupancy
  La  La0  1  0.291792  0.086983  0.388703  1
  La  La1  1  0.291792  0.913017  0.888703  1
  La  La2  1  0.708208  0.086983  0.888703  1
  La  La3  1  0.708208  0.913017  0.388703  1
  La  La4  1  0.586983  0.791792  0.888703  1
  La  La5  1  0.586983  0.208208  0.388703  1
  La  La6  1  0.413017  0.791792  0.388703  1
  La  La7  1  0.413017  0.208208  0.888703  1
  La  La8  1  0.208208  0.413017  0.611297  1
  La  La9  1  0.208208  0.586983  0.111297  1
  La  La10  1  0.791792  0.413017  0.111297  1
  La  La11  1  0.791792  0.586983  0.611297  1
  La  La12  1  0.913017  0.708208  0.111297  1
  La  La13  1  0.913017  0.291792  0.611297  1
  La  La14  1  0.086983  0.708208  0.611297  1
  La  La15  1  0.086983  0.291792  0.111297  1
  Gd  Gd16  1  0.000000  0.000000  0.500000  1
  Gd  Gd17  1  0.000000  0.000000  0.000000  1
  Gd  Gd18  1  0.500000  0.500000  0.000000  1
  Gd  Gd19  1  0.500000  0.500000  0.500000  1
  Ir  Ir20  1  0.851810  0.148190  0.250000  1
  Ir  Ir21  1  0.851810  0.851810  0.750000  1
  Ir  Ir22  1  0.148190  0.148190  0.750000  1
  Ir  Ir23  1  0.148190  0.851810  0.250000  1
  Ir  Ir24  1  0.648190  0.351810  0.750000  1
  Ir  Ir25  1  0.648190  0.648190  0.250000  1
  Ir  Ir26  1  0.351810  0.351810  0.250000  1
  Ir  Ir27  1  0.351810  0.648190  0.750000  1
  Ru  Ru28  1  0.500000  0.000000  0.116544  1
  Ru  Ru29  1  0.500000  0.000000  0.616544  1
  Ru  Ru30  1  0.000000  0.500000  0.883456  1
  Ru  Ru31  1  0.000000  0.500000  0.383456  1
