# generated using pymatgen
data_AcSm(Si4Ni9)2
_symmetry_space_group_name_H-M   'P 1'
_cell_length_a   7.98688772
_cell_length_b   7.98688731
_cell_length_c   7.97740011
_cell_angle_alpha   121.04842722
_cell_angle_beta   121.04842236
_cell_angle_gamma   88.26789232
_symmetry_Int_Tables_number   1
_chemical_formula_structural   AcSm(Si4Ni9)2
_chemical_formula_sum   'Ac1 Sm1 Si8 Ni18'
_cell_volume   353.71676290
_cell_formula_units_Z   1
loop_
 _symmetry_equiv_pos_site_id
 _symmetry_equiv_pos_as_xyz
  1  'x, y, z'
loop_
 _atom_site_type_symbol
 _atom_site_label
 _atom_site_symmetry_multiplicity
 _atom_site_fract_x
 _atom_site_fract_y
 _atom_site_fract_z
 _atom_site_occupancy
  Ac  Ac0  1  0.750053  0.749947  0.000000  1
  Sm  Sm1  1  0.250051  0.249949  0.000000  1
  Si  Si2  1  0.443014  0.950088  0.159252  1
  Si  Si3  1  0.216355  0.709317  0.159307  1
  Si  Si4  1  0.709258  0.549857  0.492821  1
  Si  Si5  1  0.950143  0.790742  0.507179  1
  Si  Si6  1  0.283521  0.443007  0.492934  1
  Si  Si7  1  0.790683  0.283645  0.840693  1
  Si  Si8  1  0.549912  0.056986  0.840748  1
  Si  Si9  1  0.056993  0.216479  0.507066  1
  Ni  Ni10  1  0.567901  0.703678  0.272471  1
  Ni  Ni11  1  0.796322  0.932099  0.727529  1
  Ni  Ni12  1  0.315197  0.817471  0.762417  1
  Ni  Ni13  1  0.817712  0.055202  0.502831  1
  Ni  Ni14  1  0.430714  0.295153  0.727174  1
  Ni  Ni15  1  0.184980  0.947499  0.502634  1
  Ni  Ni16  1  0.444798  0.682288  0.497169  1
  Ni  Ni17  1  0.947339  0.444984  0.762632  1
  Ni  Ni18  1  0.682529  0.184803  0.237583  1
  Ni  Ni19  1  0.055016  0.552661  0.237368  1
  Ni  Ni20  1  0.499983  0.000017  0.500000  1
  Ni  Ni21  1  0.999745  0.500255  0.500000  1
  Ni  Ni22  1  0.295074  0.567565  0.863992  1
  Ni  Ni23  1  0.932435  0.204926  0.136008  1
  Ni  Ni24  1  0.069560  0.796637  0.864926  1
  Ni  Ni25  1  0.204847  0.069286  0.272826  1
  Ni  Ni26  1  0.552501  0.315020  0.497366  1
  Ni  Ni27  1  0.703363  0.430440  0.135074  1
