# generated using pymatgen
data_NbNiOsF12
_symmetry_space_group_name_H-M   'P 1'
_cell_length_a   5.51892788
_cell_length_b   11.28653311
_cell_length_c   5.57898400
_cell_angle_alpha   57.86621737
_cell_angle_beta   57.98649872
_cell_angle_gamma   59.01497114
_symmetry_Int_Tables_number   1
_chemical_formula_structural   NbNiOsF12
_chemical_formula_sum   'Nb1 Ni1 Os1 F12'
_cell_volume   236.03958408
_cell_formula_units_Z   1
loop_
 _symmetry_equiv_pos_site_id
 _symmetry_equiv_pos_as_xyz
  1  'x, y, z'
loop_
 _atom_site_type_symbol
 _atom_site_label
 _atom_site_symmetry_multiplicity
 _atom_site_fract_x
 _atom_site_fract_y
 _atom_site_fract_z
 _atom_site_occupancy
  Nb  Nb0  1  0.987265  0.492339  0.022521  1
  Ni  Ni1  1  0.503691  0.750720  0.495785  1
  Os  Os2  1  0.018441  0.998947  0.983622  1
  F  F3  1  0.357361  0.061232  0.759354  1
  F  F4  1  0.309868  0.589180  0.760978  1
  F  F5  1  0.113738  0.388316  0.354488  1
  F  F6  1  0.159454  0.874036  0.330054  1
  F  F7  1  0.230154  0.341183  0.863147  1
  F  F8  1  0.252700  0.830396  0.841685  1
  F  F9  1  0.885101  0.110197  0.655628  1
  F  F10  1  0.832822  0.628891  0.673754  1
  F  F11  1  0.632759  0.442494  0.232753  1
  F  F12  1  0.676803  0.920968  0.230032  1
  F  F13  1  0.788152  0.153951  0.131779  1
  F  F14  1  0.751692  0.667150  0.164422  1
