# generated using pymatgen
data_TaTi3Si3Rh2
_symmetry_space_group_name_H-M   'P 1'
_cell_length_a   7.48159104
_cell_length_b   7.48159225
_cell_length_c   7.48159041
_cell_angle_alpha   126.09082077
_cell_angle_beta   124.20935621
_cell_angle_gamma   81.29858053
_symmetry_Int_Tables_number   1
_chemical_formula_structural   TaTi3Si3Rh2
_chemical_formula_sum   'Ta2 Ti6 Si6 Rh4'
_cell_volume   269.52726579
_cell_formula_units_Z   2
loop_
 _symmetry_equiv_pos_site_id
 _symmetry_equiv_pos_as_xyz
  1  'x, y, z'
loop_
 _atom_site_type_symbol
 _atom_site_label
 _atom_site_symmetry_multiplicity
 _atom_site_fract_x
 _atom_site_fract_y
 _atom_site_fract_z
 _atom_site_occupancy
  Ta  Ta0  1  0.500000  0.498487  0.998487  1
  Ta  Ta1  1  0.000000  0.498487  0.498487  1
  Ti  Ti2  1  0.963993  0.726992  0.262998  1
  Ti  Ti3  1  0.036007  0.299006  0.762998  1
  Ti  Ti4  1  0.245936  0.162407  0.416471  1
  Ti  Ti5  1  0.754064  0.170537  0.916471  1
  Ti  Ti6  1  0.558147  0.345370  0.287223  1
  Ti  Ti7  1  0.441853  0.729076  0.787223  1
  Si  Si8  1  0.785480  0.812453  0.526973  1
  Si  Si9  1  0.214520  0.741493  0.026973  1
  Si  Si10  1  0.337224  0.068959  0.746038  1
  Si  Si11  1  0.662776  0.408814  0.731735  1
  Si  Si12  1  0.177079  0.408814  0.246038  1
  Si  Si13  1  0.822921  0.068959  0.231735  1
  Rh  Rh14  1  0.166658  0.002678  0.914254  1
  Rh  Rh15  1  0.833342  0.747596  0.836020  1
  Rh  Rh16  1  0.411577  0.747596  0.414254  1
  Rh  Rh17  1  0.588423  0.002678  0.336020  1
