# generated using pymatgen
data_Lu8Bi4IrRu
_symmetry_space_group_name_H-M   'P 1'
_cell_length_a   8.65099990
_cell_length_b   8.65066425
_cell_length_c   8.65099943
_cell_angle_alpha   96.57379944
_cell_angle_beta   96.58407088
_cell_angle_gamma   140.43392395
_symmetry_Int_Tables_number   1
_chemical_formula_structural   Lu8Bi4IrRu
_chemical_formula_sum   'Lu8 Bi4 Ir1 Ru1'
_cell_volume   388.03585919
_cell_formula_units_Z   1
loop_
 _symmetry_equiv_pos_site_id
 _symmetry_equiv_pos_as_xyz
  1  'x, y, z'
loop_
 _atom_site_type_symbol
 _atom_site_label
 _atom_site_symmetry_multiplicity
 _atom_site_fract_x
 _atom_site_fract_y
 _atom_site_fract_z
 _atom_site_occupancy
  Lu  Lu0  1  0.695338  0.579818  0.276503  1
  Lu  Lu1  1  0.303307  0.418818  0.723512  1
  Lu  Lu2  1  0.579813  0.303297  0.884507  1
  Lu  Lu3  1  0.081209  0.196703  0.276517  1
  Lu  Lu4  1  0.804695  0.081182  0.884489  1
  Lu  Lu5  1  0.418839  0.695355  0.115479  1
  Lu  Lu6  1  0.920124  0.804645  0.723483  1
  Lu  Lu7  1  0.196685  0.920182  0.115521  1
  Bi  Bi8  1  0.140952  0.640977  0.781908  1
  Bi  Bi9  1  0.359062  0.140980  0.500020  1
  Bi  Bi10  1  0.859038  0.359020  0.218081  1
  Bi  Bi11  1  0.640930  0.859023  0.499974  1
  Ir  Ir12  1  0.750093  0.750000  0.000093  1
  Ru  Ru13  1  0.249913  0.250000  0.999913  1
