# generated using pymatgen
data_Nd3DySn10IrRh5
_symmetry_space_group_name_H-M   'P 1'
_cell_length_a   13.58715725
_cell_length_b   13.58715579
_cell_length_c   7.24899955
_cell_angle_alpha   89.92118003
_cell_angle_beta   90.07881916
_cell_angle_gamma   160.83148353
_symmetry_Int_Tables_number   1
_chemical_formula_structural   Nd3DySn10IrRh5
_chemical_formula_sum   'Nd3 Dy1 Sn10 Ir1 Rh5'
_cell_volume   439.40879661
_cell_formula_units_Z   1
loop_
 _symmetry_equiv_pos_site_id
 _symmetry_equiv_pos_as_xyz
  1  'x, y, z'
loop_
 _atom_site_type_symbol
 _atom_site_label
 _atom_site_symmetry_multiplicity
 _atom_site_fract_x
 _atom_site_fract_y
 _atom_site_fract_z
 _atom_site_occupancy
  Nd  Nd0  1  0.171727  0.828273  0.752802  1
  Nd  Nd1  1  0.827858  0.172142  0.252644  1
  Nd  Nd2  1  0.477157  0.522843  0.737928  1
  Dy  Dy3  1  0.524477  0.475523  0.242130  1
  Sn  Sn4  1  0.878830  0.121170  0.733923  1
  Sn  Sn5  1  0.120499  0.879501  0.233388  1
  Sn  Sn6  1  0.703886  0.296114  0.046722  1
  Sn  Sn7  1  0.295822  0.704178  0.546944  1
  Sn  Sn8  1  0.596795  0.403205  0.610484  1
  Sn  Sn9  1  0.404091  0.595909  0.110452  1
  Sn  Sn10  1  0.952898  0.047102  0.400088  1
  Sn  Sn11  1  0.047582  0.952418  0.905342  1
  Sn  Sn12  1  0.289974  0.710026  0.975015  1
  Sn  Sn13  1  0.709774  0.290226  0.474759  1
  Ir  Ir14  1  0.050767  0.949233  0.515863  1
  Rh  Rh15  1  0.948840  0.051160  0.020757  1
  Rh  Rh16  1  0.777144  0.222856  0.762750  1
  Rh  Rh17  1  0.222481  0.777519  0.263498  1
  Rh  Rh18  1  0.395266  0.604734  0.483641  1
  Rh  Rh19  1  0.604131  0.395869  0.986868  1
