# generated using pymatgen
data_Er16Cd4Ni2IrPd
_symmetry_space_group_name_H-M   'P 1'
_cell_length_a   9.53651806
_cell_length_b   9.50665527
_cell_length_c   9.48792200
_cell_angle_alpha   60.06516363
_cell_angle_beta   60.16842460
_cell_angle_gamma   60.33051680
_symmetry_Int_Tables_number   1
_chemical_formula_structural   Er16Cd4Ni2IrPd
_chemical_formula_sum   'Er16 Cd4 Ni2 Ir1 Pd1'
_cell_volume   610.82153596
_cell_formula_units_Z   1
loop_
 _symmetry_equiv_pos_site_id
 _symmetry_equiv_pos_as_xyz
  1  'x, y, z'
loop_
 _atom_site_type_symbol
 _atom_site_label
 _atom_site_symmetry_multiplicity
 _atom_site_fract_x
 _atom_site_fract_y
 _atom_site_fract_z
 _atom_site_occupancy
  Er  Er0  1  0.600205  0.594762  0.605019  1
  Er  Er1  1  0.600205  0.594762  0.200013  1
  Er  Er2  1  0.597145  0.203166  0.599844  1
  Er  Er3  1  0.196029  0.595283  0.604344  1
  Er  Er4  1  0.063592  0.438666  0.439164  1
  Er  Er5  1  0.440032  0.067322  0.053609  1
  Er  Er6  1  0.440032  0.067322  0.439036  1
  Er  Er7  1  0.063592  0.438666  0.058579  1
  Er  Er8  1  0.440010  0.438325  0.060832  1
  Er  Er9  1  0.057645  0.065118  0.438619  1
  Er  Er10  1  0.185694  0.813499  0.815114  1
  Er  Er11  1  0.814833  0.186249  0.187167  1
  Er  Er12  1  0.814833  0.186249  0.811752  1
  Er  Er13  1  0.185694  0.813499  0.185694  1
  Er  Er14  1  0.815713  0.810687  0.186800  1
  Er  Er15  1  0.185571  0.184728  0.814851  1
  Cd  Cd16  1  0.831365  0.831597  0.830086  1
  Cd  Cd17  1  0.831365  0.831597  0.506951  1
  Cd  Cd18  1  0.832519  0.503899  0.831790  1
  Cd  Cd19  1  0.505802  0.832163  0.831017  1
  Ni  Ni20  1  0.391922  0.394424  0.393605  1
  Ni  Ni21  1  0.391922  0.394424  0.820048  1
  Ir  Ir22  1  0.822193  0.393621  0.392093  1
  Pd  Pd23  1  0.392085  0.819970  0.393972  1
