# generated using pymatgen
data_Hf4Zr6Si6S
_symmetry_space_group_name_H-M   'P 1'
_cell_length_a   5.53438400
_cell_length_b   8.13642049
_cell_length_c   8.13645100
_cell_angle_alpha   119.99957520
_cell_angle_beta   89.99958589
_cell_angle_gamma   90.00009438
_symmetry_Int_Tables_number   1
_chemical_formula_structural   Hf4Zr6Si6S
_chemical_formula_sum   'Hf4 Zr6 Si6 S1'
_cell_volume   317.30007725
_cell_formula_units_Z   1
loop_
 _symmetry_equiv_pos_site_id
 _symmetry_equiv_pos_as_xyz
  1  'x, y, z'
loop_
 _atom_site_type_symbol
 _atom_site_label
 _atom_site_symmetry_multiplicity
 _atom_site_fract_x
 _atom_site_fract_y
 _atom_site_fract_z
 _atom_site_occupancy
  Hf  Hf0  1  0.499999  0.333333  0.666670  1
  Hf  Hf1  1  0.500000  0.666673  0.333336  1
  Hf  Hf2  1  0.000001  0.666669  0.333335  1
  Hf  Hf3  1  0.999999  0.333338  0.666670  1
  Zr  Zr4  1  0.759421  0.258812  0.000012  1
  Zr  Zr5  1  0.759416  0.741191  0.741184  1
  Zr  Zr6  1  0.759410  0.999986  0.258799  1
  Zr  Zr7  1  0.240574  0.741189  0.000007  1
  Zr  Zr8  1  0.240588  0.258816  0.258800  1
  Zr  Zr9  1  0.240590  0.999990  0.741188  1
  Si  Si10  1  0.750859  0.606012  0.000007  1
  Si  Si11  1  0.750853  0.393994  0.393984  1
  Si  Si12  1  0.750863  0.999990  0.606003  1
  Si  Si13  1  0.249148  0.393997  0.000008  1
  Si  Si14  1  0.249138  0.606015  0.606008  1
  Si  Si15  1  0.249141  0.999991  0.393986  1
  S  S16  1  0.500003  0.000008  0.000003  1
