# generated using pymatgen
data_Zr4Ta4GeAs3
_symmetry_space_group_name_H-M   'P 1'
_cell_length_a   3.63711800
_cell_length_b   7.10072288
_cell_length_c   8.59537304
_cell_angle_alpha   89.90416662
_cell_angle_beta   90.00000000
_cell_angle_gamma   90.00000000
_symmetry_Int_Tables_number   1
_chemical_formula_structural   Zr4Ta4GeAs3
_chemical_formula_sum   'Zr4 Ta4 Ge1 As3'
_cell_volume   221.98522878
_cell_formula_units_Z   1
loop_
 _symmetry_equiv_pos_site_id
 _symmetry_equiv_pos_as_xyz
  1  'x, y, z'
loop_
 _atom_site_type_symbol
 _atom_site_label
 _atom_site_symmetry_multiplicity
 _atom_site_fract_x
 _atom_site_fract_y
 _atom_site_fract_z
 _atom_site_occupancy
  Zr  Zr0  1  0.250000  0.540964  0.833741  1
  Zr  Zr1  1  0.750000  0.958180  0.333569  1
  Zr  Zr2  1  0.250000  0.040674  0.667184  1
  Zr  Zr3  1  0.750000  0.459711  0.167640  1
  Ta  Ta4  1  0.250000  0.135459  0.059784  1
  Ta  Ta5  1  0.750000  0.867268  0.941208  1
  Ta  Ta6  1  0.250000  0.632258  0.439192  1
  Ta  Ta7  1  0.750000  0.366616  0.558959  1
  Ge  Ge8  1  0.750000  0.744131  0.642745  1
  As  As9  1  0.250000  0.756702  0.143073  1
  As  As10  1  0.750000  0.244338  0.855503  1
  As  As11  1  0.250000  0.253700  0.357401  1
