# generated using pymatgen
data_CaY3Ho3Co6Sn23
_symmetry_space_group_name_H-M   'P 1'
_cell_length_a   9.72447600
_cell_length_b   9.72447441
_cell_length_c   9.95675200
_cell_angle_alpha   90.00000000
_cell_angle_beta   90.00000000
_cell_angle_gamma   119.99999859
_symmetry_Int_Tables_number   1
_chemical_formula_structural   CaY3Ho3Co6Sn23
_chemical_formula_sum   'Ca1 Y3 Ho3 Co6 Sn23'
_cell_volume   815.41871449
_cell_formula_units_Z   1
loop_
 _symmetry_equiv_pos_site_id
 _symmetry_equiv_pos_as_xyz
  1  'x, y, z'
loop_
 _atom_site_type_symbol
 _atom_site_label
 _atom_site_symmetry_multiplicity
 _atom_site_fract_x
 _atom_site_fract_y
 _atom_site_fract_z
 _atom_site_occupancy
  Ca  Ca0  1  0.000000  0.000000  0.000030  1
  Y  Y1  1  0.521074  0.478926  0.693555  1
  Y  Y2  1  0.521074  0.042147  0.693555  1
  Y  Y3  1  0.957853  0.478926  0.693555  1
  Ho  Ho4  1  0.041757  0.520879  0.306281  1
  Ho  Ho5  1  0.479121  0.958243  0.306281  1
  Ho  Ho6  1  0.479121  0.520879  0.306281  1
  Co  Co7  1  0.168562  0.831438  0.801541  1
  Co  Co8  1  0.168562  0.337124  0.801541  1
  Co  Co9  1  0.662876  0.831438  0.801541  1
  Co  Co10  1  0.337353  0.168677  0.198621  1
  Co  Co11  1  0.831323  0.662647  0.198621  1
  Co  Co12  1  0.831323  0.168677  0.198621  1
  Sn  Sn13  1  0.666667  0.333333  0.183316  1
  Sn  Sn14  1  0.666667  0.333333  0.881574  1
  Sn  Sn15  1  0.333333  0.666667  0.119120  1
  Sn  Sn16  1  0.346087  0.346135  0.000116  1
  Sn  Sn17  1  0.000048  0.653913  0.000116  1
  Sn  Sn18  1  0.653865  0.999952  0.000116  1
  Sn  Sn19  1  0.653865  0.653913  0.000116  1
  Sn  Sn20  1  0.333333  0.666667  0.816748  1
  Sn  Sn21  1  0.437193  0.218597  0.451648  1
  Sn  Sn22  1  0.218610  0.781390  0.547792  1
  Sn  Sn23  1  0.218610  0.437218  0.547792  1
  Sn  Sn24  1  0.562782  0.781390  0.547792  1
  Sn  Sn25  1  0.117539  0.882461  0.274068  1
  Sn  Sn26  1  0.781403  0.562807  0.451648  1
  Sn  Sn27  1  0.781403  0.218597  0.451648  1
  Sn  Sn28  1  0.346087  0.999952  0.000116  1
  Sn  Sn29  1  0.117539  0.235079  0.274068  1
  Sn  Sn30  1  0.764921  0.882461  0.274068  1
  Sn  Sn31  1  0.234634  0.117317  0.726008  1
  Sn  Sn32  1  0.882683  0.765366  0.726008  1
  Sn  Sn33  1  0.882683  0.117317  0.726008  1
  Sn  Sn34  1  0.000000  0.000000  0.499980  1
  Sn  Sn35  1  0.000048  0.346135  0.000116  1
