# generated using pymatgen
data_Li(TbP)2
_symmetry_space_group_name_H-M   'P 1'
_cell_length_a   4.07137300
_cell_length_b   4.07137200
_cell_length_c   13.90767100
_cell_angle_alpha   90.00000000
_cell_angle_beta   90.00000000
_cell_angle_gamma   120.00001627
_symmetry_Int_Tables_number   1
_chemical_formula_structural   Li(TbP)2
_chemical_formula_sum   'Li2 Tb4 P4'
_cell_volume   199.64877345
_cell_formula_units_Z   2
loop_
 _symmetry_equiv_pos_site_id
 _symmetry_equiv_pos_as_xyz
  1  'x, y, z'
loop_
 _atom_site_type_symbol
 _atom_site_label
 _atom_site_symmetry_multiplicity
 _atom_site_fract_x
 _atom_site_fract_y
 _atom_site_fract_z
 _atom_site_occupancy
  Li  Li0  1  0.000000  0.000000  0.986905  1
  Li  Li1  1  0.000000  0.000000  0.486905  1
  Tb  Tb2  1  0.666667  0.333333  0.627025  1
  Tb  Tb3  1  0.333333  0.666667  0.127025  1
  Tb  Tb4  1  0.666667  0.333333  0.346816  1
  Tb  Tb5  1  0.333333  0.666667  0.846816  1
  P  P6  1  0.666667  0.333333  0.986742  1
  P  P7  1  0.333333  0.666667  0.486742  1
  P  P8  1  0.000000  0.000000  0.736843  1
  P  P9  1  0.000000  0.000000  0.236843  1
