# generated using pymatgen
data_Ho5Lu(Sc2Sn3)2
_symmetry_space_group_name_H-M   'P 1'
_cell_length_a   8.75250328
_cell_length_b   8.76070194
_cell_length_c   6.25586900
_cell_angle_alpha   90.00000000
_cell_angle_beta   90.00000000
_cell_angle_gamma   120.03098245
_symmetry_Int_Tables_number   1
_chemical_formula_structural   Ho5Lu(Sc2Sn3)2
_chemical_formula_sum   'Ho5 Lu1 Sc4 Sn6'
_cell_volume   415.29221842
_cell_formula_units_Z   1
loop_
 _symmetry_equiv_pos_site_id
 _symmetry_equiv_pos_as_xyz
  1  'x, y, z'
loop_
 _atom_site_type_symbol
 _atom_site_label
 _atom_site_symmetry_multiplicity
 _atom_site_fract_x
 _atom_site_fract_y
 _atom_site_fract_z
 _atom_site_occupancy
  Ho  Ho0  1  0.000000  0.239199  0.250000  1
  Ho  Ho1  1  0.761471  0.761164  0.250000  1
  Ho  Ho2  1  0.761289  0.999877  0.750000  1
  Ho  Ho3  1  0.238711  0.238588  0.750000  1
  Ho  Ho4  1  0.238529  0.999694  0.250000  1
  Lu  Lu5  1  0.000000  0.761083  0.750000  1
  Sc  Sc6  1  0.333331  0.666734  0.500055  1
  Sc  Sc7  1  0.666669  0.333403  0.999945  1
  Sc  Sc8  1  0.666669  0.333403  0.500055  1
  Sc  Sc9  1  0.333331  0.666734  0.999945  1
  Sn  Sn10  1  0.399036  0.999504  0.750000  1
  Sn  Sn11  1  0.399754  0.399729  0.250000  1
  Sn  Sn12  1  0.000000  0.600237  0.250000  1
  Sn  Sn13  1  0.000000  0.400208  0.750000  1
  Sn  Sn14  1  0.600964  0.600469  0.750000  1
  Sn  Sn15  1  0.600246  0.999975  0.250000  1
