# generated using pymatgen
data_ZrTi3(NbSn2)3
_symmetry_space_group_name_H-M   'P 1'
_cell_length_a   5.69980236
_cell_length_b   5.70590508
_cell_length_c   9.68105000
_cell_angle_alpha   90.00000000
_cell_angle_beta   90.00000000
_cell_angle_gamma   120.04303020
_symmetry_Int_Tables_number   1
_chemical_formula_structural   ZrTi3(NbSn2)3
_chemical_formula_sum   'Zr1 Ti3 Nb3 Sn6'
_cell_volume   272.55174104
_cell_formula_units_Z   1
loop_
 _symmetry_equiv_pos_site_id
 _symmetry_equiv_pos_as_xyz
  1  'x, y, z'
loop_
 _atom_site_type_symbol
 _atom_site_label
 _atom_site_symmetry_multiplicity
 _atom_site_fract_x
 _atom_site_fract_y
 _atom_site_fract_z
 _atom_site_occupancy
  Zr  Zr0  1  0.000000  0.000000  0.002198  1
  Ti  Ti1  1  0.000000  0.500000  0.751554  1
  Ti  Ti2  1  0.500000  0.000000  0.753356  1
  Ti  Ti3  1  0.000000  0.500000  0.246272  1
  Nb  Nb4  1  0.500000  0.500000  0.752641  1
  Nb  Nb5  1  0.500000  0.500000  0.244969  1
  Nb  Nb6  1  0.500000  0.000000  0.248463  1
  Sn  Sn7  1  0.669677  0.333041  0.500686  1
  Sn  Sn8  1  0.330323  0.666959  0.500686  1
  Sn  Sn9  1  0.670688  0.332924  0.998075  1
  Sn  Sn10  1  0.329312  0.667076  0.998075  1
  Sn  Sn11  1  0.000000  0.000000  0.689356  1
  Sn  Sn12  1  0.000000  0.000000  0.313670  1
