# generated using pymatgen
data_Tm4As6Ru6Pt
_symmetry_space_group_name_H-M   'P 1'
_cell_length_a   7.21516131
_cell_length_b   7.21497974
_cell_length_c   7.21516201
_cell_angle_alpha   109.71303097
_cell_angle_beta   108.99231776
_cell_angle_gamma   109.71302623
_symmetry_Int_Tables_number   1
_chemical_formula_structural   Tm4As6Ru6Pt
_chemical_formula_sum   'Tm4 As6 Ru6 Pt1'
_cell_volume   289.10989038
_cell_formula_units_Z   1
loop_
 _symmetry_equiv_pos_site_id
 _symmetry_equiv_pos_as_xyz
  1  'x, y, z'
loop_
 _atom_site_type_symbol
 _atom_site_label
 _atom_site_symmetry_multiplicity
 _atom_site_fract_x
 _atom_site_fract_y
 _atom_site_fract_z
 _atom_site_occupancy
  Tm  Tm0  1  0.000163  0.000478  0.500186  1
  Tm  Tm1  1  0.499814  0.999522  0.999837  1
  Tm  Tm2  1  0.000186  0.500000  0.999814  1
  Tm  Tm3  1  0.499852  0.500000  0.500148  1
  As  As4  1  0.318836  0.000274  0.318852  1
  As  As5  1  0.007101  0.314356  0.321010  1
  As  As6  1  0.006381  0.685674  0.692411  1
  As  As7  1  0.307589  0.314326  0.993619  1
  As  As8  1  0.678990  0.685644  0.992899  1
  As  As9  1  0.681148  0.999726  0.681164  1
  Ru  Ru10  1  0.497995  0.748880  0.247249  1
  Ru  Ru11  1  0.498151  0.251063  0.749011  1
  Ru  Ru12  1  0.752751  0.251120  0.502005  1
  Ru  Ru13  1  0.250989  0.748937  0.501849  1
  Ru  Ru14  1  0.250100  0.500000  0.749900  1
  Ru  Ru15  1  0.000001  0.000000  0.999999  1
  Pt  Pt16  1  0.749955  0.500000  0.250045  1
