# generated using pymatgen
data_Ti6Si2Sb4Mo2Pd
_symmetry_space_group_name_H-M   'P 1'
_cell_length_a   4.95099246
_cell_length_b   7.69513428
_cell_length_c   7.73512951
_cell_angle_alpha   95.56401474
_cell_angle_beta   108.66492461
_cell_angle_gamma   71.23446296
_symmetry_Int_Tables_number   1
_chemical_formula_structural   Ti6Si2Sb4Mo2Pd
_chemical_formula_sum   'Ti6 Si2 Sb4 Mo2 Pd1'
_cell_volume   264.35078197
_cell_formula_units_Z   1
loop_
 _symmetry_equiv_pos_site_id
 _symmetry_equiv_pos_as_xyz
  1  'x, y, z'
loop_
 _atom_site_type_symbol
 _atom_site_label
 _atom_site_symmetry_multiplicity
 _atom_site_fract_x
 _atom_site_fract_y
 _atom_site_fract_z
 _atom_site_occupancy
  Ti  Ti0  1  0.930807  0.282523  0.124717  1
  Ti  Ti1  1  0.088614  0.717477  0.875283  1
  Ti  Ti2  1  0.713233  0.711603  0.128263  1
  Ti  Ti3  1  0.296574  0.288397  0.871737  1
  Ti  Ti4  1  0.785675  0.124441  0.714124  1
  Ti  Ti5  1  0.195992  0.875559  0.285876  1
  Si  Si6  1  0.248349  0.000000  0.000000  1
  Si  Si7  1  0.750034  0.000000  0.000000  1
  Sb  Sb8  1  0.383432  0.500064  0.198835  1
  Sb  Sb9  1  0.684661  0.499936  0.801165  1
  Sb  Sb10  1  0.812716  0.808453  0.499682  1
  Sb  Sb11  1  0.121487  0.191547  0.500318  1
  Mo  Mo12  1  0.418560  0.877969  0.723535  1
  Mo  Mo13  1  0.572994  0.122031  0.276465  1
  Pd  Pd14  1  0.246873  0.500000  0.500000  1
