# generated using pymatgen
data_CaY3Al15(SiIr2)3
_symmetry_space_group_name_H-M   'P 1'
_cell_length_a   7.54462017
_cell_length_b   7.53569340
_cell_length_c   9.36893804
_cell_angle_alpha   89.99473042
_cell_angle_beta   89.90426637
_cell_angle_gamma   119.76150935
_symmetry_Int_Tables_number   1
_chemical_formula_structural   CaY3Al15(SiIr2)3
_chemical_formula_sum   'Ca1 Y3 Al15 Si3 Ir6'
_cell_volume   462.40171078
_cell_formula_units_Z   1
loop_
 _symmetry_equiv_pos_site_id
 _symmetry_equiv_pos_as_xyz
  1  'x, y, z'
loop_
 _atom_site_type_symbol
 _atom_site_label
 _atom_site_symmetry_multiplicity
 _atom_site_fract_x
 _atom_site_fract_y
 _atom_site_fract_z
 _atom_site_occupancy
  Ca  Ca0  1  0.993612  0.668937  0.248025  1
  Y  Y1  1  0.005028  0.325148  0.753928  1
  Y  Y2  1  0.680269  0.001162  0.247074  1
  Y  Y3  1  0.323954  0.004424  0.750152  1
  Al  Al4  1  0.997548  0.668378  0.923488  1
  Al  Al5  1  0.998405  0.663954  0.574420  1
  Al  Al6  1  0.335206  0.999045  0.423930  1
  Al  Al7  1  0.002406  0.337851  0.428568  1
  Al  Al8  1  0.663159  0.998813  0.576642  1
  Al  Al9  1  0.659292  0.993715  0.921236  1
  Al  Al10  1  0.334223  0.999093  0.075905  1
  Al  Al11  1  0.336401  0.335897  0.557714  1
  Al  Al12  1  0.665730  0.665372  0.442313  1
  Al  Al13  1  0.664773  0.664732  0.058601  1
  Al  Al14  1  0.339462  0.335862  0.942528  1
  Al  Al15  1  0.335497  0.547483  0.250050  1
  Al  Al16  1  0.665228  0.450834  0.750522  1
  Al  Al17  1  0.546220  0.334943  0.250201  1
  Al  Al18  1  0.450380  0.662643  0.749604  1
  Si  Si19  1  0.133626  0.130053  0.250694  1
  Si  Si20  1  0.870884  0.871892  0.749937  1
  Si  Si21  1  0.001258  0.338450  0.072274  1
  Ir  Ir22  1  0.677583  0.327211  0.000951  1
  Ir  Ir23  1  0.321228  0.663860  0.999442  1
  Ir  Ir24  1  0.328926  0.671210  0.500202  1
  Ir  Ir25  1  0.670842  0.327585  0.499998  1
  Ir  Ir26  1  0.999234  0.009476  0.001297  1
  Ir  Ir27  1  0.999627  0.001975  0.500304  1
