# generated using pymatgen
data_Y4VPt3F28
_symmetry_space_group_name_H-M   'P 1'
_cell_length_a   5.54938629
_cell_length_b   8.91017391
_cell_length_c   11.96300878
_cell_angle_alpha   62.50086847
_cell_angle_beta   90.13672212
_cell_angle_gamma   90.02894510
_symmetry_Int_Tables_number   1
_chemical_formula_structural   Y4VPt3F28
_chemical_formula_sum   'Y4 V1 Pt3 F28'
_cell_volume   524.68974367
_cell_formula_units_Z   1
loop_
 _symmetry_equiv_pos_site_id
 _symmetry_equiv_pos_as_xyz
  1  'x, y, z'
loop_
 _atom_site_type_symbol
 _atom_site_label
 _atom_site_symmetry_multiplicity
 _atom_site_fract_x
 _atom_site_fract_y
 _atom_site_fract_z
 _atom_site_occupancy
  Y  Y0  1  0.258995  0.811028  0.263134  1
  Y  Y1  1  0.739153  0.186323  0.735115  1
  Y  Y2  1  0.761114  0.183865  0.236230  1
  Y  Y3  1  0.239612  0.812042  0.768600  1
  V  V4  1  0.756429  0.725273  0.044268  1
  Pt  Pt5  1  0.242394  0.271873  0.958259  1
  Pt  Pt6  1  0.259029  0.272635  0.456060  1
  Pt  Pt7  1  0.740506  0.726509  0.544173  1
  F  F8  1  0.932337  0.702535  0.415373  1
  F  F9  1  0.064858  0.297743  0.583411  1
  F  F10  1  0.438013  0.298141  0.085197  1
  F  F11  1  0.551627  0.712482  0.922278  1
  F  F12  1  0.486493  0.731002  0.138724  1
  F  F13  1  0.537350  0.267892  0.869038  1
  F  F14  1  0.965818  0.276079  0.361898  1
  F  F15  1  0.034259  0.725042  0.637044  1
  F  F16  1  0.957283  0.745786  0.166550  1
  F  F17  1  0.051263  0.251890  0.826844  1
  F  F18  1  0.449622  0.256964  0.322908  1
  F  F19  1  0.553589  0.744092  0.677720  1
  F  F20  1  0.770402  0.492613  0.134504  1
  F  F21  1  0.231654  0.519541  0.859677  1
  F  F22  1  0.271511  0.520570  0.356526  1
  F  F23  1  0.725859  0.478031  0.643120  1
  F  F24  1  0.942048  0.282867  0.042341  1
  F  F25  1  0.037998  0.721241  0.953407  1
  F  F26  1  0.440090  0.719813  0.458115  1
  F  F27  1  0.559940  0.279164  0.541344  1
  F  F28  1  0.744232  0.974628  0.450541  1
  F  F29  1  0.257983  0.024705  0.549925  1
  F  F30  1  0.242476  0.023784  0.049831  1
  F  F31  1  0.758919  0.957488  0.951701  1
  F  F32  1  0.583665  0.970778  0.231468  1
  F  F33  1  0.413187  0.033019  0.768329  1
  F  F34  1  0.084644  0.029232  0.267000  1
  F  F35  1  0.915647  0.973329  0.729345  1
