# generated using pymatgen
data_NaWF7
_symmetry_space_group_name_H-M   'P 1'
_cell_length_a   5.46556262
_cell_length_b   5.32003613
_cell_length_c   6.47675600
_cell_angle_alpha   62.37820363
_cell_angle_beta   71.22490698
_cell_angle_gamma   98.27057356
_symmetry_Int_Tables_number   1
_chemical_formula_structural   NaWF7
_chemical_formula_sum   'Na1 W1 F7'
_cell_volume   148.02734985
_cell_formula_units_Z   1
loop_
 _symmetry_equiv_pos_site_id
 _symmetry_equiv_pos_as_xyz
  1  'x, y, z'
loop_
 _atom_site_type_symbol
 _atom_site_label
 _atom_site_symmetry_multiplicity
 _atom_site_fract_x
 _atom_site_fract_y
 _atom_site_fract_z
 _atom_site_occupancy
  Na  Na0  1  0.870329  0.239980  0.745020  1
  W  W1  1  0.278599  0.621545  0.935153  1
  F  F2  1  0.573370  0.982602  0.625977  1
  F  F3  1  0.547144  0.742996  0.038801  1
  F  F4  1  0.484799  0.369889  0.900227  1
  F  F5  1  0.086855  0.894394  0.924649  1
  F  F6  1  0.958587  0.277715  0.074331  1
  F  F7  1  0.218704  0.662119  0.640571  1
  F  F8  1  0.092215  0.441875  0.308570  1
