# generated using pymatgen
data_La2Pr2NdZn2Ru3
_symmetry_space_group_name_H-M   'P 1'
_cell_length_a   8.48478479
_cell_length_b   8.56773774
_cell_length_c   8.56767934
_cell_angle_alpha   109.36127184
_cell_angle_beta   109.16616162
_cell_angle_gamma   109.04447262
_symmetry_Int_Tables_number   1
_chemical_formula_structural   La2Pr2NdZn2Ru3
_chemical_formula_sum   'La4 Pr4 Nd2 Zn4 Ru6'
_cell_volume   484.36940954
_cell_formula_units_Z   2
loop_
 _symmetry_equiv_pos_site_id
 _symmetry_equiv_pos_as_xyz
  1  'x, y, z'
loop_
 _atom_site_type_symbol
 _atom_site_label
 _atom_site_symmetry_multiplicity
 _atom_site_fract_x
 _atom_site_fract_y
 _atom_site_fract_z
 _atom_site_occupancy
  La  La0  1  0.251264  0.691104  0.442494  1
  La  La1  1  0.753707  0.811533  0.059793  1
  La  La2  1  0.440605  0.249300  0.688626  1
  La  La3  1  0.691170  0.440322  0.251465  1
  Pr  Pr4  1  0.222370  0.223820  0.221526  1
  Pr  Pr5  1  0.499888  0.995968  0.276457  1
  Pr  Pr6  1  0.278588  0.501482  0.999168  1
  Pr  Pr7  1  0.000009  0.278681  0.502758  1
  Nd  Nd8  1  0.065796  0.751636  0.816130  1
  Nd  Nd9  1  0.816576  0.065113  0.751219  1
  Zn  Zn10  1  0.590265  0.588129  0.588621  1
  Zn  Zn11  1  0.500298  0.003080  0.915528  1
  Zn  Zn12  1  0.916009  0.497492  0.998687  1
  Zn  Zn13  1  0.998811  0.914115  0.500395  1
  Ru  Ru14  1  0.246944  0.129355  0.867779  1
  Ru  Ru15  1  0.740138  0.364607  0.626162  1
  Ru  Ru16  1  0.871096  0.254110  0.131723  1
  Ru  Ru17  1  0.119689  0.869219  0.242762  1
  Ru  Ru18  1  0.623089  0.739074  0.368859  1
  Ru  Ru19  1  0.373685  0.631858  0.749850  1
