# generated using pymatgen
data_NdDy5Al24Os7Au
_symmetry_space_group_name_H-M   'P 1'
_cell_length_a   8.89353570
_cell_length_b   8.87296471
_cell_length_c   9.57276318
_cell_angle_alpha   89.78823087
_cell_angle_beta   90.15802643
_cell_angle_gamma   120.04065216
_symmetry_Int_Tables_number   1
_chemical_formula_structural   NdDy5Al24Os7Au
_chemical_formula_sum   'Nd1 Dy5 Al24 Os7 Au1'
_cell_volume   653.92794818
_cell_formula_units_Z   1
loop_
 _symmetry_equiv_pos_site_id
 _symmetry_equiv_pos_as_xyz
  1  'x, y, z'
loop_
 _atom_site_type_symbol
 _atom_site_label
 _atom_site_symmetry_multiplicity
 _atom_site_fract_x
 _atom_site_fract_y
 _atom_site_fract_z
 _atom_site_occupancy
  Nd  Nd0  1  0.189888  0.382538  0.250031  1
  Dy  Dy1  1  0.809640  0.614087  0.748696  1
  Dy  Dy2  1  0.613911  0.809876  0.251252  1
  Dy  Dy3  1  0.386058  0.190563  0.748707  1
  Dy  Dy4  1  0.194139  0.805852  0.254178  1
  Dy  Dy5  1  0.806019  0.194732  0.745684  1
  Al  Al6  1  0.328428  0.672488  0.019059  1
  Al  Al7  1  0.671466  0.329000  0.978255  1
  Al  Al8  1  0.666738  0.334274  0.517691  1
  Al  Al9  1  0.334288  0.667078  0.484673  1
  Al  Al10  1  0.162788  0.325946  0.577209  1
  Al  Al11  1  0.837435  0.674147  0.425879  1
  Al  Al12  1  0.674718  0.837782  0.575497  1
  Al  Al13  1  0.848668  0.677729  0.078292  1
  Al  Al14  1  0.326601  0.161303  0.425977  1
  Al  Al15  1  0.151104  0.322397  0.918779  1
  Al  Al16  1  0.163194  0.837474  0.575456  1
  Al  Al17  1  0.322688  0.150319  0.078124  1
  Al  Al18  1  0.835263  0.162124  0.425951  1
  Al  Al19  1  0.678043  0.848899  0.920615  1
  Al  Al20  1  0.835000  0.162260  0.073654  1
  Al  Al21  1  0.163054  0.837295  0.924626  1
  Al  Al22  1  0.560588  0.120773  0.249220  1
  Al  Al23  1  0.439435  0.879390  0.750860  1
  Al  Al24  1  0.876990  0.439670  0.249114  1
  Al  Al25  1  0.120990  0.561258  0.750571  1
  Al  Al26  1  0.566107  0.436749  0.256377  1
  Al  Al27  1  0.436869  0.564040  0.744663  1
  Al  Al28  1  0.997001  0.995887  0.250532  1
  Al  Al29  1  0.000675  0.999719  0.749759  1
  Os  Os30  1  0.500370  0.000584  0.999565  1
  Os  Os31  1  0.998966  0.500649  0.998592  1
  Os  Os32  1  0.500455  0.000603  0.500550  1
  Os  Os33  1  0.999495  0.500760  0.501048  1
  Os  Os34  1  0.501592  0.500632  0.501337  1
  Os  Os35  1  0.999993  0.000189  0.999841  1
  Os  Os36  1  0.000196  0.000180  0.500332  1
  Au  Au37  1  0.501145  0.500754  0.999355  1
