# generated using pymatgen
data_Ce(PrSi2)2
_symmetry_space_group_name_H-M   'P 1'
_cell_length_a   3.99231696
_cell_length_b   4.40228604
_cell_length_c   9.47683362
_cell_angle_alpha   76.56950294
_cell_angle_beta   77.84039205
_cell_angle_gamma   89.99999149
_symmetry_Int_Tables_number   1
_chemical_formula_structural   Ce(PrSi2)2
_chemical_formula_sum   'Ce1 Pr2 Si4'
_cell_volume   158.15903953
_cell_formula_units_Z   1
loop_
 _symmetry_equiv_pos_site_id
 _symmetry_equiv_pos_as_xyz
  1  'x, y, z'
loop_
 _atom_site_type_symbol
 _atom_site_label
 _atom_site_symmetry_multiplicity
 _atom_site_fract_x
 _atom_site_fract_y
 _atom_site_fract_z
 _atom_site_occupancy
  Ce  Ce0  1  0.000001  0.000001  0.000000  1
  Pr  Pr1  1  0.682360  0.182360  0.635280  1
  Pr  Pr2  1  0.317641  0.817641  0.364719  1
  Si  Si3  1  0.858271  0.358271  0.283458  1
  Si  Si4  1  0.141728  0.641728  0.716543  1
  Si  Si5  1  0.564743  0.564743  0.870515  1
  Si  Si6  1  0.435258  0.435258  0.129486  1
