# generated using pymatgen
data_Eu3Mg3Ga2Sb
_symmetry_space_group_name_H-M   'P 1'
_cell_length_a   7.70543900
_cell_length_b   7.70543968
_cell_length_c   4.62550500
_cell_angle_alpha   90.00000000
_cell_angle_beta   90.00000000
_cell_angle_gamma   119.99999277
_symmetry_Int_Tables_number   1
_chemical_formula_structural   Eu3Mg3Ga2Sb
_chemical_formula_sum   'Eu3 Mg3 Ga2 Sb1'
_cell_volume   237.83985425
_cell_formula_units_Z   1
loop_
 _symmetry_equiv_pos_site_id
 _symmetry_equiv_pos_as_xyz
  1  'x, y, z'
loop_
 _atom_site_type_symbol
 _atom_site_label
 _atom_site_symmetry_multiplicity
 _atom_site_fract_x
 _atom_site_fract_y
 _atom_site_fract_z
 _atom_site_occupancy
  Eu  Eu0  1  0.412505  0.990337  0.000000  1
  Eu  Eu1  1  0.009663  0.422167  0.000000  1
  Eu  Eu2  1  0.577832  0.587495  0.000000  1
  Mg  Mg3  1  0.755137  0.988894  0.500000  1
  Mg  Mg4  1  0.233757  0.244863  0.500000  1
  Mg  Mg5  1  0.011106  0.766243  0.500000  1
  Ga  Ga6  1  0.000000  0.000000  0.000000  1
  Ga  Ga7  1  0.333333  0.666667  0.500000  1
  Sb  Sb8  1  0.666667  0.333334  0.500000  1
