# generated using pymatgen
data_Tb2Ga7Ni2Au
_symmetry_space_group_name_H-M   'P 1'
_cell_length_a   4.15487995
_cell_length_b   6.45634284
_cell_length_c   7.98846703
_cell_angle_alpha   90.83130276
_cell_angle_beta   105.07331669
_cell_angle_gamma   89.99999885
_symmetry_Int_Tables_number   1
_chemical_formula_structural   Tb2Ga7Ni2Au
_chemical_formula_sum   'Tb2 Ga7 Ni2 Au1'
_cell_volume   206.89689429
_cell_formula_units_Z   1
loop_
 _symmetry_equiv_pos_site_id
 _symmetry_equiv_pos_as_xyz
  1  'x, y, z'
loop_
 _atom_site_type_symbol
 _atom_site_label
 _atom_site_symmetry_multiplicity
 _atom_site_fract_x
 _atom_site_fract_y
 _atom_site_fract_z
 _atom_site_occupancy
  Tb  Tb0  1  0.878436  0.762342  0.756873  1
  Tb  Tb1  1  0.121564  0.237658  0.243127  1
  Ga  Ga2  1  0.500000  0.000000  0.000000  1
  Ga  Ga3  1  0.069871  0.737802  0.139741  1
  Ga  Ga4  1  0.930129  0.262198  0.860259  1
  Ga  Ga5  1  0.684125  0.545779  0.368249  1
  Ga  Ga6  1  0.315875  0.454221  0.631751  1
  Ga  Ga7  1  0.686317  0.946302  0.372634  1
  Ga  Ga8  1  0.313683  0.053698  0.627366  1
  Ni  Ni9  1  0.222126  0.749103  0.444251  1
  Ni  Ni10  1  0.777874  0.250897  0.555749  1
  Au  Au11  1  0.500000  0.500000  0.000000  1
