# generated using pymatgen
data_Ac6UO11F
_symmetry_space_group_name_H-M   'P 1'
_cell_length_a   7.12285960
_cell_length_b   7.09336768
_cell_length_c   7.13260400
_cell_angle_alpha   99.04487434
_cell_angle_beta   99.00279566
_cell_angle_gamma   98.81918255
_symmetry_Int_Tables_number   1
_chemical_formula_structural   Ac6UO11F
_chemical_formula_sum   'Ac6 U1 O11 F1'
_cell_volume   345.61275239
_cell_formula_units_Z   1
loop_
 _symmetry_equiv_pos_site_id
 _symmetry_equiv_pos_as_xyz
  1  'x, y, z'
loop_
 _atom_site_type_symbol
 _atom_site_label
 _atom_site_symmetry_multiplicity
 _atom_site_fract_x
 _atom_site_fract_y
 _atom_site_fract_z
 _atom_site_occupancy
  Ac  Ac0  1  0.302234  0.602806  0.145191  1
  Ac  Ac1  1  0.611267  0.136230  0.284245  1
  Ac  Ac2  1  0.395138  0.846578  0.701428  1
  Ac  Ac3  1  0.707461  0.405623  0.868740  1
  Ac  Ac4  1  0.857587  0.699897  0.399527  1
  Ac  Ac5  1  0.127274  0.303559  0.605038  1
  U  U6  1  0.002796  0.000897  0.998592  1
  O  O7  1  0.934055  0.704263  0.047019  1
  O  O8  1  0.175197  0.588240  0.443511  1
  O  O9  1  0.816020  0.404148  0.560072  1
  O  O10  1  0.558374  0.829715  0.414863  1
  O  O11  1  0.592628  0.442322  0.178653  1
  O  O12  1  0.408404  0.552091  0.819679  1
  O  O13  1  0.957438  0.068936  0.294924  1
  O  O14  1  0.051775  0.936204  0.703643  1
  O  O15  1  0.702237  0.049087  0.934179  1
  O  O16  1  0.063678  0.298598  0.952766  1
  O  O17  1  0.298440  0.952538  0.065056  1
  F  F18  1  0.437993  0.178269  0.582874  1
