# generated using pymatgen
data_NaTb(Si7Ir3)2
_symmetry_space_group_name_H-M   'P 1'
_cell_length_a   8.01195784
_cell_length_b   8.01195858
_cell_length_c   8.01195794
_cell_angle_alpha   56.88934492
_cell_angle_beta   56.88934006
_cell_angle_gamma   56.88934359
_symmetry_Int_Tables_number   1
_chemical_formula_structural   NaTb(Si7Ir3)2
_chemical_formula_sum   'Na1 Tb1 Si14 Ir6'
_cell_volume   337.56666984
_cell_formula_units_Z   1
loop_
 _symmetry_equiv_pos_site_id
 _symmetry_equiv_pos_as_xyz
  1  'x, y, z'
loop_
 _atom_site_type_symbol
 _atom_site_label
 _atom_site_symmetry_multiplicity
 _atom_site_fract_x
 _atom_site_fract_y
 _atom_site_fract_z
 _atom_site_occupancy
  Na  Na0  1  0.000000  0.000000  0.000000  1
  Tb  Tb1  1  0.500000  0.500000  0.500000  1
  Si  Si2  1  0.852782  0.064067  0.675844  1
  Si  Si3  1  0.675844  0.852782  0.064067  1
  Si  Si4  1  0.064067  0.675844  0.852782  1
  Si  Si5  1  0.652774  0.828651  0.432341  1
  Si  Si6  1  0.250435  0.250435  0.250435  1
  Si  Si7  1  0.749565  0.749565  0.749565  1
  Si  Si8  1  0.171349  0.567659  0.347226  1
  Si  Si9  1  0.567659  0.347226  0.171349  1
  Si  Si10  1  0.347226  0.171349  0.567659  1
  Si  Si11  1  0.935933  0.324156  0.147218  1
  Si  Si12  1  0.324156  0.147218  0.935933  1
  Si  Si13  1  0.147218  0.935933  0.324156  1
  Si  Si14  1  0.828651  0.432341  0.652774  1
  Si  Si15  1  0.432341  0.652774  0.828651  1
  Ir  Ir16  1  0.746817  0.073675  0.432153  1
  Ir  Ir17  1  0.432153  0.746817  0.073675  1
  Ir  Ir18  1  0.073675  0.432153  0.746817  1
  Ir  Ir19  1  0.253183  0.926325  0.567847  1
  Ir  Ir20  1  0.567847  0.253183  0.926325  1
  Ir  Ir21  1  0.926325  0.567847  0.253183  1
