# generated using pymatgen
data_Ho8Co3Si12Pt
_symmetry_space_group_name_H-M   'P 1'
_cell_length_a   8.02302900
_cell_length_b   8.02302931
_cell_length_c   7.89025000
_cell_angle_alpha   90.00000000
_cell_angle_beta   90.00000000
_cell_angle_gamma   120.00000284
_symmetry_Int_Tables_number   1
_chemical_formula_structural   Ho8Co3Si12Pt
_chemical_formula_sum   'Ho8 Co3 Si12 Pt1'
_cell_volume   439.84344498
_cell_formula_units_Z   1
loop_
 _symmetry_equiv_pos_site_id
 _symmetry_equiv_pos_as_xyz
  1  'x, y, z'
loop_
 _atom_site_type_symbol
 _atom_site_label
 _atom_site_symmetry_multiplicity
 _atom_site_fract_x
 _atom_site_fract_y
 _atom_site_fract_z
 _atom_site_occupancy
  Ho  Ho0  1  0.000000  0.000000  0.251996  1
  Ho  Ho1  1  0.000000  0.000000  0.747100  1
  Ho  Ho2  1  0.508955  0.491045  0.253976  1
  Ho  Ho3  1  0.508955  0.017910  0.253976  1
  Ho  Ho4  1  0.982090  0.491045  0.253976  1
  Ho  Ho5  1  0.495466  0.504534  0.748026  1
  Ho  Ho6  1  0.495466  0.990933  0.748026  1
  Ho  Ho7  1  0.009067  0.504534  0.748026  1
  Co  Co8  1  0.333333  0.666667  0.466524  1
  Co  Co9  1  0.666667  0.333333  0.534452  1
  Co  Co10  1  0.666667  0.333333  0.965438  1
  Si  Si11  1  0.171996  0.828004  0.498875  1
  Si  Si12  1  0.171996  0.343992  0.498875  1
  Si  Si13  1  0.656008  0.828004  0.498875  1
  Si  Si14  1  0.829026  0.170974  0.501749  1
  Si  Si15  1  0.829026  0.658055  0.501749  1
  Si  Si16  1  0.341945  0.170974  0.501749  1
  Si  Si17  1  0.826953  0.173047  0.999729  1
  Si  Si18  1  0.826953  0.653907  0.999729  1
  Si  Si19  1  0.346093  0.173047  0.999729  1
  Si  Si20  1  0.163545  0.836455  0.999113  1
  Si  Si21  1  0.163545  0.327088  0.999113  1
  Si  Si22  1  0.672912  0.836455  0.999113  1
  Pt  Pt23  1  0.333333  0.666667  0.030083  1
