# generated using pymatgen
data_Cs3Pu2Cl9
_symmetry_space_group_name_H-M   'P 1'
_cell_length_a   10.05326179
_cell_length_b   10.05326181
_cell_length_c   10.05326232
_cell_angle_alpha   83.62957721
_cell_angle_beta   83.62957820
_cell_angle_gamma   83.62958110
_symmetry_Int_Tables_number   1
_chemical_formula_structural   Cs3Pu2Cl9
_chemical_formula_sum   'Cs6 Pu4 Cl18'
_cell_volume   998.53716675
_cell_formula_units_Z   2
loop_
 _symmetry_equiv_pos_site_id
 _symmetry_equiv_pos_as_xyz
  1  'x, y, z'
loop_
 _atom_site_type_symbol
 _atom_site_label
 _atom_site_symmetry_multiplicity
 _atom_site_fract_x
 _atom_site_fract_y
 _atom_site_fract_z
 _atom_site_occupancy
  Cs  Cs0  1  0.410461  0.089539  0.750000  1
  Cs  Cs1  1  0.750000  0.410461  0.089539  1
  Cs  Cs2  1  0.089539  0.750000  0.410461  1
  Cs  Cs3  1  0.250000  0.589539  0.910461  1
  Cs  Cs4  1  0.910461  0.250000  0.589539  1
  Cs  Cs5  1  0.589539  0.910461  0.250000  1
  Pu  Pu6  1  0.849126  0.849126  0.849126  1
  Pu  Pu7  1  0.349126  0.349126  0.349126  1
  Pu  Pu8  1  0.150874  0.150874  0.150874  1
  Pu  Pu9  1  0.650874  0.650874  0.650874  1
  Cl  Cl10  1  0.250000  0.097845  0.402155  1
  Cl  Cl11  1  0.402155  0.250000  0.097845  1
  Cl  Cl12  1  0.097845  0.402155  0.250000  1
  Cl  Cl13  1  0.902155  0.597845  0.750000  1
  Cl  Cl14  1  0.750000  0.902155  0.597845  1
  Cl  Cl15  1  0.597845  0.750000  0.902155  1
  Cl  Cl16  1  0.582556  0.232638  0.419922  1
  Cl  Cl17  1  0.419922  0.582556  0.232638  1
  Cl  Cl18  1  0.232638  0.419922  0.582556  1
  Cl  Cl19  1  0.919922  0.732638  0.082556  1
  Cl  Cl20  1  0.082556  0.919922  0.732638  1
  Cl  Cl21  1  0.732638  0.082556  0.919922  1
  Cl  Cl22  1  0.417444  0.767362  0.580078  1
  Cl  Cl23  1  0.580078  0.417444  0.767362  1
  Cl  Cl24  1  0.767362  0.580078  0.417444  1
  Cl  Cl25  1  0.080078  0.267362  0.917444  1
  Cl  Cl26  1  0.917444  0.080078  0.267362  1
  Cl  Cl27  1  0.267362  0.917444  0.080078  1
