# generated using pymatgen
data_CePr4Ho(SiPt5)2
_symmetry_space_group_name_H-M   'P 1'
_cell_length_a   8.39581419
_cell_length_b   8.37877002
_cell_length_c   8.37877054
_cell_angle_alpha   127.19945547
_cell_angle_beta   126.25155235
_cell_angle_gamma   78.65444165
_symmetry_Int_Tables_number   1
_chemical_formula_structural   CePr4Ho(SiPt5)2
_chemical_formula_sum   'Ce1 Pr4 Ho1 Si2 Pt10'
_cell_volume   366.55901914
_cell_formula_units_Z   1
loop_
 _symmetry_equiv_pos_site_id
 _symmetry_equiv_pos_as_xyz
  1  'x, y, z'
loop_
 _atom_site_type_symbol
 _atom_site_label
 _atom_site_symmetry_multiplicity
 _atom_site_fract_x
 _atom_site_fract_y
 _atom_site_fract_z
 _atom_site_occupancy
  Ce  Ce0  1  0.778419  0.050843  0.727577  1
  Pr  Pr1  1  0.612979  0.250280  0.362700  1
  Pr  Pr2  1  0.169089  0.450712  0.718378  1
  Pr  Pr3  1  0.385331  0.749127  0.636203  1
  Pr  Pr4  1  0.229715  0.949615  0.280100  1
  Ho  Ho5  1  0.823735  0.549861  0.273873  1
  Si  Si6  1  0.215163  0.251717  0.963446  1
  Si  Si7  1  0.789328  0.750131  0.039197  1
  Pt  Pt8  1  0.163620  0.904063  0.855548  1
  Pt  Pt9  1  0.828080  0.093668  0.130973  1
  Pt  Pt10  1  0.461042  0.196690  0.866788  1
  Pt  Pt11  1  0.550342  0.404585  0.743262  1
  Pt  Pt12  1  0.828080  0.697107  0.734412  1
  Pt  Pt13  1  0.461042  0.594255  0.264352  1
  Pt  Pt14  1  0.550342  0.807080  0.145757  1
  Pt  Pt15  1  0.163620  0.308072  0.259557  1
  Pt  Pt16  1  0.995036  0.997270  0.500110  1
  Pt  Pt17  1  0.995036  0.494926  0.997766  1
