# generated using pymatgen
data_Tb9Ho(SiB4)4
_symmetry_space_group_name_H-M   'P 1'
_cell_length_a   7.25343900
_cell_length_b   7.25343900
_cell_length_c   8.13130100
_cell_angle_alpha   90.00000000
_cell_angle_beta   90.00000000
_cell_angle_gamma   90.00000000
_symmetry_Int_Tables_number   1
_chemical_formula_structural   Tb9Ho(SiB4)4
_chemical_formula_sum   'Tb9 Ho1 Si4 B16'
_cell_volume   427.80707637
_cell_formula_units_Z   1
loop_
 _symmetry_equiv_pos_site_id
 _symmetry_equiv_pos_as_xyz
  1  'x, y, z'
loop_
 _atom_site_type_symbol
 _atom_site_label
 _atom_site_symmetry_multiplicity
 _atom_site_fract_x
 _atom_site_fract_y
 _atom_site_fract_z
 _atom_site_occupancy
  Tb  Tb0  1  0.680442  0.180205  0.224442  1
  Tb  Tb1  1  0.319558  0.819795  0.775558  1
  Tb  Tb2  1  0.319558  0.819795  0.224442  1
  Tb  Tb3  1  0.819795  0.680442  0.224442  1
  Tb  Tb4  1  0.819795  0.680442  0.775558  1
  Tb  Tb5  1  0.680442  0.180205  0.775558  1
  Tb  Tb6  1  0.180205  0.319558  0.775558  1
  Tb  Tb7  1  0.180205  0.319558  0.224442  1
  Tb  Tb8  1  0.500000  0.500000  0.500000  1
  Ho  Ho9  1  0.000000  0.000000  0.500000  1
  Si  Si10  1  0.114031  0.615343  0.500000  1
  Si  Si11  1  0.885969  0.384657  0.500000  1
  Si  Si12  1  0.384657  0.114031  0.500000  1
  Si  Si13  1  0.615343  0.885969  0.500000  1
  B  B14  1  0.172575  0.039101  0.000000  1
  B  B15  1  0.827425  0.960899  0.000000  1
  B  B16  1  0.960899  0.172575  0.000000  1
  B  B17  1  0.327422  0.539161  0.000000  1
  B  B18  1  0.039101  0.827425  0.000000  1
  B  B19  1  0.672578  0.460839  0.000000  1
  B  B20  1  0.539161  0.672578  0.000000  1
  B  B21  1  0.460839  0.327422  0.000000  1
  B  B22  1  0.090066  0.590011  0.000000  1
  B  B23  1  0.909934  0.409989  0.000000  1
  B  B24  1  0.409989  0.090066  0.000000  1
  B  B25  1  0.590011  0.909934  0.000000  1
  B  B26  1  0.000000  0.000000  0.161612  1
  B  B27  1  0.000000  0.000000  0.838388  1
  B  B28  1  0.500000  0.500000  0.838794  1
  B  B29  1  0.500000  0.500000  0.161206  1
