# generated using pymatgen
data_Li5Ti6AlRh12
_symmetry_space_group_name_H-M   'P 1'
_cell_length_a   4.29114100
_cell_length_b   6.02794900
_cell_length_c   12.81362300
_cell_angle_alpha   90.00000000
_cell_angle_beta   90.00016507
_cell_angle_gamma   90.00000000
_symmetry_Int_Tables_number   1
_chemical_formula_structural   Li5Ti6AlRh12
_chemical_formula_sum   'Li5 Ti6 Al1 Rh12'
_cell_volume   331.44715561
_cell_formula_units_Z   1
loop_
 _symmetry_equiv_pos_site_id
 _symmetry_equiv_pos_as_xyz
  1  'x, y, z'
loop_
 _atom_site_type_symbol
 _atom_site_label
 _atom_site_symmetry_multiplicity
 _atom_site_fract_x
 _atom_site_fract_y
 _atom_site_fract_z
 _atom_site_occupancy
  Li  Li0  1  0.999997  0.500000  0.000649  1
  Li  Li1  1  0.500169  0.000000  0.166944  1
  Li  Li2  1  0.000189  0.500000  0.333333  1
  Li  Li3  1  0.499995  0.000000  0.499714  1
  Li  Li4  1  0.999844  0.500000  0.666029  1
  Ti  Ti5  1  0.999993  0.000000  0.002833  1
  Ti  Ti6  1  0.499964  0.500000  0.169590  1
  Ti  Ti7  1  0.999932  0.000000  0.333340  1
  Ti  Ti8  1  0.499993  0.500000  0.497072  1
  Ti  Ti9  1  0.000055  0.000000  0.663825  1
  Ti  Ti10  1  0.500023  0.500000  0.833337  1
  Al  Al11  1  0.500019  0.000000  0.833335  1
  Rh  Rh12  1  0.499977  0.249764  0.999927  1
  Rh  Rh13  1  0.499977  0.750234  0.999927  1
  Rh  Rh14  1  0.000009  0.250854  0.166755  1
  Rh  Rh15  1  0.000009  0.749147  0.166755  1
  Rh  Rh16  1  0.499991  0.249058  0.333338  1
  Rh  Rh17  1  0.499991  0.750943  0.333338  1
  Rh  Rh18  1  0.000002  0.250855  0.499919  1
  Rh  Rh19  1  0.000002  0.749144  0.499919  1
  Rh  Rh20  1  0.499973  0.249749  0.666736  1
  Rh  Rh21  1  0.499973  0.750252  0.666736  1
  Rh  Rh22  1  0.999957  0.249887  0.833323  1
  Rh  Rh23  1  0.999957  0.750114  0.833323  1
