# generated using pymatgen
data_Y3Tm5Tc3OsC8
_symmetry_space_group_name_H-M   'P 1'
_cell_length_a   5.06261500
_cell_length_b   6.53729486
_cell_length_c   9.74634726
_cell_angle_alpha   89.70683124
_cell_angle_beta   90.00000000
_cell_angle_gamma   90.00000000
_symmetry_Int_Tables_number   1
_chemical_formula_structural   Y3Tm5Tc3OsC8
_chemical_formula_sum   'Y3 Tm5 Tc3 Os1 C8'
_cell_volume   322.55900566
_cell_formula_units_Z   1
loop_
 _symmetry_equiv_pos_site_id
 _symmetry_equiv_pos_as_xyz
  1  'x, y, z'
loop_
 _atom_site_type_symbol
 _atom_site_label
 _atom_site_symmetry_multiplicity
 _atom_site_fract_x
 _atom_site_fract_y
 _atom_site_fract_z
 _atom_site_occupancy
  Y  Y0  1  0.250000  0.532600  0.214299  1
  Y  Y1  1  0.750000  0.967556  0.712111  1
  Y  Y2  1  0.250000  0.032402  0.286384  1
  Tm  Tm3  1  0.250000  0.672668  0.558679  1
  Tm  Tm4  1  0.750000  0.324640  0.442264  1
  Tm  Tm5  1  0.750000  0.826543  0.057960  1
  Tm  Tm6  1  0.250000  0.173526  0.941398  1
  Tm  Tm7  1  0.750000  0.465681  0.785047  1
  Tc  Tc8  1  0.250000  0.718809  0.866273  1
  Tc  Tc9  1  0.750000  0.280821  0.132253  1
  Tc  Tc10  1  0.750000  0.778891  0.367760  1
  Os  Os11  1  0.250000  0.220170  0.634196  1
  C  C12  1  0.250000  0.451383  0.759512  1
  C  C13  1  0.750000  0.548779  0.240848  1
  C  C14  1  0.750000  0.049001  0.259707  1
  C  C15  1  0.250000  0.952713  0.740882  1
  C  C16  1  0.250000  0.827931  0.050347  1
  C  C17  1  0.750000  0.176318  0.947578  1
  C  C18  1  0.750000  0.670513  0.552581  1
  C  C19  1  0.250000  0.329055  0.449919  1
