# generated using pymatgen
data_LuPa3(CoGe)4
_symmetry_space_group_name_H-M   'P 1'
_cell_length_a   4.20674500
_cell_length_b   6.75482456
_cell_length_c   7.20032900
_cell_angle_alpha   90.24059834
_cell_angle_beta   90.00000000
_cell_angle_gamma   90.00000000
_symmetry_Int_Tables_number   1
_chemical_formula_structural   LuPa3(CoGe)4
_chemical_formula_sum   'Lu1 Pa3 Co4 Ge4'
_cell_volume   204.60148073
_cell_formula_units_Z   1
loop_
 _symmetry_equiv_pos_site_id
 _symmetry_equiv_pos_as_xyz
  1  'x, y, z'
loop_
 _atom_site_type_symbol
 _atom_site_label
 _atom_site_symmetry_multiplicity
 _atom_site_fract_x
 _atom_site_fract_y
 _atom_site_fract_z
 _atom_site_occupancy
  Lu  Lu0  1  0.750000  0.513378  0.794772  1
  Pa  Pa1  1  0.250000  0.988832  0.298556  1
  Pa  Pa2  1  0.250000  0.489113  0.206323  1
  Pa  Pa3  1  0.750000  0.012755  0.700998  1
  Co  Co4  1  0.250000  0.204259  0.918621  1
  Co  Co5  1  0.250000  0.728915  0.574095  1
  Co  Co6  1  0.750000  0.782477  0.086602  1
  Co  Co7  1  0.750000  0.278425  0.415473  1
  Ge  Ge8  1  0.250000  0.317856  0.594086  1
  Ge  Ge9  1  0.250000  0.805205  0.910470  1
  Ge  Ge10  1  0.750000  0.685450  0.419042  1
  Ge  Ge11  1  0.750000  0.193337  0.080961  1
