# generated using pymatgen
data_Ho5Tm15(Zn3Ru)2
_symmetry_space_group_name_H-M   'P 1'
_cell_length_a   9.29210522
_cell_length_b   9.29210860
_cell_length_c   9.51730300
_cell_angle_alpha   89.99990985
_cell_angle_beta   90.00023299
_cell_angle_gamma   119.97505713
_symmetry_Int_Tables_number   1
_chemical_formula_structural   Ho5Tm15(Zn3Ru)2
_chemical_formula_sum   'Ho5 Tm15 Zn6 Ru2'
_cell_volume   711.83940365
_cell_formula_units_Z   1
loop_
 _symmetry_equiv_pos_site_id
 _symmetry_equiv_pos_as_xyz
  1  'x, y, z'
loop_
 _atom_site_type_symbol
 _atom_site_label
 _atom_site_symmetry_multiplicity
 _atom_site_fract_x
 _atom_site_fract_y
 _atom_site_fract_z
 _atom_site_occupancy
  Ho  Ho0  1  0.540764  0.081982  0.250000  1
  Ho  Ho1  1  0.918011  0.459233  0.250000  1
  Ho  Ho2  1  0.459082  0.540918  0.750000  1
  Ho  Ho3  1  0.459127  0.918285  0.749995  1
  Ho  Ho4  1  0.081714  0.540873  0.750002  1
  Tm  Tm5  1  0.000004  0.999996  0.499998  1
  Tm  Tm6  1  0.000005  0.999997  0.000005  1
  Tm  Tm7  1  0.207719  0.792282  0.442078  1
  Tm  Tm8  1  0.207968  0.415472  0.441971  1
  Tm  Tm9  1  0.584528  0.792031  0.441976  1
  Tm  Tm10  1  0.792256  0.207745  0.557888  1
  Tm  Tm11  1  0.792080  0.584453  0.557792  1
  Tm  Tm12  1  0.415547  0.207920  0.557790  1
  Tm  Tm13  1  0.792255  0.207744  0.942111  1
  Tm  Tm14  1  0.792081  0.584453  0.942208  1
  Tm  Tm15  1  0.415548  0.207921  0.942210  1
  Tm  Tm16  1  0.207720  0.792283  0.057922  1
  Tm  Tm17  1  0.207969  0.415473  0.058028  1
  Tm  Tm18  1  0.584529  0.792032  0.058025  1
  Tm  Tm19  1  0.540842  0.459152  0.250002  1
  Zn  Zn20  1  0.886088  0.113911  0.249999  1
  Zn  Zn21  1  0.885788  0.771880  0.249999  1
  Zn  Zn22  1  0.228121  0.114213  0.250000  1
  Zn  Zn23  1  0.113946  0.886055  0.750001  1
  Zn  Zn24  1  0.114031  0.227884  0.750001  1
  Zn  Zn25  1  0.772114  0.885969  0.750000  1
  Ru  Ru26  1  0.333436  0.666575  0.250001  1
  Ru  Ru27  1  0.666727  0.333270  0.750000  1
