# generated using pymatgen
data_Cs6VWS8
_symmetry_space_group_name_H-M   'P 1'
_cell_length_a   9.95975900
_cell_length_b   10.02458600
_cell_length_c   11.79520000
_cell_angle_alpha   90.00000000
_cell_angle_beta   90.00000000
_cell_angle_gamma   90.00000000
_symmetry_Int_Tables_number   1
_chemical_formula_structural   Cs6VWS8
_chemical_formula_sum   'Cs12 V2 W2 S16'
_cell_volume   1177.66179168
_cell_formula_units_Z   2
loop_
 _symmetry_equiv_pos_site_id
 _symmetry_equiv_pos_as_xyz
  1  'x, y, z'
loop_
 _atom_site_type_symbol
 _atom_site_label
 _atom_site_symmetry_multiplicity
 _atom_site_fract_x
 _atom_site_fract_y
 _atom_site_fract_z
 _atom_site_occupancy
  Cs  Cs0  1  0.545598  0.210512  0.048544  1
  Cs  Cs1  1  0.045598  0.289488  0.451456  1
  Cs  Cs2  1  0.453686  0.791649  0.535073  1
  Cs  Cs3  1  0.953686  0.708351  0.964927  1
  Cs  Cs4  1  0.453686  0.791649  0.964927  1
  Cs  Cs5  1  0.953686  0.708351  0.535073  1
  Cs  Cs6  1  0.545598  0.210512  0.451456  1
  Cs  Cs7  1  0.045598  0.289488  0.048544  1
  Cs  Cs8  1  0.649734  0.414398  0.750000  1
  Cs  Cs9  1  0.149734  0.085602  0.750000  1
  Cs  Cs10  1  0.352131  0.585807  0.250000  1
  Cs  Cs11  1  0.852131  0.914193  0.250000  1
  V  V12  1  0.276817  0.016897  0.250000  1
  V  V13  1  0.776817  0.483103  0.250000  1
  W  W14  1  0.722794  0.982692  0.750000  1
  W  W15  1  0.222794  0.517308  0.750000  1
  S  S16  1  0.830884  0.048424  0.593543  1
  S  S17  1  0.330884  0.451576  0.906457  1
  S  S18  1  0.172002  0.953795  0.096707  1
  S  S19  1  0.672002  0.546205  0.403293  1
  S  S20  1  0.172002  0.953795  0.403293  1
  S  S21  1  0.672002  0.546205  0.096707  1
  S  S22  1  0.830884  0.048424  0.906457  1
  S  S23  1  0.330884  0.451576  0.593543  1
  S  S24  1  0.514778  0.068712  0.750000  1
  S  S25  1  0.014778  0.431288  0.750000  1
  S  S26  1  0.479936  0.934146  0.250000  1
  S  S27  1  0.979936  0.565854  0.250000  1
  S  S28  1  0.709446  0.759601  0.750000  1
  S  S29  1  0.209446  0.740399  0.750000  1
  S  S30  1  0.290025  0.234596  0.250000  1
  S  S31  1  0.790025  0.265404  0.250000  1
