# generated using pymatgen
data_Tb2P7(Ru5Rh)2
_symmetry_space_group_name_H-M   'P 1'
_cell_length_a   9.41343270
_cell_length_b   9.47748585
_cell_length_c   3.94420300
_cell_angle_alpha   90.00000000
_cell_angle_beta   90.00000000
_cell_angle_gamma   120.10974516
_symmetry_Int_Tables_number   1
_chemical_formula_structural   Tb2P7(Ru5Rh)2
_chemical_formula_sum   'Tb2 P7 Ru10 Rh2'
_cell_volume   304.40355750
_cell_formula_units_Z   1
loop_
 _symmetry_equiv_pos_site_id
 _symmetry_equiv_pos_as_xyz
  1  'x, y, z'
loop_
 _atom_site_type_symbol
 _atom_site_label
 _atom_site_symmetry_multiplicity
 _atom_site_fract_x
 _atom_site_fract_y
 _atom_site_fract_z
 _atom_site_occupancy
  Tb  Tb0  1  0.668088  0.332915  0.500000  1
  Tb  Tb1  1  0.329680  0.665225  0.000000  1
  P  P2  1  0.601467  0.715147  0.500000  1
  P  P3  1  0.999996  0.002247  0.000000  1
  P  P4  1  0.279890  0.882070  0.500000  1
  P  P5  1  0.112858  0.401556  0.500000  1
  P  P6  1  0.885435  0.577755  0.000000  1
  P  P7  1  0.423207  0.301987  0.000000  1
  P  P8  1  0.698061  0.118197  0.000000  1
  Ru  Ru9  1  0.913799  0.125902  0.500000  1
  Ru  Ru10  1  0.214864  0.088629  0.500000  1
  Ru  Ru11  1  0.875368  0.790181  0.500000  1
  Ru  Ru12  1  0.725844  0.889857  0.000000  1
  Ru  Ru13  1  0.108686  0.839520  0.000000  1
  Ru  Ru14  1  0.165362  0.273224  0.000000  1
  Ru  Ru15  1  0.430043  0.063594  0.000000  1
  Ru  Ru16  1  0.936393  0.362866  0.000000  1
  Ru  Ru17  1  0.636653  0.570537  0.000000  1
  Ru  Ru18  1  0.050757  0.610518  0.500000  1
  Rh  Rh19  1  0.552907  0.943267  0.500000  1
  Rh  Rh20  1  0.390646  0.444805  0.500000  1
