# generated using pymatgen
data_RbLiMnF6
_symmetry_space_group_name_H-M   'P 1'
_cell_length_a   10.54452600
_cell_length_b   5.66284790
_cell_length_c   9.03483487
_cell_angle_alpha   89.50470176
_cell_angle_beta   90.00000000
_cell_angle_gamma   90.00000000
_symmetry_Int_Tables_number   1
_chemical_formula_structural   RbLiMnF6
_chemical_formula_sum   'Rb4 Li4 Mn4 F24'
_cell_volume   539.46832616
_cell_formula_units_Z   4
loop_
 _symmetry_equiv_pos_site_id
 _symmetry_equiv_pos_as_xyz
  1  'x, y, z'
loop_
 _atom_site_type_symbol
 _atom_site_label
 _atom_site_symmetry_multiplicity
 _atom_site_fract_x
 _atom_site_fract_y
 _atom_site_fract_z
 _atom_site_occupancy
  Rb  Rb0  1  0.688175  0.298741  0.999068  1
  Rb  Rb1  1  0.188175  0.701259  0.500932  1
  Rb  Rb2  1  0.311825  0.701259  0.000932  1
  Rb  Rb3  1  0.811825  0.298741  0.499068  1
  Li  Li4  1  0.587987  0.759390  0.672846  1
  Li  Li5  1  0.087987  0.240610  0.827154  1
  Li  Li6  1  0.412013  0.240610  0.327154  1
  Li  Li7  1  0.912013  0.759390  0.172846  1
  Mn  Mn8  1  0.910906  0.765765  0.770237  1
  Mn  Mn9  1  0.410906  0.234235  0.729763  1
  Mn  Mn10  1  0.089094  0.234235  0.229763  1
  Mn  Mn11  1  0.589094  0.765765  0.270237  1
  F  F12  1  0.750929  0.633110  0.744502  1
  F  F13  1  0.250929  0.366890  0.755498  1
  F  F14  1  0.249071  0.366890  0.255498  1
  F  F15  1  0.749071  0.633110  0.244502  1
  F  F16  1  0.902069  0.689553  0.969769  1
  F  F17  1  0.402069  0.310447  0.530231  1
  F  F18  1  0.097931  0.310447  0.030231  1
  F  F19  1  0.597931  0.689553  0.469769  1
  F  F20  1  0.069618  0.903976  0.794622  1
  F  F21  1  0.569618  0.096024  0.705378  1
  F  F22  1  0.930382  0.096024  0.205378  1
  F  F23  1  0.430382  0.903976  0.294622  1
  F  F24  1  0.916080  0.825096  0.570998  1
  F  F25  1  0.416080  0.174904  0.929002  1
  F  F26  1  0.083920  0.174904  0.429002  1
  F  F27  1  0.583920  0.825096  0.070998  1
  F  F28  1  0.840424  0.053908  0.802215  1
  F  F29  1  0.340424  0.946092  0.697785  1
  F  F30  1  0.159576  0.946092  0.197785  1
  F  F31  1  0.659576  0.053908  0.302215  1
  F  F32  1  0.988004  0.476024  0.731090  1
  F  F33  1  0.488004  0.523976  0.768910  1
  F  F34  1  0.011996  0.523976  0.268910  1
  F  F35  1  0.511996  0.476024  0.231090  1
