# generated using pymatgen
data_Zr16AlCo4Rh3N4
_symmetry_space_group_name_H-M   'P 1'
_cell_length_a   8.69760524
_cell_length_b   8.69768483
_cell_length_c   8.69750512
_cell_angle_alpha   60.49293145
_cell_angle_beta   60.49370855
_cell_angle_gamma   60.49399198
_symmetry_Int_Tables_number   1
_chemical_formula_structural   Zr16AlCo4Rh3N4
_chemical_formula_sum   'Zr16 Al1 Co4 Rh3 N4'
_cell_volume   470.43603132
_cell_formula_units_Z   1
loop_
 _symmetry_equiv_pos_site_id
 _symmetry_equiv_pos_as_xyz
  1  'x, y, z'
loop_
 _atom_site_type_symbol
 _atom_site_label
 _atom_site_symmetry_multiplicity
 _atom_site_fract_x
 _atom_site_fract_y
 _atom_site_fract_z
 _atom_site_occupancy
  Zr  Zr0  1  0.068107  0.644922  0.644923  1
  Zr  Zr1  1  0.644907  0.068063  0.644944  1
  Zr  Zr2  1  0.644913  0.644950  0.068065  1
  Zr  Zr3  1  0.641166  0.641187  0.641193  1
  Zr  Zr4  1  0.814183  0.814158  0.186231  1
  Zr  Zr5  1  0.184865  0.184854  0.814837  1
  Zr  Zr6  1  0.814161  0.186238  0.814167  1
  Zr  Zr7  1  0.184859  0.814833  0.184843  1
  Zr  Zr8  1  0.186239  0.814160  0.814190  1
  Zr  Zr9  1  0.814831  0.184865  0.184860  1
  Zr  Zr10  1  0.433053  0.433057  0.061860  1
  Zr  Zr11  1  0.065309  0.065361  0.433255  1
  Zr  Zr12  1  0.433040  0.061903  0.433050  1
  Zr  Zr13  1  0.065318  0.433256  0.065328  1
  Zr  Zr14  1  0.061856  0.433054  0.433061  1
  Zr  Zr15  1  0.433248  0.065358  0.065314  1
  Al  Al16  1  0.426586  0.426574  0.426578  1
  Co  Co17  1  0.439750  0.854377  0.854384  1
  Co  Co18  1  0.854396  0.439744  0.854386  1
  Co  Co19  1  0.854390  0.854372  0.439762  1
  Co  Co20  1  0.852876  0.852858  0.852854  1
  Rh  Rh21  1  0.749666  0.416927  0.416931  1
  Rh  Rh22  1  0.416952  0.749611  0.416934  1
  Rh  Rh23  1  0.416938  0.416916  0.749650  1
  N  N24  1  0.621838  0.125755  0.125743  1
  N  N25  1  0.125753  0.621821  0.125756  1
  N  N26  1  0.125741  0.125755  0.621840  1
  N  N27  1  0.125065  0.125074  0.125067  1
