# generated using pymatgen
data_Sc3Ni16(P3Rh2)2
_symmetry_space_group_name_H-M   'P 1'
_cell_length_a   7.98226444
_cell_length_b   7.98226384
_cell_length_c   7.93782768
_cell_angle_alpha   60.63112199
_cell_angle_beta   60.63112078
_cell_angle_gamma   59.74346274
_symmetry_Int_Tables_number   1
_chemical_formula_structural   Sc3Ni16(P3Rh2)2
_chemical_formula_sum   'Sc3 Ni16 P6 Rh4'
_cell_volume   360.28973812
_cell_formula_units_Z   1
loop_
 _symmetry_equiv_pos_site_id
 _symmetry_equiv_pos_as_xyz
  1  'x, y, z'
loop_
 _atom_site_type_symbol
 _atom_site_label
 _atom_site_symmetry_multiplicity
 _atom_site_fract_x
 _atom_site_fract_y
 _atom_site_fract_z
 _atom_site_occupancy
  Sc  Sc0  1  0.749991  0.749991  0.757840  1
  Sc  Sc1  1  0.247346  0.247346  0.249753  1
  Sc  Sc2  1  0.003462  0.003462  0.998131  1
  Ni  Ni3  1  0.010197  0.345161  0.634959  1
  Ni  Ni4  1  0.849025  0.380416  0.385894  1
  Ni  Ni5  1  0.345161  0.010197  0.634959  1
  Ni  Ni6  1  0.991151  0.991151  0.359733  1
  Ni  Ni7  1  0.644233  0.341469  0.010553  1
  Ni  Ni8  1  0.001043  0.652864  0.345823  1
  Ni  Ni9  1  0.000070  0.000070  0.647836  1
  Ni  Ni10  1  0.341469  0.644233  0.010553  1
  Ni  Ni11  1  0.662895  0.000139  0.998099  1
  Ni  Ni12  1  0.000139  0.662895  0.998099  1
  Ni  Ni13  1  0.380416  0.849025  0.385894  1
  Ni  Ni14  1  0.610369  0.610369  0.163423  1
  Ni  Ni15  1  0.622446  0.149509  0.611981  1
  Ni  Ni16  1  0.149509  0.622446  0.611981  1
  Ni  Ni17  1  0.383447  0.383447  0.384566  1
  Ni  Ni18  1  0.652864  0.001043  0.345823  1
  P  P19  1  0.744903  0.260661  0.736347  1
  P  P20  1  0.261444  0.730290  0.271253  1
  P  P21  1  0.260661  0.744903  0.736347  1
  P  P22  1  0.266140  0.266140  0.724944  1
  P  P23  1  0.736201  0.736201  0.259715  1
  P  P24  1  0.730290  0.261444  0.271253  1
  Rh  Rh25  1  0.383539  0.383539  0.853533  1
  Rh  Rh26  1  0.623884  0.623884  0.616173  1
  Rh  Rh27  1  0.989606  0.358099  0.997268  1
  Rh  Rh28  1  0.358099  0.989606  0.997268  1
