# generated using pymatgen
data_Nd2YNiRh8
_symmetry_space_group_name_H-M   'P 1'
_cell_length_a   5.33217700
_cell_length_b   5.33217871
_cell_length_c   17.32962600
_cell_angle_alpha   90.00000000
_cell_angle_beta   90.00000000
_cell_angle_gamma   119.99998320
_symmetry_Int_Tables_number   1
_chemical_formula_structural   Nd2YNiRh8
_chemical_formula_sum   'Nd4 Y2 Ni2 Rh16'
_cell_volume   426.70639229
_cell_formula_units_Z   2
loop_
 _symmetry_equiv_pos_site_id
 _symmetry_equiv_pos_as_xyz
  1  'x, y, z'
loop_
 _atom_site_type_symbol
 _atom_site_label
 _atom_site_symmetry_multiplicity
 _atom_site_fract_x
 _atom_site_fract_y
 _atom_site_fract_z
 _atom_site_occupancy
  Nd  Nd0  1  0.333333  0.666667  0.957266  1
  Nd  Nd1  1  0.666667  0.333333  0.042734  1
  Nd  Nd2  1  0.333333  0.666667  0.748614  1
  Nd  Nd3  1  0.666667  0.333333  0.251386  1
  Y  Y4  1  0.666667  0.333333  0.458461  1
  Y  Y5  1  0.333333  0.666667  0.541539  1
  Ni  Ni6  1  0.333333  0.666667  0.251316  1
  Ni  Ni7  1  0.666667  0.333333  0.748684  1
  Rh  Rh8  1  0.168756  0.831244  0.374223  1
  Rh  Rh9  1  0.168756  0.337513  0.374223  1
  Rh  Rh10  1  0.662487  0.831244  0.374223  1
  Rh  Rh11  1  0.831244  0.168756  0.625777  1
  Rh  Rh12  1  0.831244  0.662487  0.625777  1
  Rh  Rh13  1  0.337513  0.168756  0.625777  1
  Rh  Rh14  1  0.831996  0.168004  0.870496  1
  Rh  Rh15  1  0.831996  0.663991  0.870496  1
  Rh  Rh16  1  0.336009  0.168004  0.870496  1
  Rh  Rh17  1  0.168004  0.831996  0.129504  1
  Rh  Rh18  1  0.168004  0.336009  0.129504  1
  Rh  Rh19  1  0.663991  0.831996  0.129504  1
  Rh  Rh20  1  0.000000  0.000000  0.251980  1
  Rh  Rh21  1  0.000000  0.000000  0.748020  1
  Rh  Rh22  1  0.000000  0.000000  0.500000  1
  Rh  Rh23  1  0.000000  0.000000  0.000000  1
