# generated using pymatgen
data_ZrSc2(GaNi)3
_symmetry_space_group_name_H-M   'P 1'
_cell_length_a   6.90229763
_cell_length_b   6.90229782
_cell_length_c   3.42711400
_cell_angle_alpha   90.00000000
_cell_angle_beta   90.00000000
_cell_angle_gamma   119.77223692
_symmetry_Int_Tables_number   1
_chemical_formula_structural   ZrSc2(GaNi)3
_chemical_formula_sum   'Zr1 Sc2 Ga3 Ni3'
_cell_volume   141.72247790
_cell_formula_units_Z   1
loop_
 _symmetry_equiv_pos_site_id
 _symmetry_equiv_pos_as_xyz
  1  'x, y, z'
loop_
 _atom_site_type_symbol
 _atom_site_label
 _atom_site_symmetry_multiplicity
 _atom_site_fract_x
 _atom_site_fract_y
 _atom_site_fract_z
 _atom_site_occupancy
  Zr  Zr0  1  0.590534  0.590534  0.500000  1
  Sc  Sc1  1  0.407048  0.000127  0.500000  1
  Sc  Sc2  1  0.000127  0.407048  0.500000  1
  Ga  Ga3  1  0.739683  0.002086  0.000000  1
  Ga  Ga4  1  0.002086  0.739683  0.000000  1
  Ga  Ga5  1  0.258680  0.258680  0.000000  1
  Ni  Ni6  1  0.335791  0.667040  0.000000  1
  Ni  Ni7  1  0.667040  0.335791  0.000000  1
  Ni  Ni8  1  0.999011  0.999011  0.500000  1
