# generated using pymatgen
data_Nd2DyIn4Hg
_symmetry_space_group_name_H-M   'P 1'
_cell_length_a   6.50099500
_cell_length_b   6.50099656
_cell_length_c   10.62708300
_cell_angle_alpha   90.00000000
_cell_angle_beta   90.00000000
_cell_angle_gamma   103.43853248
_symmetry_Int_Tables_number   1
_chemical_formula_structural   Nd2DyIn4Hg
_chemical_formula_sum   'Nd4 Dy2 In8 Hg2'
_cell_volume   436.83451866
_cell_formula_units_Z   2
loop_
 _symmetry_equiv_pos_site_id
 _symmetry_equiv_pos_as_xyz
  1  'x, y, z'
loop_
 _atom_site_type_symbol
 _atom_site_label
 _atom_site_symmetry_multiplicity
 _atom_site_fract_x
 _atom_site_fract_y
 _atom_site_fract_z
 _atom_site_occupancy
  Nd  Nd0  1  0.202717  0.797283  0.500000  1
  Nd  Nd1  1  0.202717  0.797283  0.000000  1
  Nd  Nd2  1  0.797283  0.202717  0.500000  1
  Nd  Nd3  1  0.797283  0.202717  0.000000  1
  Dy  Dy4  1  0.628440  0.628440  0.250000  1
  Dy  Dy5  1  0.371560  0.371560  0.750000  1
  In  In6  1  0.316566  0.316566  0.045324  1
  In  In7  1  0.683434  0.683434  0.954676  1
  In  In8  1  0.316566  0.316566  0.454676  1
  In  In9  1  0.683434  0.683434  0.545324  1
  In  In10  1  0.503459  0.074063  0.250000  1
  In  In11  1  0.925937  0.496541  0.750000  1
  In  In12  1  0.496541  0.925937  0.750000  1
  In  In13  1  0.074063  0.503459  0.250000  1
  Hg  Hg14  1  0.006005  0.006004  0.250000  1
  Hg  Hg15  1  0.993996  0.993995  0.750000  1
