# generated using pymatgen
data_Tb2YPd2RhPb3
_symmetry_space_group_name_H-M   'P 1'
_cell_length_a   7.85303337
_cell_length_b   7.85303315
_cell_length_c   3.85913300
_cell_angle_alpha   90.00000000
_cell_angle_beta   90.00000000
_cell_angle_gamma   120.12092284
_symmetry_Int_Tables_number   1
_chemical_formula_structural   Tb2YPd2RhPb3
_chemical_formula_sum   'Tb2 Y1 Pd2 Rh1 Pb3'
_cell_volume   205.85658969
_cell_formula_units_Z   1
loop_
 _symmetry_equiv_pos_site_id
 _symmetry_equiv_pos_as_xyz
  1  'x, y, z'
loop_
 _atom_site_type_symbol
 _atom_site_label
 _atom_site_symmetry_multiplicity
 _atom_site_fract_x
 _atom_site_fract_y
 _atom_site_fract_z
 _atom_site_occupancy
  Tb  Tb0  1  0.397579  0.000146  0.500000  1
  Tb  Tb1  1  0.000146  0.397579  0.500000  1
  Y  Y2  1  0.602856  0.602856  0.500000  1
  Pd  Pd3  1  0.332898  0.666458  0.000000  1
  Pd  Pd4  1  0.666458  0.332898  0.000000  1
  Rh  Rh5  1  0.999847  0.999847  0.500000  1
  Pb  Pb6  1  0.735178  0.999918  0.000000  1
  Pb  Pb7  1  0.999918  0.735178  0.000000  1
  Pb  Pb8  1  0.265121  0.265121  0.000000  1
