# generated using pymatgen
data_Na2PdO3
_symmetry_space_group_name_H-M   'P 1'
_cell_length_a   5.48395068
_cell_length_b   5.48396065
_cell_length_c   5.67860858
_cell_angle_alpha   99.49019267
_cell_angle_beta   99.48974586
_cell_angle_gamma   119.96449934
_symmetry_Int_Tables_number   1
_chemical_formula_structural   Na2PdO3
_chemical_formula_sum   'Na4 Pd2 O6'
_cell_volume   139.68427582
_cell_formula_units_Z   2
loop_
 _symmetry_equiv_pos_site_id
 _symmetry_equiv_pos_as_xyz
  1  'x, y, z'
loop_
 _atom_site_type_symbol
 _atom_site_label
 _atom_site_symmetry_multiplicity
 _atom_site_fract_x
 _atom_site_fract_y
 _atom_site_fract_z
 _atom_site_occupancy
  Na  Na0  1  0.000123  0.000047  0.000063  1
  Na  Na1  1  0.840515  0.159505  0.499972  1
  Na  Na2  1  0.500035  0.499922  0.499947  1
  Na  Na3  1  0.159528  0.840428  0.499928  1
  Pd  Pd4  1  0.666920  0.333061  0.000011  1
  Pd  Pd5  1  0.333006  0.666958  0.000029  1
  O  O6  1  0.435356  0.071040  0.209076  1
  O  O7  1  0.070844  0.435321  0.208948  1
  O  O8  1  0.708257  0.708360  0.210185  1
  O  O9  1  0.291686  0.291625  0.789752  1
  O  O10  1  0.929025  0.564644  0.791014  1
  O  O11  1  0.564703  0.929086  0.791081  1
