# generated using pymatgen
data_RbSb12RuRh3
_symmetry_space_group_name_H-M   'P 1'
_cell_length_a   8.18578662
_cell_length_b   8.18578552
_cell_length_c   8.18578534
_cell_angle_alpha   109.52939415
_cell_angle_beta   109.52941154
_cell_angle_gamma   109.52939859
_symmetry_Int_Tables_number   1
_chemical_formula_structural   RbSb12RuRh3
_chemical_formula_sum   'Rb1 Sb12 Ru1 Rh3'
_cell_volume   421.32787694
_cell_formula_units_Z   1
loop_
 _symmetry_equiv_pos_site_id
 _symmetry_equiv_pos_as_xyz
  1  'x, y, z'
loop_
 _atom_site_type_symbol
 _atom_site_label
 _atom_site_symmetry_multiplicity
 _atom_site_fract_x
 _atom_site_fract_y
 _atom_site_fract_z
 _atom_site_occupancy
  Rb  Rb0  1  0.000000  0.000000  0.000000  1
  Sb  Sb1  1  0.159240  0.499677  0.343862  1
  Sb  Sb2  1  0.500323  0.656138  0.840760  1
  Sb  Sb3  1  0.343640  0.843295  0.186886  1
  Sb  Sb4  1  0.813114  0.656360  0.156705  1
  Sb  Sb5  1  0.656138  0.840760  0.500323  1
  Sb  Sb6  1  0.186886  0.343640  0.843295  1
  Sb  Sb7  1  0.656360  0.156705  0.813114  1
  Sb  Sb8  1  0.343862  0.159240  0.499677  1
  Sb  Sb9  1  0.499677  0.343862  0.159240  1
  Sb  Sb10  1  0.840760  0.500323  0.656138  1
  Sb  Sb11  1  0.843295  0.186886  0.343640  1
  Sb  Sb12  1  0.156705  0.813114  0.656360  1
  Ru  Ru13  1  0.500000  0.500000  0.500000  1
  Rh  Rh14  1  0.500000  0.000000  0.000000  1
  Rh  Rh15  1  0.000000  0.500000  0.000000  1
  Rh  Rh16  1  0.000000  0.000000  0.500000  1
