# generated using pymatgen
data_LiNd6Cd22Sb
_symmetry_space_group_name_H-M   'P 1'
_cell_length_a   10.09953536
_cell_length_b   10.09953524
_cell_length_c   10.09953600
_cell_angle_alpha   59.99999750
_cell_angle_beta   59.99999789
_cell_angle_gamma   60.00000198
_symmetry_Int_Tables_number   1
_chemical_formula_structural   LiNd6Cd22Sb
_chemical_formula_sum   'Li1 Nd6 Cd22 Sb1'
_cell_volume   728.43230471
_cell_formula_units_Z   1
loop_
 _symmetry_equiv_pos_site_id
 _symmetry_equiv_pos_as_xyz
  1  'x, y, z'
loop_
 _atom_site_type_symbol
 _atom_site_label
 _atom_site_symmetry_multiplicity
 _atom_site_fract_x
 _atom_site_fract_y
 _atom_site_fract_z
 _atom_site_occupancy
  Li  Li0  1  0.500000  0.500000  0.500000  1
  Nd  Nd1  1  0.783932  0.783932  0.216068  1
  Nd  Nd2  1  0.216068  0.783932  0.216068  1
  Nd  Nd3  1  0.783932  0.216068  0.216068  1
  Nd  Nd4  1  0.216068  0.216068  0.783932  1
  Nd  Nd5  1  0.783932  0.216068  0.783932  1
  Nd  Nd6  1  0.216068  0.783932  0.783932  1
  Cd  Cd7  1  0.834766  0.834766  0.495702  1
  Cd  Cd8  1  0.834766  0.495702  0.834766  1
  Cd  Cd9  1  0.495702  0.834766  0.834766  1
  Cd  Cd10  1  0.834766  0.834766  0.834766  1
  Cd  Cd11  1  0.165234  0.165234  0.504298  1
  Cd  Cd12  1  0.165234  0.504298  0.165234  1
  Cd  Cd13  1  0.504298  0.165234  0.165234  1
  Cd  Cd14  1  0.165234  0.165234  0.165234  1
  Cd  Cd15  1  0.618456  0.618456  0.144634  1
  Cd  Cd16  1  0.618456  0.144634  0.618456  1
  Cd  Cd17  1  0.144634  0.618456  0.618456  1
  Cd  Cd18  1  0.618456  0.618456  0.618456  1
  Cd  Cd19  1  0.381544  0.381544  0.855366  1
  Cd  Cd20  1  0.381544  0.855366  0.381544  1
  Cd  Cd21  1  0.855366  0.381544  0.381544  1
  Cd  Cd22  1  0.381544  0.381544  0.381544  1
  Cd  Cd23  1  0.000000  0.000000  0.500000  1
  Cd  Cd24  1  0.500000  0.000000  0.500000  1
  Cd  Cd25  1  0.000000  0.500000  0.500000  1
  Cd  Cd26  1  0.500000  0.500000  0.000000  1
  Cd  Cd27  1  0.000000  0.500000  0.000000  1
  Cd  Cd28  1  0.500000  0.000000  0.000000  1
  Sb  Sb29  1  0.000000  0.000000  0.000000  1
