# generated using pymatgen
data_TbHo7(OsI4)2
_symmetry_space_group_name_H-M   'P 1'
_cell_length_a   11.08933268
_cell_length_b   11.10236416
_cell_length_c   6.18421031
_cell_angle_alpha   89.28235956
_cell_angle_beta   89.33700697
_cell_angle_gamma   88.52000070
_symmetry_Int_Tables_number   1
_chemical_formula_structural   TbHo7(OsI4)2
_chemical_formula_sum   'Tb1 Ho7 Os2 I8'
_cell_volume   761.02454604
_cell_formula_units_Z   1
loop_
 _symmetry_equiv_pos_site_id
 _symmetry_equiv_pos_as_xyz
  1  'x, y, z'
loop_
 _atom_site_type_symbol
 _atom_site_label
 _atom_site_symmetry_multiplicity
 _atom_site_fract_x
 _atom_site_fract_y
 _atom_site_fract_z
 _atom_site_occupancy
  Tb  Tb0  1  0.205812  0.914268  0.997150  1
  Ho  Ho1  1  0.797957  0.084300  0.003120  1
  Ho  Ho2  1  0.083732  0.798161  0.503492  1
  Ho  Ho3  1  0.915460  0.201721  0.496704  1
  Ho  Ho4  1  0.799976  0.921257  0.507096  1
  Ho  Ho5  1  0.199512  0.079389  0.493030  1
  Ho  Ho6  1  0.079129  0.199781  0.992913  1
  Ho  Ho7  1  0.921065  0.800225  0.007201  1
  Os  Os8  1  0.999940  0.000006  0.250105  1
  Os  Os9  1  0.999892  0.000060  0.749994  1
  I  I10  1  0.362753  0.842127  0.502560  1
  I  I11  1  0.636817  0.157952  0.496617  1
  I  I12  1  0.156477  0.635229  0.996506  1
  I  I13  1  0.841954  0.362913  0.003371  1
  I  I14  1  0.358845  0.151659  0.002870  1
  I  I15  1  0.641196  0.850805  0.997273  1
  I  I16  1  0.850528  0.641853  0.497321  1
  I  I17  1  0.148956  0.358294  0.502677  1
