# generated using pymatgen
data_MnCr2CoIr4
_symmetry_space_group_name_H-M   'P 1'
_cell_length_a   5.37843800
_cell_length_b   5.32027994
_cell_length_c   4.22555500
_cell_angle_alpha   90.00000000
_cell_angle_beta   90.00000000
_cell_angle_gamma   120.36227114
_symmetry_Int_Tables_number   1
_chemical_formula_structural   MnCr2CoIr4
_chemical_formula_sum   'Mn1 Cr2 Co1 Ir4'
_cell_volume   104.32972278
_cell_formula_units_Z   1
loop_
 _symmetry_equiv_pos_site_id
 _symmetry_equiv_pos_as_xyz
  1  'x, y, z'
loop_
 _atom_site_type_symbol
 _atom_site_label
 _atom_site_symmetry_multiplicity
 _atom_site_fract_x
 _atom_site_fract_y
 _atom_site_fract_z
 _atom_site_occupancy
  Mn  Mn0  1  0.166290  0.332578  0.250000  1
  Cr  Cr1  1  0.333922  0.667845  0.750000  1
  Cr  Cr2  1  0.670503  0.341004  0.250000  1
  Co  Co3  1  0.832120  0.664241  0.750000  1
  Ir  Ir4  1  0.664346  0.821049  0.250000  1
  Ir  Ir5  1  0.156704  0.821049  0.250000  1
  Ir  Ir6  1  0.338447  0.176116  0.750000  1
  Ir  Ir7  1  0.837670  0.176116  0.750000  1
