# generated using pymatgen
data_CrTe16
_symmetry_space_group_name_H-M   'P 1'
_cell_length_a   4.40151446
_cell_length_b   4.40151372
_cell_length_c   32.23063799
_cell_angle_alpha   86.08471001
_cell_angle_beta   86.08471033
_cell_angle_gamma   59.99999987
_symmetry_Int_Tables_number   1
_chemical_formula_structural   CrTe16
_chemical_formula_sum   'Cr1 Te16'
_cell_volume   539.07553063
_cell_formula_units_Z   1
loop_
 _symmetry_equiv_pos_site_id
 _symmetry_equiv_pos_as_xyz
  1  'x, y, z'
loop_
 _atom_site_type_symbol
 _atom_site_label
 _atom_site_symmetry_multiplicity
 _atom_site_fract_x
 _atom_site_fract_y
 _atom_site_fract_z
 _atom_site_occupancy
  Cr  Cr0  1  0.000000  0.000000  0.000000  1
  Te  Te1  1  0.294248  0.294248  0.117257  1
  Te  Te2  1  0.705752  0.705752  0.882743  1
  Te  Te3  1  0.234881  0.234881  0.295356  1
  Te  Te4  1  0.765119  0.765119  0.704644  1
  Te  Te5  1  0.470086  0.470086  0.589742  1
  Te  Te6  1  0.529914  0.529914  0.410258  1
  Te  Te7  1  0.346623  0.346623  0.960131  1
  Te  Te8  1  0.653377  0.653377  0.039869  1
  Te  Te9  1  0.056998  0.056998  0.829006  1
  Te  Te10  1  0.943002  0.943002  0.170994  1
  Te  Te11  1  0.409645  0.409645  0.771067  1
  Te  Te12  1  0.590355  0.590355  0.228933  1
  Te  Te13  1  0.116903  0.116903  0.649291  1
  Te  Te14  1  0.883097  0.883097  0.350709  1
  Te  Te15  1  0.175948  0.175948  0.472155  1
  Te  Te16  1  0.824052  0.824052  0.527845  1
