# generated using pymatgen
data_Pa3Ga3NiIr2
_symmetry_space_group_name_H-M   'P 1'
_cell_length_a   7.11450700
_cell_length_b   7.11450519
_cell_length_c   3.91940100
_cell_angle_alpha   90.00000000
_cell_angle_beta   90.00000000
_cell_angle_gamma   120.00000375
_symmetry_Int_Tables_number   1
_chemical_formula_structural   Pa3Ga3NiIr2
_chemical_formula_sum   'Pa3 Ga3 Ni1 Ir2'
_cell_volume   171.80659318
_cell_formula_units_Z   1
loop_
 _symmetry_equiv_pos_site_id
 _symmetry_equiv_pos_as_xyz
  1  'x, y, z'
loop_
 _atom_site_type_symbol
 _atom_site_label
 _atom_site_symmetry_multiplicity
 _atom_site_fract_x
 _atom_site_fract_y
 _atom_site_fract_z
 _atom_site_occupancy
  Pa  Pa0  1  0.588966  0.000000  0.500000  1
  Pa  Pa1  1  0.411034  0.411034  0.500000  1
  Pa  Pa2  1  0.000000  0.588966  0.500000  1
  Ga  Ga3  1  0.236281  0.000000  0.000000  1
  Ga  Ga4  1  0.763719  0.763719  0.000000  1
  Ga  Ga5  1  0.000000  0.236281  0.000000  1
  Ni  Ni6  1  0.000000  0.000000  0.500000  1
  Ir  Ir7  1  0.333333  0.666667  0.000000  1
  Ir  Ir8  1  0.666667  0.333333  0.000000  1
