# generated using pymatgen
data_Pr4Er6SnBi7
_symmetry_space_group_name_H-M   'P 1'
_cell_length_a   8.42641100
_cell_length_b   8.35896100
_cell_length_c   15.68339800
_cell_angle_alpha   90.00000000
_cell_angle_beta   90.00000000
_cell_angle_gamma   90.00000000
_symmetry_Int_Tables_number   1
_chemical_formula_structural   Pr4Er6SnBi7
_chemical_formula_sum   'Pr8 Er12 Sn2 Bi14'
_cell_volume   1104.67646328
_cell_formula_units_Z   2
loop_
 _symmetry_equiv_pos_site_id
 _symmetry_equiv_pos_as_xyz
  1  'x, y, z'
loop_
 _atom_site_type_symbol
 _atom_site_label
 _atom_site_symmetry_multiplicity
 _atom_site_fract_x
 _atom_site_fract_y
 _atom_site_fract_z
 _atom_site_occupancy
  Pr  Pr0  1  0.520562  0.322681  0.907106  1
  Pr  Pr1  1  0.020562  0.177319  0.592894  1
  Pr  Pr2  1  0.479548  0.680793  0.403458  1
  Pr  Pr3  1  0.979548  0.819207  0.096542  1
  Pr  Pr4  1  0.479548  0.680793  0.096542  1
  Pr  Pr5  1  0.979548  0.819207  0.403458  1
  Pr  Pr6  1  0.520562  0.322681  0.592894  1
  Pr  Pr7  1  0.020562  0.177319  0.907106  1
  Er  Er8  1  0.352247  0.850455  0.876706  1
  Er  Er9  1  0.852247  0.649545  0.623294  1
  Er  Er10  1  0.645203  0.149120  0.375001  1
  Er  Er11  1  0.145203  0.350880  0.124999  1
  Er  Er12  1  0.645203  0.149120  0.124999  1
  Er  Er13  1  0.145203  0.350880  0.375001  1
  Er  Er14  1  0.352247  0.850455  0.623294  1
  Er  Er15  1  0.852247  0.649545  0.876706  1
  Er  Er16  1  0.188988  0.498446  0.750000  1
  Er  Er17  1  0.688988  0.001554  0.750000  1
  Er  Er18  1  0.814516  0.507523  0.250000  1
  Er  Er19  1  0.314516  0.992477  0.250000  1
  Sn  Sn20  1  0.664276  0.847492  0.250000  1
  Sn  Sn21  1  0.164276  0.652508  0.250000  1
  Bi  Bi22  1  0.296377  0.043647  0.046453  1
  Bi  Bi23  1  0.796377  0.456353  0.453547  1
  Bi  Bi24  1  0.703270  0.957155  0.546197  1
  Bi  Bi25  1  0.203270  0.542845  0.953803  1
  Bi  Bi26  1  0.703270  0.957155  0.953803  1
  Bi  Bi27  1  0.203270  0.542845  0.546197  1
  Bi  Bi28  1  0.296377  0.043647  0.453547  1
  Bi  Bi29  1  0.796377  0.456353  0.046453  1
  Bi  Bi30  1  0.549223  0.634686  0.750000  1
  Bi  Bi31  1  0.049223  0.865314  0.750000  1
  Bi  Bi32  1  0.448584  0.370981  0.250000  1
  Bi  Bi33  1  0.948584  0.129019  0.250000  1
  Bi  Bi34  1  0.339997  0.154283  0.750000  1
  Bi  Bi35  1  0.839997  0.345717  0.750000  1
