# generated using pymatgen
data_PrTh(CoB)8
_symmetry_space_group_name_H-M   'P 1'
_cell_length_a   7.09565100
_cell_length_b   7.09565100
_cell_length_c   3.80389100
_cell_angle_alpha   90.00000000
_cell_angle_beta   90.00000000
_cell_angle_gamma   90.00000000
_symmetry_Int_Tables_number   1
_chemical_formula_structural   PrTh(CoB)8
_chemical_formula_sum   'Pr1 Th1 Co8 B8'
_cell_volume   191.51930492
_cell_formula_units_Z   1
loop_
 _symmetry_equiv_pos_site_id
 _symmetry_equiv_pos_as_xyz
  1  'x, y, z'
loop_
 _atom_site_type_symbol
 _atom_site_label
 _atom_site_symmetry_multiplicity
 _atom_site_fract_x
 _atom_site_fract_y
 _atom_site_fract_z
 _atom_site_occupancy
  Pr  Pr0  1  0.500000  0.500000  0.500000  1
  Th  Th1  1  0.000000  0.000000  0.000000  1
  Co  Co2  1  0.856909  0.383136  0.104236  1
  Co  Co3  1  0.143091  0.616864  0.104236  1
  Co  Co4  1  0.885003  0.645203  0.605975  1
  Co  Co5  1  0.114997  0.354797  0.605975  1
  Co  Co6  1  0.645203  0.114997  0.394025  1
  Co  Co7  1  0.354797  0.885003  0.394025  1
  Co  Co8  1  0.616864  0.856909  0.895764  1
  Co  Co9  1  0.383136  0.143091  0.895764  1
  B  B10  1  0.338624  0.796004  0.895893  1
  B  B11  1  0.661376  0.203996  0.895893  1
  B  B12  1  0.295888  0.161716  0.397826  1
  B  B13  1  0.704112  0.838284  0.397826  1
  B  B14  1  0.161716  0.704112  0.602174  1
  B  B15  1  0.838284  0.295888  0.602174  1
  B  B16  1  0.203996  0.338624  0.104107  1
  B  B17  1  0.796004  0.661376  0.104107  1
