# generated using pymatgen
data_Nd12CoNiRu2
_symmetry_space_group_name_H-M   'P 1'
_cell_length_a   6.40330612
_cell_length_b   7.30968033
_cell_length_c   9.93154100
_cell_angle_alpha   90.00000000
_cell_angle_beta   90.00000000
_cell_angle_gamma   90.01043356
_symmetry_Int_Tables_number   1
_chemical_formula_structural   Nd12CoNiRu2
_chemical_formula_sum   'Nd12 Co1 Ni1 Ru2'
_cell_volume   464.85690014
_cell_formula_units_Z   1
loop_
 _symmetry_equiv_pos_site_id
 _symmetry_equiv_pos_as_xyz
  1  'x, y, z'
loop_
 _atom_site_type_symbol
 _atom_site_label
 _atom_site_symmetry_multiplicity
 _atom_site_fract_x
 _atom_site_fract_y
 _atom_site_fract_z
 _atom_site_occupancy
  Nd  Nd0  1  0.357145  0.537310  0.250000  1
  Nd  Nd1  1  0.141120  0.039415  0.250000  1
  Nd  Nd2  1  0.648215  0.463347  0.750000  1
  Nd  Nd3  1  0.861946  0.954656  0.750000  1
  Nd  Nd4  1  0.826950  0.673141  0.067352  1
  Nd  Nd5  1  0.669866  0.174455  0.434625  1
  Nd  Nd6  1  0.173203  0.329876  0.570772  1
  Nd  Nd7  1  0.326252  0.824249  0.932363  1
  Nd  Nd8  1  0.173203  0.329876  0.929228  1
  Nd  Nd9  1  0.326252  0.824249  0.567637  1
  Nd  Nd10  1  0.826950  0.673141  0.432648  1
  Nd  Nd11  1  0.669866  0.174455  0.065375  1
  Co  Co12  1  0.065849  0.616894  0.750000  1
  Ni  Ni13  1  0.928947  0.384468  0.250000  1
  Ru  Ru14  1  0.564569  0.884288  0.250000  1
  Ru  Ru15  1  0.439668  0.116182  0.750000  1
