# generated using pymatgen
data_TbTl11F20
_symmetry_space_group_name_H-M   'P 1'
_cell_length_a   6.95818322
_cell_length_b   7.46277100
_cell_length_c   11.50606600
_cell_angle_alpha   90.00000000
_cell_angle_beta   90.07021391
_cell_angle_gamma   90.00000000
_symmetry_Int_Tables_number   1
_chemical_formula_structural   TbTl11F20
_chemical_formula_sum   'Tb1 Tl11 F20'
_cell_volume   597.47881433
_cell_formula_units_Z   1
loop_
 _symmetry_equiv_pos_site_id
 _symmetry_equiv_pos_as_xyz
  1  'x, y, z'
loop_
 _atom_site_type_symbol
 _atom_site_label
 _atom_site_symmetry_multiplicity
 _atom_site_fract_x
 _atom_site_fract_y
 _atom_site_fract_z
 _atom_site_occupancy
  Tb  Tb0  1  0.558651  0.750000  0.501561  1
  Tl  Tl1  1  0.529626  0.498533  0.829542  1
  Tl  Tl2  1  0.470274  0.502114  0.170572  1
  Tl  Tl3  1  0.032529  0.502275  0.672233  1
  Tl  Tl4  1  0.470274  0.997886  0.170572  1
  Tl  Tl5  1  0.971109  0.498018  0.327598  1
  Tl  Tl6  1  0.529626  0.001467  0.829542  1
  Tl  Tl7  1  0.971109  0.001982  0.327598  1
  Tl  Tl8  1  0.032529  0.997725  0.672233  1
  Tl  Tl9  1  0.440915  0.250000  0.498605  1
  Tl  Tl10  1  0.057347  0.250000  0.998800  1
  Tl  Tl11  1  0.941999  0.750000  0.001147  1
  F  F12  1  0.847273  0.750000  0.816687  1
  F  F13  1  0.151580  0.250000  0.183025  1
  F  F14  1  0.349191  0.250000  0.682732  1
  F  F15  1  0.651079  0.750000  0.315174  1
  F  F16  1  0.375955  0.750000  0.660194  1
  F  F17  1  0.621775  0.250000  0.343980  1
  F  F18  1  0.878244  0.250000  0.843179  1
  F  F19  1  0.121417  0.750000  0.157243  1
  F  F20  1  0.878323  0.750000  0.518408  1
  F  F21  1  0.122164  0.250000  0.482959  1
  F  F22  1  0.377235  0.250000  0.982829  1
  F  F23  1  0.621886  0.750000  0.016666  1
  F  F24  1  0.642727  0.032540  0.571977  1
  F  F25  1  0.356841  0.961911  0.426057  1
  F  F26  1  0.145674  0.963297  0.926091  1
  F  F27  1  0.356841  0.538089  0.426057  1
  F  F28  1  0.853699  0.036417  0.074339  1
  F  F29  1  0.642727  0.467460  0.571977  1
  F  F30  1  0.853699  0.463583  0.074339  1
  F  F31  1  0.145674  0.536703  0.926091  1
