# generated using pymatgen
data_Th5(Hg2Pt)2
_symmetry_space_group_name_H-M   'P 1'
_cell_length_a   3.76640200
_cell_length_b   8.19324900
_cell_length_c   18.77289100
_cell_angle_alpha   90.00000000
_cell_angle_beta   90.00000000
_cell_angle_gamma   90.00000000
_symmetry_Int_Tables_number   1
_chemical_formula_structural   Th5(Hg2Pt)2
_chemical_formula_sum   'Th10 Hg8 Pt4'
_cell_volume   579.31394658
_cell_formula_units_Z   2
loop_
 _symmetry_equiv_pos_site_id
 _symmetry_equiv_pos_as_xyz
  1  'x, y, z'
loop_
 _atom_site_type_symbol
 _atom_site_label
 _atom_site_symmetry_multiplicity
 _atom_site_fract_x
 _atom_site_fract_y
 _atom_site_fract_z
 _atom_site_occupancy
  Th  Th0  1  0.000000  0.119255  0.418059  1
  Th  Th1  1  0.000000  0.880745  0.581941  1
  Th  Th2  1  0.000000  0.380745  0.918059  1
  Th  Th3  1  0.000000  0.619255  0.081941  1
  Th  Th4  1  0.000000  0.239534  0.218831  1
  Th  Th5  1  0.000000  0.760466  0.781169  1
  Th  Th6  1  0.000000  0.260466  0.718831  1
  Th  Th7  1  0.000000  0.739534  0.281169  1
  Th  Th8  1  0.000000  0.000000  0.000000  1
  Th  Th9  1  0.000000  0.500000  0.500000  1
  Hg  Hg10  1  0.500000  0.427219  0.353899  1
  Hg  Hg11  1  0.500000  0.572781  0.646101  1
  Hg  Hg12  1  0.500000  0.072781  0.853899  1
  Hg  Hg13  1  0.500000  0.927219  0.146101  1
  Hg  Hg14  1  0.500000  0.288821  0.067681  1
  Hg  Hg15  1  0.500000  0.711179  0.932319  1
  Hg  Hg16  1  0.500000  0.211179  0.567681  1
  Hg  Hg17  1  0.500000  0.788821  0.432319  1
  Pt  Pt18  1  0.500000  0.027345  0.302164  1
  Pt  Pt19  1  0.500000  0.972655  0.697836  1
  Pt  Pt20  1  0.500000  0.472655  0.802164  1
  Pt  Pt21  1  0.500000  0.527345  0.197836  1
