# generated using pymatgen
data_Yb7Sn2GeN2
_symmetry_space_group_name_H-M   'P 1'
_cell_length_a   12.03778221
_cell_length_b   12.03778099
_cell_length_c   4.82340000
_cell_angle_alpha   90.00000000
_cell_angle_beta   90.00000000
_cell_angle_gamma   156.77986722
_symmetry_Int_Tables_number   1
_chemical_formula_structural   Yb7Sn2GeN2
_chemical_formula_sum   'Yb7 Sn2 Ge1 N2'
_cell_volume   275.57147630
_cell_formula_units_Z   1
loop_
 _symmetry_equiv_pos_site_id
 _symmetry_equiv_pos_as_xyz
  1  'x, y, z'
loop_
 _atom_site_type_symbol
 _atom_site_label
 _atom_site_symmetry_multiplicity
 _atom_site_fract_x
 _atom_site_fract_y
 _atom_site_fract_z
 _atom_site_occupancy
  Yb  Yb0  1  0.907467  0.092533  0.000000  1
  Yb  Yb1  1  0.698137  0.301863  0.000000  1
  Yb  Yb2  1  0.500000  0.500000  0.000000  1
  Yb  Yb3  1  0.301863  0.698137  0.000000  1
  Yb  Yb4  1  0.092533  0.907467  0.000000  1
  Yb  Yb5  1  0.594034  0.405966  0.500000  1
  Yb  Yb6  1  0.405966  0.594034  0.500000  1
  Sn  Sn7  1  0.790562  0.209437  0.500000  1
  Sn  Sn8  1  0.209437  0.790562  0.500000  1
  Ge  Ge9  1  0.000000  0.000000  0.500000  1
  N  N10  1  0.603214  0.396785  0.000000  1
  N  N11  1  0.396785  0.603214  0.000000  1
