# generated using pymatgen
data_Nb12Ga8Fe4C3N
_symmetry_space_group_name_H-M   'P 1'
_cell_length_a   8.19365335
_cell_length_b   8.21036875
_cell_length_c   8.21037000
_cell_angle_alpha   60.00000303
_cell_angle_beta   59.93249602
_cell_angle_gamma   59.93249406
_symmetry_Int_Tables_number   1
_chemical_formula_structural   Nb12Ga8Fe4C3N
_chemical_formula_sum   'Nb12 Ga8 Fe4 C3 N1'
_cell_volume   390.16122806
_cell_formula_units_Z   1
loop_
 _symmetry_equiv_pos_site_id
 _symmetry_equiv_pos_as_xyz
  1  'x, y, z'
loop_
 _atom_site_type_symbol
 _atom_site_label
 _atom_site_symmetry_multiplicity
 _atom_site_fract_x
 _atom_site_fract_y
 _atom_site_fract_z
 _atom_site_occupancy
  Nb  Nb0  1  0.803970  0.804500  0.195765  1
  Nb  Nb1  1  0.197153  0.196333  0.803257  1
  Nb  Nb2  1  0.803970  0.195765  0.804500  1
  Nb  Nb3  1  0.197153  0.803257  0.196333  1
  Nb  Nb4  1  0.197153  0.803257  0.803257  1
  Nb  Nb5  1  0.803970  0.195765  0.195765  1
  Nb  Nb6  1  0.446030  0.445500  0.054235  1
  Nb  Nb7  1  0.052847  0.053667  0.446743  1
  Nb  Nb8  1  0.446030  0.054235  0.445500  1
  Nb  Nb9  1  0.052847  0.446743  0.053667  1
  Nb  Nb10  1  0.052847  0.446743  0.446743  1
  Nb  Nb11  1  0.446030  0.054235  0.054235  1
  Ga  Ga12  1  0.752189  0.415938  0.415938  1
  Ga  Ga13  1  0.415639  0.751740  0.416311  1
  Ga  Ga14  1  0.415639  0.416311  0.751740  1
  Ga  Ga15  1  0.415639  0.416311  0.416311  1
  Ga  Ga16  1  0.497811  0.834062  0.834062  1
  Ga  Ga17  1  0.834361  0.498260  0.833689  1
  Ga  Ga18  1  0.834361  0.833689  0.498260  1
  Ga  Ga19  1  0.834361  0.833689  0.833689  1
  Fe  Fe20  1  0.125000  0.625000  0.625000  1
  Fe  Fe21  1  0.625000  0.125000  0.625000  1
  Fe  Fe22  1  0.625000  0.625000  0.125000  1
  Fe  Fe23  1  0.625000  0.625000  0.625000  1
  C  C24  1  0.125000  0.625000  0.125000  1
  C  C25  1  0.125000  0.125000  0.625000  1
  C  C26  1  0.125000  0.125000  0.125000  1
  N  N27  1  0.625000  0.125000  0.125000  1
