# generated using pymatgen
data_Nd3Y3(CoSn6)2
_symmetry_space_group_name_H-M   'P 1'
_cell_length_a   8.52272662
_cell_length_b   8.52272741
_cell_length_c   13.29892221
_cell_angle_alpha   89.96843407
_cell_angle_beta   90.03156545
_cell_angle_gamma   148.67866415
_symmetry_Int_Tables_number   1
_chemical_formula_structural   Nd3Y3(CoSn6)2
_chemical_formula_sum   'Nd3 Y3 Co2 Sn12'
_cell_volume   502.15863559
_cell_formula_units_Z   1
loop_
 _symmetry_equiv_pos_site_id
 _symmetry_equiv_pos_as_xyz
  1  'x, y, z'
loop_
 _atom_site_type_symbol
 _atom_site_label
 _atom_site_symmetry_multiplicity
 _atom_site_fract_x
 _atom_site_fract_y
 _atom_site_fract_z
 _atom_site_occupancy
  Nd  Nd0  1  0.099164  0.900836  0.591611  1
  Nd  Nd1  1  0.099035  0.900965  0.909142  1
  Nd  Nd2  1  0.900704  0.099296  0.406807  1
  Y  Y3  1  0.899495  0.100505  0.092473  1
  Y  Y4  1  0.899131  0.100869  0.751407  1
  Y  Y5  1  0.100979  0.899021  0.248471  1
  Co  Co6  1  0.298190  0.701810  0.249200  1
  Co  Co7  1  0.702590  0.297410  0.750971  1
  Sn  Sn8  1  0.754214  0.245786  0.571752  1
  Sn  Sn9  1  0.427897  0.572103  0.579772  1
  Sn  Sn10  1  0.571471  0.428529  0.419211  1
  Sn  Sn11  1  0.734756  0.265244  0.249147  1
  Sn  Sn12  1  0.265855  0.734145  0.750438  1
  Sn  Sn13  1  0.247131  0.752869  0.071273  1
  Sn  Sn14  1  0.245814  0.754186  0.427767  1
  Sn  Sn15  1  0.571632  0.428368  0.079011  1
  Sn  Sn16  1  0.452702  0.547298  0.246958  1
  Sn  Sn17  1  0.546682  0.453318  0.750948  1
  Sn  Sn18  1  0.755424  0.244576  0.929584  1
  Sn  Sn19  1  0.427133  0.572867  0.924056  1
