# generated using pymatgen
data_Sm8Nb3Si16W9
_symmetry_space_group_name_H-M   'P 1'
_cell_length_a   6.98350151
_cell_length_b   6.98350151
_cell_length_c   13.02195806
_cell_angle_alpha   90.00771896
_cell_angle_beta   89.99228104
_cell_angle_gamma   89.95671359
_symmetry_Int_Tables_number   1
_chemical_formula_structural   Sm8Nb3Si16W9
_chemical_formula_sum   'Sm8 Nb3 Si16 W9'
_cell_volume   635.07150042
_cell_formula_units_Z   1
loop_
 _symmetry_equiv_pos_site_id
 _symmetry_equiv_pos_as_xyz
  1  'x, y, z'
loop_
 _atom_site_type_symbol
 _atom_site_label
 _atom_site_symmetry_multiplicity
 _atom_site_fract_x
 _atom_site_fract_y
 _atom_site_fract_z
 _atom_site_occupancy
  Sm  Sm0  1  0.000008  0.334672  0.218782  1
  Sm  Sm1  1  0.001696  0.664483  0.719840  1
  Sm  Sm2  1  0.164317  0.499036  0.468904  1
  Sm  Sm3  1  0.499872  0.836656  0.031038  1
  Sm  Sm4  1  0.836656  0.499872  0.968962  1
  Sm  Sm5  1  0.499036  0.164317  0.531096  1
  Sm  Sm6  1  0.334672  0.000008  0.781218  1
  Sm  Sm7  1  0.664483  0.001696  0.280160  1
  Nb  Nb8  1  0.833476  0.833476  0.500000  1
  Nb  Nb9  1  0.331990  0.666736  0.248452  1
  Nb  Nb10  1  0.666736  0.331990  0.751548  1
  Si  Si11  1  0.287076  0.039740  0.184977  1
  Si  Si12  1  0.711789  0.962238  0.686983  1
  Si  Si13  1  0.462033  0.789133  0.437008  1
  Si  Si14  1  0.212923  0.532233  0.060580  1
  Si  Si15  1  0.532233  0.212923  0.939420  1
  Si  Si16  1  0.789133  0.462033  0.562992  1
  Si  Si17  1  0.039740  0.287076  0.815023  1
  Si  Si18  1  0.962238  0.711789  0.313017  1
  Si  Si19  1  0.376751  0.296749  0.315022  1
  Si  Si20  1  0.623212  0.703953  0.814904  1
  Si  Si21  1  0.202186  0.876569  0.564873  1
  Si  Si22  1  0.121830  0.802528  0.936113  1
  Si  Si23  1  0.802528  0.121830  0.063887  1
  Si  Si24  1  0.876569  0.202186  0.435127  1
  Si  Si25  1  0.296749  0.376751  0.684978  1
  Si  Si26  1  0.703953  0.623212  0.185096  1
  W  W27  1  0.165904  0.165904  0.000000  1
  W  W28  1  0.164465  0.996580  0.374770  1
  W  W29  1  0.831574  0.004746  0.874925  1
  W  W30  1  0.505192  0.663522  0.624932  1
  W  W31  1  0.336823  0.497309  0.873600  1
  W  W32  1  0.497309  0.336823  0.126400  1
  W  W33  1  0.663522  0.505192  0.375068  1
  W  W34  1  0.996580  0.164465  0.625230  1
  W  W35  1  0.004746  0.831574  0.125075  1
