# generated using pymatgen
data_Ac8Si15Ag
_symmetry_space_group_name_H-M   'P 1'
_cell_length_a   8.43518900
_cell_length_b   8.43518878
_cell_length_c   9.24420200
_cell_angle_alpha   90.00000000
_cell_angle_beta   90.00000000
_cell_angle_gamma   119.99999692
_symmetry_Int_Tables_number   1
_chemical_formula_structural   Ac8Si15Ag
_chemical_formula_sum   'Ac8 Si15 Ag1'
_cell_volume   569.62585937
_cell_formula_units_Z   1
loop_
 _symmetry_equiv_pos_site_id
 _symmetry_equiv_pos_as_xyz
  1  'x, y, z'
loop_
 _atom_site_type_symbol
 _atom_site_label
 _atom_site_symmetry_multiplicity
 _atom_site_fract_x
 _atom_site_fract_y
 _atom_site_fract_z
 _atom_site_occupancy
  Ac  Ac0  1  0.000000  0.000000  0.747462  1
  Ac  Ac1  1  0.000000  0.000000  0.252721  1
  Ac  Ac2  1  0.497114  0.502886  0.745229  1
  Ac  Ac3  1  0.497114  0.994230  0.745229  1
  Ac  Ac4  1  0.005770  0.502886  0.745229  1
  Ac  Ac5  1  0.497916  0.502084  0.254661  1
  Ac  Ac6  1  0.004169  0.502084  0.254661  1
  Ac  Ac7  1  0.497916  0.995831  0.254661  1
  Si  Si8  1  0.836968  0.163032  0.000370  1
  Si  Si9  1  0.836968  0.673936  0.000370  1
  Si  Si10  1  0.326064  0.163032  0.000370  1
  Si  Si11  1  0.834039  0.165961  0.500155  1
  Si  Si12  1  0.834039  0.668080  0.500155  1
  Si  Si13  1  0.331920  0.165961  0.500155  1
  Si  Si14  1  0.166369  0.833631  0.499908  1
  Si  Si15  1  0.667262  0.833631  0.499908  1
  Si  Si16  1  0.166369  0.332738  0.499908  1
  Si  Si17  1  0.165612  0.834388  0.000007  1
  Si  Si18  1  0.668775  0.834388  0.000007  1
  Si  Si19  1  0.165612  0.331225  0.000007  1
  Si  Si20  1  0.666667  0.333333  0.501567  1
  Si  Si21  1  0.333333  0.666667  0.498657  1
  Si  Si22  1  0.333333  0.666667  0.000993  1
  Ag  Ag23  1  0.666667  0.333333  0.997611  1
