# generated using pymatgen
data_La6Pr10Mg3HgIr4
_symmetry_space_group_name_H-M   'P 1'
_cell_length_a   10.05716431
_cell_length_b   10.13901197
_cell_length_c   10.13901241
_cell_angle_alpha   59.52453993
_cell_angle_beta   60.33127891
_cell_angle_gamma   60.33127475
_symmetry_Int_Tables_number   1
_chemical_formula_structural   La6Pr10Mg3HgIr4
_chemical_formula_sum   'La6 Pr10 Mg3 Hg1 Ir4'
_cell_volume   731.99522800
_cell_formula_units_Z   1
loop_
 _symmetry_equiv_pos_site_id
 _symmetry_equiv_pos_as_xyz
  1  'x, y, z'
loop_
 _atom_site_type_symbol
 _atom_site_label
 _atom_site_symmetry_multiplicity
 _atom_site_fract_x
 _atom_site_fract_y
 _atom_site_fract_z
 _atom_site_occupancy
  La  La0  1  0.343764  0.346563  0.346563  1
  La  La1  1  0.348403  0.344857  0.959808  1
  La  La2  1  0.348403  0.959808  0.344857  1
  La  La3  1  0.960538  0.347635  0.347635  1
  La  La4  1  0.813398  0.186123  0.186123  1
  La  La5  1  0.186826  0.811376  0.811376  1
  Pr  Pr6  1  0.189072  0.810329  0.189135  1
  Pr  Pr7  1  0.806811  0.191288  0.807526  1
  Pr  Pr8  1  0.189072  0.189135  0.810329  1
  Pr  Pr9  1  0.806811  0.807526  0.191288  1
  Pr  Pr10  1  0.936559  0.563240  0.563240  1
  Pr  Pr11  1  0.561278  0.935629  0.935629  1
  Pr  Pr12  1  0.561080  0.937724  0.561313  1
  Pr  Pr13  1  0.937881  0.560413  0.937954  1
  Pr  Pr14  1  0.561080  0.561313  0.937724  1
  Pr  Pr15  1  0.937881  0.937954  0.560413  1
  Mg  Mg16  1  0.578571  0.579751  0.266525  1
  Mg  Mg17  1  0.578571  0.266525  0.579751  1
  Mg  Mg18  1  0.266592  0.578690  0.578690  1
  Hg  Hg19  1  0.583673  0.581777  0.581777  1
  Ir  Ir20  1  0.136961  0.144197  0.144197  1
  Ir  Ir21  1  0.145435  0.137719  0.575218  1
  Ir  Ir22  1  0.145435  0.575218  0.137719  1
  Ir  Ir23  1  0.575905  0.145207  0.145207  1
