# generated using pymatgen
data_Cd4HgIr3O14
_symmetry_space_group_name_H-M   'P 1'
_cell_length_a   7.43897925
_cell_length_b   7.31790646
_cell_length_c   7.31790700
_cell_angle_alpha   120.00000697
_cell_angle_beta   119.46306372
_cell_angle_gamma   60.53693983
_symmetry_Int_Tables_number   1
_chemical_formula_structural   Cd4HgIr3O14
_chemical_formula_sum   'Cd4 Hg1 Ir3 O14'
_cell_volume   283.95495494
_cell_formula_units_Z   1
loop_
 _symmetry_equiv_pos_site_id
 _symmetry_equiv_pos_as_xyz
  1  'x, y, z'
loop_
 _atom_site_type_symbol
 _atom_site_label
 _atom_site_symmetry_multiplicity
 _atom_site_fract_x
 _atom_site_fract_y
 _atom_site_fract_z
 _atom_site_occupancy
  Cd  Cd0  1  0.000000  0.000000  0.000000  1
  Cd  Cd1  1  0.500000  0.000000  0.000000  1
  Cd  Cd2  1  0.000000  0.500000  0.000000  1
  Cd  Cd3  1  0.000000  0.000000  0.500001  1
  Hg  Hg4  1  0.000000  0.499999  0.499999  1
  Ir  Ir5  1  0.500000  0.500000  0.000000  1
  Ir  Ir6  1  0.500000  0.500000  0.499999  1
  Ir  Ir7  1  0.499999  0.000000  0.499999  1
  O  O8  1  0.861906  0.879366  0.120636  1
  O  O9  1  0.815451  0.402266  0.119985  1
  O  O10  1  0.481872  0.808063  0.191934  1
  O  O11  1  0.481873  0.401998  0.191936  1
  O  O12  1  0.518127  0.191936  0.401996  1
  O  O13  1  0.184548  0.597733  0.402265  1
  O  O14  1  0.184547  0.119986  0.402267  1
  O  O15  1  0.815452  0.402267  0.597734  1
  O  O16  1  0.481873  0.808064  0.598003  1
  O  O17  1  0.815452  0.880013  0.597734  1
  O  O18  1  0.518127  0.191936  0.808064  1
  O  O19  1  0.184548  0.597733  0.880013  1
  O  O20  1  0.518128  0.598003  0.808064  1
  O  O21  1  0.138094  0.120634  0.879365  1
