# generated using pymatgen
data_Nb5Cr(Co3P2)6
_symmetry_space_group_name_H-M   'P 1'
_cell_length_a   11.73472410
_cell_length_b   11.73472296
_cell_length_c   3.56313400
_cell_angle_alpha   90.00000000
_cell_angle_beta   90.00000000
_cell_angle_gamma   120.00982896
_symmetry_Int_Tables_number   1
_chemical_formula_structural   Nb5Cr(Co3P2)6
_chemical_formula_sum   'Nb5 Cr1 Co18 P12'
_cell_volume   424.87921738
_cell_formula_units_Z   1
loop_
 _symmetry_equiv_pos_site_id
 _symmetry_equiv_pos_as_xyz
  1  'x, y, z'
loop_
 _atom_site_type_symbol
 _atom_site_label
 _atom_site_symmetry_multiplicity
 _atom_site_fract_x
 _atom_site_fract_y
 _atom_site_fract_z
 _atom_site_occupancy
  Nb  Nb0  1  0.666489  0.334094  0.000000  1
  Nb  Nb1  1  0.334094  0.666489  0.000000  1
  Nb  Nb2  1  0.178971  0.178971  0.500000  1
  Nb  Nb3  1  0.819818  0.999662  0.500000  1
  Nb  Nb4  1  0.999662  0.819818  0.500000  1
  Cr  Cr5  1  0.552854  0.552854  0.000000  1
  Co  Co6  1  0.452862  0.999591  0.000000  1
  Co  Co7  1  0.999591  0.452862  0.000000  1
  Co  Co8  1  0.819299  0.196395  0.000000  1
  Co  Co9  1  0.805452  0.623836  0.000000  1
  Co  Co10  1  0.376453  0.179775  0.000000  1
  Co  Co11  1  0.196395  0.819299  0.000000  1
  Co  Co12  1  0.623836  0.805452  0.000000  1
  Co  Co13  1  0.179775  0.376453  0.000000  1
  Co  Co14  1  0.644657  0.128098  0.500000  1
  Co  Co15  1  0.873015  0.516824  0.500000  1
  Co  Co16  1  0.481775  0.353661  0.500000  1
  Co  Co17  1  0.128098  0.644657  0.500000  1
  Co  Co18  1  0.516824  0.873015  0.500000  1
  Co  Co19  1  0.353661  0.481775  0.500000  1
  Co  Co20  1  0.718459  0.718459  0.500000  1
  Co  Co21  1  0.282285  0.999781  0.500000  1
  Co  Co22  1  0.999781  0.282285  0.500000  1
  Co  Co23  1  0.000081  0.000081  0.000000  1
  P  P24  1  0.355186  0.355186  0.000000  1
  P  P25  1  0.640797  0.001066  0.000000  1
  P  P26  1  0.001066  0.640797  0.000000  1
  P  P27  1  0.833772  0.317954  0.500000  1
  P  P28  1  0.683124  0.515528  0.500000  1
  P  P29  1  0.483827  0.165491  0.500000  1
  P  P30  1  0.317954  0.833772  0.500000  1
  P  P31  1  0.515528  0.683124  0.500000  1
  P  P32  1  0.165491  0.483827  0.500000  1
  P  P33  1  0.822957  0.822957  0.000000  1
  P  P34  1  0.176880  0.999232  0.000000  1
  P  P35  1  0.999232  0.176880  0.000000  1
