# generated using pymatgen
data_DyHo4Co16(MoP4)3
_symmetry_space_group_name_H-M   'P 1'
_cell_length_a   12.06803700
_cell_length_b   12.06803808
_cell_length_c   3.70219700
_cell_angle_alpha   90.00000000
_cell_angle_beta   90.00000000
_cell_angle_gamma   120.00000526
_symmetry_Int_Tables_number   1
_chemical_formula_structural   DyHo4Co16(MoP4)3
_chemical_formula_sum   'Dy1 Ho4 Co16 Mo3 P12'
_cell_volume   466.94253666
_cell_formula_units_Z   1
loop_
 _symmetry_equiv_pos_site_id
 _symmetry_equiv_pos_as_xyz
  1  'x, y, z'
loop_
 _atom_site_type_symbol
 _atom_site_label
 _atom_site_symmetry_multiplicity
 _atom_site_fract_x
 _atom_site_fract_y
 _atom_site_fract_z
 _atom_site_occupancy
  Dy  Dy0  1  0.666667  0.333333  0.000000  1
  Ho  Ho1  1  0.333333  0.666667  0.000000  1
  Ho  Ho2  1  0.814989  0.814982  0.500000  1
  Ho  Ho3  1  0.185018  0.000007  0.500000  1
  Ho  Ho4  1  0.999993  0.185011  0.500000  1
  Co  Co5  1  0.873163  0.355131  0.500000  1
  Co  Co6  1  0.644869  0.518031  0.500000  1
  Co  Co7  1  0.481969  0.126837  0.500000  1
  Co  Co8  1  0.355122  0.872808  0.500000  1
  Co  Co9  1  0.517686  0.644878  0.500000  1
  Co  Co10  1  0.127192  0.482314  0.500000  1
  Co  Co11  1  0.802428  0.177228  0.000000  1
  Co  Co12  1  0.822772  0.625198  0.000000  1
  Co  Co13  1  0.374802  0.197572  0.000000  1
  Co  Co14  1  0.177363  0.802348  0.000000  1
  Co  Co15  1  0.624984  0.822637  0.000000  1
  Co  Co16  1  0.197652  0.375016  0.000000  1
  Co  Co17  1  0.280130  0.280228  0.500000  1
  Co  Co18  1  0.719772  0.999902  0.500000  1
  Co  Co19  1  0.000098  0.719870  0.500000  1
  Co  Co20  1  0.000000  0.000000  0.000000  1
  Mo  Mo21  1  0.446151  0.446240  0.000000  1
  Mo  Mo22  1  0.553760  0.999912  0.000000  1
  Mo  Mo23  1  0.000088  0.553849  0.000000  1
  P  P24  1  0.686221  0.165561  0.500000  1
  P  P25  1  0.834439  0.520660  0.500000  1
  P  P26  1  0.479340  0.313779  0.500000  1
  P  P27  1  0.165914  0.686197  0.500000  1
  P  P28  1  0.520283  0.834086  0.500000  1
  P  P29  1  0.313803  0.479717  0.500000  1
  P  P30  1  0.178022  0.178064  0.000000  1
  P  P31  1  0.821936  0.999958  0.000000  1
  P  P32  1  0.000042  0.821978  0.000000  1
  P  P33  1  0.639608  0.639576  0.000000  1
  P  P34  1  0.360424  0.000032  0.000000  1
  P  P35  1  0.999968  0.360392  0.000000  1
