# generated using pymatgen
data_La7Pr(Y3Si4)4
_symmetry_space_group_name_H-M   'P 1'
_cell_length_a   7.56741663
_cell_length_b   7.86763944
_cell_length_c   14.97618208
_cell_angle_alpha   89.96257147
_cell_angle_beta   89.93251469
_cell_angle_gamma   89.95510518
_symmetry_Int_Tables_number   1
_chemical_formula_structural   La7Pr(Y3Si4)4
_chemical_formula_sum   'La7 Pr1 Y12 Si16'
_cell_volume   891.64643693
_cell_formula_units_Z   1
loop_
 _symmetry_equiv_pos_site_id
 _symmetry_equiv_pos_as_xyz
  1  'x, y, z'
loop_
 _atom_site_type_symbol
 _atom_site_label
 _atom_site_symmetry_multiplicity
 _atom_site_fract_x
 _atom_site_fract_y
 _atom_site_fract_z
 _atom_site_occupancy
  La  La0  1  0.020312  0.178498  0.402342  1
  La  La1  1  0.520614  0.320565  0.401207  1
  La  La2  1  0.479451  0.679326  0.902530  1
  La  La3  1  0.480022  0.679008  0.597242  1
  La  La4  1  0.980267  0.821487  0.597127  1
  La  La5  1  0.980445  0.821474  0.903594  1
  La  La6  1  0.520065  0.321159  0.097940  1
  Pr  Pr7  1  0.020887  0.179535  0.099056  1
  Y  Y8  1  0.322925  0.178037  0.623346  1
  Y  Y9  1  0.676882  0.822002  0.376171  1
  Y  Y10  1  0.655769  0.989388  0.750034  1
  Y  Y11  1  0.176775  0.678319  0.376290  1
  Y  Y12  1  0.823484  0.321621  0.876998  1
  Y  Y13  1  0.822846  0.322279  0.623454  1
  Y  Y14  1  0.844393  0.489939  0.249720  1
  Y  Y15  1  0.344497  0.010285  0.249553  1
  Y  Y16  1  0.322282  0.177739  0.877016  1
  Y  Y17  1  0.176579  0.678418  0.123230  1
  Y  Y18  1  0.677052  0.821789  0.122928  1
  Y  Y19  1  0.156001  0.510616  0.750242  1
  Si  Si20  1  0.273523  0.880820  0.750169  1
  Si  Si21  1  0.469989  0.613854  0.249505  1
  Si  Si22  1  0.029894  0.113427  0.750200  1
  Si  Si23  1  0.530163  0.386099  0.750186  1
  Si  Si24  1  0.145139  0.469173  0.538915  1
  Si  Si25  1  0.970365  0.887125  0.249549  1
  Si  Si26  1  0.726820  0.119534  0.249311  1
  Si  Si27  1  0.854839  0.529480  0.039655  1
  Si  Si28  1  0.353458  0.969474  0.039674  1
  Si  Si29  1  0.145107  0.467596  0.961605  1
  Si  Si30  1  0.645289  0.031146  0.538880  1
  Si  Si31  1  0.355060  0.969258  0.460624  1
  Si  Si32  1  0.854679  0.530992  0.460694  1
  Si  Si33  1  0.773901  0.619028  0.750235  1
  Si  Si34  1  0.225320  0.380324  0.249675  1
  Si  Si35  1  0.644904  0.031186  0.961101  1
