# generated using pymatgen
data_Dy18Ho2Co3Bi8Os
_symmetry_space_group_name_H-M   'P 1'
_cell_length_a   7.99711112
_cell_length_b   8.92595838
_cell_length_c   12.43690964
_cell_angle_alpha   90.01412527
_cell_angle_beta   89.71601765
_cell_angle_gamma   89.96997152
_symmetry_Int_Tables_number   1
_chemical_formula_structural   Dy18Ho2Co3Bi8Os
_chemical_formula_sum   'Dy18 Ho2 Co3 Bi8 Os1'
_cell_volume   887.75894943
_cell_formula_units_Z   1
loop_
 _symmetry_equiv_pos_site_id
 _symmetry_equiv_pos_as_xyz
  1  'x, y, z'
loop_
 _atom_site_type_symbol
 _atom_site_label
 _atom_site_symmetry_multiplicity
 _atom_site_fract_x
 _atom_site_fract_y
 _atom_site_fract_z
 _atom_site_occupancy
  Dy  Dy0  1  0.345790  0.750061  0.700847  1
  Dy  Dy1  1  0.653388  0.249930  0.300623  1
  Dy  Dy2  1  0.847324  0.249769  0.800004  1
  Dy  Dy3  1  0.155010  0.750147  0.205973  1
  Dy  Dy4  1  0.880897  0.750315  0.805511  1
  Dy  Dy5  1  0.114922  0.249632  0.189533  1
  Dy  Dy6  1  0.384509  0.249951  0.688765  1
  Dy  Dy7  1  0.615180  0.750001  0.312401  1
  Dy  Dy8  1  0.675343  0.536916  0.563070  1
  Dy  Dy9  1  0.323908  0.461740  0.436939  1
  Dy  Dy10  1  0.176751  0.457786  0.935376  1
  Dy  Dy11  1  0.323926  0.038294  0.436894  1
  Dy  Dy12  1  0.824315  0.537274  0.063604  1
  Dy  Dy13  1  0.675350  0.963064  0.563132  1
  Dy  Dy14  1  0.051975  0.750007  0.497971  1
  Dy  Dy15  1  0.947758  0.249990  0.502459  1
  Dy  Dy16  1  0.554420  0.249758  0.002965  1
  Dy  Dy17  1  0.444326  0.750287  0.996797  1
  Ho  Ho18  1  0.825137  0.962446  0.063493  1
  Ho  Ho19  1  0.175973  0.042575  0.935519  1
  Co  Co20  1  0.930956  0.249697  0.008994  1
  Co  Co21  1  0.564733  0.249996  0.508066  1
  Co  Co22  1  0.433846  0.749982  0.492307  1
  Bi  Bi23  1  0.572123  0.508591  0.826248  1
  Bi  Bi24  1  0.429173  0.490700  0.173529  1
  Bi  Bi25  1  0.072314  0.490308  0.672396  1
  Bi  Bi26  1  0.429680  0.009272  0.173530  1
  Bi  Bi27  1  0.927427  0.508807  0.327261  1
  Bi  Bi28  1  0.571683  0.991397  0.826244  1
  Bi  Bi29  1  0.927267  0.991121  0.327217  1
  Bi  Bi30  1  0.072491  0.009710  0.672410  1
  Os  Os31  1  0.072107  0.750477  0.989922  1
