# generated using pymatgen
data_Gd(NbSe2)6
_symmetry_space_group_name_H-M   'P 1'
_cell_length_a   6.12130975
_cell_length_b   6.12130924
_cell_length_c   14.48112400
_cell_angle_alpha   85.97718933
_cell_angle_beta   85.97718029
_cell_angle_gamma   120.03009763
_symmetry_Int_Tables_number   1
_chemical_formula_structural   Gd(NbSe2)6
_chemical_formula_sum   'Gd1 Nb6 Se12'
_cell_volume   465.12360569
_cell_formula_units_Z   1
loop_
 _symmetry_equiv_pos_site_id
 _symmetry_equiv_pos_as_xyz
  1  'x, y, z'
loop_
 _atom_site_type_symbol
 _atom_site_label
 _atom_site_symmetry_multiplicity
 _atom_site_fract_x
 _atom_site_fract_y
 _atom_site_fract_z
 _atom_site_occupancy
  Gd  Gd0  1  0.000000  0.000000  0.000000  1
  Nb  Nb1  1  0.085064  0.085064  0.744606  1
  Nb  Nb2  1  0.419279  0.752944  0.742400  1
  Nb  Nb3  1  0.752944  0.419279  0.742400  1
  Nb  Nb4  1  0.247056  0.580721  0.257600  1
  Nb  Nb5  1  0.580721  0.247056  0.257600  1
  Nb  Nb6  1  0.914936  0.914936  0.255394  1
  Se  Se7  1  0.292647  0.292647  0.139367  1
  Se  Se8  1  0.614300  0.953208  0.139443  1
  Se  Se9  1  0.953208  0.614300  0.139443  1
  Se  Se10  1  0.046792  0.385700  0.860557  1
  Se  Se11  1  0.385700  0.046792  0.860557  1
  Se  Se12  1  0.707353  0.707353  0.860633  1
  Se  Se13  1  0.208243  0.208243  0.371228  1
  Se  Se14  1  0.544264  0.875974  0.371317  1
  Se  Se15  1  0.875974  0.544264  0.371317  1
  Se  Se16  1  0.124026  0.455736  0.628683  1
  Se  Se17  1  0.455736  0.124026  0.628683  1
  Se  Se18  1  0.791757  0.791757  0.628772  1
