# generated using pymatgen
data_ScTi5(Co5B2)2
_symmetry_space_group_name_H-M   'P 1'
_cell_length_a   8.52228187
_cell_length_b   8.52228187
_cell_length_c   3.06042900
_cell_angle_alpha   90.00000000
_cell_angle_beta   90.00000000
_cell_angle_gamma   89.57406652
_symmetry_Int_Tables_number   1
_chemical_formula_structural   ScTi5(Co5B2)2
_chemical_formula_sum   'Sc1 Ti5 Co10 B4'
_cell_volume   222.27063828
_cell_formula_units_Z   1
loop_
 _symmetry_equiv_pos_site_id
 _symmetry_equiv_pos_as_xyz
  1  'x, y, z'
loop_
 _atom_site_type_symbol
 _atom_site_label
 _atom_site_symmetry_multiplicity
 _atom_site_fract_x
 _atom_site_fract_y
 _atom_site_fract_z
 _atom_site_occupancy
  Sc  Sc0  1  0.825086  0.325086  0.000000  1
  Ti  Ti1  1  0.000317  0.000123  0.000000  1
  Ti  Ti2  1  0.500123  0.500317  0.000000  1
  Ti  Ti3  1  0.325506  0.174000  0.000000  1
  Ti  Ti4  1  0.674000  0.825506  0.000000  1
  Ti  Ti5  1  0.174713  0.674713  0.000000  1
  Co  Co6  1  0.496557  0.996557  0.500000  1
  Co  Co7  1  0.006086  0.506086  0.500000  1
  Co  Co8  1  0.079619  0.221092  0.500000  1
  Co  Co9  1  0.219962  0.927473  0.500000  1
  Co  Co10  1  0.774057  0.061997  0.500000  1
  Co  Co11  1  0.930495  0.781708  0.500000  1
  Co  Co12  1  0.427473  0.719962  0.500000  1
  Co  Co13  1  0.561997  0.274057  0.500000  1
  Co  Co14  1  0.721092  0.579619  0.500000  1
  Co  Co15  1  0.281708  0.430495  0.500000  1
  B  B16  1  0.616059  0.116059  0.000000  1
  B  B17  1  0.124795  0.381943  0.000000  1
  B  B18  1  0.881943  0.624795  0.000000  1
  B  B19  1  0.378412  0.878412  0.000000  1
