# generated using pymatgen
data_Hf4ZrSb9Pd
_symmetry_space_group_name_H-M   'P 1'
_cell_length_a   9.02572800
_cell_length_b   9.02572800
_cell_length_c   8.65261800
_cell_angle_alpha   90.00000000
_cell_angle_beta   90.00000000
_cell_angle_gamma   90.00000000
_symmetry_Int_Tables_number   1
_chemical_formula_structural   Hf4ZrSb9Pd
_chemical_formula_sum   'Hf8 Zr2 Sb18 Pd2'
_cell_volume   704.87484743
_cell_formula_units_Z   2
loop_
 _symmetry_equiv_pos_site_id
 _symmetry_equiv_pos_as_xyz
  1  'x, y, z'
loop_
 _atom_site_type_symbol
 _atom_site_label
 _atom_site_symmetry_multiplicity
 _atom_site_fract_x
 _atom_site_fract_y
 _atom_site_fract_z
 _atom_site_occupancy
  Hf  Hf0  1  0.294633  0.604916  0.267306  1
  Hf  Hf1  1  0.705367  0.395084  0.267306  1
  Hf  Hf2  1  0.794633  0.104916  0.732694  1
  Hf  Hf3  1  0.205367  0.895084  0.732694  1
  Hf  Hf4  1  0.395084  0.294633  0.732694  1
  Hf  Hf5  1  0.604916  0.705367  0.732694  1
  Hf  Hf6  1  0.895084  0.794633  0.267306  1
  Hf  Hf7  1  0.104916  0.205367  0.267306  1
  Zr  Zr8  1  0.500000  0.000000  0.257754  1
  Zr  Zr9  1  0.000000  0.500000  0.742246  1
  Sb  Sb10  1  0.781521  0.589924  0.001439  1
  Sb  Sb11  1  0.218479  0.410076  0.001439  1
  Sb  Sb12  1  0.281521  0.089924  0.998561  1
  Sb  Sb13  1  0.718479  0.910076  0.998561  1
  Sb  Sb14  1  0.410076  0.781521  0.998561  1
  Sb  Sb15  1  0.589924  0.218479  0.998561  1
  Sb  Sb16  1  0.910076  0.281521  0.001439  1
  Sb  Sb17  1  0.089924  0.718479  0.001439  1
  Sb  Sb18  1  0.000000  0.500000  0.384352  1
  Sb  Sb19  1  0.500000  0.000000  0.615648  1
  Sb  Sb20  1  0.196442  0.902169  0.376322  1
  Sb  Sb21  1  0.803558  0.097831  0.376322  1
  Sb  Sb22  1  0.696442  0.402169  0.623678  1
  Sb  Sb23  1  0.303558  0.597831  0.623678  1
  Sb  Sb24  1  0.097831  0.196442  0.623678  1
  Sb  Sb25  1  0.902169  0.803558  0.623678  1
  Sb  Sb26  1  0.597831  0.696442  0.376322  1
  Sb  Sb27  1  0.402169  0.303558  0.376322  1
  Pd  Pd28  1  0.500000  0.500000  0.000000  1
  Pd  Pd29  1  0.000000  0.000000  0.000000  1
