# generated using pymatgen
data_K3PS3
_symmetry_space_group_name_H-M   'P 1'
_cell_length_a   9.44847500
_cell_length_b   9.44847500
_cell_length_c   9.44847500
_cell_angle_alpha   90.00000000
_cell_angle_beta   90.00000000
_cell_angle_gamma   90.00000000
_symmetry_Int_Tables_number   1
_chemical_formula_structural   K3PS3
_chemical_formula_sum   'K12 P4 S12'
_cell_volume   843.50013199
_cell_formula_units_Z   4
loop_
 _symmetry_equiv_pos_site_id
 _symmetry_equiv_pos_as_xyz
  1  'x, y, z'
loop_
 _atom_site_type_symbol
 _atom_site_label
 _atom_site_symmetry_multiplicity
 _atom_site_fract_x
 _atom_site_fract_y
 _atom_site_fract_z
 _atom_site_occupancy
  K  K0  1  0.057288  0.557288  0.942712  1
  K  K1  1  0.557288  0.942712  0.057288  1
  K  K2  1  0.942712  0.057288  0.557288  1
  K  K3  1  0.442712  0.442712  0.442712  1
  K  K4  1  0.562798  0.062798  0.437202  1
  K  K5  1  0.062798  0.437202  0.562798  1
  K  K6  1  0.437202  0.562798  0.062798  1
  K  K7  1  0.937202  0.937202  0.937202  1
  K  K8  1  0.828742  0.328742  0.171258  1
  K  K9  1  0.328742  0.171258  0.828742  1
  K  K10  1  0.171258  0.828742  0.328742  1
  K  K11  1  0.671258  0.671258  0.671258  1
  P  P12  1  0.269089  0.769089  0.730911  1
  P  P13  1  0.769089  0.730911  0.269089  1
  P  P14  1  0.730911  0.269089  0.769089  1
  P  P15  1  0.230911  0.230911  0.230911  1
  S  S16  1  0.256135  0.840599  0.946596  1
  S  S17  1  0.053404  0.756135  0.659401  1
  S  S18  1  0.340599  0.553404  0.743865  1
  S  S19  1  0.756135  0.659401  0.053404  1
  S  S20  1  0.553404  0.743865  0.340599  1
  S  S21  1  0.840599  0.946596  0.256135  1
  S  S22  1  0.743865  0.340599  0.553404  1
  S  S23  1  0.946596  0.256135  0.840599  1
  S  S24  1  0.659401  0.053404  0.756135  1
  S  S25  1  0.243865  0.159401  0.446596  1
  S  S26  1  0.446596  0.243865  0.159401  1
  S  S27  1  0.159401  0.446596  0.243865  1
