# generated using pymatgen
data_Tb7Lu5AlCo4Sn
_symmetry_space_group_name_H-M   'P 1'
_cell_length_a   8.28753588
_cell_length_b   8.28753587
_cell_length_c   8.28009554
_cell_angle_alpha   112.09122039
_cell_angle_beta   109.21706454
_cell_angle_gamma   107.18170413
_symmetry_Int_Tables_number   1
_chemical_formula_structural   Tb7Lu5AlCo4Sn
_chemical_formula_sum   'Tb7 Lu5 Al1 Co4 Sn1'
_cell_volume   436.76566371
_cell_formula_units_Z   1
loop_
 _symmetry_equiv_pos_site_id
 _symmetry_equiv_pos_as_xyz
  1  'x, y, z'
loop_
 _atom_site_type_symbol
 _atom_site_label
 _atom_site_symmetry_multiplicity
 _atom_site_fract_x
 _atom_site_fract_y
 _atom_site_fract_z
 _atom_site_occupancy
  Tb  Tb0  1  0.439203  0.233916  0.203294  1
  Tb  Tb1  1  0.563286  0.767645  0.797512  1
  Tb  Tb2  1  0.029867  0.234225  0.797512  1
  Tb  Tb3  1  0.969379  0.764092  0.203294  1
  Tb  Tb4  1  0.180325  0.282839  0.463165  1
  Tb  Tb5  1  0.818092  0.717617  0.535708  1
  Tb  Tb6  1  0.181280  0.718315  0.899595  1
  Lu  Lu7  1  0.818770  0.281422  0.100192  1
  Lu  Lu8  1  0.324515  0.639825  0.314183  1
  Lu  Lu9  1  0.674444  0.358140  0.686100  1
  Lu  Lu10  1  0.327960  0.011656  0.686100  1
  Lu  Lu11  1  0.674359  0.989668  0.314183  1
  Al  Al12  1  0.999524  0.002414  0.001938  1
  Co  Co13  1  0.343074  0.000286  0.343360  1
  Co  Co14  1  0.659489  0.002565  0.662054  1
  Co  Co15  1  0.112485  0.613103  0.495429  1
  Co  Co16  1  0.882326  0.382944  0.495429  1
  Sn  Sn17  1  0.501621  0.499329  0.000951  1
