# generated using pymatgen
data_Y20Tl3NiHg3Os
_symmetry_space_group_name_H-M   'P 1'
_cell_length_a   9.75163700
_cell_length_b   9.75163730
_cell_length_c   9.70614000
_cell_angle_alpha   90.00000000
_cell_angle_beta   90.00000000
_cell_angle_gamma   119.99999561
_symmetry_Int_Tables_number   1
_chemical_formula_structural   Y20Tl3NiHg3Os
_chemical_formula_sum   'Y20 Tl3 Ni1 Hg3 Os1'
_cell_volume   799.34132914
_cell_formula_units_Z   1
loop_
 _symmetry_equiv_pos_site_id
 _symmetry_equiv_pos_as_xyz
  1  'x, y, z'
loop_
 _atom_site_type_symbol
 _atom_site_label
 _atom_site_symmetry_multiplicity
 _atom_site_fract_x
 _atom_site_fract_y
 _atom_site_fract_z
 _atom_site_occupancy
  Y  Y0  1  0.000000  0.000000  0.514689  1
  Y  Y1  1  0.000000  0.000000  0.985311  1
  Y  Y2  1  0.538630  0.461370  0.250000  1
  Y  Y3  1  0.538630  0.077259  0.250000  1
  Y  Y4  1  0.922741  0.461370  0.250000  1
  Y  Y5  1  0.456439  0.543561  0.750000  1
  Y  Y6  1  0.456439  0.912879  0.750000  1
  Y  Y7  1  0.087121  0.543561  0.750000  1
  Y  Y8  1  0.209677  0.790323  0.439983  1
  Y  Y9  1  0.209677  0.419354  0.439983  1
  Y  Y10  1  0.580646  0.790323  0.439983  1
  Y  Y11  1  0.789564  0.210436  0.565652  1
  Y  Y12  1  0.789564  0.579128  0.565652  1
  Y  Y13  1  0.420872  0.210436  0.565652  1
  Y  Y14  1  0.789564  0.210436  0.934348  1
  Y  Y15  1  0.789564  0.579128  0.934348  1
  Y  Y16  1  0.420872  0.210436  0.934348  1
  Y  Y17  1  0.209677  0.790323  0.060017  1
  Y  Y18  1  0.209677  0.419354  0.060017  1
  Y  Y19  1  0.580646  0.790323  0.060017  1
  Tl  Tl20  1  0.883681  0.116319  0.250000  1
  Tl  Tl21  1  0.883681  0.767362  0.250000  1
  Tl  Tl22  1  0.232638  0.116319  0.250000  1
  Ni  Ni23  1  0.666667  0.333333  0.750000  1
  Hg  Hg24  1  0.123072  0.876928  0.750000  1
  Hg  Hg25  1  0.123072  0.246146  0.750000  1
  Hg  Hg26  1  0.753854  0.876928  0.750000  1
  Os  Os27  1  0.333333  0.666667  0.250000  1
