# generated using pymatgen
data_TmAlCdPt3
_symmetry_space_group_name_H-M   'P 1'
_cell_length_a   5.16111946
_cell_length_b   5.51454609
_cell_length_c   5.51454800
_cell_angle_alpha   60.00000057
_cell_angle_beta   57.70766072
_cell_angle_gamma   57.70766816
_symmetry_Int_Tables_number   1
_chemical_formula_structural   TmAlCdPt3
_chemical_formula_sum   'Tm1 Al1 Cd1 Pt3'
_cell_volume   106.97881577
_cell_formula_units_Z   1
loop_
 _symmetry_equiv_pos_site_id
 _symmetry_equiv_pos_as_xyz
  1  'x, y, z'
loop_
 _atom_site_type_symbol
 _atom_site_label
 _atom_site_symmetry_multiplicity
 _atom_site_fract_x
 _atom_site_fract_y
 _atom_site_fract_z
 _atom_site_occupancy
  Tm  Tm0  1  0.991773  0.002742  0.002742  1
  Al  Al1  1  0.129094  0.623636  0.623636  1
  Cd  Cd2  1  0.243269  0.252244  0.252244  1
  Pt  Pt3  1  0.628621  0.623194  0.623194  1
  Pt  Pt4  1  0.628621  0.623194  0.124991  1
  Pt  Pt5  1  0.628621  0.124991  0.623194  1
