# generated using pymatgen
data_TaNb6Si6Ru4W
_symmetry_space_group_name_H-M   'P 1'
_cell_length_a   7.55554198
_cell_length_b   7.56247598
_cell_length_c   7.56247706
_cell_angle_alpha   126.78076253
_cell_angle_beta   124.33614149
_cell_angle_gamma   80.65181679
_symmetry_Int_Tables_number   1
_chemical_formula_structural   TaNb6Si6Ru4W
_chemical_formula_sum   'Ta1 Nb6 Si6 Ru4 W1'
_cell_volume   275.56084573
_cell_formula_units_Z   1
loop_
 _symmetry_equiv_pos_site_id
 _symmetry_equiv_pos_as_xyz
  1  'x, y, z'
loop_
 _atom_site_type_symbol
 _atom_site_label
 _atom_site_symmetry_multiplicity
 _atom_site_fract_x
 _atom_site_fract_y
 _atom_site_fract_z
 _atom_site_occupancy
  Ta  Ta0  1  0.500000  0.250726  0.750726  1
  Nb  Nb1  1  0.558276  0.091313  0.034980  1
  Nb  Nb2  1  0.441724  0.476704  0.533037  1
  Nb  Nb3  1  0.960106  0.488022  0.028137  1
  Nb  Nb4  1  0.039894  0.068032  0.527916  1
  Nb  Nb5  1  0.752943  0.920013  0.667757  1
  Nb  Nb6  1  0.247057  0.914814  0.167070  1
  Si  Si7  1  0.781775  0.555449  0.276946  1
  Si  Si8  1  0.218225  0.495171  0.773675  1
  Si  Si9  1  0.334269  0.816452  0.491955  1
  Si  Si10  1  0.665731  0.157684  0.482182  1
  Si  Si11  1  0.825233  0.817551  0.983551  1
  Si  Si12  1  0.174767  0.158318  0.992319  1
  Ru  Ru13  1  0.162285  0.746600  0.655812  1
  Ru  Ru14  1  0.837715  0.493528  0.584315  1
  Ru  Ru15  1  0.590004  0.747833  0.084608  1
  Ru  Ru16  1  0.409996  0.494605  0.157830  1
  W  W17  1  0.000000  0.249384  0.249384  1
