# generated using pymatgen
data_Nd2Y2Cu3Pt
_symmetry_space_group_name_H-M   'P 1'
_cell_length_a   4.52717000
_cell_length_b   5.55793028
_cell_length_c   7.30298423
_cell_angle_alpha   91.46635836
_cell_angle_beta   90.00000000
_cell_angle_gamma   90.00000000
_symmetry_Int_Tables_number   1
_chemical_formula_structural   Nd2Y2Cu3Pt
_chemical_formula_sum   'Nd2 Y2 Cu3 Pt1'
_cell_volume   183.69528774
_cell_formula_units_Z   1
loop_
 _symmetry_equiv_pos_site_id
 _symmetry_equiv_pos_as_xyz
  1  'x, y, z'
loop_
 _atom_site_type_symbol
 _atom_site_label
 _atom_site_symmetry_multiplicity
 _atom_site_fract_x
 _atom_site_fract_y
 _atom_site_fract_z
 _atom_site_occupancy
  Nd  Nd0  1  0.750000  0.866209  0.811331  1
  Nd  Nd1  1  0.250000  0.131595  0.185703  1
  Y  Y2  1  0.250000  0.365894  0.676724  1
  Y  Y3  1  0.750000  0.637034  0.325879  1
  Cu  Cu4  1  0.750000  0.141128  0.464363  1
  Cu  Cu5  1  0.750000  0.385319  0.965926  1
  Cu  Cu6  1  0.250000  0.613206  0.036728  1
  Pt  Pt7  1  0.250000  0.859615  0.533347  1
