# generated using pymatgen
data_Pr2B4RuRh4
_symmetry_space_group_name_H-M   'P 1'
_cell_length_a   7.57099029
_cell_length_b   6.36835750
_cell_length_c   5.67523601
_cell_angle_alpha   77.66289267
_cell_angle_beta   55.25814875
_cell_angle_gamma   47.07894133
_symmetry_Int_Tables_number   1
_chemical_formula_structural   Pr2B4RuRh4
_chemical_formula_sum   'Pr2 B4 Ru1 Rh4'
_cell_volume   157.58709709
_cell_formula_units_Z   1
loop_
 _symmetry_equiv_pos_site_id
 _symmetry_equiv_pos_as_xyz
  1  'x, y, z'
loop_
 _atom_site_type_symbol
 _atom_site_label
 _atom_site_symmetry_multiplicity
 _atom_site_fract_x
 _atom_site_fract_y
 _atom_site_fract_z
 _atom_site_occupancy
  Pr  Pr0  1  0.856389  0.856389  0.143611  1
  Pr  Pr1  1  0.143611  0.143611  0.856389  1
  B  B2  1  0.787032  0.475785  0.536857  1
  B  B3  1  0.200327  0.536857  0.475785  1
  B  B4  1  0.536857  0.200327  0.787032  1
  B  B5  1  0.475785  0.787032  0.200327  1
  Ru  Ru6  1  0.750000  0.750000  0.750000  1
  Rh  Rh7  1  0.498912  0.498912  0.001088  1
  Rh  Rh8  1  0.500000  0.500000  0.500000  1
  Rh  Rh9  1  0.001088  0.001088  0.498912  1
  Rh  Rh10  1  0.250000  0.250000  0.250000  1
