# generated using pymatgen
data_Er9Lu(SiB4)4
_symmetry_space_group_name_H-M   'P 1'
_cell_length_a   7.17509700
_cell_length_b   7.17509700
_cell_length_c   7.98215700
_cell_angle_alpha   90.00000000
_cell_angle_beta   90.00000000
_cell_angle_gamma   90.00000000
_symmetry_Int_Tables_number   1
_chemical_formula_structural   Er9Lu(SiB4)4
_chemical_formula_sum   'Er9 Lu1 Si4 B16'
_cell_volume   410.93754205
_cell_formula_units_Z   1
loop_
 _symmetry_equiv_pos_site_id
 _symmetry_equiv_pos_as_xyz
  1  'x, y, z'
loop_
 _atom_site_type_symbol
 _atom_site_label
 _atom_site_symmetry_multiplicity
 _atom_site_fract_x
 _atom_site_fract_y
 _atom_site_fract_z
 _atom_site_occupancy
  Er  Er0  1  0.680284  0.179923  0.224336  1
  Er  Er1  1  0.319716  0.820077  0.775664  1
  Er  Er2  1  0.319716  0.820077  0.224336  1
  Er  Er3  1  0.820077  0.680284  0.224336  1
  Er  Er4  1  0.820077  0.680284  0.775664  1
  Er  Er5  1  0.680284  0.179923  0.775664  1
  Er  Er6  1  0.179923  0.319716  0.775664  1
  Er  Er7  1  0.179923  0.319716  0.224336  1
  Er  Er8  1  0.500000  0.500000  0.500000  1
  Lu  Lu9  1  0.000000  0.000000  0.500000  1
  Si  Si10  1  0.114639  0.617570  0.500000  1
  Si  Si11  1  0.885361  0.382430  0.500000  1
  Si  Si12  1  0.382430  0.114639  0.500000  1
  Si  Si13  1  0.617570  0.885361  0.500000  1
  B  B14  1  0.172918  0.039115  0.000000  1
  B  B15  1  0.827082  0.960885  0.000000  1
  B  B16  1  0.960885  0.172918  0.000000  1
  B  B17  1  0.327121  0.539169  0.000000  1
  B  B18  1  0.039115  0.827082  0.000000  1
  B  B19  1  0.672879  0.460831  0.000000  1
  B  B20  1  0.539169  0.672879  0.000000  1
  B  B21  1  0.460831  0.327121  0.000000  1
  B  B22  1  0.089420  0.589350  0.000000  1
  B  B23  1  0.910580  0.410650  0.000000  1
  B  B24  1  0.410650  0.089420  0.000000  1
  B  B25  1  0.589350  0.910580  0.000000  1
  B  B26  1  0.000000  0.000000  0.165357  1
  B  B27  1  0.000000  0.000000  0.834643  1
  B  B28  1  0.500000  0.500000  0.835005  1
  B  B29  1  0.500000  0.500000  0.164995  1
