# generated using pymatgen
data_Np2AlGaAu2
_symmetry_space_group_name_H-M   'P 1'
_cell_length_a   5.68927042
_cell_length_b   5.68927078
_cell_length_c   5.67709036
_cell_angle_alpha   60.06545425
_cell_angle_beta   60.06545151
_cell_angle_gamma   50.62573159
_symmetry_Int_Tables_number   1
_chemical_formula_structural   Np2AlGaAu2
_chemical_formula_sum   'Np2 Al1 Ga1 Au2'
_cell_volume   118.44317607
_cell_formula_units_Z   1
loop_
 _symmetry_equiv_pos_site_id
 _symmetry_equiv_pos_as_xyz
  1  'x, y, z'
loop_
 _atom_site_type_symbol
 _atom_site_label
 _atom_site_symmetry_multiplicity
 _atom_site_fract_x
 _atom_site_fract_y
 _atom_site_fract_z
 _atom_site_occupancy
  Np  Np0  1  0.499837  0.499837  0.255128  1
  Np  Np1  1  0.500063  0.500063  0.744939  1
  Al  Al2  1  0.165153  0.165153  0.835249  1
  Ga  Ga3  1  0.838253  0.838253  0.161225  1
  Au  Au4  1  0.825041  0.825041  0.674927  1
  Au  Au5  1  0.171654  0.171654  0.328533  1
