# generated using pymatgen
data_Ta4BeCu(Si2Ni)2
_symmetry_space_group_name_H-M   'P 1'
_cell_length_a   3.68522500
_cell_length_b   6.18361182
_cell_length_c   7.07790150
_cell_angle_alpha   88.72315838
_cell_angle_beta   90.00000000
_cell_angle_gamma   90.00000000
_symmetry_Int_Tables_number   1
_chemical_formula_structural   Ta4BeCu(Si2Ni)2
_chemical_formula_sum   'Ta4 Be1 Cu1 Si4 Ni2'
_cell_volume   161.25117674
_cell_formula_units_Z   1
loop_
 _symmetry_equiv_pos_site_id
 _symmetry_equiv_pos_as_xyz
  1  'x, y, z'
loop_
 _atom_site_type_symbol
 _atom_site_label
 _atom_site_symmetry_multiplicity
 _atom_site_fract_x
 _atom_site_fract_y
 _atom_site_fract_z
 _atom_site_occupancy
  Ta  Ta0  1  0.250000  0.508615  0.176704  1
  Ta  Ta1  1  0.750000  0.494783  0.815963  1
  Ta  Ta2  1  0.750000  0.978126  0.670506  1
  Ta  Ta3  1  0.250000  0.003798  0.329260  1
  Be  Be4  1  0.250000  0.686149  0.585585  1
  Cu  Cu5  1  0.250000  0.166658  0.920527  1
  Si  Si6  1  0.250000  0.786430  0.893631  1
  Si  Si7  1  0.750000  0.212009  0.115275  1
  Si  Si8  1  0.750000  0.702340  0.391237  1
  Si  Si9  1  0.250000  0.293161  0.602052  1
  Ni  Ni10  1  0.750000  0.330145  0.422233  1
  Ni  Ni11  1  0.750000  0.837789  0.077028  1
