# generated using pymatgen
data_ZrSc3(Ga3Rh)6
_symmetry_space_group_name_H-M   'P 1'
_cell_length_a   7.47461315
_cell_length_b   7.48447524
_cell_length_c   9.39150300
_cell_angle_alpha   90.00000000
_cell_angle_beta   90.00000000
_cell_angle_gamma   119.99345417
_symmetry_Int_Tables_number   1
_chemical_formula_structural   ZrSc3(Ga3Rh)6
_chemical_formula_sum   'Zr1 Sc3 Ga18 Rh6'
_cell_volume   455.03463273
_cell_formula_units_Z   1
loop_
 _symmetry_equiv_pos_site_id
 _symmetry_equiv_pos_as_xyz
  1  'x, y, z'
loop_
 _atom_site_type_symbol
 _atom_site_label
 _atom_site_symmetry_multiplicity
 _atom_site_fract_x
 _atom_site_fract_y
 _atom_site_fract_z
 _atom_site_occupancy
  Zr  Zr0  1  0.331705  0.003930  0.750000  1
  Sc  Sc1  1  0.995755  0.668732  0.250000  1
  Sc  Sc2  1  0.003003  0.330243  0.750000  1
  Sc  Sc3  1  0.669501  0.995822  0.250000  1
  Ga  Ga4  1  0.329973  0.330875  0.571577  1
  Ga  Ga5  1  0.669856  0.669800  0.428602  1
  Ga  Ga6  1  0.669856  0.669800  0.071398  1
  Ga  Ga7  1  0.329973  0.330875  0.928423  1
  Ga  Ga8  1  0.338305  0.551732  0.250000  1
  Ga  Ga9  1  0.662140  0.448551  0.750000  1
  Ga  Ga10  1  0.551074  0.337846  0.250000  1
  Ga  Ga11  1  0.448720  0.662639  0.750000  1
  Ga  Ga12  1  0.996457  0.333988  0.081995  1
  Ga  Ga13  1  0.002879  0.665488  0.917722  1
  Ga  Ga14  1  0.002879  0.665488  0.582278  1
  Ga  Ga15  1  0.334175  0.995996  0.417548  1
  Ga  Ga16  1  0.996457  0.333988  0.418005  1
  Ga  Ga17  1  0.666526  0.003869  0.582227  1
  Ga  Ga18  1  0.666526  0.003869  0.917773  1
  Ga  Ga19  1  0.334175  0.995996  0.082452  1
  Ga  Ga20  1  0.122608  0.122899  0.250000  1
  Ga  Ga21  1  0.877671  0.877669  0.750000  1
  Rh  Rh22  1  0.000820  0.999991  0.999397  1
  Rh  Rh23  1  0.000820  0.999991  0.500603  1
  Rh  Rh24  1  0.670713  0.327717  0.999443  1
  Rh  Rh25  1  0.328358  0.672246  0.998862  1
  Rh  Rh26  1  0.328358  0.672246  0.501138  1
  Rh  Rh27  1  0.670713  0.327717  0.500557  1
