# generated using pymatgen
data_Pr2Dy2Zn10SnGe
_symmetry_space_group_name_H-M   'P 1'
_cell_length_a   8.40333909
_cell_length_b   8.40333888
_cell_length_c   8.94585900
_cell_angle_alpha   90.00000000
_cell_angle_beta   90.00000000
_cell_angle_gamma   149.65698969
_symmetry_Int_Tables_number   1
_chemical_formula_structural   Pr2Dy2Zn10SnGe
_chemical_formula_sum   'Pr2 Dy2 Zn10 Sn1 Ge1'
_cell_volume   319.13040828
_cell_formula_units_Z   1
loop_
 _symmetry_equiv_pos_site_id
 _symmetry_equiv_pos_as_xyz
  1  'x, y, z'
loop_
 _atom_site_type_symbol
 _atom_site_label
 _atom_site_symmetry_multiplicity
 _atom_site_fract_x
 _atom_site_fract_y
 _atom_site_fract_z
 _atom_site_occupancy
  Pr  Pr0  1  0.000919  0.999081  0.489408  1
  Pr  Pr1  1  0.000919  0.999081  0.010592  1
  Dy  Dy2  1  0.202008  0.797992  0.250000  1
  Dy  Dy3  1  0.795524  0.204476  0.750000  1
  Zn  Zn4  1  0.812093  0.187907  0.390293  1
  Zn  Zn5  1  0.187214  0.812786  0.608219  1
  Zn  Zn6  1  0.812093  0.187907  0.109707  1
  Zn  Zn7  1  0.187214  0.812786  0.891781  1
  Zn  Zn8  1  0.654550  0.345450  0.475880  1
  Zn  Zn9  1  0.342153  0.657847  0.516586  1
  Zn  Zn10  1  0.654550  0.345450  0.024120  1
  Zn  Zn11  1  0.342153  0.657847  0.983414  1
  Zn  Zn12  1  0.399963  0.600037  0.250000  1
  Zn  Zn13  1  0.606442  0.393558  0.750000  1
  Sn  Sn14  1  0.443878  0.556122  0.750000  1
  Ge  Ge15  1  0.558329  0.441671  0.250000  1
