# generated using pymatgen
data_Nb3V4SbO20
_symmetry_space_group_name_H-M   'P 1'
_cell_length_a   5.63388500
_cell_length_b   7.07290873
_cell_length_c   12.07784568
_cell_angle_alpha   89.89071633
_cell_angle_beta   90.00000000
_cell_angle_gamma   90.00000000
_symmetry_Int_Tables_number   1
_chemical_formula_structural   Nb3V4SbO20
_chemical_formula_sum   'Nb3 V4 Sb1 O20'
_cell_volume   481.27656859
_cell_formula_units_Z   1
loop_
 _symmetry_equiv_pos_site_id
 _symmetry_equiv_pos_as_xyz
  1  'x, y, z'
loop_
 _atom_site_type_symbol
 _atom_site_label
 _atom_site_symmetry_multiplicity
 _atom_site_fract_x
 _atom_site_fract_y
 _atom_site_fract_z
 _atom_site_occupancy
  Nb  Nb0  1  0.500000  0.654701  0.059069  1
  Nb  Nb1  1  0.000000  0.148045  0.443930  1
  Nb  Nb2  1  0.000000  0.340008  0.941889  1
  V  V3  1  0.500000  0.029521  0.842665  1
  V  V4  1  0.500000  0.469704  0.346676  1
  V  V5  1  0.000000  0.969066  0.155334  1
  V  V6  1  0.000000  0.532465  0.654592  1
  Sb  Sb7  1  0.500000  0.833774  0.560150  1
  O  O8  1  0.500000  0.824207  0.922446  1
  O  O9  1  0.500000  0.684094  0.421382  1
  O  O10  1  0.000000  0.178396  0.076953  1
  O  O11  1  0.000000  0.327673  0.578000  1
  O  O12  1  0.500000  0.978860  0.700071  1
  O  O13  1  0.500000  0.524168  0.202848  1
  O  O14  1  0.000000  0.026868  0.296764  1
  O  O15  1  0.000000  0.475401  0.794831  1
  O  O16  1  0.249735  0.999190  0.501194  1
  O  O17  1  0.750540  0.500339  0.998777  1
  O  O18  1  0.750265  0.999190  0.501194  1
  O  O19  1  0.249460  0.500339  0.998777  1
  O  O20  1  0.255239  0.660905  0.624642  1
  O  O21  1  0.750027  0.841113  0.124364  1
  O  O22  1  0.748368  0.340797  0.377282  1
  O  O23  1  0.250284  0.159179  0.874943  1
  O  O24  1  0.251632  0.340797  0.377282  1
  O  O25  1  0.749716  0.159179  0.874943  1
  O  O26  1  0.744761  0.660905  0.624642  1
  O  O27  1  0.249973  0.841113  0.124364  1
