# generated using pymatgen
data_Dy6Al24FeOs3Ru4
_symmetry_space_group_name_H-M   'P 1'
_cell_length_a   8.81132687
_cell_length_b   8.79689616
_cell_length_c   9.54717597
_cell_angle_alpha   90.02266604
_cell_angle_beta   89.92425323
_cell_angle_gamma   120.15809993
_symmetry_Int_Tables_number   1
_chemical_formula_structural   Dy6Al24FeOs3Ru4
_chemical_formula_sum   'Dy6 Al24 Fe1 Os3 Ru4'
_cell_volume   639.85541054
_cell_formula_units_Z   1
loop_
 _symmetry_equiv_pos_site_id
 _symmetry_equiv_pos_as_xyz
  1  'x, y, z'
loop_
 _atom_site_type_symbol
 _atom_site_label
 _atom_site_symmetry_multiplicity
 _atom_site_fract_x
 _atom_site_fract_y
 _atom_site_fract_z
 _atom_site_occupancy
  Dy  Dy0  1  0.191762  0.805987  0.250994  1
  Dy  Dy1  1  0.194601  0.386934  0.250592  1
  Dy  Dy2  1  0.614054  0.804724  0.250423  1
  Dy  Dy3  1  0.808238  0.194013  0.749006  1
  Dy  Dy4  1  0.805399  0.613066  0.749408  1
  Dy  Dy5  1  0.385946  0.195276  0.749577  1
  Al  Al6  1  0.561628  0.437717  0.249441  1
  Al  Al7  1  0.560917  0.120779  0.249514  1
  Al  Al8  1  0.877526  0.437816  0.248857  1
  Al  Al9  1  0.438372  0.562283  0.750559  1
  Al  Al10  1  0.439083  0.879221  0.750486  1
  Al  Al11  1  0.122474  0.562184  0.751143  1
  Al  Al12  1  0.324001  0.161431  0.422818  1
  Al  Al13  1  0.837985  0.161525  0.422844  1
  Al  Al14  1  0.838080  0.675439  0.423306  1
  Al  Al15  1  0.675999  0.838569  0.577182  1
  Al  Al16  1  0.162015  0.838475  0.577156  1
  Al  Al17  1  0.161920  0.324561  0.576694  1
  Al  Al18  1  0.680963  0.841022  0.924000  1
  Al  Al19  1  0.159518  0.841114  0.923803  1
  Al  Al20  1  0.159486  0.319255  0.924279  1
  Al  Al21  1  0.319037  0.158978  0.076000  1
  Al  Al22  1  0.840482  0.158886  0.076197  1
  Al  Al23  1  0.840514  0.680745  0.075721  1
  Al  Al24  1  0.666348  0.332559  0.515627  1
  Al  Al25  1  0.333652  0.667441  0.484373  1
  Al  Al26  1  0.333025  0.667151  0.014988  1
  Al  Al27  1  0.666975  0.332849  0.985012  1
  Al  Al28  1  0.000004  0.999619  0.244212  1
  Al  Al29  1  0.999996  0.000381  0.755788  1
  Fe  Fe30  1  0.000000  0.000000  0.000000  1
  Os  Os31  1  0.500000  0.500000  0.500000  1
  Os  Os32  1  0.000000  0.500000  0.500000  1
  Os  Os33  1  0.500000  0.500000  0.000000  1
  Ru  Ru34  1  0.000000  0.000000  0.500000  1
  Ru  Ru35  1  0.500000  0.000000  0.500000  1
  Ru  Ru36  1  0.500000  0.000000  0.000000  1
  Ru  Ru37  1  0.000000  0.500000  0.000000  1
