# generated using pymatgen
data_Mn2BiO6
_symmetry_space_group_name_H-M   'P 1'
_cell_length_a   5.03853451
_cell_length_b   8.72923565
_cell_length_c   9.53954414
_cell_angle_alpha   90.00286880
_cell_angle_beta   90.07779483
_cell_angle_gamma   89.99891714
_symmetry_Int_Tables_number   1
_chemical_formula_structural   Mn2BiO6
_chemical_formula_sum   'Mn8 Bi4 O24'
_cell_volume   419.57313821
_cell_formula_units_Z   4
loop_
 _symmetry_equiv_pos_site_id
 _symmetry_equiv_pos_as_xyz
  1  'x, y, z'
loop_
 _atom_site_type_symbol
 _atom_site_label
 _atom_site_symmetry_multiplicity
 _atom_site_fract_x
 _atom_site_fract_y
 _atom_site_fract_z
 _atom_site_occupancy
  Mn  Mn0  1  0.500083  0.832714  0.750042  1
  Mn  Mn1  1  0.499917  0.167286  0.249958  1
  Mn  Mn2  1  0.000083  0.332714  0.750042  1
  Mn  Mn3  1  0.999917  0.667286  0.249958  1
  Mn  Mn4  1  0.500046  0.165863  0.749963  1
  Mn  Mn5  1  0.000046  0.665863  0.749963  1
  Mn  Mn6  1  0.999954  0.334137  0.250037  1
  Mn  Mn7  1  0.499954  0.834137  0.250037  1
  Bi  Bi8  1  0.000000  0.000000  0.500000  1
  Bi  Bi9  1  0.500000  0.500000  0.500000  1
  Bi  Bi10  1  0.000000  0.000000  0.000000  1
  Bi  Bi11  1  0.500000  0.500000  0.000000  1
  O  O12  1  0.628549  0.999236  0.638919  1
  O  O13  1  0.128549  0.499236  0.638919  1
  O  O14  1  0.685775  0.313693  0.638925  1
  O  O15  1  0.185775  0.813693  0.638925  1
  O  O16  1  0.185773  0.184773  0.639299  1
  O  O17  1  0.685773  0.684773  0.639299  1
  O  O18  1  0.185635  0.186297  0.138953  1
  O  O19  1  0.685635  0.686297  0.138953  1
  O  O20  1  0.128432  0.500765  0.138910  1
  O  O21  1  0.628432  0.000765  0.138910  1
  O  O22  1  0.685670  0.315213  0.139301  1
  O  O23  1  0.185670  0.815213  0.139301  1
  O  O24  1  0.871451  0.500764  0.361081  1
  O  O25  1  0.371451  0.000764  0.361081  1
  O  O26  1  0.814225  0.186307  0.361075  1
  O  O27  1  0.314225  0.686307  0.361075  1
  O  O28  1  0.314227  0.315227  0.360701  1
  O  O29  1  0.814227  0.815227  0.360701  1
  O  O30  1  0.314365  0.313703  0.861047  1
  O  O31  1  0.814365  0.813703  0.861047  1
  O  O32  1  0.371568  0.999235  0.861090  1
  O  O33  1  0.871568  0.499235  0.861090  1
  O  O34  1  0.814330  0.184787  0.860699  1
  O  O35  1  0.314330  0.684787  0.860699  1
