# generated using pymatgen
data_Ac3La2Pb3Se
_symmetry_space_group_name_H-M   'P 1'
_cell_length_a   9.95538688
_cell_length_b   9.94939347
_cell_length_c   7.44167500
_cell_angle_alpha   90.00000000
_cell_angle_beta   90.00000000
_cell_angle_gamma   119.97179644
_symmetry_Int_Tables_number   1
_chemical_formula_structural   Ac3La2Pb3Se
_chemical_formula_sum   'Ac6 La4 Pb6 Se2'
_cell_volume   638.52724737
_cell_formula_units_Z   2
loop_
 _symmetry_equiv_pos_site_id
 _symmetry_equiv_pos_as_xyz
  1  'x, y, z'
loop_
 _atom_site_type_symbol
 _atom_site_label
 _atom_site_symmetry_multiplicity
 _atom_site_fract_x
 _atom_site_fract_y
 _atom_site_fract_z
 _atom_site_occupancy
  Ac  Ac0  1  0.749417  0.749185  0.750000  1
  Ac  Ac1  1  0.250536  0.999767  0.750000  1
  Ac  Ac2  1  0.667341  0.333069  0.001939  1
  Ac  Ac3  1  0.332641  0.665668  0.001931  1
  Ac  Ac4  1  0.332641  0.665668  0.498069  1
  Ac  Ac5  1  0.667341  0.333069  0.498061  1
  La  La6  1  0.999978  0.246273  0.750000  1
  La  La7  1  0.246921  0.247680  0.250000  1
  La  La8  1  0.753114  0.000783  0.250000  1
  La  La9  1  0.000017  0.754254  0.250000  1
  Pb  Pb10  1  0.389023  0.392818  0.750000  1
  Pb  Pb11  1  0.611023  0.003842  0.750000  1
  Pb  Pb12  1  0.000073  0.601631  0.750000  1
  Pb  Pb13  1  0.608744  0.608387  0.250000  1
  Pb  Pb14  1  0.391234  0.999536  0.250000  1
  Pb  Pb15  1  0.999950  0.392013  0.250000  1
  Se  Se16  1  0.000003  0.003179  0.005184  1
  Se  Se17  1  0.000003  0.003179  0.494816  1
