# generated using pymatgen
data_Tb2Y9Cd9Pd4
_symmetry_space_group_name_H-M   'P 1'
_cell_length_a   13.17186204
_cell_length_b   13.17186204
_cell_length_c   3.75049700
_cell_angle_alpha   90.00000000
_cell_angle_beta   90.00000000
_cell_angle_gamma   113.06138072
_symmetry_Int_Tables_number   1
_chemical_formula_structural   Tb2Y9Cd9Pd4
_chemical_formula_sum   'Tb2 Y9 Cd9 Pd4'
_cell_volume   598.70304554
_cell_formula_units_Z   1
loop_
 _symmetry_equiv_pos_site_id
 _symmetry_equiv_pos_as_xyz
  1  'x, y, z'
loop_
 _atom_site_type_symbol
 _atom_site_label
 _atom_site_symmetry_multiplicity
 _atom_site_fract_x
 _atom_site_fract_y
 _atom_site_fract_z
 _atom_site_occupancy
  Tb  Tb0  1  0.307547  0.307547  0.000000  1
  Tb  Tb1  1  0.692453  0.692453  0.000000  1
  Y  Y2  1  0.414815  0.074464  0.000000  1
  Y  Y3  1  0.585185  0.925536  0.000000  1
  Y  Y4  1  0.074464  0.414815  0.000000  1
  Y  Y5  1  0.925536  0.585185  0.000000  1
  Y  Y6  1  0.163515  0.836485  0.000000  1
  Y  Y7  1  0.836485  0.163515  0.000000  1
  Y  Y8  1  0.373077  0.626923  0.000000  1
  Y  Y9  1  0.626923  0.373077  0.000000  1
  Y  Y10  1  0.000000  0.000000  0.000000  1
  Cd  Cd11  1  0.366925  0.842184  0.500000  1
  Cd  Cd12  1  0.633075  0.157816  0.500000  1
  Cd  Cd13  1  0.842184  0.366925  0.500000  1
  Cd  Cd14  1  0.157816  0.633075  0.500000  1
  Cd  Cd15  1  0.213444  0.068327  0.500000  1
  Cd  Cd16  1  0.786556  0.931673  0.500000  1
  Cd  Cd17  1  0.068327  0.213444  0.500000  1
  Cd  Cd18  1  0.931673  0.786556  0.500000  1
  Cd  Cd19  1  0.500000  0.500000  0.500000  1
  Pd  Pd20  1  0.449660  0.249574  0.500000  1
  Pd  Pd21  1  0.550340  0.750426  0.500000  1
  Pd  Pd22  1  0.249574  0.449660  0.500000  1
  Pd  Pd23  1  0.750426  0.550340  0.500000  1
