# generated using pymatgen
data_Pr8Fe(IrO8)3
_symmetry_space_group_name_H-M   'P 1'
_cell_length_a   5.46987781
_cell_length_b   9.44621981
_cell_length_c   10.20266298
_cell_angle_alpha   89.88326307
_cell_angle_beta   89.99671762
_cell_angle_gamma   90.19957318
_symmetry_Int_Tables_number   1
_chemical_formula_structural   Pr8Fe(IrO8)3
_chemical_formula_sum   'Pr8 Fe1 Ir3 O24'
_cell_volume   527.16391657
_cell_formula_units_Z   1
loop_
 _symmetry_equiv_pos_site_id
 _symmetry_equiv_pos_as_xyz
  1  'x, y, z'
loop_
 _atom_site_type_symbol
 _atom_site_label
 _atom_site_symmetry_multiplicity
 _atom_site_fract_x
 _atom_site_fract_y
 _atom_site_fract_z
 _atom_site_occupancy
  Pr  Pr0  1  0.035728  0.218917  0.132429  1
  Pr  Pr1  1  0.465874  0.771891  0.637343  1
  Pr  Pr2  1  0.968644  0.716505  0.373897  1
  Pr  Pr3  1  0.533447  0.289814  0.857518  1
  Pr  Pr4  1  0.029220  0.111299  0.541156  1
  Pr  Pr5  1  0.472940  0.900166  0.038569  1
  Pr  Pr6  1  0.972306  0.600095  0.951921  1
  Pr  Pr7  1  0.523496  0.400887  0.469719  1
  Fe  Fe8  1  0.041367  0.495094  0.640728  1
  Ir  Ir9  1  0.548482  0.001373  0.359803  1
  Ir  Ir10  1  0.955404  0.996523  0.858400  1
  Ir  Ir11  1  0.455553  0.505132  0.142734  1
  O  O12  1  0.443249  0.147998  0.480608  1
  O  O13  1  0.062866  0.850506  0.981082  1
  O  O14  1  0.556024  0.649220  0.017676  1
  O  O15  1  0.934288  0.354119  0.517860  1
  O  O16  1  0.724293  0.392513  0.064847  1
  O  O17  1  0.775754  0.610184  0.562957  1
  O  O18  1  0.283636  0.886266  0.435178  1
  O  O19  1  0.225151  0.111752  0.934751  1
  O  O20  1  0.249687  0.411201  0.008334  1
  O  O21  1  0.247306  0.588314  0.508524  1
  O  O22  1  0.757179  0.912617  0.495685  1
  O  O23  1  0.749475  0.089502  0.994644  1
  O  O24  1  0.186907  0.631300  0.178741  1
  O  O25  1  0.301869  0.361601  0.674506  1
  O  O26  1  0.817726  0.129945  0.320816  1
  O  O27  1  0.685304  0.865902  0.824224  1
  O  O28  1  0.341815  0.060168  0.218204  1
  O  O29  1  0.161787  0.942866  0.717242  1
  O  O30  1  0.659054  0.561195  0.280922  1
  O  O31  1  0.834778  0.445556  0.779601  1
  O  O32  1  0.327491  0.361802  0.258150  1
  O  O33  1  0.178264  0.631824  0.754733  1
  O  O34  1  0.675344  0.859211  0.243443  1
  O  O35  1  0.818292  0.136741  0.743059  1
