# generated using pymatgen
data_Yb5Sb(OsO6)3
_symmetry_space_group_name_H-M   'P 1'
_cell_length_a   8.86770050
_cell_length_b   8.86770026
_cell_length_c   5.28337186
_cell_angle_alpha   93.36159701
_cell_angle_beta   86.63840411
_cell_angle_gamma   121.00155141
_symmetry_Int_Tables_number   1
_chemical_formula_structural   Yb5Sb(OsO6)3
_chemical_formula_sum   'Yb5 Sb1 Os3 O18'
_cell_volume   355.30709833
_cell_formula_units_Z   1
loop_
 _symmetry_equiv_pos_site_id
 _symmetry_equiv_pos_as_xyz
  1  'x, y, z'
loop_
 _atom_site_type_symbol
 _atom_site_label
 _atom_site_symmetry_multiplicity
 _atom_site_fract_x
 _atom_site_fract_y
 _atom_site_fract_z
 _atom_site_occupancy
  Yb  Yb0  1  0.991491  0.258938  0.515103  1
  Yb  Yb1  1  0.258938  0.991491  0.484897  1
  Yb  Yb2  1  0.408150  0.408150  0.000000  1
  Yb  Yb3  1  0.961952  0.601491  0.015301  1
  Yb  Yb4  1  0.601491  0.961952  0.984699  1
  Sb  Sb5  1  0.706881  0.706881  0.500000  1
  Os  Os6  1  0.663916  0.322909  0.506831  1
  Os  Os7  1  0.322909  0.663916  0.493169  1
  Os  Os8  1  0.019565  0.019565  0.000000  1
  O  O9  1  0.747889  0.229945  0.733916  1
  O  O10  1  0.759324  0.555640  0.715913  1
  O  O11  1  0.460085  0.246118  0.697688  1
  O  O12  1  0.555640  0.759324  0.284087  1
  O  O13  1  0.246118  0.460085  0.302312  1
  O  O14  1  0.229945  0.747889  0.266084  1
  O  O15  1  0.616317  0.472655  0.289920  1
  O  O16  1  0.542022  0.128605  0.289671  1
  O  O17  1  0.874807  0.407152  0.330007  1
  O  O18  1  0.081466  0.872992  0.836862  1
  O  O19  1  0.142008  0.200933  0.781287  1
  O  O20  1  0.808762  0.917986  0.736280  1
  O  O21  1  0.200933  0.142008  0.218713  1
  O  O22  1  0.917986  0.808762  0.263720  1
  O  O23  1  0.872992  0.081466  0.163138  1
  O  O24  1  0.472655  0.616317  0.710080  1
  O  O25  1  0.407152  0.874807  0.669993  1
  O  O26  1  0.128605  0.542022  0.710329  1
