# generated using pymatgen
data_Cs2Tb3Dy3Te10
_symmetry_space_group_name_H-M   'P 1'
_cell_length_a   4.42867300
_cell_length_b   13.39076060
_cell_length_c   23.87476907
_cell_angle_alpha   89.96575488
_cell_angle_beta   90.00000000
_cell_angle_gamma   90.00000000
_symmetry_Int_Tables_number   1
_chemical_formula_structural   Cs2Tb3Dy3Te10
_chemical_formula_sum   'Cs4 Tb6 Dy6 Te20'
_cell_volume   1415.85233731
_cell_formula_units_Z   2
loop_
 _symmetry_equiv_pos_site_id
 _symmetry_equiv_pos_as_xyz
  1  'x, y, z'
loop_
 _atom_site_type_symbol
 _atom_site_label
 _atom_site_symmetry_multiplicity
 _atom_site_fract_x
 _atom_site_fract_y
 _atom_site_fract_z
 _atom_site_occupancy
  Cs  Cs0  1  0.250000  0.353912  0.089676  1
  Cs  Cs1  1  0.750000  0.646088  0.910324  1
  Cs  Cs2  1  0.750000  0.853864  0.410301  1
  Cs  Cs3  1  0.250000  0.146136  0.589699  1
  Tb  Tb4  1  0.250000  0.454407  0.697731  1
  Tb  Tb5  1  0.750000  0.545593  0.302269  1
  Tb  Tb6  1  0.750000  0.954548  0.802316  1
  Tb  Tb7  1  0.250000  0.045452  0.197684  1
  Tb  Tb8  1  0.250000  0.796610  0.674581  1
  Tb  Tb9  1  0.750000  0.203390  0.325419  1
  Dy  Dy10  1  0.750000  0.296693  0.825382  1
  Dy  Dy11  1  0.250000  0.703307  0.174618  1
  Dy  Dy12  1  0.250000  0.392257  0.444436  1
  Dy  Dy13  1  0.750000  0.607743  0.555564  1
  Dy  Dy14  1  0.750000  0.892202  0.055604  1
  Dy  Dy15  1  0.250000  0.107798  0.944396  1
  Te  Te16  1  0.250000  0.444704  0.568675  1
  Te  Te17  1  0.750000  0.555296  0.431325  1
  Te  Te18  1  0.750000  0.944702  0.931331  1
  Te  Te19  1  0.250000  0.055298  0.068669  1
  Te  Te20  1  0.250000  0.767790  0.546432  1
  Te  Te21  1  0.750000  0.232210  0.453568  1
  Te  Te22  1  0.750000  0.267881  0.953244  1
  Te  Te23  1  0.250000  0.732119  0.046756  1
  Te  Te24  1  0.250000  0.798932  0.803270  1
  Te  Te25  1  0.750000  0.201068  0.196730  1
  Te  Te26  1  0.750000  0.298898  0.697023  1
  Te  Te27  1  0.250000  0.701102  0.302977  1
  Te  Te28  1  0.250000  0.452957  0.826587  1
  Te  Te29  1  0.750000  0.547043  0.173413  1
  Te  Te30  1  0.750000  0.953663  0.673453  1
  Te  Te31  1  0.250000  0.046337  0.326547  1
  Te  Te32  1  0.250000  0.374987  0.313608  1
  Te  Te33  1  0.750000  0.625013  0.686392  1
  Te  Te34  1  0.750000  0.874557  0.186351  1
  Te  Te35  1  0.250000  0.125443  0.813649  1
