# generated using pymatgen
data_RbTaWO6
_symmetry_space_group_name_H-M   'P 1'
_cell_length_a   7.42264643
_cell_length_b   7.42264625
_cell_length_c   7.42264711
_cell_angle_alpha   120.09403050
_cell_angle_beta   119.93926425
_cell_angle_gamma   89.97122388
_symmetry_Int_Tables_number   1
_chemical_formula_structural   RbTaWO6
_chemical_formula_sum   'Rb2 Ta2 W2 O12'
_cell_volume   289.10193447
_cell_formula_units_Z   2
loop_
 _symmetry_equiv_pos_site_id
 _symmetry_equiv_pos_as_xyz
  1  'x, y, z'
loop_
 _atom_site_type_symbol
 _atom_site_label
 _atom_site_symmetry_multiplicity
 _atom_site_fract_x
 _atom_site_fract_y
 _atom_site_fract_z
 _atom_site_occupancy
  Rb  Rb0  1  0.623904  0.873904  0.750000  1
  Rb  Rb1  1  0.376096  0.126096  0.250000  1
  Ta  Ta2  1  0.500000  0.500000  0.000000  1
  Ta  Ta3  1  0.000000  0.500000  0.500000  1
  W  W4  1  0.000000  0.500000  0.000000  1
  W  W5  1  0.000000  0.000000  0.500000  1
  O  O6  1  0.061006  0.811006  0.250000  1
  O  O7  1  0.686671  0.436671  0.250000  1
  O  O8  1  0.061143  0.816847  0.623606  1
  O  O9  1  0.693241  0.437537  0.876394  1
  O  O10  1  0.693241  0.816847  0.255705  1
  O  O11  1  0.061143  0.437537  0.244295  1
  O  O12  1  0.938994  0.188994  0.750000  1
  O  O13  1  0.313329  0.563329  0.750000  1
  O  O14  1  0.938857  0.183153  0.376394  1
  O  O15  1  0.306759  0.562463  0.123606  1
  O  O16  1  0.306759  0.183153  0.744295  1
  O  O17  1  0.938857  0.562463  0.755705  1
