# generated using pymatgen
data_LiEr6Zn22P
_symmetry_space_group_name_H-M   'P 1'
_cell_length_a   9.00241161
_cell_length_b   9.00207594
_cell_length_c   9.00199000
_cell_angle_alpha   60.00008189
_cell_angle_beta   59.99904334
_cell_angle_gamma   60.00164736
_symmetry_Int_Tables_number   1
_chemical_formula_structural   LiEr6Zn22P
_chemical_formula_sum   'Li1 Er6 Zn22 P1'
_cell_volume   515.85494997
_cell_formula_units_Z   1
loop_
 _symmetry_equiv_pos_site_id
 _symmetry_equiv_pos_as_xyz
  1  'x, y, z'
loop_
 _atom_site_type_symbol
 _atom_site_label
 _atom_site_symmetry_multiplicity
 _atom_site_fract_x
 _atom_site_fract_y
 _atom_site_fract_z
 _atom_site_occupancy
  Li  Li0  1  0.000000  0.000000  0.000000  1
  Er  Er1  1  0.711723  0.288272  0.288280  1
  Er  Er2  1  0.711726  0.288275  0.711716  1
  Er  Er3  1  0.711729  0.711733  0.288271  1
  Er  Er4  1  0.288277  0.711728  0.711720  1
  Er  Er5  1  0.288274  0.711725  0.288284  1
  Er  Er6  1  0.288271  0.288267  0.711729  1
  Zn  Zn7  1  0.626702  0.124424  0.124451  1
  Zn  Zn8  1  0.124422  0.626703  0.124418  1
  Zn  Zn9  1  0.124452  0.124421  0.626707  1
  Zn  Zn10  1  0.124420  0.124456  0.124416  1
  Zn  Zn11  1  0.373298  0.875576  0.875549  1
  Zn  Zn12  1  0.875578  0.373297  0.875582  1
  Zn  Zn13  1  0.875548  0.875579  0.373293  1
  Zn  Zn14  1  0.875580  0.875544  0.875584  1
  Zn  Zn15  1  0.500000  0.000000  0.000000  1
  Zn  Zn16  1  0.500000  0.000000  0.500000  1
  Zn  Zn17  1  0.500000  0.500000  0.000000  1
  Zn  Zn18  1  0.000000  0.500000  0.500000  1
  Zn  Zn19  1  0.000000  0.500000  0.000000  1
  Zn  Zn20  1  0.000000  0.000000  0.500000  1
  Zn  Zn21  1  0.010978  0.329656  0.329713  1
  Zn  Zn22  1  0.329655  0.010977  0.329656  1
  Zn  Zn23  1  0.329711  0.329657  0.010974  1
  Zn  Zn24  1  0.329651  0.329715  0.329659  1
  Zn  Zn25  1  0.989022  0.670344  0.670287  1
  Zn  Zn26  1  0.670345  0.989023  0.670344  1
  Zn  Zn27  1  0.670289  0.670343  0.989026  1
  Zn  Zn28  1  0.670349  0.670285  0.670341  1
  P  P29  1  0.500000  0.500000  0.500000  1
