# generated using pymatgen
data_La9Nd(Bi3C)2
_symmetry_space_group_name_H-M   'P 1'
_cell_length_a   9.64255900
_cell_length_b   9.64255957
_cell_length_c   6.83823100
_cell_angle_alpha   90.00000000
_cell_angle_beta   90.00000000
_cell_angle_gamma   119.99999461
_symmetry_Int_Tables_number   1
_chemical_formula_structural   La9Nd(Bi3C)2
_chemical_formula_sum   'La9 Nd1 Bi6 C2'
_cell_volume   550.62897155
_cell_formula_units_Z   1
loop_
 _symmetry_equiv_pos_site_id
 _symmetry_equiv_pos_as_xyz
  1  'x, y, z'
loop_
 _atom_site_type_symbol
 _atom_site_label
 _atom_site_symmetry_multiplicity
 _atom_site_fract_x
 _atom_site_fract_y
 _atom_site_fract_z
 _atom_site_occupancy
  La  La0  1  0.666667  0.333333  0.000000  1
  La  La1  1  0.333333  0.666667  0.000000  1
  La  La2  1  0.333333  0.666667  0.500000  1
  La  La3  1  0.787964  0.787786  0.749625  1
  La  La4  1  0.212214  0.000177  0.749625  1
  La  La5  1  0.999823  0.212036  0.749625  1
  La  La6  1  0.212214  0.212036  0.250375  1
  La  La7  1  0.787964  0.000177  0.250375  1
  La  La8  1  0.999823  0.787786  0.250375  1
  Nd  Nd9  1  0.666667  0.333333  0.500000  1
  Bi  Bi10  1  0.402705  0.401639  0.748874  1
  Bi  Bi11  1  0.598361  0.001066  0.748874  1
  Bi  Bi12  1  0.998934  0.597295  0.748874  1
  Bi  Bi13  1  0.598361  0.597295  0.251126  1
  Bi  Bi14  1  0.402705  0.001066  0.251126  1
  Bi  Bi15  1  0.998934  0.401639  0.251126  1
  C  C16  1  0.000000  0.000000  0.000000  1
  C  C17  1  0.000000  0.000000  0.500000  1
