# generated using pymatgen
data_Ba4PuRhO8
_symmetry_space_group_name_H-M   'P 1'
_cell_length_a   7.45889200
_cell_length_b   7.45889253
_cell_length_c   5.93577900
_cell_angle_alpha   90.00000000
_cell_angle_beta   90.00000000
_cell_angle_gamma   133.10006687
_symmetry_Int_Tables_number   1
_chemical_formula_structural   Ba4PuRhO8
_chemical_formula_sum   'Ba4 Pu1 Rh1 O8'
_cell_volume   241.12670344
_cell_formula_units_Z   1
loop_
 _symmetry_equiv_pos_site_id
 _symmetry_equiv_pos_as_xyz
  1  'x, y, z'
loop_
 _atom_site_type_symbol
 _atom_site_label
 _atom_site_symmetry_multiplicity
 _atom_site_fract_x
 _atom_site_fract_y
 _atom_site_fract_z
 _atom_site_occupancy
  Ba  Ba0  1  0.644692  0.355308  0.000000  1
  Ba  Ba1  1  0.148744  0.851256  0.500000  1
  Ba  Ba2  1  0.851256  0.148744  0.500000  1
  Ba  Ba3  1  0.355308  0.644692  0.000000  1
  Pu  Pu4  1  0.000000  0.000000  0.000000  1
  Rh  Rh5  1  0.500000  0.500000  0.500000  1
  O  O6  1  0.746147  0.746147  0.747117  1
  O  O7  1  0.253853  0.253853  0.252883  1
  O  O8  1  0.253853  0.253853  0.747117  1
  O  O9  1  0.746147  0.746147  0.252883  1
  O  O10  1  0.841026  0.158974  0.000000  1
  O  O11  1  0.342242  0.657758  0.500000  1
  O  O12  1  0.657758  0.342242  0.500000  1
  O  O13  1  0.158974  0.841026  0.000000  1
