# generated using pymatgen
data_Y13Tm7(Bi2As)4
_symmetry_space_group_name_H-M   'P 1'
_cell_length_a   12.07189206
_cell_length_b   9.10863805
_cell_length_c   8.05262875
_cell_angle_alpha   90.01239944
_cell_angle_beta   89.95206544
_cell_angle_gamma   89.99823462
_symmetry_Int_Tables_number   1
_chemical_formula_structural   Y13Tm7(Bi2As)4
_chemical_formula_sum   'Y13 Tm7 Bi8 As4'
_cell_volume   885.45461039
_cell_formula_units_Z   1
loop_
 _symmetry_equiv_pos_site_id
 _symmetry_equiv_pos_as_xyz
  1  'x, y, z'
loop_
 _atom_site_type_symbol
 _atom_site_label
 _atom_site_symmetry_multiplicity
 _atom_site_fract_x
 _atom_site_fract_y
 _atom_site_fract_z
 _atom_site_occupancy
  Y  Y0  1  0.063078  0.053931  0.182030  1
  Y  Y1  1  0.711150  0.250223  0.656658  1
  Y  Y2  1  0.211309  0.250749  0.843616  1
  Y  Y3  1  0.289280  0.749975  0.343995  1
  Y  Y4  1  0.788749  0.750119  0.156660  1
  Y  Y5  1  0.500305  0.250341  0.965404  1
  Y  Y6  1  0.999727  0.250669  0.535740  1
  Y  Y7  1  0.500093  0.749881  0.034427  1
  Y  Y8  1  0.999817  0.749707  0.465917  1
  Y  Y9  1  0.793519  0.250285  0.136272  1
  Y  Y10  1  0.294691  0.250937  0.364022  1
  Y  Y11  1  0.206184  0.750277  0.863483  1
  Y  Y12  1  0.705936  0.750214  0.636429  1
  Tm  Tm13  1  0.563076  0.057408  0.319113  1
  Tm  Tm14  1  0.063409  0.442577  0.181385  1
  Tm  Tm15  1  0.436936  0.557530  0.681090  1
  Tm  Tm16  1  0.936536  0.942518  0.818697  1
  Tm  Tm17  1  0.436969  0.942608  0.681003  1
  Tm  Tm18  1  0.936461  0.557166  0.818027  1
  Tm  Tm19  1  0.563266  0.442877  0.319063  1
  Bi  Bi20  1  0.826235  0.009432  0.426231  1
  Bi  Bi21  1  0.326627  0.491115  0.073703  1
  Bi  Bi22  1  0.173641  0.509416  0.573874  1
  Bi  Bi23  1  0.673402  0.990817  0.926382  1
  Bi  Bi24  1  0.173563  0.991352  0.573955  1
  Bi  Bi25  1  0.673587  0.509429  0.926272  1
  Bi  Bi26  1  0.826336  0.490934  0.426404  1
  Bi  Bi27  1  0.327039  0.009512  0.073282  1
  As  As28  1  0.978762  0.251144  0.912391  1
  As  As29  1  0.479332  0.250111  0.587159  1
  As  As30  1  0.019799  0.746675  0.084335  1
  As  As31  1  0.521183  0.750072  0.412982  1
