# generated using pymatgen
data_PrNd3(MoO6)2
_symmetry_space_group_name_H-M   'P 1'
_cell_length_a   10.23985403
_cell_length_b   10.25302699
_cell_length_c   5.59891302
_cell_angle_alpha   75.23601854
_cell_angle_beta   75.30994918
_cell_angle_gamma   68.64655968
_symmetry_Int_Tables_number   1
_chemical_formula_structural   PrNd3(MoO6)2
_chemical_formula_sum   'Pr2 Nd6 Mo4 O24'
_cell_volume   520.89186993
_cell_formula_units_Z   2
loop_
 _symmetry_equiv_pos_site_id
 _symmetry_equiv_pos_as_xyz
  1  'x, y, z'
loop_
 _atom_site_type_symbol
 _atom_site_label
 _atom_site_symmetry_multiplicity
 _atom_site_fract_x
 _atom_site_fract_y
 _atom_site_fract_z
 _atom_site_occupancy
  Pr  Pr0  1  0.056066  0.287899  0.617563  1
  Pr  Pr1  1  0.943934  0.712101  0.382437  1
  Nd  Nd2  1  0.632529  0.367030  0.750376  1
  Nd  Nd3  1  0.367471  0.632970  0.249624  1
  Nd  Nd4  1  0.109898  0.890510  0.749856  1
  Nd  Nd5  1  0.890102  0.109490  0.250144  1
  Nd  Nd6  1  0.711791  0.945170  0.881224  1
  Nd  Nd7  1  0.288209  0.054830  0.118776  1
  Mo  Mo8  1  0.507975  0.797245  0.559903  1
  Mo  Mo9  1  0.492025  0.202755  0.440097  1
  Mo  Mo10  1  0.203463  0.491944  0.939133  1
  Mo  Mo11  1  0.796537  0.508056  0.060867  1
  O  O12  1  0.686157  0.163565  0.584117  1
  O  O13  1  0.313843  0.836435  0.415883  1
  O  O14  1  0.835402  0.314055  0.918040  1
  O  O15  1  0.164598  0.685945  0.081960  1
  O  O16  1  0.385744  0.826269  0.861514  1
  O  O17  1  0.614256  0.173731  0.138486  1
  O  O18  1  0.174086  0.614123  0.637081  1
  O  O19  1  0.825914  0.385877  0.362919  1
  O  O20  1  0.675076  0.787586  0.637420  1
  O  O21  1  0.324924  0.212414  0.362580  1
  O  O22  1  0.213968  0.324045  0.864510  1
  O  O23  1  0.786032  0.675955  0.135490  1
  O  O24  1  0.473823  0.070846  0.733513  1
  O  O25  1  0.526177  0.929154  0.266487  1
  O  O26  1  0.929088  0.525762  0.768924  1
  O  O27  1  0.070912  0.474238  0.231076  1
  O  O28  1  0.545426  0.615700  0.519374  1
  O  O29  1  0.454574  0.384300  0.480626  1
  O  O30  1  0.385038  0.454473  0.980896  1
  O  O31  1  0.614962  0.545527  0.019104  1
  O  O32  1  0.891241  0.924880  0.077757  1
  O  O33  1  0.108759  0.075120  0.922243  1
  O  O34  1  0.077149  0.106950  0.420162  1
  O  O35  1  0.922851  0.893050  0.579838  1
