# generated using pymatgen
data_Tb4Al4Pt3Rh
_symmetry_space_group_name_H-M   'P 1'
_cell_length_a   4.43671800
_cell_length_b   6.88424306
_cell_length_c   7.80297308
_cell_angle_alpha   90.01559056
_cell_angle_beta   90.00000000
_cell_angle_gamma   90.00000000
_symmetry_Int_Tables_number   1
_chemical_formula_structural   Tb4Al4Pt3Rh
_chemical_formula_sum   'Tb4 Al4 Pt3 Rh1'
_cell_volume   238.32967097
_cell_formula_units_Z   1
loop_
 _symmetry_equiv_pos_site_id
 _symmetry_equiv_pos_as_xyz
  1  'x, y, z'
loop_
 _atom_site_type_symbol
 _atom_site_label
 _atom_site_symmetry_multiplicity
 _atom_site_fract_x
 _atom_site_fract_y
 _atom_site_fract_z
 _atom_site_occupancy
  Tb  Tb0  1  0.250000  0.033227  0.678718  1
  Tb  Tb1  1  0.250000  0.530712  0.818695  1
  Tb  Tb2  1  0.750000  0.972590  0.318584  1
  Tb  Tb3  1  0.750000  0.469081  0.183423  1
  Al  Al4  1  0.250000  0.146906  0.064320  1
  Al  Al5  1  0.250000  0.641188  0.435728  1
  Al  Al6  1  0.750000  0.853881  0.936244  1
  Al  Al7  1  0.750000  0.354687  0.562945  1
  Pt  Pt8  1  0.250000  0.775347  0.116184  1
  Pt  Pt9  1  0.750000  0.726895  0.616500  1
  Pt  Pt10  1  0.750000  0.226465  0.883288  1
  Rh  Rh11  1  0.250000  0.269021  0.385369  1
