# generated using pymatgen
data_Er4Ga3ReOs4
_symmetry_space_group_name_H-M   'P 1'
_cell_length_a   5.29889329
_cell_length_b   5.29889378
_cell_length_c   8.88285000
_cell_angle_alpha   90.00000000
_cell_angle_beta   90.00000000
_cell_angle_gamma   118.62768216
_symmetry_Int_Tables_number   1
_chemical_formula_structural   Er4Ga3ReOs4
_chemical_formula_sum   'Er4 Ga3 Re1 Os4'
_cell_volume   218.92448835
_cell_formula_units_Z   1
loop_
 _symmetry_equiv_pos_site_id
 _symmetry_equiv_pos_as_xyz
  1  'x, y, z'
loop_
 _atom_site_type_symbol
 _atom_site_label
 _atom_site_symmetry_multiplicity
 _atom_site_fract_x
 _atom_site_fract_y
 _atom_site_fract_z
 _atom_site_occupancy
  Er  Er0  1  0.331078  0.668922  0.436246  1
  Er  Er1  1  0.665732  0.334268  0.557472  1
  Er  Er2  1  0.665732  0.334268  0.942528  1
  Er  Er3  1  0.331078  0.668922  0.063754  1
  Ga  Ga4  1  0.166857  0.833143  0.750000  1
  Ga  Ga5  1  0.168209  0.330433  0.750000  1
  Ga  Ga6  1  0.669567  0.831791  0.750000  1
  Re  Re7  1  0.835535  0.164465  0.250000  1
  Os  Os8  1  0.994142  0.005858  0.498348  1
  Os  Os9  1  0.994142  0.005858  0.001652  1
  Os  Os10  1  0.829383  0.651455  0.250000  1
  Os  Os11  1  0.348545  0.170617  0.250000  1
