# generated using pymatgen
data_Hf18MnGaRe7W
_symmetry_space_group_name_H-M   'P 1'
_cell_length_a   8.60531900
_cell_length_b   8.60531887
_cell_length_c   8.57271900
_cell_angle_alpha   90.00000000
_cell_angle_beta   90.00000000
_cell_angle_gamma   119.99999666
_symmetry_Int_Tables_number   1
_chemical_formula_structural   Hf18MnGaRe7W
_chemical_formula_sum   'Hf18 Mn1 Ga1 Re7 W1'
_cell_volume   549.77270824
_cell_formula_units_Z   1
loop_
 _symmetry_equiv_pos_site_id
 _symmetry_equiv_pos_as_xyz
  1  'x, y, z'
loop_
 _atom_site_type_symbol
 _atom_site_label
 _atom_site_symmetry_multiplicity
 _atom_site_fract_x
 _atom_site_fract_y
 _atom_site_fract_z
 _atom_site_occupancy
  Hf  Hf0  1  0.194033  0.805967  0.452588  1
  Hf  Hf1  1  0.194033  0.388067  0.452588  1
  Hf  Hf2  1  0.611933  0.805967  0.452588  1
  Hf  Hf3  1  0.797279  0.202721  0.556680  1
  Hf  Hf4  1  0.797279  0.594560  0.556680  1
  Hf  Hf5  1  0.405440  0.202721  0.556680  1
  Hf  Hf6  1  0.798080  0.201920  0.942733  1
  Hf  Hf7  1  0.798080  0.596161  0.942733  1
  Hf  Hf8  1  0.403839  0.201920  0.942733  1
  Hf  Hf9  1  0.191188  0.808812  0.047507  1
  Hf  Hf10  1  0.191188  0.382376  0.047507  1
  Hf  Hf11  1  0.617624  0.808812  0.047507  1
  Hf  Hf12  1  0.539773  0.460227  0.248771  1
  Hf  Hf13  1  0.539773  0.079546  0.248771  1
  Hf  Hf14  1  0.920454  0.460227  0.248771  1
  Hf  Hf15  1  0.461433  0.538567  0.751043  1
  Hf  Hf16  1  0.461433  0.922865  0.751043  1
  Hf  Hf17  1  0.077135  0.538567  0.751043  1
  Mn  Mn18  1  0.666667  0.333333  0.750675  1
  Ga  Ga19  1  0.333333  0.666667  0.247489  1
  Re  Re20  1  0.888750  0.111250  0.251511  1
  Re  Re21  1  0.888750  0.777499  0.251511  1
  Re  Re22  1  0.222501  0.111250  0.251511  1
  Re  Re23  1  0.110374  0.889626  0.749354  1
  Re  Re24  1  0.110374  0.220748  0.749354  1
  Re  Re25  1  0.779252  0.889626  0.749354  1
  Re  Re26  1  0.000000  0.000000  0.001473  1
  W  W27  1  0.000000  0.000000  0.499803  1
