# generated using pymatgen
data_Er10In8Co2CuPd
_symmetry_space_group_name_H-M   'P 1'
_cell_length_a   3.56665500
_cell_length_b   8.04323740
_cell_length_c   17.98930049
_cell_angle_alpha   89.98003029
_cell_angle_beta   90.00000000
_cell_angle_gamma   90.00000000
_symmetry_Int_Tables_number   1
_chemical_formula_structural   Er10In8Co2CuPd
_chemical_formula_sum   'Er10 In8 Co2 Cu1 Pd1'
_cell_volume   516.06717884
_cell_formula_units_Z   1
loop_
 _symmetry_equiv_pos_site_id
 _symmetry_equiv_pos_as_xyz
  1  'x, y, z'
loop_
 _atom_site_type_symbol
 _atom_site_label
 _atom_site_symmetry_multiplicity
 _atom_site_fract_x
 _atom_site_fract_y
 _atom_site_fract_z
 _atom_site_occupancy
  Er  Er0  1  0.000000  0.499685  0.500657  1
  Er  Er1  1  0.000000  0.000442  0.998691  1
  Er  Er2  1  0.000000  0.728954  0.275399  1
  Er  Er3  1  0.000000  0.274872  0.724131  1
  Er  Er4  1  0.000000  0.737933  0.781000  1
  Er  Er5  1  0.000000  0.262330  0.218921  1
  Er  Er6  1  0.000000  0.615602  0.088812  1
  Er  Er7  1  0.000000  0.385406  0.910881  1
  Er  Er8  1  0.000000  0.878538  0.585692  1
  Er  Er9  1  0.000000  0.117774  0.416006  1
  In  In10  1  0.500000  0.704997  0.931270  1
  In  In11  1  0.500000  0.295570  0.067724  1
  In  In12  1  0.500000  0.790300  0.431473  1
  In  In13  1  0.500000  0.204743  0.569918  1
  In  In14  1  0.500000  0.573259  0.651704  1
  In  In15  1  0.500000  0.426631  0.349180  1
  In  In16  1  0.500000  0.926753  0.148677  1
  In  In17  1  0.500000  0.075666  0.848428  1
  Co  Co18  1  0.500000  0.521454  0.193956  1
  Co  Co19  1  0.500000  0.477824  0.804730  1
  Cu  Cu20  1  0.500000  0.978503  0.699380  1
  Pd  Pd21  1  0.500000  0.022763  0.303371  1
