# generated using pymatgen
data_Gd7Y(IrRh)4
_symmetry_space_group_name_H-M   'P 1'
_cell_length_a   6.91371001
_cell_length_b   4.85717900
_cell_length_c   9.72590500
_cell_angle_alpha   89.99996461
_cell_angle_beta   89.99759669
_cell_angle_gamma   89.99985845
_symmetry_Int_Tables_number   1
_chemical_formula_structural   Gd7Y(IrRh)4
_chemical_formula_sum   'Gd7 Y1 Ir4 Rh4'
_cell_volume   326.60685123
_cell_formula_units_Z   1
loop_
 _symmetry_equiv_pos_site_id
 _symmetry_equiv_pos_as_xyz
  1  'x, y, z'
loop_
 _atom_site_type_symbol
 _atom_site_label
 _atom_site_symmetry_multiplicity
 _atom_site_fract_x
 _atom_site_fract_y
 _atom_site_fract_z
 _atom_site_occupancy
  Gd  Gd0  1  0.999821  0.749946  0.124472  1
  Gd  Gd1  1  0.499933  0.750426  0.126069  1
  Gd  Gd2  1  0.999710  0.249835  0.374915  1
  Gd  Gd3  1  0.499318  0.250043  0.374811  1
  Gd  Gd4  1  0.500277  0.749634  0.623849  1
  Gd  Gd5  1  0.000288  0.750080  0.625545  1
  Gd  Gd6  1  0.500226  0.249982  0.875306  1
  Y  Y7  1  0.000187  0.249971  0.874949  1
  Ir  Ir8  1  0.749219  0.250044  0.124402  1
  Ir  Ir9  1  0.251906  0.749839  0.374906  1
  Ir  Ir10  1  0.749024  0.250036  0.625831  1
  Ir  Ir11  1  0.249604  0.750002  0.875051  1
  Rh  Rh12  1  0.251412  0.250019  0.124670  1
  Rh  Rh13  1  0.747450  0.750233  0.374657  1
  Rh  Rh14  1  0.252029  0.249969  0.625230  1
  Rh  Rh15  1  0.749596  0.749932  0.875339  1
