# generated using pymatgen
data_Ta7NbCoCu3N2
_symmetry_space_group_name_H-M   'P 1'
_cell_length_a   8.26533951
_cell_length_b   8.26533989
_cell_length_c   8.28900600
_cell_angle_alpha   59.90523766
_cell_angle_beta   59.90523612
_cell_angle_gamma   60.01840971
_symmetry_Int_Tables_number   1
_chemical_formula_structural   Ta7NbCoCu3N2
_chemical_formula_sum   'Ta14 Nb2 Co2 Cu6 N4'
_cell_volume   399.89459878
_cell_formula_units_Z   2
loop_
 _symmetry_equiv_pos_site_id
 _symmetry_equiv_pos_as_xyz
  1  'x, y, z'
loop_
 _atom_site_type_symbol
 _atom_site_label
 _atom_site_symmetry_multiplicity
 _atom_site_fract_x
 _atom_site_fract_y
 _atom_site_fract_z
 _atom_site_occupancy
  Ta  Ta0  1  0.117078  0.634129  0.624396  1
  Ta  Ta1  1  0.634129  0.117078  0.624396  1
  Ta  Ta2  1  0.630351  0.630351  0.122241  1
  Ta  Ta3  1  0.630351  0.630351  0.617056  1
  Ta  Ta4  1  0.816109  0.181845  0.815121  1
  Ta  Ta5  1  0.181845  0.816109  0.186925  1
  Ta  Ta6  1  0.181845  0.816109  0.815121  1
  Ta  Ta7  1  0.816109  0.181845  0.186925  1
  Ta  Ta8  1  0.437939  0.437939  0.062061  1
  Ta  Ta9  1  0.065380  0.065380  0.434620  1
  Ta  Ta10  1  0.434688  0.066100  0.435266  1
  Ta  Ta11  1  0.066100  0.434688  0.063945  1
  Ta  Ta12  1  0.066100  0.434688  0.435266  1
  Ta  Ta13  1  0.434688  0.066100  0.063945  1
  Nb  Nb14  1  0.817502  0.817502  0.182498  1
  Nb  Nb15  1  0.183992  0.183992  0.816008  1
  Co  Co16  1  0.826701  0.826701  0.517442  1
  Co  Co17  1  0.826701  0.826701  0.829156  1
  Cu  Cu18  1  0.752106  0.416134  0.415881  1
  Cu  Cu19  1  0.416134  0.752106  0.415881  1
  Cu  Cu20  1  0.416919  0.416919  0.750639  1
  Cu  Cu21  1  0.416919  0.416919  0.415524  1
  Cu  Cu22  1  0.499018  0.830450  0.835265  1
  Cu  Cu23  1  0.830450  0.499018  0.835265  1
  N  N24  1  0.621391  0.128941  0.124834  1
  N  N25  1  0.128941  0.621391  0.124834  1
  N  N26  1  0.125256  0.125256  0.621764  1
  N  N27  1  0.125256  0.125256  0.127722  1
