# generated using pymatgen
data_ThInGa3Pt2
_symmetry_space_group_name_H-M   'P 1'
_cell_length_a   4.40438100
_cell_length_b   6.94712700
_cell_length_c   18.05367300
_cell_angle_alpha   90.00000000
_cell_angle_beta   90.00000000
_cell_angle_gamma   90.00000000
_symmetry_Int_Tables_number   1
_chemical_formula_structural   ThInGa3Pt2
_chemical_formula_sum   'Th4 In4 Ga12 Pt8'
_cell_volume   552.40257035
_cell_formula_units_Z   4
loop_
 _symmetry_equiv_pos_site_id
 _symmetry_equiv_pos_as_xyz
  1  'x, y, z'
loop_
 _atom_site_type_symbol
 _atom_site_label
 _atom_site_symmetry_multiplicity
 _atom_site_fract_x
 _atom_site_fract_y
 _atom_site_fract_z
 _atom_site_occupancy
  Th  Th0  1  0.750000  0.991893  0.641044  1
  Th  Th1  1  0.250000  0.008107  0.358956  1
  Th  Th2  1  0.250000  0.491893  0.858956  1
  Th  Th3  1  0.750000  0.508107  0.141044  1
  In  In4  1  0.250000  0.498834  0.428698  1
  In  In5  1  0.750000  0.501166  0.571302  1
  In  In6  1  0.750000  0.998834  0.071302  1
  In  In7  1  0.250000  0.001166  0.928698  1
  Ga  Ga8  1  0.250000  0.280902  0.691210  1
  Ga  Ga9  1  0.750000  0.719098  0.308790  1
  Ga  Ga10  1  0.750000  0.780902  0.808790  1
  Ga  Ga11  1  0.250000  0.219098  0.191210  1
  Ga  Ga12  1  0.250000  0.674590  0.684971  1
  Ga  Ga13  1  0.750000  0.325410  0.315029  1
  Ga  Ga14  1  0.750000  0.174590  0.815029  1
  Ga  Ga15  1  0.250000  0.825410  0.184971  1
  Ga  Ga16  1  0.250000  0.156371  0.534201  1
  Ga  Ga17  1  0.750000  0.843629  0.465799  1
  Ga  Ga18  1  0.750000  0.656371  0.965799  1
  Ga  Ga19  1  0.250000  0.343629  0.034201  1
  Pt  Pt20  1  0.250000  0.771466  0.541696  1
  Pt  Pt21  1  0.750000  0.228534  0.458304  1
  Pt  Pt22  1  0.750000  0.271466  0.958304  1
  Pt  Pt23  1  0.250000  0.728534  0.041696  1
  Pt  Pt24  1  0.250000  0.971315  0.776928  1
  Pt  Pt25  1  0.750000  0.028685  0.223072  1
  Pt  Pt26  1  0.750000  0.471315  0.723072  1
  Pt  Pt27  1  0.250000  0.528685  0.276928  1
