# generated using pymatgen
data_TaCu(PdPt2)2
_symmetry_space_group_name_H-M   'P 1'
_cell_length_a   3.97582200
_cell_length_b   3.97738400
_cell_length_c   7.90283600
_cell_angle_alpha   90.00000000
_cell_angle_beta   90.00000000
_cell_angle_gamma   90.00000000
_symmetry_Int_Tables_number   1
_chemical_formula_structural   TaCu(PdPt2)2
_chemical_formula_sum   'Ta1 Cu1 Pd2 Pt4'
_cell_volume   124.97047612
_cell_formula_units_Z   1
loop_
 _symmetry_equiv_pos_site_id
 _symmetry_equiv_pos_as_xyz
  1  'x, y, z'
loop_
 _atom_site_type_symbol
 _atom_site_label
 _atom_site_symmetry_multiplicity
 _atom_site_fract_x
 _atom_site_fract_y
 _atom_site_fract_z
 _atom_site_occupancy
  Ta  Ta0  1  0.000000  0.000000  0.500465  1
  Cu  Cu1  1  0.000000  0.000000  0.000385  1
  Pd  Pd2  1  0.500000  0.500000  0.000934  1
  Pd  Pd3  1  0.500000  0.000000  0.250616  1
  Pt  Pt4  1  0.500000  0.500000  0.499285  1
  Pt  Pt5  1  0.500000  0.000000  0.747699  1
  Pt  Pt6  1  0.000000  0.500000  0.253127  1
  Pt  Pt7  1  0.000000  0.500000  0.747488  1
