# generated using pymatgen
data_Ac23Cd4Ru7
_symmetry_space_group_name_H-M   'P 1'
_cell_length_a   10.62175200
_cell_length_b   10.62175194
_cell_length_c   23.80048800
_cell_angle_alpha   90.00000000
_cell_angle_beta   90.00000000
_cell_angle_gamma   120.00000017
_symmetry_Int_Tables_number   1
_chemical_formula_structural   Ac23Cd4Ru7
_chemical_formula_sum   'Ac46 Cd8 Ru14'
_cell_volume   2325.45963121
_cell_formula_units_Z   2
loop_
 _symmetry_equiv_pos_site_id
 _symmetry_equiv_pos_as_xyz
  1  'x, y, z'
loop_
 _atom_site_type_symbol
 _atom_site_label
 _atom_site_symmetry_multiplicity
 _atom_site_fract_x
 _atom_site_fract_y
 _atom_site_fract_z
 _atom_site_occupancy
  Ac  Ac0  1  0.208648  0.417295  0.719130  1
  Ac  Ac1  1  0.208648  0.791352  0.719130  1
  Ac  Ac2  1  0.791352  0.582705  0.219130  1
  Ac  Ac3  1  0.582705  0.791352  0.719130  1
  Ac  Ac4  1  0.791352  0.208648  0.219130  1
  Ac  Ac5  1  0.417295  0.208648  0.219130  1
  Ac  Ac6  1  0.791740  0.583480  0.948223  1
  Ac  Ac7  1  0.791740  0.208260  0.948223  1
  Ac  Ac8  1  0.208260  0.416520  0.448223  1
  Ac  Ac9  1  0.416520  0.208260  0.948223  1
  Ac  Ac10  1  0.208260  0.791740  0.448223  1
  Ac  Ac11  1  0.583480  0.791740  0.448223  1
  Ac  Ac12  1  0.207625  0.415249  0.990351  1
  Ac  Ac13  1  0.207625  0.792375  0.990351  1
  Ac  Ac14  1  0.792375  0.584751  0.490351  1
  Ac  Ac15  1  0.584751  0.792375  0.990351  1
  Ac  Ac16  1  0.792375  0.207625  0.490351  1
  Ac  Ac17  1  0.415249  0.207625  0.490351  1
  Ac  Ac18  1  0.876412  0.752825  0.634486  1
  Ac  Ac19  1  0.876412  0.123588  0.634486  1
  Ac  Ac20  1  0.123588  0.247175  0.134486  1
  Ac  Ac21  1  0.247175  0.123588  0.634486  1
  Ac  Ac22  1  0.123588  0.876412  0.134486  1
  Ac  Ac23  1  0.752825  0.876412  0.134486  1
  Ac  Ac24  1  0.460568  0.921137  0.853428  1
  Ac  Ac25  1  0.460568  0.539432  0.853428  1
  Ac  Ac26  1  0.539432  0.078863  0.353428  1
  Ac  Ac27  1  0.078863  0.539432  0.853428  1
  Ac  Ac28  1  0.539432  0.460568  0.353428  1
  Ac  Ac29  1  0.921137  0.460568  0.353428  1
  Ac  Ac30  1  0.000000  0.000000  0.001495  1
  Ac  Ac31  1  0.000000  0.000000  0.501495  1
  Ac  Ac32  1  0.458373  0.916745  0.585544  1
  Ac  Ac33  1  0.458373  0.541627  0.585544  1
  Ac  Ac34  1  0.541627  0.083255  0.085544  1
  Ac  Ac35  1  0.083255  0.541627  0.585544  1
  Ac  Ac36  1  0.541627  0.458373  0.085544  1
  Ac  Ac37  1  0.916745  0.458373  0.085544  1
  Ac  Ac38  1  0.793187  0.586375  0.781201  1
  Ac  Ac39  1  0.793187  0.206813  0.781201  1
  Ac  Ac40  1  0.206813  0.413625  0.281201  1
  Ac  Ac41  1  0.413625  0.206813  0.781201  1
  Ac  Ac42  1  0.206813  0.793187  0.281201  1
  Ac  Ac43  1  0.586375  0.793187  0.281201  1
  Ac  Ac44  1  0.666667  0.333333  0.646860  1
  Ac  Ac45  1  0.333333  0.666667  0.146860  1
  Cd  Cd46  1  0.000000  0.000000  0.753460  1
  Cd  Cd47  1  0.000000  0.000000  0.253460  1
  Cd  Cd48  1  0.103988  0.207976  0.862363  1
  Cd  Cd49  1  0.103988  0.896012  0.862363  1
  Cd  Cd50  1  0.896012  0.792024  0.362363  1
  Cd  Cd51  1  0.792024  0.896012  0.862363  1
  Cd  Cd52  1  0.896012  0.103988  0.362363  1
  Cd  Cd53  1  0.207976  0.103988  0.362363  1
  Ru  Ru54  1  0.515883  0.031766  0.712650  1
  Ru  Ru55  1  0.515883  0.484117  0.712650  1
  Ru  Ru56  1  0.484117  0.968234  0.212650  1
  Ru  Ru57  1  0.968234  0.484117  0.712650  1
  Ru  Ru58  1  0.484117  0.515883  0.212650  1
  Ru  Ru59  1  0.031766  0.515883  0.212650  1
  Ru  Ru60  1  0.666667  0.333333  0.868905  1
  Ru  Ru61  1  0.333333  0.666667  0.368905  1
  Ru  Ru62  1  0.147754  0.295509  0.561289  1
  Ru  Ru63  1  0.147754  0.852246  0.561289  1
  Ru  Ru64  1  0.852246  0.704491  0.061289  1
  Ru  Ru65  1  0.704491  0.852246  0.561289  1
  Ru  Ru66  1  0.852246  0.147754  0.061289  1
  Ru  Ru67  1  0.295509  0.147754  0.061289  1
