# generated using pymatgen
data_Ho7(NiTe)2
_symmetry_space_group_name_H-M   'P 1'
_cell_length_a   9.25483178
_cell_length_b   9.25483292
_cell_length_c   9.25483279
_cell_angle_alpha   155.50044369
_cell_angle_beta   118.43491578
_cell_angle_gamma   67.28641764
_symmetry_Int_Tables_number   1
_chemical_formula_structural   Ho7(NiTe)2
_chemical_formula_sum   'Ho7 Ni2 Te2'
_cell_volume   286.63421596
_cell_formula_units_Z   1
loop_
 _symmetry_equiv_pos_site_id
 _symmetry_equiv_pos_as_xyz
  1  'x, y, z'
loop_
 _atom_site_type_symbol
 _atom_site_label
 _atom_site_symmetry_multiplicity
 _atom_site_fract_x
 _atom_site_fract_y
 _atom_site_fract_z
 _atom_site_occupancy
  Ho  Ho0  1  0.308635  0.686191  0.622444  1
  Ho  Ho1  1  0.936254  0.313809  0.622444  1
  Ho  Ho2  1  0.002178  0.000000  0.002178  1
  Ho  Ho3  1  0.548998  0.132935  0.416063  1
  Ho  Ho4  1  0.283128  0.867065  0.416063  1
  Ho  Ho5  1  0.625852  0.354823  0.271028  1
  Ho  Ho6  1  0.916204  0.645177  0.271028  1
  Ni  Ni7  1  0.166453  0.235294  0.931159  1
  Ni  Ni8  1  0.695865  0.764706  0.931159  1
  Te  Te9  1  0.662603  0.000000  0.662603  1
  Te  Te10  1  0.265629  0.500000  0.765629  1
