# generated using pymatgen
data_Y4ErRu2
_symmetry_space_group_name_H-M   'P 1'
_cell_length_a   6.34859255
_cell_length_b   7.30968951
_cell_length_c   8.49448989
_cell_angle_alpha   96.68753559
_cell_angle_beta   111.94330245
_cell_angle_gamma   89.99999859
_symmetry_Int_Tables_number   1
_chemical_formula_structural   Y4ErRu2
_chemical_formula_sum   'Y8 Er2 Ru4'
_cell_volume   362.74614778
_cell_formula_units_Z   2
loop_
 _symmetry_equiv_pos_site_id
 _symmetry_equiv_pos_as_xyz
  1  'x, y, z'
loop_
 _atom_site_type_symbol
 _atom_site_label
 _atom_site_symmetry_multiplicity
 _atom_site_fract_x
 _atom_site_fract_y
 _atom_site_fract_z
 _atom_site_occupancy
  Y  Y0  1  0.791194  0.584363  0.814124  1
  Y  Y1  1  0.977069  0.915637  0.185876  1
  Y  Y2  1  0.208806  0.415637  0.185876  1
  Y  Y3  1  0.022931  0.084363  0.814124  1
  Y  Y4  1  0.205791  0.684846  0.565575  1
  Y  Y5  1  0.640217  0.815154  0.434425  1
  Y  Y6  1  0.794209  0.315154  0.434425  1
  Y  Y7  1  0.359783  0.184846  0.565575  1
  Er  Er8  1  0.420061  0.750000  0.000000  1
  Er  Er9  1  0.579939  0.250000  0.000000  1
  Ru  Ru10  1  0.601695  0.924597  0.781812  1
  Ru  Ru11  1  0.819882  0.575403  0.218188  1
  Ru  Ru12  1  0.398305  0.075403  0.218188  1
  Ru  Ru13  1  0.180118  0.424597  0.781812  1
