# generated using pymatgen
data_Er2MnFeCo10P7
_symmetry_space_group_name_H-M   'P 1'
_cell_length_a   9.00907195
_cell_length_b   9.01776619
_cell_length_c   3.60373200
_cell_angle_alpha   90.00000000
_cell_angle_beta   90.00000000
_cell_angle_gamma   120.00145784
_symmetry_Int_Tables_number   1
_chemical_formula_structural   Er2MnFeCo10P7
_chemical_formula_sum   'Er2 Mn1 Fe1 Co10 P7'
_cell_volume   253.54541654
_cell_formula_units_Z   1
loop_
 _symmetry_equiv_pos_site_id
 _symmetry_equiv_pos_as_xyz
  1  'x, y, z'
loop_
 _atom_site_type_symbol
 _atom_site_label
 _atom_site_symmetry_multiplicity
 _atom_site_fract_x
 _atom_site_fract_y
 _atom_site_fract_z
 _atom_site_occupancy
  Er  Er0  1  0.998966  0.998137  0.000000  1
  Er  Er1  1  0.333393  0.667279  0.500000  1
  Mn  Mn2  1  0.546484  0.431376  0.500000  1
  Fe  Fe3  1  0.572260  0.113562  0.500000  1
  Co  Co4  1  0.097514  0.703817  0.000000  1
  Co  Co5  1  0.295899  0.394482  0.000000  1
  Co  Co6  1  0.606438  0.902797  0.000000  1
  Co  Co7  1  0.824889  0.216416  0.000000  1
  Co  Co8  1  0.784125  0.606133  0.000000  1
  Co  Co9  1  0.390107  0.174468  0.000000  1
  Co  Co10  1  0.051546  0.283935  0.500000  1
  Co  Co11  1  0.718091  0.769789  0.500000  1
  Co  Co12  1  0.230915  0.947436  0.500000  1
  Co  Co13  1  0.886542  0.459262  0.500000  1
  P  P14  1  0.077421  0.446912  0.000000  1
  P  P15  1  0.553888  0.632836  0.000000  1
  P  P16  1  0.369853  0.922846  0.000000  1
  P  P17  1  0.780138  0.044511  0.500000  1
  P  P18  1  0.956208  0.736927  0.500000  1
  P  P19  1  0.259266  0.216726  0.500000  1
  P  P20  1  0.666055  0.330348  0.000000  1
