# generated using pymatgen
data_K3SnS3
_symmetry_space_group_name_H-M   'P 1'
_cell_length_a   12.52162800
_cell_length_b   8.70742335
_cell_length_c   8.95728364
_cell_angle_alpha   64.53114743
_cell_angle_beta   90.00000000
_cell_angle_gamma   90.00000000
_symmetry_Int_Tables_number   1
_chemical_formula_structural   K3SnS3
_chemical_formula_sum   'K12 Sn4 S12'
_cell_volume   881.71365177
_cell_formula_units_Z   4
loop_
 _symmetry_equiv_pos_site_id
 _symmetry_equiv_pos_as_xyz
  1  'x, y, z'
loop_
 _atom_site_type_symbol
 _atom_site_label
 _atom_site_symmetry_multiplicity
 _atom_site_fract_x
 _atom_site_fract_y
 _atom_site_fract_z
 _atom_site_occupancy
  K  K0  1  0.930539  0.713532  0.776787  1
  K  K1  1  0.430539  0.786468  0.223213  1
  K  K2  1  0.069461  0.286468  0.223213  1
  K  K3  1  0.569461  0.213532  0.776787  1
  K  K4  1  0.832886  0.987102  0.001881  1
  K  K5  1  0.332886  0.512898  0.998119  1
  K  K6  1  0.167114  0.012898  0.998119  1
  K  K7  1  0.667114  0.487102  0.001881  1
  K  K8  1  0.788065  0.186985  0.442317  1
  K  K9  1  0.288065  0.313015  0.557683  1
  K  K10  1  0.211935  0.813015  0.557683  1
  K  K11  1  0.711935  0.686985  0.442317  1
  Sn  Sn12  1  0.992028  0.368583  0.662258  1
  Sn  Sn13  1  0.492028  0.131417  0.337742  1
  Sn  Sn14  1  0.007972  0.631417  0.337742  1
  Sn  Sn15  1  0.507972  0.868583  0.662258  1
  S  S16  1  0.811776  0.378747  0.756769  1
  S  S17  1  0.311776  0.121253  0.243231  1
  S  S18  1  0.188224  0.621253  0.243231  1
  S  S19  1  0.688224  0.878747  0.756769  1
  S  S20  1  0.028642  0.097680  0.658561  1
  S  S21  1  0.528642  0.402320  0.341439  1
  S  S22  1  0.971358  0.902320  0.341439  1
  S  S23  1  0.471358  0.597680  0.658561  1
  S  S24  1  0.125857  0.428360  0.826778  1
  S  S25  1  0.625857  0.071640  0.173222  1
  S  S26  1  0.874143  0.571640  0.173222  1
  S  S27  1  0.374143  0.928360  0.826778  1
