# generated using pymatgen
data_Y5In4CoPt
_symmetry_space_group_name_H-M   'P 1'
_cell_length_a   3.60031200
_cell_length_b   8.11094219
_cell_length_c   18.14694296
_cell_angle_alpha   89.91557050
_cell_angle_beta   90.00000000
_cell_angle_gamma   90.00000000
_symmetry_Int_Tables_number   1
_chemical_formula_structural   Y5In4CoPt
_chemical_formula_sum   'Y10 In8 Co2 Pt2'
_cell_volume   529.92504630
_cell_formula_units_Z   2
loop_
 _symmetry_equiv_pos_site_id
 _symmetry_equiv_pos_as_xyz
  1  'x, y, z'
loop_
 _atom_site_type_symbol
 _atom_site_label
 _atom_site_symmetry_multiplicity
 _atom_site_fract_x
 _atom_site_fract_y
 _atom_site_fract_z
 _atom_site_occupancy
  Y  Y0  1  0.000000  0.113321  0.410583  1
  Y  Y1  1  0.000000  0.886679  0.589417  1
  Y  Y2  1  0.000000  0.382007  0.914326  1
  Y  Y3  1  0.000000  0.617993  0.085674  1
  Y  Y4  1  0.000000  0.232027  0.222894  1
  Y  Y5  1  0.000000  0.767973  0.777106  1
  Y  Y6  1  0.000000  0.245750  0.719562  1
  Y  Y7  1  0.000000  0.754250  0.280438  1
  Y  Y8  1  0.000000  0.000000  0.000000  1
  Y  Y9  1  0.000000  0.500000  0.500000  1
  In  In10  1  0.500000  0.421633  0.351036  1
  In  In11  1  0.500000  0.578367  0.648964  1
  In  In12  1  0.500000  0.072411  0.847881  1
  In  In13  1  0.500000  0.927589  0.152119  1
  In  In14  1  0.500000  0.292037  0.067478  1
  In  In15  1  0.500000  0.707963  0.932522  1
  In  In16  1  0.500000  0.204180  0.569061  1
  In  In17  1  0.500000  0.795820  0.430939  1
  Co  Co18  1  0.500000  0.018114  0.305098  1
  Co  Co19  1  0.500000  0.981886  0.694902  1
  Pt  Pt20  1  0.500000  0.479446  0.802380  1
  Pt  Pt21  1  0.500000  0.520554  0.197620  1
