# generated using pymatgen
data_ErHf6(ZrSn2)3
_symmetry_space_group_name_H-M   'P 1'
_cell_length_a   8.57240189
_cell_length_b   8.57240261
_cell_length_c   5.80126300
_cell_angle_alpha   90.00000000
_cell_angle_beta   90.00000000
_cell_angle_gamma   120.94075836
_symmetry_Int_Tables_number   1
_chemical_formula_structural   ErHf6(ZrSn2)3
_chemical_formula_sum   'Er1 Hf6 Zr3 Sn6'
_cell_volume   365.64760258
_cell_formula_units_Z   1
loop_
 _symmetry_equiv_pos_site_id
 _symmetry_equiv_pos_as_xyz
  1  'x, y, z'
loop_
 _atom_site_type_symbol
 _atom_site_label
 _atom_site_symmetry_multiplicity
 _atom_site_fract_x
 _atom_site_fract_y
 _atom_site_fract_z
 _atom_site_occupancy
  Er  Er0  1  0.232130  0.232130  0.250000  1
  Hf  Hf1  1  0.748324  0.997908  0.250000  1
  Hf  Hf2  1  0.997908  0.748324  0.250000  1
  Hf  Hf3  1  0.666846  0.335269  0.999598  1
  Hf  Hf4  1  0.335269  0.666846  0.999598  1
  Hf  Hf5  1  0.335269  0.666846  0.500402  1
  Hf  Hf6  1  0.666846  0.335269  0.500402  1
  Zr  Zr7  1  0.762648  0.762648  0.750000  1
  Zr  Zr8  1  0.250946  0.999924  0.750000  1
  Zr  Zr9  1  0.999924  0.250946  0.750000  1
  Sn  Sn10  1  0.394344  0.394344  0.750000  1
  Sn  Sn11  1  0.608946  0.000891  0.750000  1
  Sn  Sn12  1  0.000891  0.608946  0.750000  1
  Sn  Sn13  1  0.608638  0.608638  0.250000  1
  Sn  Sn14  1  0.394227  0.996843  0.250000  1
  Sn  Sn15  1  0.996843  0.394227  0.250000  1
