# generated using pymatgen
data_Ce2Y6AlPt24
_symmetry_space_group_name_H-M   'P 1'
_cell_length_a   8.39544059
_cell_length_b   8.39544053
_cell_length_c   8.39544165
_cell_angle_alpha   89.99010064
_cell_angle_beta   90.00990016
_cell_angle_gamma   90.00989255
_symmetry_Int_Tables_number   1
_chemical_formula_structural   Ce2Y6AlPt24
_chemical_formula_sum   'Ce2 Y6 Al1 Pt24'
_cell_volume   591.73943229
_cell_formula_units_Z   1
loop_
 _symmetry_equiv_pos_site_id
 _symmetry_equiv_pos_as_xyz
  1  'x, y, z'
loop_
 _atom_site_type_symbol
 _atom_site_label
 _atom_site_symmetry_multiplicity
 _atom_site_fract_x
 _atom_site_fract_y
 _atom_site_fract_z
 _atom_site_occupancy
  Ce  Ce0  1  0.252157  0.747843  0.747843  1
  Ce  Ce1  1  0.747843  0.252157  0.252157  1
  Y  Y2  1  0.250926  0.251368  0.251368  1
  Y  Y3  1  0.749074  0.748632  0.748632  1
  Y  Y4  1  0.748632  0.749074  0.251368  1
  Y  Y5  1  0.748632  0.251368  0.749074  1
  Y  Y6  1  0.251368  0.250926  0.748632  1
  Y  Y7  1  0.251368  0.748632  0.250926  1
  Al  Al8  1  0.000000  0.000000  0.000000  1
  Pt  Pt9  1  0.260512  0.500637  0.999027  1
  Pt  Pt10  1  0.739488  0.499363  0.000973  1
  Pt  Pt11  1  0.999027  0.260512  0.499363  1
  Pt  Pt12  1  0.500637  0.260512  0.000973  1
  Pt  Pt13  1  0.000973  0.739488  0.500637  1
  Pt  Pt14  1  0.499363  0.739488  0.999027  1
  Pt  Pt15  1  0.500637  0.000973  0.260512  1
  Pt  Pt16  1  0.260512  0.999027  0.500637  1
  Pt  Pt17  1  0.499363  0.999027  0.739488  1
  Pt  Pt18  1  0.739488  0.000973  0.499363  1
  Pt  Pt19  1  0.999027  0.499363  0.260512  1
  Pt  Pt20  1  0.000973  0.500637  0.739488  1
  Pt  Pt21  1  0.253155  0.500555  0.500555  1
  Pt  Pt22  1  0.746845  0.499445  0.499445  1
  Pt  Pt23  1  0.500555  0.253155  0.499445  1
  Pt  Pt24  1  0.499445  0.746845  0.500555  1
  Pt  Pt25  1  0.500555  0.499445  0.253155  1
  Pt  Pt26  1  0.499445  0.500555  0.746845  1
  Pt  Pt27  1  0.291651  0.999888  0.999888  1
  Pt  Pt28  1  0.708349  0.000112  0.000112  1
  Pt  Pt29  1  0.999888  0.291651  0.000112  1
  Pt  Pt30  1  0.000112  0.708349  0.999888  1
  Pt  Pt31  1  0.999888  0.000112  0.291651  1
  Pt  Pt32  1  0.000112  0.999888  0.708349  1
