# generated using pymatgen
data_Lu12CoTc2Ir
_symmetry_space_group_name_H-M   'P 1'
_cell_length_a   6.15380000
_cell_length_b   7.16268061
_cell_length_c   8.92389600
_cell_angle_alpha   90.00000000
_cell_angle_beta   90.00000000
_cell_angle_gamma   90.29757991
_symmetry_Int_Tables_number   1
_chemical_formula_structural   Lu12CoTc2Ir
_chemical_formula_sum   'Lu12 Co1 Tc2 Ir1'
_cell_volume   393.33954044
_cell_formula_units_Z   1
loop_
 _symmetry_equiv_pos_site_id
 _symmetry_equiv_pos_as_xyz
  1  'x, y, z'
loop_
 _atom_site_type_symbol
 _atom_site_label
 _atom_site_symmetry_multiplicity
 _atom_site_fract_x
 _atom_site_fract_y
 _atom_site_fract_z
 _atom_site_occupancy
  Lu  Lu0  1  0.330054  0.678197  0.062407  1
  Lu  Lu1  1  0.165965  0.177729  0.440886  1
  Lu  Lu2  1  0.666244  0.326726  0.563983  1
  Lu  Lu3  1  0.826792  0.818772  0.935235  1
  Lu  Lu4  1  0.666244  0.326726  0.936017  1
  Lu  Lu5  1  0.826792  0.818772  0.564765  1
  Lu  Lu6  1  0.330054  0.678197  0.437593  1
  Lu  Lu7  1  0.165965  0.177729  0.059114  1
  Lu  Lu8  1  0.874199  0.538333  0.250000  1
  Lu  Lu9  1  0.628702  0.041445  0.250000  1
  Lu  Lu10  1  0.139820  0.461188  0.750000  1
  Lu  Lu11  1  0.375853  0.953570  0.750000  1
  Co  Co12  1  0.536648  0.616261  0.750000  1
  Tc  Tc13  1  0.461858  0.389562  0.250000  1
  Tc  Tc14  1  0.965482  0.110414  0.750000  1
  Ir  Ir15  1  0.039322  0.886381  0.250000  1
