# generated using pymatgen
data_La2EuTe4
_symmetry_space_group_name_H-M   'P 1'
_cell_length_a   8.43088278
_cell_length_b   8.43088237
_cell_length_c   8.43088343
_cell_angle_alpha   109.64720343
_cell_angle_beta   109.64720630
_cell_angle_gamma   109.11982613
_symmetry_Int_Tables_number   1
_chemical_formula_structural   La2EuTe4
_chemical_formula_sum   'La4 Eu2 Te8'
_cell_volume   461.30165554
_cell_formula_units_Z   2
loop_
 _symmetry_equiv_pos_site_id
 _symmetry_equiv_pos_as_xyz
  1  'x, y, z'
loop_
 _atom_site_type_symbol
 _atom_site_label
 _atom_site_symmetry_multiplicity
 _atom_site_fract_x
 _atom_site_fract_y
 _atom_site_fract_z
 _atom_site_occupancy
  La  La0  1  0.751171  0.375000  0.876171  1
  La  La1  1  0.625000  0.501171  0.376171  1
  La  La2  1  0.498829  0.875000  0.123829  1
  La  La3  1  0.125000  0.248829  0.623829  1
  Eu  Eu4  1  0.250000  0.750000  0.500000  1
  Eu  Eu5  1  0.000000  0.000000  0.000000  1
  Te  Te6  1  0.727585  0.977212  0.599979  1
  Te  Te7  1  0.377233  0.127607  0.400021  1
  Te  Te8  1  0.522415  0.622393  0.749626  1
  Te  Te9  1  0.227212  0.477585  0.099979  1
  Te  Te10  1  0.377607  0.127233  0.900021  1
  Te  Te11  1  0.872393  0.272415  0.249626  1
  Te  Te12  1  0.022788  0.622767  0.750374  1
  Te  Te13  1  0.872767  0.772788  0.250374  1
