# generated using pymatgen
data_K7RbAl8(SnS4)8
_symmetry_space_group_name_H-M   'P 1'
_cell_length_a   12.85793496
_cell_length_b   7.24515958
_cell_length_c   17.78356313
_cell_angle_alpha   80.84245925
_cell_angle_beta   90.12610347
_cell_angle_gamma   89.96215374
_symmetry_Int_Tables_number   1
_chemical_formula_structural   K7RbAl8(SnS4)8
_chemical_formula_sum   'K7 Rb1 Al8 Sn8 S32'
_cell_volume   1635.55740733
_cell_formula_units_Z   1
loop_
 _symmetry_equiv_pos_site_id
 _symmetry_equiv_pos_as_xyz
  1  'x, y, z'
loop_
 _atom_site_type_symbol
 _atom_site_label
 _atom_site_symmetry_multiplicity
 _atom_site_fract_x
 _atom_site_fract_y
 _atom_site_fract_z
 _atom_site_occupancy
  K  K0  1  0.438843  0.772985  0.323258  1
  K  K1  1  0.561849  0.226663  0.677344  1
  K  K2  1  0.937426  0.227909  0.175969  1
  K  K3  1  0.061547  0.773016  0.823125  1
  K  K4  1  0.592402  0.237626  0.047355  1
  K  K5  1  0.407076  0.762415  0.952775  1
  K  K6  1  0.093510  0.765213  0.452116  1
  Rb  Rb7  1  0.910273  0.247939  0.550586  1
  Al  Al8  1  0.753291  0.989816  0.339749  1
  Al  Al9  1  0.247417  0.011296  0.660059  1
  Al  Al10  1  0.254499  0.011122  0.159670  1
  Al  Al11  1  0.744866  0.985621  0.841247  1
  Al  Al12  1  0.751415  0.467211  0.361070  1
  Al  Al13  1  0.248349  0.534261  0.638363  1
  Al  Al14  1  0.253378  0.533618  0.137973  1
  Al  Al15  1  0.746340  0.464333  0.862363  1
  Sn  Sn16  1  0.710179  0.744950  0.184588  1
  Sn  Sn17  1  0.289303  0.255466  0.814693  1
  Sn  Sn18  1  0.212653  0.255212  0.314221  1
  Sn  Sn19  1  0.787635  0.742506  0.685182  1
  Sn  Sn20  1  0.810605  0.711477  0.012131  1
  Sn  Sn21  1  0.189648  0.287100  0.988027  1
  Sn  Sn22  1  0.312356  0.287231  0.487689  1
  Sn  Sn23  1  0.688055  0.713571  0.511133  1
  S  S24  1  0.185811  0.948842  0.281035  1
  S  S25  1  0.813949  0.047072  0.720331  1
  S  S26  1  0.683652  0.050696  0.218375  1
  S  S27  1  0.316761  0.949201  0.781362  1
  S  S28  1  0.851761  0.727231  0.351952  1
  S  S29  1  0.148888  0.273280  0.649986  1
  S  S30  1  0.353389  0.272765  0.148763  1
  S  S31  1  0.645935  0.724386  0.852200  1
  S  S32  1  0.631685  0.759415  0.055555  1
  S  S33  1  0.368300  0.240207  0.943879  1
  S  S34  1  0.133835  0.239954  0.443022  1
  S  S35  1  0.866976  0.755986  0.556665  1
  S  S36  1  0.626540  0.498893  0.268139  1
  S  S37  1  0.373306  0.502137  0.731241  1
  S  S38  1  0.128317  0.501269  0.230393  1
  S  S39  1  0.871159  0.496408  0.769678  1
  S  S40  1  0.616079  0.964432  0.422233  1
  S  S41  1  0.384721  0.038931  0.577675  1
  S  S42  1  0.116540  0.039298  0.077437  1
  S  S43  1  0.883450  0.959504  0.922901  1
  S  S44  1  0.887411  0.701391  0.140171  1
  S  S45  1  0.112426  0.298130  0.860042  1
  S  S46  1  0.389490  0.298685  0.360029  1
  S  S47  1  0.610897  0.701449  0.639129  1
  S  S48  1  0.362598  0.775375  0.143820  1
  S  S49  1  0.637199  0.222376  0.856715  1
  S  S50  1  0.861111  0.226350  0.354592  1
  S  S51  1  0.138875  0.776336  0.643827  1
  S  S52  1  0.665729  0.408875  0.476260  1
  S  S53  1  0.329987  0.593997  0.521713  1
  S  S54  1  0.170562  0.594165  0.021464  1
  S  S55  1  0.829742  0.404410  0.978727  1
