# generated using pymatgen
data_Tb2DyY2Pd15
_symmetry_space_group_name_H-M   'P 1'
_cell_length_a   4.11810400
_cell_length_b   4.11748400
_cell_length_c   20.78451600
_cell_angle_alpha   90.00000000
_cell_angle_beta   90.00000000
_cell_angle_gamma   90.00000000
_symmetry_Int_Tables_number   1
_chemical_formula_structural   Tb2DyY2Pd15
_chemical_formula_sum   'Tb2 Dy1 Y2 Pd15'
_cell_volume   352.42697825
_cell_formula_units_Z   1
loop_
 _symmetry_equiv_pos_site_id
 _symmetry_equiv_pos_as_xyz
  1  'x, y, z'
loop_
 _atom_site_type_symbol
 _atom_site_label
 _atom_site_symmetry_multiplicity
 _atom_site_fract_x
 _atom_site_fract_y
 _atom_site_fract_z
 _atom_site_occupancy
  Tb  Tb0  1  0.000000  0.000000  0.199236  1
  Tb  Tb1  1  0.000000  0.000000  0.399672  1
  Dy  Dy2  1  0.000000  0.000000  0.000170  1
  Y  Y3  1  0.000000  0.000000  0.600060  1
  Y  Y4  1  0.000000  0.000000  0.800880  1
  Pd  Pd5  1  0.500000  0.500000  0.000000  1
  Pd  Pd6  1  0.500000  0.500000  0.199075  1
  Pd  Pd7  1  0.500000  0.500000  0.399668  1
  Pd  Pd8  1  0.500000  0.500000  0.600350  1
  Pd  Pd9  1  0.500000  0.500000  0.800855  1
  Pd  Pd10  1  0.500000  0.000000  0.099158  1
  Pd  Pd11  1  0.500000  0.000000  0.299587  1
  Pd  Pd12  1  0.500000  0.000000  0.499830  1
  Pd  Pd13  1  0.500000  0.000000  0.700425  1
  Pd  Pd14  1  0.500000  0.000000  0.901016  1
  Pd  Pd15  1  0.000000  0.500000  0.099168  1
  Pd  Pd16  1  0.000000  0.500000  0.299589  1
  Pd  Pd17  1  0.000000  0.500000  0.499831  1
  Pd  Pd18  1  0.000000  0.500000  0.700424  1
  Pd  Pd19  1  0.000000  0.500000  0.901004  1
