# generated using pymatgen
data_Tb4Eu(RhO6)2
_symmetry_space_group_name_H-M   'P 1'
_cell_length_a   6.94970069
_cell_length_b   6.94970074
_cell_length_c   7.40166900
_cell_angle_alpha   74.60822239
_cell_angle_beta   74.60821373
_cell_angle_gamma   50.90680777
_symmetry_Int_Tables_number   1
_chemical_formula_structural   Tb4Eu(RhO6)2
_chemical_formula_sum   'Tb4 Eu1 Rh2 O12'
_cell_volume   265.19660184
_cell_formula_units_Z   1
loop_
 _symmetry_equiv_pos_site_id
 _symmetry_equiv_pos_as_xyz
  1  'x, y, z'
loop_
 _atom_site_type_symbol
 _atom_site_label
 _atom_site_symmetry_multiplicity
 _atom_site_fract_x
 _atom_site_fract_y
 _atom_site_fract_z
 _atom_site_occupancy
  Tb  Tb0  1  0.303927  0.303927  0.357788  1
  Tb  Tb1  1  0.696073  0.696073  0.642212  1
  Tb  Tb2  1  0.307739  0.307739  0.833764  1
  Tb  Tb3  1  0.692261  0.692261  0.166236  1
  Eu  Eu4  1  0.000000  0.000000  0.500000  1
  Rh  Rh5  1  0.753461  0.246539  0.000000  1
  Rh  Rh6  1  0.246539  0.753461  0.000000  1
  O  O7  1  0.900578  0.430135  0.916209  1
  O  O8  1  0.430135  0.900578  0.916209  1
  O  O9  1  0.099422  0.569865  0.083791  1
  O  O10  1  0.569865  0.099422  0.083791  1
  O  O11  1  0.094987  0.597079  0.575717  1
  O  O12  1  0.597079  0.094987  0.575717  1
  O  O13  1  0.905013  0.402921  0.424283  1
  O  O14  1  0.402921  0.905013  0.424283  1
  O  O15  1  0.000540  0.000540  0.820172  1
  O  O16  1  0.999460  0.999460  0.179828  1
  O  O17  1  0.499602  0.499602  0.812666  1
  O  O18  1  0.500398  0.500398  0.187334  1
