# generated using pymatgen
data_Ho5Zn2Ir3
_symmetry_space_group_name_H-M   'P 1'
_cell_length_a   8.35752559
_cell_length_b   8.35752555
_cell_length_c   8.35752500
_cell_angle_alpha   109.47121444
_cell_angle_beta   109.47121435
_cell_angle_gamma   109.47123044
_symmetry_Int_Tables_number   1
_chemical_formula_structural   Ho5Zn2Ir3
_chemical_formula_sum   'Ho10 Zn4 Ir6'
_cell_volume   449.37740944
_cell_formula_units_Z   2
loop_
 _symmetry_equiv_pos_site_id
 _symmetry_equiv_pos_as_xyz
  1  'x, y, z'
loop_
 _atom_site_type_symbol
 _atom_site_label
 _atom_site_symmetry_multiplicity
 _atom_site_fract_x
 _atom_site_fract_y
 _atom_site_fract_z
 _atom_site_occupancy
  Ho  Ho0  1  0.250000  0.678307  0.428307  1
  Ho  Ho1  1  0.750000  0.821693  0.071693  1
  Ho  Ho2  1  0.428307  0.250000  0.678307  1
  Ho  Ho3  1  0.678307  0.428307  0.250000  1
  Ho  Ho4  1  0.071693  0.750000  0.821693  1
  Ho  Ho5  1  0.821693  0.071693  0.750000  1
  Ho  Ho6  1  0.221713  0.221713  0.221713  1
  Ho  Ho7  1  0.500000  0.000000  0.278287  1
  Ho  Ho8  1  0.278287  0.500000  0.000000  1
  Ho  Ho9  1  0.000000  0.278287  0.500000  1
  Zn  Zn10  1  0.594844  0.594844  0.594844  1
  Zn  Zn11  1  0.500000  0.000000  0.905156  1
  Zn  Zn12  1  0.905156  0.500000  0.000000  1
  Zn  Zn13  1  0.000000  0.905156  0.500000  1
  Ir  Ir14  1  0.250000  0.131556  0.881556  1
  Ir  Ir15  1  0.750000  0.368444  0.618444  1
  Ir  Ir16  1  0.881555  0.250000  0.131556  1
  Ir  Ir17  1  0.131556  0.881555  0.250000  1
  Ir  Ir18  1  0.618444  0.750000  0.368444  1
  Ir  Ir19  1  0.368444  0.618444  0.750000  1
