# generated using pymatgen
data_Sc10Si6HC
_symmetry_space_group_name_H-M   'P 1'
_cell_length_a   7.90085700
_cell_length_b   7.90085736
_cell_length_c   5.84665600
_cell_angle_alpha   90.00000000
_cell_angle_beta   90.00000000
_cell_angle_gamma   120.00000268
_symmetry_Int_Tables_number   1
_chemical_formula_structural   Sc10Si6HC
_chemical_formula_sum   'Sc10 Si6 H1 C1'
_cell_volume   316.07240760
_cell_formula_units_Z   1
loop_
 _symmetry_equiv_pos_site_id
 _symmetry_equiv_pos_as_xyz
  1  'x, y, z'
loop_
 _atom_site_type_symbol
 _atom_site_label
 _atom_site_symmetry_multiplicity
 _atom_site_fract_x
 _atom_site_fract_y
 _atom_site_fract_z
 _atom_site_occupancy
  Sc  Sc0  1  0.666667  0.333333  0.000000  1
  Sc  Sc1  1  0.333333  0.666667  0.000000  1
  Sc  Sc2  1  0.333333  0.666667  0.500000  1
  Sc  Sc3  1  0.666667  0.333333  0.500000  1
  Sc  Sc4  1  0.767268  0.767268  0.732815  1
  Sc  Sc5  1  0.232732  0.000000  0.732815  1
  Sc  Sc6  1  0.000000  0.232732  0.732815  1
  Sc  Sc7  1  0.232732  0.232732  0.267185  1
  Sc  Sc8  1  0.767268  0.000000  0.267185  1
  Sc  Sc9  1  0.000000  0.767268  0.267185  1
  Si  Si10  1  0.400351  0.400351  0.748021  1
  Si  Si11  1  0.599649  0.000000  0.748021  1
  Si  Si12  1  0.000000  0.599649  0.748021  1
  Si  Si13  1  0.599649  0.599649  0.251979  1
  Si  Si14  1  0.400351  0.000000  0.251979  1
  Si  Si15  1  0.000000  0.400351  0.251979  1
  H  H16  1  0.000000  0.000000  0.000000  1
  C  C17  1  0.000000  0.000000  0.500000  1
