# generated using pymatgen
data_La10Sn6PH
_symmetry_space_group_name_H-M   'P 1'
_cell_length_a   9.59396100
_cell_length_b   9.59396129
_cell_length_c   6.99341900
_cell_angle_alpha   90.00000000
_cell_angle_beta   90.00000000
_cell_angle_gamma   120.00000243
_symmetry_Int_Tables_number   1
_chemical_formula_structural   La10Sn6PH
_chemical_formula_sum   'La10 Sn6 P1 H1'
_cell_volume   557.46304267
_cell_formula_units_Z   1
loop_
 _symmetry_equiv_pos_site_id
 _symmetry_equiv_pos_as_xyz
  1  'x, y, z'
loop_
 _atom_site_type_symbol
 _atom_site_label
 _atom_site_symmetry_multiplicity
 _atom_site_fract_x
 _atom_site_fract_y
 _atom_site_fract_z
 _atom_site_occupancy
  La  La0  1  0.242928  0.242928  0.751816  1
  La  La1  1  0.000000  0.757072  0.751816  1
  La  La2  1  0.757072  0.000000  0.751816  1
  La  La3  1  0.000000  0.242928  0.248184  1
  La  La4  1  0.333333  0.666667  0.500000  1
  La  La5  1  0.757072  0.757072  0.248184  1
  La  La6  1  0.666667  0.333333  0.500000  1
  La  La7  1  0.242928  0.000000  0.248184  1
  La  La8  1  0.333333  0.666667  0.000000  1
  La  La9  1  0.666667  0.333333  0.000000  1
  Sn  Sn10  1  0.605666  0.000000  0.250202  1
  Sn  Sn11  1  0.000000  0.394334  0.749798  1
  Sn  Sn12  1  0.394334  0.000000  0.749798  1
  Sn  Sn13  1  0.605666  0.605666  0.749798  1
  Sn  Sn14  1  0.000000  0.605666  0.250202  1
  Sn  Sn15  1  0.394334  0.394334  0.250202  1
  P  P16  1  0.000000  0.000000  0.000000  1
  H  H17  1  0.000000  0.000000  0.500000  1
