# generated using pymatgen
data_Cs4Mn4Br10O
_symmetry_space_group_name_H-M   'P 1'
_cell_length_a   12.12164172
_cell_length_b   12.12164297
_cell_length_c   10.36878700
_cell_angle_alpha   80.28446339
_cell_angle_beta   80.28446238
_cell_angle_gamma   90.97398868
_symmetry_Int_Tables_number   1
_chemical_formula_structural   Cs4Mn4Br10O
_chemical_formula_sum   'Cs8 Mn8 Br20 O2'
_cell_volume   1478.51870121
_cell_formula_units_Z   2
loop_
 _symmetry_equiv_pos_site_id
 _symmetry_equiv_pos_as_xyz
  1  'x, y, z'
loop_
 _atom_site_type_symbol
 _atom_site_label
 _atom_site_symmetry_multiplicity
 _atom_site_fract_x
 _atom_site_fract_y
 _atom_site_fract_z
 _atom_site_occupancy
  Cs  Cs0  1  0.296539  0.443719  0.138729  1
  Cs  Cs1  1  0.712929  0.968724  0.871740  1
  Cs  Cs2  1  0.968724  0.712929  0.371740  1
  Cs  Cs3  1  0.556281  0.703461  0.361271  1
  Cs  Cs4  1  0.443719  0.296539  0.638729  1
  Cs  Cs5  1  0.031276  0.287071  0.628260  1
  Cs  Cs6  1  0.703461  0.556281  0.861271  1
  Cs  Cs7  1  0.287071  0.031276  0.128260  1
  Mn  Mn8  1  0.942737  0.234080  0.128523  1
  Mn  Mn9  1  0.057263  0.765920  0.871477  1
  Mn  Mn10  1  0.656497  0.230409  0.135193  1
  Mn  Mn11  1  0.769591  0.343503  0.364807  1
  Mn  Mn12  1  0.230409  0.656497  0.635193  1
  Mn  Mn13  1  0.343503  0.769591  0.864807  1
  Mn  Mn14  1  0.765920  0.057263  0.371477  1
  Mn  Mn15  1  0.234080  0.942737  0.628523  1
  Br  Br16  1  0.135767  0.264743  0.967630  1
  Br  Br17  1  0.973383  0.026617  0.250000  1
  Br  Br18  1  0.735257  0.864233  0.532370  1
  Br  Br19  1  0.396271  0.985932  0.770072  1
  Br  Br20  1  0.260188  0.502587  0.483863  1
  Br  Br21  1  0.014068  0.603729  0.729928  1
  Br  Br22  1  0.823500  0.268826  0.926257  1
  Br  Br23  1  0.408971  0.591029  0.750000  1
  Br  Br24  1  0.502587  0.260188  0.983863  1
  Br  Br25  1  0.026617  0.973383  0.750000  1
  Br  Br26  1  0.268826  0.823500  0.426257  1
  Br  Br27  1  0.985932  0.396271  0.270072  1
  Br  Br28  1  0.864233  0.735257  0.032370  1
  Br  Br29  1  0.739812  0.497413  0.516137  1
  Br  Br30  1  0.603729  0.014068  0.229928  1
  Br  Br31  1  0.731174  0.176500  0.573743  1
  Br  Br32  1  0.176500  0.731174  0.073743  1
  Br  Br33  1  0.591029  0.408971  0.250000  1
  Br  Br34  1  0.264743  0.135767  0.467630  1
  Br  Br35  1  0.497413  0.739812  0.016137  1
  O  O36  1  0.217040  0.782960  0.750000  1
  O  O37  1  0.782960  0.217040  0.250000  1
