# generated using pymatgen
data_Er6Al24PdRu7
_symmetry_space_group_name_H-M   'P 1'
_cell_length_a   8.80414175
_cell_length_b   8.80414190
_cell_length_c   9.54087003
_cell_angle_alpha   89.79717059
_cell_angle_beta   90.20282742
_cell_angle_gamma   119.71588095
_symmetry_Int_Tables_number   1
_chemical_formula_structural   Er6Al24PdRu7
_chemical_formula_sum   'Er6 Al24 Pd1 Ru7'
_cell_volume   642.28133259
_cell_formula_units_Z   1
loop_
 _symmetry_equiv_pos_site_id
 _symmetry_equiv_pos_as_xyz
  1  'x, y, z'
loop_
 _atom_site_type_symbol
 _atom_site_label
 _atom_site_symmetry_multiplicity
 _atom_site_fract_x
 _atom_site_fract_y
 _atom_site_fract_z
 _atom_site_occupancy
  Er  Er0  1  0.191729  0.387187  0.250865  1
  Er  Er1  1  0.808271  0.612813  0.749135  1
  Er  Er2  1  0.612813  0.808271  0.250865  1
  Er  Er3  1  0.387187  0.191729  0.749135  1
  Er  Er4  1  0.194509  0.805491  0.251865  1
  Er  Er5  1  0.805491  0.194509  0.748135  1
  Al  Al6  1  0.330380  0.669620  0.020004  1
  Al  Al7  1  0.669620  0.330380  0.979996  1
  Al  Al8  1  0.666761  0.333239  0.516604  1
  Al  Al9  1  0.333239  0.666761  0.483396  1
  Al  Al10  1  0.162889  0.324001  0.578631  1
  Al  Al11  1  0.837111  0.675999  0.421369  1
  Al  Al12  1  0.675999  0.837111  0.578631  1
  Al  Al13  1  0.843724  0.677299  0.079408  1
  Al  Al14  1  0.324001  0.162889  0.421369  1
  Al  Al15  1  0.156276  0.322701  0.920592  1
  Al  Al16  1  0.162596  0.837404  0.578638  1
  Al  Al17  1  0.322701  0.156276  0.079408  1
  Al  Al18  1  0.837404  0.162596  0.421362  1
  Al  Al19  1  0.677299  0.843724  0.920592  1
  Al  Al20  1  0.837444  0.162556  0.077989  1
  Al  Al21  1  0.162556  0.837444  0.922011  1
  Al  Al22  1  0.560473  0.121562  0.248943  1
  Al  Al23  1  0.439527  0.878438  0.751057  1
  Al  Al24  1  0.878438  0.439527  0.248943  1
  Al  Al25  1  0.121562  0.560473  0.751057  1
  Al  Al26  1  0.561618  0.438382  0.252265  1
  Al  Al27  1  0.438382  0.561618  0.747735  1
  Al  Al28  1  0.999357  0.000643  0.250127  1
  Al  Al29  1  0.000643  0.999357  0.749873  1
  Pd  Pd30  1  0.500000  0.500000  0.000000  1
  Ru  Ru31  1  0.500000  0.000000  0.000000  1
  Ru  Ru32  1  0.000000  0.500000  0.000000  1
  Ru  Ru33  1  0.500000  0.000000  0.500000  1
  Ru  Ru34  1  0.000000  0.500000  0.500000  1
  Ru  Ru35  1  0.500000  0.500000  0.500000  1
  Ru  Ru36  1  0.000000  0.000000  0.000000  1
  Ru  Ru37  1  0.000000  0.000000  0.500000  1
