# generated using pymatgen
data_Tb4CdSb5Rh7
_symmetry_space_group_name_H-M   'P 1'
_cell_length_a   7.61887202
_cell_length_b   7.61887198
_cell_length_c   7.61887185
_cell_angle_alpha   108.74534543
_cell_angle_beta   109.83537194
_cell_angle_gamma   109.83537197
_symmetry_Int_Tables_number   1
_chemical_formula_structural   Tb4CdSb5Rh7
_chemical_formula_sum   'Tb4 Cd1 Sb5 Rh7'
_cell_volume   340.40657591
_cell_formula_units_Z   1
loop_
 _symmetry_equiv_pos_site_id
 _symmetry_equiv_pos_as_xyz
  1  'x, y, z'
loop_
 _atom_site_type_symbol
 _atom_site_label
 _atom_site_symmetry_multiplicity
 _atom_site_fract_x
 _atom_site_fract_y
 _atom_site_fract_z
 _atom_site_occupancy
  Tb  Tb0  1  0.489293  0.004947  0.004947  1
  Tb  Tb1  1  0.000000  0.515655  0.004947  1
  Tb  Tb2  1  0.000000  0.004947  0.515655  1
  Tb  Tb3  1  0.510707  0.515655  0.515655  1
  Cd  Cd4  1  0.000000  0.292422  0.292422  1
  Sb  Sb5  1  0.685416  0.010598  0.696014  1
  Sb  Sb6  1  0.685416  0.696014  0.010598  1
  Sb  Sb7  1  0.000000  0.659979  0.659979  1
  Sb  Sb8  1  0.314584  0.010598  0.325182  1
  Sb  Sb9  1  0.314584  0.325182  0.010598  1
  Rh  Rh10  1  0.000000  0.966348  0.966348  1
  Rh  Rh11  1  0.500000  0.756386  0.256386  1
  Rh  Rh12  1  0.747349  0.496221  0.243569  1
  Rh  Rh13  1  0.252651  0.748872  0.496221  1
  Rh  Rh14  1  0.252651  0.496221  0.748872  1
  Rh  Rh15  1  0.500000  0.256386  0.756386  1
  Rh  Rh16  1  0.747349  0.243569  0.496221  1
