# generated using pymatgen
data_Gd7Ho3(SiB4)4
_symmetry_space_group_name_H-M   'P 1'
_cell_length_a   7.25686008
_cell_length_b   7.25686008
_cell_length_c   8.16928102
_cell_angle_alpha   90.00604195
_cell_angle_beta   89.99395805
_cell_angle_gamma   90.01588570
_symmetry_Int_Tables_number   1
_chemical_formula_structural   Gd7Ho3(SiB4)4
_chemical_formula_sum   'Gd7 Ho3 Si4 B16'
_cell_volume   430.21080473
_cell_formula_units_Z   1
loop_
 _symmetry_equiv_pos_site_id
 _symmetry_equiv_pos_as_xyz
  1  'x, y, z'
loop_
 _atom_site_type_symbol
 _atom_site_label
 _atom_site_symmetry_multiplicity
 _atom_site_fract_x
 _atom_site_fract_y
 _atom_site_fract_z
 _atom_site_occupancy
  Gd  Gd0  1  0.680535  0.180701  0.226450  1
  Gd  Gd1  1  0.319684  0.819686  0.773887  1
  Gd  Gd2  1  0.319299  0.819465  0.226450  1
  Gd  Gd3  1  0.819622  0.680378  0.226063  1
  Gd  Gd4  1  0.819453  0.680547  0.774295  1
  Gd  Gd5  1  0.680314  0.180316  0.773887  1
  Gd  Gd6  1  0.180588  0.319412  0.774211  1
  Ho  Ho7  1  0.180351  0.319649  0.221645  1
  Ho  Ho8  1  0.000396  0.000329  0.499627  1
  Ho  Ho9  1  0.499671  0.499604  0.499627  1
  Si  Si10  1  0.115503  0.613982  0.498579  1
  Si  Si11  1  0.886018  0.384497  0.498579  1
  Si  Si12  1  0.384199  0.115801  0.498980  1
  Si  Si13  1  0.614375  0.885625  0.499553  1
  B  B14  1  0.172746  0.039623  0.000320  1
  B  B15  1  0.827652  0.960956  0.000541  1
  B  B16  1  0.961068  0.172722  0.000347  1
  B  B17  1  0.327278  0.538932  0.000347  1
  B  B18  1  0.039376  0.827716  0.000646  1
  B  B19  1  0.672284  0.460624  0.000646  1
  B  B20  1  0.539044  0.672348  0.000541  1
  B  B21  1  0.460377  0.327254  0.000320  1
  B  B22  1  0.090032  0.589767  0.001008  1
  B  B23  1  0.910233  0.409968  0.001008  1
  B  B24  1  0.409946  0.090054  0.000140  1
  B  B25  1  0.590011  0.909989  0.000291  1
  B  B26  1  0.000495  0.000735  0.160767  1
  B  B27  1  0.000146  0.999960  0.840239  1
  B  B28  1  0.500040  0.499854  0.840239  1
  B  B29  1  0.499265  0.499505  0.160767  1
