# generated using pymatgen
data_La7Tb2Pr5Rh6
_symmetry_space_group_name_H-M   'P 1'
_cell_length_a   6.44819502
_cell_length_b   10.21178161
_cell_length_c   10.21178250
_cell_angle_alpha   119.97607068
_cell_angle_beta   90.05582451
_cell_angle_gamma   89.94417475
_symmetry_Int_Tables_number   1
_chemical_formula_structural   La7Tb2Pr5Rh6
_chemical_formula_sum   'La7 Tb2 Pr5 Rh6'
_cell_volume   582.47362564
_cell_formula_units_Z   1
loop_
 _symmetry_equiv_pos_site_id
 _symmetry_equiv_pos_as_xyz
  1  'x, y, z'
loop_
 _atom_site_type_symbol
 _atom_site_label
 _atom_site_symmetry_multiplicity
 _atom_site_fract_x
 _atom_site_fract_y
 _atom_site_fract_z
 _atom_site_occupancy
  La  La0  1  0.257556  0.126670  0.873330  1
  La  La1  1  0.257021  0.746943  0.873869  1
  La  La2  1  0.257021  0.126131  0.253057  1
  La  La3  1  0.756928  0.873559  0.126441  1
  La  La4  1  0.756864  0.252656  0.126229  1
  La  La5  1  0.756864  0.873771  0.747344  1
  La  La6  1  0.440088  0.541627  0.458373  1
  Tb  Tb7  1  0.465804  0.333241  0.666759  1
  Tb  Tb8  1  0.965422  0.667050  0.332950  1
  Pr  Pr9  1  0.442261  0.918084  0.458758  1
  Pr  Pr10  1  0.442261  0.541242  0.081916  1
  Pr  Pr11  1  0.942250  0.458659  0.541341  1
  Pr  Pr12  1  0.941814  0.082328  0.541067  1
  Pr  Pr13  1  0.941814  0.458933  0.917672  1
  Rh  Rh14  1  0.176481  0.810256  0.189744  1
  Rh  Rh15  1  0.178012  0.380127  0.191132  1
  Rh  Rh16  1  0.178012  0.808868  0.619873  1
  Rh  Rh17  1  0.676487  0.189780  0.810220  1
  Rh  Rh18  1  0.676519  0.620623  0.810548  1
  Rh  Rh19  1  0.676519  0.189452  0.379377  1
