# generated using pymatgen
data_Mg2Ag3SbO6
_symmetry_space_group_name_H-M   'P 1'
_cell_length_a   5.44716600
_cell_length_b   5.44716762
_cell_length_c   18.90496400
_cell_angle_alpha   90.00000000
_cell_angle_beta   90.00000000
_cell_angle_gamma   119.99999019
_symmetry_Int_Tables_number   1
_chemical_formula_structural   Mg2Ag3SbO6
_chemical_formula_sum   'Mg6 Ag9 Sb3 O18'
_cell_volume   485.78922632
_cell_formula_units_Z   3
loop_
 _symmetry_equiv_pos_site_id
 _symmetry_equiv_pos_as_xyz
  1  'x, y, z'
loop_
 _atom_site_type_symbol
 _atom_site_label
 _atom_site_symmetry_multiplicity
 _atom_site_fract_x
 _atom_site_fract_y
 _atom_site_fract_z
 _atom_site_occupancy
  Mg  Mg0  1  0.106520  0.893480  0.333333  1
  Mg  Mg1  1  0.106520  0.213040  0.666667  1
  Mg  Mg2  1  0.786960  0.893480  0.000000  1
  Mg  Mg3  1  0.773155  0.226845  0.333333  1
  Mg  Mg4  1  0.773155  0.546309  0.666667  1
  Mg  Mg5  1  0.453691  0.226845  0.000000  1
  Ag  Ag6  1  0.443548  0.221774  0.500000  1
  Ag  Ag7  1  0.778226  0.221774  0.833333  1
  Ag  Ag8  1  0.778226  0.556452  0.166667  1
  Ag  Ag9  1  0.116860  0.558430  0.500000  1
  Ag  Ag10  1  0.441570  0.558430  0.833333  1
  Ag  Ag11  1  0.441570  0.883140  0.166667  1
  Ag  Ag12  1  0.764202  0.882100  0.500000  1
  Ag  Ag13  1  0.117900  0.882100  0.833333  1
  Ag  Ag14  1  0.117900  0.235798  0.166667  1
  Sb  Sb15  1  0.440098  0.559902  0.333333  1
  Sb  Sb16  1  0.440098  0.880197  0.666667  1
  Sb  Sb17  1  0.119803  0.559902  0.000000  1
  O  O18  1  0.759575  0.559590  0.278634  1
  O  O19  1  0.440410  0.199985  0.611967  1
  O  O20  1  0.800015  0.240425  0.945301  1
  O  O21  1  0.759575  0.199985  0.721366  1
  O  O22  1  0.440410  0.240425  0.388033  1
  O  O23  1  0.800015  0.559590  0.054699  1
  O  O24  1  0.439880  0.879439  0.278710  1
  O  O25  1  0.120561  0.560441  0.612043  1
  O  O26  1  0.439559  0.560120  0.945377  1
  O  O27  1  0.439880  0.560441  0.721290  1
  O  O28  1  0.120561  0.560120  0.387957  1
  O  O29  1  0.439559  0.879439  0.054623  1
  O  O30  1  0.120151  0.239961  0.278747  1
  O  O31  1  0.760039  0.880189  0.612080  1
  O  O32  1  0.119811  0.879849  0.945413  1
  O  O33  1  0.120151  0.880189  0.721253  1
  O  O34  1  0.760039  0.879849  0.387920  1
  O  O35  1  0.119811  0.239961  0.054587  1
