# generated using pymatgen
data_Ho3Mg2CdPb2Au
_symmetry_space_group_name_H-M   'P 1'
_cell_length_a   7.49988352
_cell_length_b   7.49988440
_cell_length_c   4.54193500
_cell_angle_alpha   90.00000000
_cell_angle_beta   90.00000000
_cell_angle_gamma   119.58781300
_symmetry_Int_Tables_number   1
_chemical_formula_structural   Ho3Mg2CdPb2Au
_chemical_formula_sum   'Ho3 Mg2 Cd1 Pb2 Au1'
_cell_volume   222.16186888
_cell_formula_units_Z   1
loop_
 _symmetry_equiv_pos_site_id
 _symmetry_equiv_pos_as_xyz
  1  'x, y, z'
loop_
 _atom_site_type_symbol
 _atom_site_label
 _atom_site_symmetry_multiplicity
 _atom_site_fract_x
 _atom_site_fract_y
 _atom_site_fract_z
 _atom_site_occupancy
  Ho  Ho0  1  0.595554  0.996086  0.000000  1
  Ho  Ho1  1  0.996086  0.595554  0.000000  1
  Ho  Ho2  1  0.408192  0.408192  0.000000  1
  Mg  Mg3  1  0.231887  0.999136  0.500000  1
  Mg  Mg4  1  0.999136  0.231887  0.500000  1
  Cd  Cd5  1  0.764459  0.764459  0.500000  1
  Pb  Pb6  1  0.327527  0.664747  0.500000  1
  Pb  Pb7  1  0.664747  0.327527  0.500000  1
  Au  Au8  1  0.012412  0.012412  0.000000  1
