# generated using pymatgen
data_Nd3U(TcB4)4
_symmetry_space_group_name_H-M   'P 1'
_cell_length_a   3.66245300
_cell_length_b   6.02945770
_cell_length_c   11.66954772
_cell_angle_alpha   90.14570590
_cell_angle_beta   90.00000000
_cell_angle_gamma   90.00000000
_symmetry_Int_Tables_number   1
_chemical_formula_structural   Nd3U(TcB4)4
_chemical_formula_sum   'Nd3 U1 Tc4 B16'
_cell_volume   257.69318487
_cell_formula_units_Z   1
loop_
 _symmetry_equiv_pos_site_id
 _symmetry_equiv_pos_as_xyz
  1  'x, y, z'
loop_
 _atom_site_type_symbol
 _atom_site_label
 _atom_site_symmetry_multiplicity
 _atom_site_fract_x
 _atom_site_fract_y
 _atom_site_fract_z
 _atom_site_occupancy
  Nd  Nd0  1  0.000000  0.372004  0.649867  1
  Nd  Nd1  1  0.000000  0.125911  0.150454  1
  Nd  Nd2  1  0.000000  0.874548  0.848934  1
  U  U3  1  0.000000  0.627433  0.350806  1
  Tc  Tc4  1  0.000000  0.630036  0.092741  1
  Tc  Tc5  1  0.000000  0.368178  0.914580  1
  Tc  Tc6  1  0.000000  0.138618  0.406697  1
  Tc  Tc7  1  0.000000  0.860513  0.583307  1
  B  B8  1  0.500000  0.781748  0.188426  1
  B  B9  1  0.500000  0.216625  0.816780  1
  B  B10  1  0.500000  0.293623  0.316468  1
  B  B11  1  0.500000  0.717919  0.683037  1
  B  B12  1  0.500000  0.859322  0.033665  1
  B  B13  1  0.500000  0.139259  0.969290  1
  B  B14  1  0.500000  0.365473  0.465515  1
  B  B15  1  0.500000  0.637406  0.527789  1
  B  B16  1  0.500000  0.884976  0.451835  1
  B  B17  1  0.500000  0.110089  0.543918  1
  B  B18  1  0.500000  0.389067  0.047024  1
  B  B19  1  0.500000  0.611344  0.955553  1
  B  B20  1  0.500000  0.967598  0.310205  1
  B  B21  1  0.500000  0.023585  0.688088  1
  B  B22  1  0.500000  0.481324  0.194542  1
  B  B23  1  0.500000  0.523396  0.810478  1
