# generated using pymatgen
data_CaMn(P4Ir)3
_symmetry_space_group_name_H-M   'P 1'
_cell_length_a   6.99581708
_cell_length_b   7.00301724
_cell_length_c   6.99581700
_cell_angle_alpha   109.49206556
_cell_angle_beta   109.45036470
_cell_angle_gamma   109.49207976
_symmetry_Int_Tables_number   1
_chemical_formula_structural   CaMn(P4Ir)3
_chemical_formula_sum   'Ca1 Mn1 P12 Ir3'
_cell_volume   263.77178692
_cell_formula_units_Z   1
loop_
 _symmetry_equiv_pos_site_id
 _symmetry_equiv_pos_as_xyz
  1  'x, y, z'
loop_
 _atom_site_type_symbol
 _atom_site_label
 _atom_site_symmetry_multiplicity
 _atom_site_fract_x
 _atom_site_fract_y
 _atom_site_fract_z
 _atom_site_occupancy
  Ca  Ca0  1  0.000000  0.000000  0.000000  1
  Mn  Mn1  1  0.000000  0.500000  0.000000  1
  P  P2  1  0.357950  0.217880  0.859576  1
  P  P3  1  0.642050  0.782120  0.140424  1
  P  P4  1  0.659213  0.502876  0.864805  1
  P  P5  1  0.340787  0.497124  0.135195  1
  P  P6  1  0.205592  0.843663  0.340787  1
  P  P7  1  0.794408  0.156337  0.659213  1
  P  P8  1  0.501625  0.859929  0.642050  1
  P  P9  1  0.498375  0.140071  0.357950  1
  P  P10  1  0.864805  0.361929  0.205592  1
  P  P11  1  0.135195  0.638071  0.794408  1
  P  P12  1  0.859576  0.641696  0.501625  1
  P  P13  1  0.140424  0.358304  0.498375  1
  Ir  Ir14  1  0.000000  0.000000  0.500000  1
  Ir  Ir15  1  0.500000  0.000000  0.000000  1
  Ir  Ir16  1  0.500000  0.500000  0.500000  1
