# generated using pymatgen
data_Ho5Tc6P12Ir13
_symmetry_space_group_name_H-M   'P 1'
_cell_length_a   12.65116600
_cell_length_b   12.65116538
_cell_length_c   3.98633600
_cell_angle_alpha   90.00000000
_cell_angle_beta   90.00000000
_cell_angle_gamma   119.99999640
_symmetry_Int_Tables_number   1
_chemical_formula_structural   Ho5Tc6P12Ir13
_chemical_formula_sum   'Ho5 Tc6 P12 Ir13'
_cell_volume   552.54243376
_cell_formula_units_Z   1
loop_
 _symmetry_equiv_pos_site_id
 _symmetry_equiv_pos_as_xyz
  1  'x, y, z'
loop_
 _atom_site_type_symbol
 _atom_site_label
 _atom_site_symmetry_multiplicity
 _atom_site_fract_x
 _atom_site_fract_y
 _atom_site_fract_z
 _atom_site_occupancy
  Ho  Ho0  1  0.333333  0.666667  0.500000  1
  Ho  Ho1  1  0.666667  0.333333  0.500000  1
  Ho  Ho2  1  0.000272  0.812178  0.000000  1
  Ho  Ho3  1  0.187822  0.188093  0.000000  1
  Ho  Ho4  1  0.811907  0.999728  0.000000  1
  Tc  Tc5  1  0.990391  0.446564  0.500000  1
  Tc  Tc6  1  0.553436  0.543827  0.500000  1
  Tc  Tc7  1  0.456173  0.009609  0.500000  1
  Tc  Tc8  1  0.620427  0.799353  0.500000  1
  Tc  Tc9  1  0.200647  0.821073  0.500000  1
  Tc  Tc10  1  0.178927  0.379573  0.500000  1
  P  P11  1  0.007001  0.638770  0.500000  1
  P  P12  1  0.361230  0.368232  0.500000  1
  P  P13  1  0.631768  0.992999  0.500000  1
  P  P14  1  0.521086  0.693884  0.000000  1
  P  P15  1  0.306116  0.827202  0.000000  1
  P  P16  1  0.172798  0.478914  0.000000  1
  P  P17  1  0.482508  0.168246  0.000000  1
  P  P18  1  0.685738  0.517492  0.000000  1
  P  P19  1  0.831754  0.314262  0.000000  1
  P  P20  1  0.003863  0.182368  0.500000  1
  P  P21  1  0.817632  0.821496  0.500000  1
  P  P22  1  0.178504  0.996137  0.500000  1
  Ir  Ir23  1  0.506605  0.874416  0.000000  1
  Ir  Ir24  1  0.125584  0.632189  0.000000  1
  Ir  Ir25  1  0.367811  0.493395  0.000000  1
  Ir  Ir26  1  0.493801  0.357854  0.000000  1
  Ir  Ir27  1  0.864054  0.506199  0.000000  1
  Ir  Ir28  1  0.642146  0.135946  0.000000  1
  Ir  Ir29  1  0.995123  0.281406  0.000000  1
  Ir  Ir30  1  0.718594  0.713718  0.000000  1
  Ir  Ir31  1  0.286282  0.004877  0.000000  1
  Ir  Ir32  1  0.373840  0.185119  0.500000  1
  Ir  Ir33  1  0.811280  0.626160  0.500000  1
  Ir  Ir34  1  0.814881  0.188720  0.500000  1
  Ir  Ir35  1  0.000000  0.000000  0.500000  1
