# generated using pymatgen
data_Cs4V2SiMoN8
_symmetry_space_group_name_H-M   'P 1'
_cell_length_a   5.91371200
_cell_length_b   8.39158500
_cell_length_c   11.88260800
_cell_angle_alpha   90.00000000
_cell_angle_beta   90.00000000
_cell_angle_gamma   90.00000000
_symmetry_Int_Tables_number   1
_chemical_formula_structural   Cs4V2SiMoN8
_chemical_formula_sum   'Cs8 V4 Si2 Mo2 N16'
_cell_volume   589.67937602
_cell_formula_units_Z   2
loop_
 _symmetry_equiv_pos_site_id
 _symmetry_equiv_pos_as_xyz
  1  'x, y, z'
loop_
 _atom_site_type_symbol
 _atom_site_label
 _atom_site_symmetry_multiplicity
 _atom_site_fract_x
 _atom_site_fract_y
 _atom_site_fract_z
 _atom_site_occupancy
  Cs  Cs0  1  0.750000  0.130129  0.000000  1
  Cs  Cs1  1  0.250000  0.869871  0.500000  1
  Cs  Cs2  1  0.250000  0.885777  0.000000  1
  Cs  Cs3  1  0.750000  0.114223  0.500000  1
  Cs  Cs4  1  0.740310  0.373339  0.260297  1
  Cs  Cs5  1  0.240310  0.626661  0.239703  1
  Cs  Cs6  1  0.259690  0.626661  0.760297  1
  Cs  Cs7  1  0.759690  0.373339  0.739703  1
  V  V8  1  0.242717  0.126592  0.245488  1
  V  V9  1  0.742717  0.873408  0.254512  1
  V  V10  1  0.757283  0.873408  0.745488  1
  V  V11  1  0.257283  0.126592  0.754512  1
  Si  Si12  1  0.250000  0.362605  0.000000  1
  Si  Si13  1  0.750000  0.637395  0.500000  1
  Mo  Mo14  1  0.750000  0.611865  0.000000  1
  Mo  Mo15  1  0.250000  0.388135  0.500000  1
  N  N16  1  0.987821  0.004915  0.249693  1
  N  N17  1  0.487821  0.995085  0.250307  1
  N  N18  1  0.012179  0.995085  0.749693  1
  N  N19  1  0.512179  0.004915  0.750307  1
  N  N20  1  0.248094  0.256554  0.371626  1
  N  N21  1  0.748094  0.743446  0.128374  1
  N  N22  1  0.751906  0.743446  0.871626  1
  N  N23  1  0.251906  0.256554  0.628374  1
  N  N24  1  0.751795  0.753549  0.620960  1
  N  N25  1  0.251795  0.246451  0.879040  1
  N  N26  1  0.248205  0.246451  0.120960  1
  N  N27  1  0.748205  0.753549  0.379040  1
  N  N28  1  0.510554  0.512457  0.499877  1
  N  N29  1  0.010554  0.487543  0.000123  1
  N  N30  1  0.489446  0.487543  0.999877  1
  N  N31  1  0.989446  0.512457  0.500123  1
