# generated using pymatgen
data_Ho5Th3Ni8
_symmetry_space_group_name_H-M   'P 1'
_cell_length_a   4.29842200
_cell_length_b   5.47738643
_cell_length_c   13.87702610
_cell_angle_alpha   89.16201935
_cell_angle_beta   90.00000000
_cell_angle_gamma   90.00000000
_symmetry_Int_Tables_number   1
_chemical_formula_structural   Ho5Th3Ni8
_chemical_formula_sum   'Ho5 Th3 Ni8'
_cell_volume   326.68740155
_cell_formula_units_Z   1
loop_
 _symmetry_equiv_pos_site_id
 _symmetry_equiv_pos_as_xyz
  1  'x, y, z'
loop_
 _atom_site_type_symbol
 _atom_site_label
 _atom_site_symmetry_multiplicity
 _atom_site_fract_x
 _atom_site_fract_y
 _atom_site_fract_z
 _atom_site_occupancy
  Ho  Ho0  1  0.250000  0.531069  0.283802  1
  Ho  Ho1  1  0.750000  0.470268  0.716412  1
  Ho  Ho2  1  0.250000  0.967968  0.781322  1
  Ho  Ho3  1  0.250000  0.752016  0.537961  1
  Ho  Ho4  1  0.250000  0.745411  0.033874  1
  Th  Th5  1  0.750000  0.256508  0.964874  1
  Th  Th6  1  0.750000  0.031964  0.215129  1
  Th  Th7  1  0.750000  0.245503  0.468077  1
  Ni  Ni8  1  0.250000  0.029401  0.355309  1
  Ni  Ni9  1  0.750000  0.534141  0.144728  1
  Ni  Ni10  1  0.750000  0.753066  0.396258  1
  Ni  Ni11  1  0.250000  0.468875  0.855449  1
  Ni  Ni12  1  0.750000  0.971213  0.643255  1
  Ni  Ni13  1  0.750000  0.750254  0.894491  1
  Ni  Ni14  1  0.250000  0.243033  0.103267  1
  Ni  Ni15  1  0.250000  0.249310  0.605790  1
