# generated using pymatgen
data_Tb7Sm(AsI6)2
_symmetry_space_group_name_H-M   'P 1'
_cell_length_a   4.27296100
_cell_length_b   14.00416381
_cell_length_c   14.79370711
_cell_angle_alpha   89.90490167
_cell_angle_beta   90.00000000
_cell_angle_gamma   90.00000000
_symmetry_Int_Tables_number   1
_chemical_formula_structural   Tb7Sm(AsI6)2
_chemical_formula_sum   'Tb7 Sm1 As2 I12'
_cell_volume   885.24305650
_cell_formula_units_Z   1
loop_
 _symmetry_equiv_pos_site_id
 _symmetry_equiv_pos_as_xyz
  1  'x, y, z'
loop_
 _atom_site_type_symbol
 _atom_site_label
 _atom_site_symmetry_multiplicity
 _atom_site_fract_x
 _atom_site_fract_y
 _atom_site_fract_z
 _atom_site_occupancy
  Tb  Tb0  1  0.500000  0.115101  0.347346  1
  Tb  Tb1  1  0.500000  0.884932  0.652799  1
  Tb  Tb2  1  0.500000  0.615025  0.152645  1
  Tb  Tb3  1  0.500000  0.385007  0.847307  1
  Tb  Tb4  1  0.000000  0.889480  0.426337  1
  Tb  Tb5  1  0.000000  0.609746  0.926871  1
  Tb  Tb6  1  0.000000  0.390300  0.073191  1
  Sm  Sm7  1  0.000000  0.110389  0.573679  1
  As  As8  1  0.500000  0.997848  0.498654  1
  As  As9  1  0.500000  0.500011  0.000019  1
  I  I10  1  0.500000  0.246325  0.160519  1
  I  I11  1  0.500000  0.753519  0.839374  1
  I  I12  1  0.500000  0.745786  0.338903  1
  I  I13  1  0.500000  0.256717  0.662397  1
  I  I14  1  0.000000  0.259378  0.412310  1
  I  I15  1  0.000000  0.741586  0.585805  1
  I  I16  1  0.000000  0.758310  0.085642  1
  I  I17  1  0.000000  0.241758  0.914473  1
  I  I18  1  0.000000  0.000179  0.241150  1
  I  I19  1  0.000000  0.998315  0.760485  1
  I  I20  1  0.000000  0.500072  0.258665  1
  I  I21  1  0.000000  0.500218  0.741432  1
