# generated using pymatgen
data_Tb2HoSi3Os2
_symmetry_space_group_name_H-M   'P 1'
_cell_length_a   5.78985440
_cell_length_b   5.78985344
_cell_length_c   13.68030600
_cell_angle_alpha   90.00000000
_cell_angle_beta   90.00000000
_cell_angle_gamma   137.52004215
_symmetry_Int_Tables_number   1
_chemical_formula_structural   Tb2HoSi3Os2
_chemical_formula_sum   'Tb4 Ho2 Si6 Os4'
_cell_volume   309.70521926
_cell_formula_units_Z   2
loop_
 _symmetry_equiv_pos_site_id
 _symmetry_equiv_pos_as_xyz
  1  'x, y, z'
loop_
 _atom_site_type_symbol
 _atom_site_label
 _atom_site_symmetry_multiplicity
 _atom_site_fract_x
 _atom_site_fract_y
 _atom_site_fract_z
 _atom_site_occupancy
  Tb  Tb0  1  0.924728  0.075272  0.116157  1
  Tb  Tb1  1  0.075272  0.924728  0.883843  1
  Tb  Tb2  1  0.075272  0.924728  0.616157  1
  Tb  Tb3  1  0.924728  0.075272  0.383843  1
  Ho  Ho4  1  0.642133  0.357867  0.250000  1
  Ho  Ho5  1  0.357867  0.642133  0.750000  1
  Si  Si6  1  0.323496  0.676504  0.250000  1
  Si  Si7  1  0.676504  0.323496  0.750000  1
  Si  Si8  1  0.618333  0.381667  0.038185  1
  Si  Si9  1  0.381667  0.618333  0.961815  1
  Si  Si10  1  0.381667  0.618333  0.538185  1
  Si  Si11  1  0.618333  0.381667  0.461815  1
  Os  Os12  1  0.786281  0.213719  0.581999  1
  Os  Os13  1  0.213719  0.786281  0.418001  1
  Os  Os14  1  0.213719  0.786281  0.081999  1
  Os  Os15  1  0.786281  0.213719  0.918001  1
