# generated using pymatgen
data_Tb5Y11Cd4OsPd3
_symmetry_space_group_name_H-M   'P 1'
_cell_length_a   9.75684068
_cell_length_b   9.76513331
_cell_length_c   9.76513348
_cell_angle_alpha   59.50291557
_cell_angle_beta   59.51418986
_cell_angle_gamma   59.51419158
_symmetry_Int_Tables_number   1
_chemical_formula_structural   Tb5Y11Cd4OsPd3
_chemical_formula_sum   'Tb5 Y11 Cd4 Os1 Pd3'
_cell_volume   650.56138729
_cell_formula_units_Z   1
loop_
 _symmetry_equiv_pos_site_id
 _symmetry_equiv_pos_as_xyz
  1  'x, y, z'
loop_
 _atom_site_type_symbol
 _atom_site_label
 _atom_site_symmetry_multiplicity
 _atom_site_fract_x
 _atom_site_fract_y
 _atom_site_fract_z
 _atom_site_occupancy
  Tb  Tb0  1  0.353342  0.353567  0.353567  1
  Tb  Tb1  1  0.350457  0.350276  0.944758  1
  Tb  Tb2  1  0.350457  0.944758  0.350276  1
  Tb  Tb3  1  0.944700  0.350562  0.350562  1
  Tb  Tb4  1  0.816962  0.188245  0.188245  1
  Y  Y5  1  0.188326  0.810291  0.810291  1
  Y  Y6  1  0.188433  0.816364  0.188393  1
  Y  Y7  1  0.810260  0.188440  0.810096  1
  Y  Y8  1  0.188433  0.188393  0.816364  1
  Y  Y9  1  0.810260  0.810096  0.188440  1
  Y  Y10  1  0.934753  0.565930  0.565930  1
  Y  Y11  1  0.558922  0.937029  0.937029  1
  Y  Y12  1  0.565948  0.934747  0.565860  1
  Y  Y13  1  0.937183  0.558657  0.937077  1
  Y  Y14  1  0.565948  0.565860  0.934747  1
  Y  Y15  1  0.937183  0.937077  0.558657  1
  Cd  Cd16  1  0.580657  0.580671  0.580671  1
  Cd  Cd17  1  0.581085  0.581397  0.253841  1
  Cd  Cd18  1  0.581085  0.253841  0.581397  1
  Cd  Cd19  1  0.253837  0.581177  0.581177  1
  Os  Os20  1  0.143322  0.144515  0.144515  1
  Pd  Pd21  1  0.144979  0.144923  0.568167  1
  Pd  Pd22  1  0.144979  0.568167  0.144923  1
  Pd  Pd23  1  0.568490  0.145015  0.145015  1
