# generated using pymatgen
data_Tm12TlZnGa4
_symmetry_space_group_name_H-M   'P 1'
_cell_length_a   8.47832650
_cell_length_b   8.47832694
_cell_length_c   8.47832600
_cell_angle_alpha   111.92864628
_cell_angle_beta   112.51937008
_cell_angle_gamma   104.09630801
_symmetry_Int_Tables_number   1
_chemical_formula_structural   Tm12TlZnGa4
_chemical_formula_sum   'Tm12 Tl1 Zn1 Ga4'
_cell_volume   466.07539860
_cell_formula_units_Z   1
loop_
 _symmetry_equiv_pos_site_id
 _symmetry_equiv_pos_as_xyz
  1  'x, y, z'
loop_
 _atom_site_type_symbol
 _atom_site_label
 _atom_site_symmetry_multiplicity
 _atom_site_fract_x
 _atom_site_fract_y
 _atom_site_fract_z
 _atom_site_occupancy
  Tm  Tm0  1  0.433314  0.236209  0.197105  1
  Tm  Tm1  1  0.566686  0.763791  0.802895  1
  Tm  Tm2  1  0.039102  0.236209  0.802895  1
  Tm  Tm3  1  0.960898  0.763791  0.197105  1
  Tm  Tm4  1  0.179953  0.273141  0.453093  1
  Tm  Tm5  1  0.820047  0.726859  0.546907  1
  Tm  Tm6  1  0.179953  0.726859  0.906812  1
  Tm  Tm7  1  0.820047  0.273141  0.093188  1
  Tm  Tm8  1  0.319197  0.615908  0.296710  1
  Tm  Tm9  1  0.680803  0.384092  0.703290  1
  Tm  Tm10  1  0.319197  0.022487  0.703290  1
  Tm  Tm11  1  0.680803  0.977513  0.296710  1
  Tl  Tl12  1  0.500000  0.500000  0.000000  1
  Zn  Zn13  1  0.000000  0.000000  0.000000  1
  Ga  Ga14  1  0.353084  0.000000  0.353084  1
  Ga  Ga15  1  0.646916  0.000000  0.646916  1
  Ga  Ga16  1  0.121629  0.621629  0.500000  1
  Ga  Ga17  1  0.878371  0.378371  0.500000  1
