# generated using pymatgen
data_Nd8Be4GaSi11
_symmetry_space_group_name_H-M   'P 1'
_cell_length_a   7.98255023
_cell_length_b   7.98254174
_cell_length_c   8.56621000
_cell_angle_alpha   90.00045965
_cell_angle_beta   89.99970934
_cell_angle_gamma   119.97245567
_symmetry_Int_Tables_number   1
_chemical_formula_structural   Nd8Be4GaSi11
_chemical_formula_sum   'Nd8 Be4 Ga1 Si11'
_cell_volume   472.84922404
_cell_formula_units_Z   1
loop_
 _symmetry_equiv_pos_site_id
 _symmetry_equiv_pos_as_xyz
  1  'x, y, z'
loop_
 _atom_site_type_symbol
 _atom_site_label
 _atom_site_symmetry_multiplicity
 _atom_site_fract_x
 _atom_site_fract_y
 _atom_site_fract_z
 _atom_site_occupancy
  Nd  Nd0  1  0.000934  0.999067  0.749061  1
  Nd  Nd1  1  0.000812  0.999187  0.250927  1
  Nd  Nd2  1  0.499736  0.500263  0.750041  1
  Nd  Nd3  1  0.497504  0.997937  0.748513  1
  Nd  Nd4  1  0.002064  0.502497  0.748512  1
  Nd  Nd5  1  0.500544  0.499455  0.249928  1
  Nd  Nd6  1  0.000528  0.501744  0.251535  1
  Nd  Nd7  1  0.498257  0.999473  0.251534  1
  Be  Be8  1  0.664505  0.335495  0.997444  1
  Be  Be9  1  0.666528  0.333471  0.502489  1
  Be  Be10  1  0.333387  0.666612  0.497480  1
  Be  Be11  1  0.334030  0.665969  0.002525  1
  Ga  Ga12  1  0.826942  0.173060  0.999357  1
  Si  Si13  1  0.826892  0.654996  0.999463  1
  Si  Si14  1  0.345004  0.173108  0.999463  1
  Si  Si15  1  0.828012  0.171987  0.500539  1
  Si  Si16  1  0.827933  0.655693  0.500560  1
  Si  Si17  1  0.344307  0.172068  0.500560  1
  Si  Si18  1  0.172236  0.827764  0.499437  1
  Si  Si19  1  0.655537  0.827511  0.499494  1
  Si  Si20  1  0.172489  0.344462  0.499494  1
  Si  Si21  1  0.172001  0.827999  0.000539  1
  Si  Si22  1  0.655180  0.825360  0.000553  1
  Si  Si23  1  0.174639  0.344820  0.000553  1
