# generated using pymatgen
data_Yb7Ga(SnN)2
_symmetry_space_group_name_H-M   'P 1'
_cell_length_a   12.00164747
_cell_length_b   12.00164737
_cell_length_c   4.84869300
_cell_angle_alpha   90.00000000
_cell_angle_beta   90.00000000
_cell_angle_gamma   156.47536260
_symmetry_Int_Tables_number   1
_chemical_formula_structural   Yb7Ga(SnN)2
_chemical_formula_sum   'Yb7 Ga1 Sn2 N2'
_cell_volume   278.76313282
_cell_formula_units_Z   1
loop_
 _symmetry_equiv_pos_site_id
 _symmetry_equiv_pos_as_xyz
  1  'x, y, z'
loop_
 _atom_site_type_symbol
 _atom_site_label
 _atom_site_symmetry_multiplicity
 _atom_site_fract_x
 _atom_site_fract_y
 _atom_site_fract_z
 _atom_site_occupancy
  Yb  Yb0  1  0.901515  0.098485  0.000000  1
  Yb  Yb1  1  0.700299  0.299701  0.000000  1
  Yb  Yb2  1  0.500364  0.499636  0.000000  1
  Yb  Yb3  1  0.299364  0.700636  0.000000  1
  Yb  Yb4  1  0.099267  0.900733  0.000000  1
  Yb  Yb5  1  0.600283  0.399717  0.500000  1
  Yb  Yb6  1  0.400425  0.599575  0.500000  1
  Ga  Ga7  1  0.790767  0.209232  0.500000  1
  Sn  Sn8  1  0.999534  0.000466  0.500000  1
  Sn  Sn9  1  0.208898  0.791101  0.500000  1
  N  N10  1  0.604297  0.395702  0.000000  1
  N  N11  1  0.394986  0.605013  0.000000  1
