# generated using pymatgen
data_Li3Ho2TmInGe2
_symmetry_space_group_name_H-M   'P 1'
_cell_length_a   7.20728213
_cell_length_b   7.20728158
_cell_length_c   4.22619000
_cell_angle_alpha   90.00000000
_cell_angle_beta   90.00000000
_cell_angle_gamma   119.86329676
_symmetry_Int_Tables_number   1
_chemical_formula_structural   Li3Ho2TmInGe2
_chemical_formula_sum   'Li3 Ho2 Tm1 In1 Ge2'
_cell_volume   190.37909659
_cell_formula_units_Z   1
loop_
 _symmetry_equiv_pos_site_id
 _symmetry_equiv_pos_as_xyz
  1  'x, y, z'
loop_
 _atom_site_type_symbol
 _atom_site_label
 _atom_site_symmetry_multiplicity
 _atom_site_fract_x
 _atom_site_fract_y
 _atom_site_fract_z
 _atom_site_occupancy
  Li  Li0  1  0.251086  0.000148  0.500000  1
  Li  Li1  1  0.000148  0.251086  0.500000  1
  Li  Li2  1  0.748580  0.748580  0.500000  1
  Ho  Ho3  1  0.558047  0.999916  0.000000  1
  Ho  Ho4  1  0.999916  0.558047  0.000000  1
  Tm  Tm5  1  0.441888  0.441888  0.000000  1
  In  In6  1  0.000720  0.000720  0.000000  1
  Ge  Ge7  1  0.333688  0.665927  0.500000  1
  Ge  Ge8  1  0.665927  0.333688  0.500000  1
