# generated using pymatgen
data_Tb6AlCuTc
_symmetry_space_group_name_H-M   'P 1'
_cell_length_a   8.48405531
_cell_length_b   8.48405555
_cell_length_c   8.48405506
_cell_angle_alpha   103.94019900
_cell_angle_beta   111.21980980
_cell_angle_gamma   113.39975706
_symmetry_Int_Tables_number   1
_chemical_formula_structural   Tb6AlCuTc
_chemical_formula_sum   'Tb12 Al2 Cu2 Tc2'
_cell_volume   466.66753220
_cell_formula_units_Z   2
loop_
 _symmetry_equiv_pos_site_id
 _symmetry_equiv_pos_as_xyz
  1  'x, y, z'
loop_
 _atom_site_type_symbol
 _atom_site_label
 _atom_site_symmetry_multiplicity
 _atom_site_fract_x
 _atom_site_fract_y
 _atom_site_fract_z
 _atom_site_occupancy
  Tb  Tb0  1  0.691313  0.259350  0.950663  1
  Tb  Tb1  1  0.308687  0.740650  0.049337  1
  Tb  Tb2  1  0.691313  0.740650  0.431964  1
  Tb  Tb3  1  0.308687  0.259350  0.568036  1
  Tb  Tb4  1  0.811975  0.147636  0.335661  1
  Tb  Tb5  1  0.811975  0.476314  0.664339  1
  Tb  Tb6  1  0.188025  0.852364  0.664339  1
  Tb  Tb7  1  0.188025  0.523686  0.335661  1
  Tb  Tb8  1  0.593274  0.776889  0.816384  1
  Tb  Tb9  1  0.960504  0.776889  0.183616  1
  Tb  Tb10  1  0.039496  0.223111  0.816384  1
  Tb  Tb11  1  0.406726  0.223111  0.183616  1
  Al  Al12  1  0.500000  0.500000  0.000000  1
  Al  Al13  1  0.500000  0.000000  0.500000  1
  Cu  Cu14  1  0.000000  0.119208  0.119208  1
  Cu  Cu15  1  0.000000  0.880792  0.880792  1
  Tc  Tc16  1  0.819511  0.500000  0.319511  1
  Tc  Tc17  1  0.180489  0.500000  0.680489  1
