# generated using pymatgen
data_Th7ReOsRu
_symmetry_space_group_name_H-M   'P 1'
_cell_length_a   10.05108323
_cell_length_b   9.92065864
_cell_length_c   6.34998306
_cell_angle_alpha   89.99999909
_cell_angle_beta   89.90797453
_cell_angle_gamma   119.57167263
_symmetry_Int_Tables_number   1
_chemical_formula_structural   Th7ReOsRu
_chemical_formula_sum   'Th14 Re2 Os2 Ru2'
_cell_volume   550.69884039
_cell_formula_units_Z   2
loop_
 _symmetry_equiv_pos_site_id
 _symmetry_equiv_pos_as_xyz
  1  'x, y, z'
loop_
 _atom_site_type_symbol
 _atom_site_label
 _atom_site_symmetry_multiplicity
 _atom_site_fract_x
 _atom_site_fract_y
 _atom_site_fract_z
 _atom_site_occupancy
  Th  Th0  1  0.457071  0.535615  0.297344  1
  Th  Th1  1  0.079860  0.539930  0.297544  1
  Th  Th2  1  0.919783  0.459892  0.797558  1
  Th  Th3  1  0.251815  0.125907  0.506324  1
  Th  Th4  1  0.543181  0.078458  0.797499  1
  Th  Th5  1  0.748657  0.874328  0.008896  1
  Th  Th6  1  0.667587  0.333793  0.285737  1
  Th  Th7  1  0.127034  0.875228  0.004025  1
  Th  Th8  1  0.457071  0.921456  0.297344  1
  Th  Th9  1  0.543181  0.464723  0.797499  1
  Th  Th10  1  0.873747  0.124844  0.504810  1
  Th  Th11  1  0.127034  0.251805  0.004025  1
  Th  Th12  1  0.873747  0.748904  0.504810  1
  Th  Th13  1  0.331957  0.665979  0.785965  1
  Re  Re14  1  0.624197  0.812097  0.551736  1
  Re  Re15  1  0.373813  0.186908  0.048532  1
  Os  Os16  1  0.817018  0.627913  0.051200  1
  Os  Os17  1  0.817018  0.189105  0.051200  1
  Ru  Ru18  1  0.183115  0.371545  0.545974  1
  Ru  Ru19  1  0.183115  0.811569  0.545974  1
