# generated using pymatgen
data_Ce2Tm3Bi3C
_symmetry_space_group_name_H-M   'P 1'
_cell_length_a   9.40708100
_cell_length_b   9.40708064
_cell_length_c   6.30516600
_cell_angle_alpha   90.00000000
_cell_angle_beta   90.00000000
_cell_angle_gamma   119.99999773
_symmetry_Int_Tables_number   1
_chemical_formula_structural   Ce2Tm3Bi3C
_chemical_formula_sum   'Ce4 Tm6 Bi6 C2'
_cell_volume   483.21111699
_cell_formula_units_Z   2
loop_
 _symmetry_equiv_pos_site_id
 _symmetry_equiv_pos_as_xyz
  1  'x, y, z'
loop_
 _atom_site_type_symbol
 _atom_site_label
 _atom_site_symmetry_multiplicity
 _atom_site_fract_x
 _atom_site_fract_y
 _atom_site_fract_z
 _atom_site_occupancy
  Ce  Ce0  1  0.666667  0.333333  0.000000  1
  Ce  Ce1  1  0.333333  0.666667  0.000000  1
  Ce  Ce2  1  0.333333  0.666667  0.500000  1
  Ce  Ce3  1  0.666667  0.333333  0.500000  1
  Tm  Tm4  1  0.800540  0.800540  0.750000  1
  Tm  Tm5  1  0.199460  0.000000  0.750000  1
  Tm  Tm6  1  0.000000  0.199460  0.750000  1
  Tm  Tm7  1  0.199460  0.199460  0.250000  1
  Tm  Tm8  1  0.800540  0.000000  0.250000  1
  Tm  Tm9  1  0.000000  0.800540  0.250000  1
  Bi  Bi10  1  0.386627  0.386627  0.750000  1
  Bi  Bi11  1  0.613373  0.000000  0.750000  1
  Bi  Bi12  1  0.000000  0.613373  0.750000  1
  Bi  Bi13  1  0.613373  0.613373  0.250000  1
  Bi  Bi14  1  0.386627  0.000000  0.250000  1
  Bi  Bi15  1  0.000000  0.386627  0.250000  1
  C  C16  1  0.000000  0.000000  0.000000  1
  C  C17  1  0.000000  0.000000  0.500000  1
