# generated using pymatgen
data_Yb7Hf(Si4W3)4
_symmetry_space_group_name_H-M   'P 1'
_cell_length_a   6.69632511
_cell_length_b   6.87967431
_cell_length_c   12.96729213
_cell_angle_alpha   89.75931103
_cell_angle_beta   89.96722376
_cell_angle_gamma   90.15539432
_symmetry_Int_Tables_number   1
_chemical_formula_structural   Yb7Hf(Si4W3)4
_chemical_formula_sum   'Yb7 Hf1 Si16 W12'
_cell_volume   597.37659226
_cell_formula_units_Z   1
loop_
 _symmetry_equiv_pos_site_id
 _symmetry_equiv_pos_as_xyz
  1  'x, y, z'
loop_
 _atom_site_type_symbol
 _atom_site_label
 _atom_site_symmetry_multiplicity
 _atom_site_fract_x
 _atom_site_fract_y
 _atom_site_fract_z
 _atom_site_occupancy
  Yb  Yb0  1  0.998568  0.166698  0.090305  1
  Yb  Yb1  1  0.002043  0.834304  0.909593  1
  Yb  Yb2  1  0.502396  0.665998  0.910208  1
  Yb  Yb3  1  0.001923  0.833877  0.589379  1
  Yb  Yb4  1  0.498406  0.331808  0.090165  1
  Yb  Yb5  1  0.999765  0.167931  0.410582  1
  Yb  Yb6  1  0.498820  0.330196  0.409142  1
  Hf  Hf7  1  0.502397  0.673815  0.597618  1
  Si  Si8  1  0.035098  0.125856  0.747557  1
  Si  Si9  1  0.963824  0.878478  0.250882  1
  Si  Si10  1  0.464181  0.618505  0.249390  1
  Si  Si11  1  0.535352  0.378053  0.748280  1
  Si  Si12  1  0.299125  0.862609  0.750186  1
  Si  Si13  1  0.700933  0.134958  0.250509  1
  Si  Si14  1  0.200029  0.362052  0.250172  1
  Si  Si15  1  0.801683  0.639730  0.750472  1
  Si  Si16  1  0.168976  0.461866  0.544957  1
  Si  Si17  1  0.834886  0.541598  0.457195  1
  Si  Si18  1  0.338323  0.953975  0.458115  1
  Si  Si19  1  0.838966  0.542071  0.044467  1
  Si  Si20  1  0.660912  0.040013  0.544517  1
  Si  Si21  1  0.160543  0.457716  0.954224  1
  Si  Si22  1  0.661177  0.042925  0.954504  1
  Si  Si23  1  0.338564  0.957730  0.044276  1
  W  W24  1  0.164477  0.495561  0.747366  1
  W  W25  1  0.839305  0.509047  0.251159  1
  W  W26  1  0.340059  0.987797  0.250955  1
  W  W27  1  0.660616  0.005775  0.746872  1
  W  W28  1  0.334100  0.163674  0.624880  1
  W  W29  1  0.661069  0.828884  0.375671  1
  W  W30  1  0.165046  0.666158  0.373587  1
  W  W31  1  0.664069  0.832217  0.127880  1
  W  W32  1  0.830693  0.340755  0.625302  1
  W  W33  1  0.335221  0.166650  0.870750  1
  W  W34  1  0.834632  0.334015  0.871622  1
  W  W35  1  0.163822  0.666707  0.127266  1
