# generated using pymatgen
data_Ho2Al9Ir2Pt
_symmetry_space_group_name_H-M   'P 1'
_cell_length_a   7.57361521
_cell_length_b   7.57361490
_cell_length_c   9.44004246
_cell_angle_alpha   89.93827413
_cell_angle_beta   89.93826821
_cell_angle_gamma   119.68482552
_symmetry_Int_Tables_number   1
_chemical_formula_structural   Ho2Al9Ir2Pt
_chemical_formula_sum   'Ho4 Al18 Ir4 Pt2'
_cell_volume   470.41436163
_cell_formula_units_Z   2
loop_
 _symmetry_equiv_pos_site_id
 _symmetry_equiv_pos_as_xyz
  1  'x, y, z'
loop_
 _atom_site_type_symbol
 _atom_site_label
 _atom_site_symmetry_multiplicity
 _atom_site_fract_x
 _atom_site_fract_y
 _atom_site_fract_z
 _atom_site_occupancy
  Ho  Ho0  1  0.995255  0.669962  0.251325  1
  Ho  Ho1  1  0.004745  0.330038  0.748675  1
  Ho  Ho2  1  0.669962  0.995255  0.251325  1
  Ho  Ho3  1  0.330038  0.004745  0.748675  1
  Al  Al4  1  0.126970  0.126970  0.250669  1
  Al  Al5  1  0.873030  0.873030  0.749331  1
  Al  Al6  1  0.000509  0.331196  0.077789  1
  Al  Al7  1  0.999491  0.668804  0.922211  1
  Al  Al8  1  0.000171  0.665163  0.574799  1
  Al  Al9  1  0.334837  0.999829  0.425201  1
  Al  Al10  1  0.999829  0.334837  0.425201  1
  Al  Al11  1  0.665163  0.000171  0.574799  1
  Al  Al12  1  0.668804  0.999491  0.922211  1
  Al  Al13  1  0.331196  0.000509  0.077789  1
  Al  Al14  1  0.332293  0.332293  0.552036  1
  Al  Al15  1  0.667707  0.667707  0.447964  1
  Al  Al16  1  0.669049  0.669049  0.059045  1
  Al  Al17  1  0.330951  0.330951  0.940955  1
  Al  Al18  1  0.340225  0.547158  0.253133  1
  Al  Al19  1  0.659775  0.452842  0.746867  1
  Al  Al20  1  0.547158  0.340225  0.253133  1
  Al  Al21  1  0.452842  0.659775  0.746867  1
  Ir  Ir22  1  0.327942  0.672058  0.500000  1
  Ir  Ir23  1  0.672058  0.327942  0.500000  1
  Ir  Ir24  1  0.000000  0.000000  0.000000  1
  Ir  Ir25  1  0.000000  0.000000  0.500000  1
  Pt  Pt26  1  0.672221  0.327779  0.000000  1
  Pt  Pt27  1  0.327779  0.672221  0.000000  1
