# generated using pymatgen
data_Pr10Si5Rh
_symmetry_space_group_name_H-M   'P 1'
_cell_length_a   7.70963408
_cell_length_b   7.70963493
_cell_length_c   9.10903427
_cell_angle_alpha   115.03591012
_cell_angle_beta   115.03591129
_cell_angle_gamma   90.00000477
_symmetry_Int_Tables_number   1
_chemical_formula_structural   Pr10Si5Rh
_chemical_formula_sum   'Pr10 Si5 Rh1'
_cell_volume   433.75934737
_cell_formula_units_Z   1
loop_
 _symmetry_equiv_pos_site_id
 _symmetry_equiv_pos_as_xyz
  1  'x, y, z'
loop_
 _atom_site_type_symbol
 _atom_site_label
 _atom_site_symmetry_multiplicity
 _atom_site_fract_x
 _atom_site_fract_y
 _atom_site_fract_z
 _atom_site_occupancy
  Pr  Pr0  1  0.471939  0.471939  0.943878  1
  Pr  Pr1  1  0.028061  0.028061  0.056122  1
  Pr  Pr2  1  0.952876  0.809612  0.286576  1
  Pr  Pr3  1  0.333700  0.476964  0.286576  1
  Pr  Pr4  1  0.809612  0.333700  0.286576  1
  Pr  Pr5  1  0.476964  0.952876  0.286576  1
  Pr  Pr6  1  0.023036  0.166300  0.713424  1
  Pr  Pr7  1  0.690388  0.547124  0.713424  1
  Pr  Pr8  1  0.166300  0.690388  0.713424  1
  Pr  Pr9  1  0.547124  0.023036  0.713424  1
  Si  Si10  1  0.250000  0.250000  0.500000  1
  Si  Si11  1  0.614315  0.885685  0.000000  1
  Si  Si12  1  0.385685  0.114315  0.000000  1
  Si  Si13  1  0.885685  0.385685  0.000000  1
  Si  Si14  1  0.114315  0.614315  0.000000  1
  Rh  Rh15  1  0.750000  0.750000  0.500000  1
