# generated using pymatgen
data_Er2BiRh5
_symmetry_space_group_name_H-M   'P 1'
_cell_length_a   5.78705798
_cell_length_b   5.78705699
_cell_length_c   8.54844000
_cell_angle_alpha   90.00000000
_cell_angle_beta   90.00000000
_cell_angle_gamma   97.17558611
_symmetry_Int_Tables_number   1
_chemical_formula_structural   Er2BiRh5
_chemical_formula_sum   'Er4 Bi2 Rh10'
_cell_volume   284.04534956
_cell_formula_units_Z   2
loop_
 _symmetry_equiv_pos_site_id
 _symmetry_equiv_pos_as_xyz
  1  'x, y, z'
loop_
 _atom_site_type_symbol
 _atom_site_label
 _atom_site_symmetry_multiplicity
 _atom_site_fract_x
 _atom_site_fract_y
 _atom_site_fract_z
 _atom_site_occupancy
  Er  Er0  1  0.782785  0.217215  0.500000  1
  Er  Er1  1  0.217215  0.782785  0.000000  1
  Er  Er2  1  0.217215  0.782785  0.500000  1
  Er  Er3  1  0.782785  0.217215  0.000000  1
  Bi  Bi4  1  0.501140  0.501140  0.750000  1
  Bi  Bi5  1  0.498860  0.498860  0.250000  1
  Rh  Rh6  1  0.731006  0.731006  0.000684  1
  Rh  Rh7  1  0.731006  0.731006  0.499316  1
  Rh  Rh8  1  0.268994  0.268994  0.999316  1
  Rh  Rh9  1  0.268994  0.268994  0.500684  1
  Rh  Rh10  1  0.499977  0.000241  0.750000  1
  Rh  Rh11  1  0.500023  0.999759  0.250000  1
  Rh  Rh12  1  0.000212  0.000212  0.250000  1
  Rh  Rh13  1  0.999788  0.999788  0.750000  1
  Rh  Rh14  1  0.000241  0.499977  0.750000  1
  Rh  Rh15  1  0.999759  0.500023  0.250000  1
