# generated using pymatgen
data_Tb3Dy5Se12
_symmetry_space_group_name_H-M   'P 1'
_cell_length_a   7.11040835
_cell_length_b   7.11576532
_cell_length_c   12.97400559
_cell_angle_alpha   100.68933294
_cell_angle_beta   100.67203238
_cell_angle_gamma   108.92637404
_symmetry_Int_Tables_number   1
_chemical_formula_structural   Tb3Dy5Se12
_chemical_formula_sum   'Tb3 Dy5 Se12'
_cell_volume   588.52932551
_cell_formula_units_Z   1
loop_
 _symmetry_equiv_pos_site_id
 _symmetry_equiv_pos_as_xyz
  1  'x, y, z'
loop_
 _atom_site_type_symbol
 _atom_site_label
 _atom_site_symmetry_multiplicity
 _atom_site_fract_x
 _atom_site_fract_y
 _atom_site_fract_z
 _atom_site_occupancy
  Tb  Tb0  1  0.040978  0.790954  0.081895  1
  Tb  Tb1  1  0.622459  0.872439  0.244903  1
  Tb  Tb2  1  0.127664  0.377643  0.255320  1
  Dy  Dy3  1  0.208990  0.958971  0.418010  1
  Dy  Dy4  1  0.791260  0.041278  0.582506  1
  Dy  Dy5  1  0.872387  0.622410  0.744802  1
  Dy  Dy6  1  0.377419  0.127439  0.754865  1
  Dy  Dy7  1  0.958654  0.208668  0.917372  1
  Se  Se8  1  0.803951  0.049213  0.087014  1
  Se  Se9  1  0.283293  0.537829  0.087039  1
  Se  Se10  1  0.367468  0.117468  0.250622  1
  Se  Se11  1  0.883100  0.633167  0.250597  1
  Se  Se12  1  0.951878  0.195191  0.413065  1
  Se  Se13  1  0.461190  0.717620  0.413054  1
  Se  Se14  1  0.539222  0.283036  0.588005  1
  Se  Se15  1  0.048703  0.805147  0.587980  1
  Se  Se16  1  0.116737  0.366775  0.750022  1
  Se  Se17  1  0.633269  0.883204  0.749987  1
  Se  Se18  1  0.716137  0.459869  0.911477  1
  Se  Se19  1  0.195241  0.951679  0.911463  1
