# generated using pymatgen
data_Ti10Si5AsO2
_symmetry_space_group_name_H-M   'P 1'
_cell_length_a   7.45211600
_cell_length_b   7.44834288
_cell_length_c   5.16620200
_cell_angle_alpha   90.00000000
_cell_angle_beta   90.00000000
_cell_angle_gamma   120.01676755
_symmetry_Int_Tables_number   1
_chemical_formula_structural   Ti10Si5AsO2
_chemical_formula_sum   'Ti10 Si5 As1 O2'
_cell_volume   248.29494551
_cell_formula_units_Z   1
loop_
 _symmetry_equiv_pos_site_id
 _symmetry_equiv_pos_as_xyz
  1  'x, y, z'
loop_
 _atom_site_type_symbol
 _atom_site_label
 _atom_site_symmetry_multiplicity
 _atom_site_fract_x
 _atom_site_fract_y
 _atom_site_fract_z
 _atom_site_occupancy
  Ti  Ti0  1  0.234135  0.000000  0.750000  1
  Ti  Ti1  1  0.764320  0.000000  0.250000  1
  Ti  Ti2  1  0.004530  0.240738  0.750000  1
  Ti  Ti3  1  0.999424  0.762246  0.250000  1
  Ti  Ti4  1  0.763792  0.759262  0.750000  1
  Ti  Ti5  1  0.237178  0.237754  0.250000  1
  Ti  Ti6  1  0.333083  0.666062  0.498752  1
  Ti  Ti7  1  0.667022  0.333938  0.498752  1
  Ti  Ti8  1  0.667022  0.333938  0.001248  1
  Ti  Ti9  1  0.333083  0.666062  0.001248  1
  Si  Si10  1  0.402655  0.000000  0.250000  1
  Si  Si11  1  0.000188  0.592224  0.750000  1
  Si  Si12  1  0.000208  0.407199  0.250000  1
  Si  Si13  1  0.407964  0.407776  0.750000  1
  Si  Si14  1  0.593009  0.592801  0.250000  1
  As  As15  1  0.595359  0.000000  0.750000  1
  O  O16  1  0.998515  0.000000  0.500539  1
  O  O17  1  0.998515  0.000000  0.999461  1
