# generated using pymatgen
data_Pr4Sn10PtRh5
_symmetry_space_group_name_H-M   'P 1'
_cell_length_a   13.69016494
_cell_length_b   13.69016472
_cell_length_c   7.36523658
_cell_angle_alpha   90.04512917
_cell_angle_beta   89.95487200
_cell_angle_gamma   160.97228191
_symmetry_Int_Tables_number   1
_chemical_formula_structural   Pr4Sn10PtRh5
_chemical_formula_sum   'Pr4 Sn10 Pt1 Rh5'
_cell_volume   450.04457300
_cell_formula_units_Z   1
loop_
 _symmetry_equiv_pos_site_id
 _symmetry_equiv_pos_as_xyz
  1  'x, y, z'
loop_
 _atom_site_type_symbol
 _atom_site_label
 _atom_site_symmetry_multiplicity
 _atom_site_fract_x
 _atom_site_fract_y
 _atom_site_fract_z
 _atom_site_occupancy
  Pr  Pr0  1  0.477148  0.522852  0.240756  1
  Pr  Pr1  1  0.172505  0.827495  0.254491  1
  Pr  Pr2  1  0.524929  0.475071  0.737648  1
  Pr  Pr3  1  0.827024  0.172976  0.753259  1
  Sn  Sn4  1  0.704494  0.295506  0.551189  1
  Sn  Sn5  1  0.596322  0.403678  0.114054  1
  Sn  Sn6  1  0.049055  0.950945  0.401123  1
  Sn  Sn7  1  0.952612  0.047388  0.899679  1
  Sn  Sn8  1  0.709940  0.290060  0.973879  1
  Sn  Sn9  1  0.289234  0.710766  0.474129  1
  Sn  Sn10  1  0.293644  0.706356  0.050398  1
  Sn  Sn11  1  0.878935  0.121065  0.239277  1
  Sn  Sn12  1  0.120740  0.879260  0.731812  1
  Sn  Sn13  1  0.403153  0.596847  0.608774  1
  Pt  Pt14  1  0.393000  0.607000  0.980870  1
  Rh  Rh15  1  0.778022  0.221978  0.262719  1
  Rh  Rh16  1  0.223057  0.776943  0.763830  1
  Rh  Rh17  1  0.051544  0.948456  0.021675  1
  Rh  Rh18  1  0.606560  0.393440  0.482021  1
  Rh  Rh19  1  0.948084  0.051916  0.522218  1
