# generated using pymatgen
data_Nd8Si13Ni3
_symmetry_space_group_name_H-M   'P 1'
_cell_length_a   8.08569700
_cell_length_b   8.08569724
_cell_length_c   8.52994700
_cell_angle_alpha   90.00000000
_cell_angle_beta   90.00000000
_cell_angle_gamma   120.00000310
_symmetry_Int_Tables_number   1
_chemical_formula_structural   Nd8Si13Ni3
_chemical_formula_sum   'Nd8 Si13 Ni3'
_cell_volume   482.96080788
_cell_formula_units_Z   1
loop_
 _symmetry_equiv_pos_site_id
 _symmetry_equiv_pos_as_xyz
  1  'x, y, z'
loop_
 _atom_site_type_symbol
 _atom_site_label
 _atom_site_symmetry_multiplicity
 _atom_site_fract_x
 _atom_site_fract_y
 _atom_site_fract_z
 _atom_site_occupancy
  Nd  Nd0  1  0.000000  0.000000  0.748102  1
  Nd  Nd1  1  0.000000  0.000000  0.251919  1
  Nd  Nd2  1  0.498546  0.501454  0.749941  1
  Nd  Nd3  1  0.498546  0.997093  0.749941  1
  Nd  Nd4  1  0.002907  0.501454  0.749941  1
  Nd  Nd5  1  0.499206  0.500794  0.250224  1
  Nd  Nd6  1  0.001588  0.500794  0.250224  1
  Nd  Nd7  1  0.499206  0.998412  0.250224  1
  Si  Si8  1  0.824885  0.175115  0.999527  1
  Si  Si9  1  0.824885  0.649771  0.999527  1
  Si  Si10  1  0.350229  0.175115  0.999527  1
  Si  Si11  1  0.828258  0.171742  0.500519  1
  Si  Si12  1  0.828258  0.656516  0.500519  1
  Si  Si13  1  0.343484  0.171742  0.500519  1
  Si  Si14  1  0.171324  0.828676  0.499676  1
  Si  Si15  1  0.657352  0.828676  0.499676  1
  Si  Si16  1  0.171324  0.342648  0.499676  1
  Si  Si17  1  0.162166  0.837834  0.000266  1
  Si  Si18  1  0.675669  0.837834  0.000266  1
  Si  Si19  1  0.162166  0.324331  0.000266  1
  Si  Si20  1  0.333333  0.666667  0.001422  1
  Ni  Ni21  1  0.666667  0.333333  0.998610  1
  Ni  Ni22  1  0.666667  0.333333  0.501384  1
  Ni  Ni23  1  0.333333  0.666667  0.498102  1
