# generated using pymatgen
data_BaNd6OsI12
_symmetry_space_group_name_H-M   'P 1'
_cell_length_a   10.14043775
_cell_length_b   10.14043878
_cell_length_c   10.14043783
_cell_angle_alpha   105.74114583
_cell_angle_beta   105.74114594
_cell_angle_gamma   105.74113649
_symmetry_Int_Tables_number   1
_chemical_formula_structural   BaNd6OsI12
_chemical_formula_sum   'Ba1 Nd6 Os1 I12'
_cell_volume   896.54347161
_cell_formula_units_Z   1
loop_
 _symmetry_equiv_pos_site_id
 _symmetry_equiv_pos_as_xyz
  1  'x, y, z'
loop_
 _atom_site_type_symbol
 _atom_site_label
 _atom_site_symmetry_multiplicity
 _atom_site_fract_x
 _atom_site_fract_y
 _atom_site_fract_z
 _atom_site_occupancy
  Ba  Ba0  1  0.500000  0.500000  0.500000  1
  Nd  Nd1  1  0.091712  0.294936  0.015026  1
  Nd  Nd2  1  0.294935  0.015025  0.091712  1
  Nd  Nd3  1  0.015025  0.091712  0.294936  1
  Nd  Nd4  1  0.984974  0.908288  0.705064  1
  Nd  Nd5  1  0.705065  0.984974  0.908287  1
  Nd  Nd6  1  0.908288  0.705064  0.984974  1
  Os  Os7  1  0.000000  0.000000  0.000000  1
  I  I8  1  0.225349  0.678569  0.074912  1
  I  I9  1  0.440653  0.358535  0.128445  1
  I  I10  1  0.678569  0.074913  0.225349  1
  I  I11  1  0.925088  0.774652  0.321432  1
  I  I12  1  0.128445  0.440653  0.358535  1
  I  I13  1  0.358535  0.128445  0.440654  1
  I  I14  1  0.641465  0.871555  0.559346  1
  I  I15  1  0.871554  0.559347  0.641465  1
  I  I16  1  0.074913  0.225349  0.678569  1
  I  I17  1  0.321432  0.925088  0.774651  1
  I  I18  1  0.559346  0.641464  0.871555  1
  I  I19  1  0.774651  0.321432  0.925088  1
