# generated using pymatgen
data_Cs2Os(Cl2F)2
_symmetry_space_group_name_H-M   'P 1'
_cell_length_a   7.29099727
_cell_length_b   7.29099761
_cell_length_c   7.29099777
_cell_angle_alpha   118.44413625
_cell_angle_beta   118.44414141
_cell_angle_gamma   92.71664029
_symmetry_Int_Tables_number   1
_chemical_formula_structural   Cs2Os(Cl2F)2
_chemical_formula_sum   'Cs2 Os1 Cl4 F2'
_cell_volume   280.16448121
_cell_formula_units_Z   1
loop_
 _symmetry_equiv_pos_site_id
 _symmetry_equiv_pos_as_xyz
  1  'x, y, z'
loop_
 _atom_site_type_symbol
 _atom_site_label
 _atom_site_symmetry_multiplicity
 _atom_site_fract_x
 _atom_site_fract_y
 _atom_site_fract_z
 _atom_site_occupancy
  Cs  Cs0  1  0.750000  0.250000  0.500000  1
  Cs  Cs1  1  0.250000  0.750000  0.500000  1
  Os  Os2  1  0.000000  0.000000  0.000000  1
  Cl  Cl3  1  0.775421  0.775421  0.550841  1
  Cl  Cl4  1  0.224579  0.224579  0.449159  1
  Cl  Cl5  1  0.224579  0.775421  0.000000  1
  Cl  Cl6  1  0.775421  0.224579  0.000000  1
  F  F7  1  0.807286  0.807286  0.000000  1
  F  F8  1  0.192714  0.192714  0.000000  1
