# generated using pymatgen
data_CeTc3As4Rh3
_symmetry_space_group_name_H-M   'P 1'
_cell_length_a   7.18780600
_cell_length_b   7.18797119
_cell_length_c   3.95505000
_cell_angle_alpha   90.00000000
_cell_angle_beta   90.00000000
_cell_angle_gamma   120.00075157
_symmetry_Int_Tables_number   1
_chemical_formula_structural   CeTc3As4Rh3
_chemical_formula_sum   'Ce1 Tc3 As4 Rh3'
_cell_volume   176.96280579
_cell_formula_units_Z   1
loop_
 _symmetry_equiv_pos_site_id
 _symmetry_equiv_pos_as_xyz
  1  'x, y, z'
loop_
 _atom_site_type_symbol
 _atom_site_label
 _atom_site_symmetry_multiplicity
 _atom_site_fract_x
 _atom_site_fract_y
 _atom_site_fract_z
 _atom_site_occupancy
  Ce  Ce0  1  0.999992  0.999996  0.000000  1
  Tc  Tc1  1  0.535018  0.070059  0.000000  1
  Tc  Tc2  1  0.535018  0.464959  0.000000  1
  Tc  Tc3  1  0.929944  0.464972  0.000000  1
  As  As4  1  0.805641  0.611259  0.500000  1
  As  As5  1  0.333327  0.666664  0.000000  1
  As  As6  1  0.388717  0.194358  0.500000  1
  As  As7  1  0.805641  0.194382  0.500000  1
  Rh  Rh8  1  0.605252  0.802627  0.500000  1
  Rh  Rh9  1  0.197390  0.394772  0.500000  1
  Rh  Rh10  1  0.197390  0.802618  0.500000  1
