# generated using pymatgen
data_LiCaCeAlIr2
_symmetry_space_group_name_H-M   'P 1'
_cell_length_a   7.04647600
_cell_length_b   4.06736100
_cell_length_c   8.42790500
_cell_angle_alpha   90.00000000
_cell_angle_beta   90.00000000
_cell_angle_gamma   90.00000000
_symmetry_Int_Tables_number   1
_chemical_formula_structural   LiCaCeAlIr2
_chemical_formula_sum   'Li2 Ca2 Ce2 Al2 Ir4'
_cell_volume   241.54849100
_cell_formula_units_Z   2
loop_
 _symmetry_equiv_pos_site_id
 _symmetry_equiv_pos_as_xyz
  1  'x, y, z'
loop_
 _atom_site_type_symbol
 _atom_site_label
 _atom_site_symmetry_multiplicity
 _atom_site_fract_x
 _atom_site_fract_y
 _atom_site_fract_z
 _atom_site_occupancy
  Li  Li0  1  0.133655  0.750000  0.442240  1
  Li  Li1  1  0.633655  0.750000  0.057760  1
  Ca  Ca2  1  0.956604  0.250000  0.186604  1
  Ca  Ca3  1  0.456604  0.250000  0.313396  1
  Ce  Ce4  1  0.033595  0.750000  0.827827  1
  Ce  Ce5  1  0.533595  0.750000  0.672173  1
  Al  Al6  1  0.877819  0.250000  0.560158  1
  Al  Al7  1  0.377819  0.250000  0.939842  1
  Ir  Ir8  1  0.738339  0.250000  0.850712  1
  Ir  Ir9  1  0.238339  0.250000  0.649288  1
  Ir  Ir10  1  0.259987  0.750000  0.087262  1
  Ir  Ir11  1  0.759987  0.750000  0.412738  1
