# generated using pymatgen
data_Tm3MgPa3Co17P12
_symmetry_space_group_name_H-M   'P 1'
_cell_length_a   3.72510000
_cell_length_b   10.49767388
_cell_length_c   12.17744512
_cell_angle_alpha   90.22381535
_cell_angle_beta   90.00000000
_cell_angle_gamma   90.00000000
_symmetry_Int_Tables_number   1
_chemical_formula_structural   Tm3MgPa3Co17P12
_chemical_formula_sum   'Tm3 Mg1 Pa3 Co17 P12'
_cell_volume   476.19395758
_cell_formula_units_Z   1
loop_
 _symmetry_equiv_pos_site_id
 _symmetry_equiv_pos_as_xyz
  1  'x, y, z'
loop_
 _atom_site_type_symbol
 _atom_site_label
 _atom_site_symmetry_multiplicity
 _atom_site_fract_x
 _atom_site_fract_y
 _atom_site_fract_z
 _atom_site_occupancy
  Tm  Tm0  1  0.500000  0.185688  0.203644  1
  Tm  Tm1  1  0.000000  0.681550  0.795198  1
  Tm  Tm2  1  0.000000  0.319041  0.792165  1
  Mg  Mg3  1  0.000000  0.998375  0.849128  1
  Pa  Pa4  1  0.000000  0.499180  0.529832  1
  Pa  Pa5  1  0.500000  0.001320  0.470527  1
  Pa  Pa6  1  0.500000  0.820121  0.205431  1
  Co  Co7  1  0.500000  0.500686  0.162538  1
  Co  Co8  1  0.500000  0.498861  0.697015  1
  Co  Co9  1  0.000000  0.994469  0.299369  1
  Co  Co10  1  0.000000  0.499674  0.983416  1
  Co  Co11  1  0.500000  0.001591  0.013984  1
  Co  Co12  1  0.500000  0.338424  0.996281  1
  Co  Co13  1  0.500000  0.662132  0.997635  1
  Co  Co14  1  0.000000  0.172753  0.007245  1
  Co  Co15  1  0.000000  0.829116  0.009856  1
  Co  Co16  1  0.500000  0.300916  0.430513  1
  Co  Co17  1  0.500000  0.697722  0.432135  1
  Co  Co18  1  0.000000  0.200033  0.563990  1
  Co  Co19  1  0.000000  0.798430  0.567133  1
  Co  Co20  1  0.500000  0.876882  0.708277  1
  Co  Co21  1  0.500000  0.123011  0.706052  1
  Co  Co22  1  0.000000  0.621964  0.290869  1
  Co  Co23  1  0.000000  0.379825  0.290370  1
  P  P24  1  0.500000  0.499853  0.877966  1
  P  P25  1  0.000000  0.004386  0.117508  1
  P  P26  1  0.500000  0.498500  0.345484  1
  P  P27  1  0.000000  0.999964  0.648263  1
  P  P28  1  0.500000  0.307229  0.615892  1
  P  P29  1  0.500000  0.691271  0.618783  1
  P  P30  1  0.000000  0.190338  0.379134  1
  P  P31  1  0.000000  0.806559  0.386370  1
  P  P32  1  0.500000  0.837382  0.897136  1
  P  P33  1  0.500000  0.163599  0.895127  1
  P  P34  1  0.000000  0.648232  0.107343  1
  P  P35  1  0.000000  0.350922  0.108392  1
