# generated using pymatgen
data_Cs4Li2TmScAs4
_symmetry_space_group_name_H-M   'P 1'
_cell_length_a   10.99412502
_cell_length_b   10.99412452
_cell_length_c   6.78690400
_cell_angle_alpha   90.00000000
_cell_angle_beta   90.00000000
_cell_angle_gamma   103.86827434
_symmetry_Int_Tables_number   1
_chemical_formula_structural   Cs4Li2TmScAs4
_chemical_formula_sum   'Cs8 Li4 Tm2 Sc2 As8'
_cell_volume   796.42498062
_cell_formula_units_Z   2
loop_
 _symmetry_equiv_pos_site_id
 _symmetry_equiv_pos_as_xyz
  1  'x, y, z'
loop_
 _atom_site_type_symbol
 _atom_site_label
 _atom_site_symmetry_multiplicity
 _atom_site_fract_x
 _atom_site_fract_y
 _atom_site_fract_z
 _atom_site_occupancy
  Cs  Cs0  1  0.074512  0.426766  0.747380  1
  Cs  Cs1  1  0.673429  0.325459  0.785794  1
  Cs  Cs2  1  0.325459  0.673429  0.214206  1
  Cs  Cs3  1  0.574512  0.926766  0.752620  1
  Cs  Cs4  1  0.426766  0.074512  0.252620  1
  Cs  Cs5  1  0.926766  0.574512  0.247380  1
  Cs  Cs6  1  0.825459  0.173429  0.285794  1
  Cs  Cs7  1  0.173429  0.825459  0.714206  1
  Li  Li8  1  0.119870  0.119870  0.500000  1
  Li  Li9  1  0.878213  0.878213  0.500000  1
  Li  Li10  1  0.378213  0.378213  0.000000  1
  Li  Li11  1  0.619870  0.619870  0.000000  1
  Tm  Tm12  1  0.869288  0.869288  0.000000  1
  Tm  Tm13  1  0.369288  0.369288  0.500000  1
  Sc  Sc14  1  0.630438  0.630438  0.500000  1
  Sc  Sc15  1  0.130438  0.130438  0.000000  1
  As  As16  1  0.828219  0.665945  0.742913  1
  As  As17  1  0.086082  0.921781  0.226870  1
  As  As18  1  0.421781  0.586082  0.726870  1
  As  As19  1  0.586082  0.421781  0.273130  1
  As  As20  1  0.665945  0.828219  0.257087  1
  As  As21  1  0.165945  0.328219  0.242913  1
  As  As22  1  0.328219  0.165945  0.757087  1
  As  As23  1  0.921781  0.086082  0.773130  1
