# generated using pymatgen
data_Tb6PrNdMo(WO8)3
_symmetry_space_group_name_H-M   'P 1'
_cell_length_a   5.47148300
_cell_length_b   7.80414234
_cell_length_c   11.60695900
_cell_angle_alpha   75.64142214
_cell_angle_beta   90.00000000
_cell_angle_gamma   90.00000000
_symmetry_Int_Tables_number   1
_chemical_formula_structural   Tb6PrNdMo(WO8)3
_chemical_formula_sum   'Tb6 Pr1 Nd1 Mo1 W3 O24'
_cell_volume   480.13801774
_cell_formula_units_Z   1
loop_
 _symmetry_equiv_pos_site_id
 _symmetry_equiv_pos_as_xyz
  1  'x, y, z'
loop_
 _atom_site_type_symbol
 _atom_site_label
 _atom_site_symmetry_multiplicity
 _atom_site_fract_x
 _atom_site_fract_y
 _atom_site_fract_z
 _atom_site_occupancy
  Tb  Tb0  1  0.740235  0.999203  0.749918  1
  Tb  Tb1  1  0.259859  0.999812  0.249990  1
  Tb  Tb2  1  0.188634  0.797000  0.577427  1
  Tb  Tb3  1  0.813769  0.796516  0.076184  1
  Tb  Tb4  1  0.184192  0.199967  0.923610  1
  Tb  Tb5  1  0.814062  0.203626  0.423428  1
  Pr  Pr6  1  0.684514  0.501442  0.749790  1
  Nd  Nd7  1  0.317024  0.499757  0.250982  1
  Mo  Mo8  1  0.252975  0.725547  0.885687  1
  W  W9  1  0.747510  0.727736  0.383932  1
  W  W10  1  0.253158  0.272342  0.615790  1
  W  W11  1  0.746830  0.272552  0.116014  1
  O  O12  1  0.035407  0.939525  0.898208  1
  O  O13  1  0.525816  0.847277  0.929275  1
  O  O14  1  0.957046  0.940348  0.395176  1
  O  O15  1  0.460376  0.791579  0.726785  1
  O  O16  1  0.469745  0.846395  0.429779  1
  O  O17  1  0.989953  0.720836  0.769986  1
  O  O18  1  0.545480  0.793319  0.227603  1
  O  O19  1  0.852948  0.641195  0.544523  1
  O  O20  1  0.344719  0.495673  0.887453  1
  O  O21  1  0.014975  0.717170  0.270014  1
  O  O22  1  0.348183  0.505664  0.612921  1
  O  O23  1  0.852279  0.358889  0.955344  1
  O  O24  1  0.151373  0.641577  0.045301  1
  O  O25  1  0.650017  0.494394  0.386701  1
  O  O26  1  0.986164  0.281671  0.729443  1
  O  O27  1  0.650147  0.505950  0.113112  1
  O  O28  1  0.149092  0.358760  0.454474  1
  O  O29  1  0.454083  0.206708  0.772127  1
  O  O30  1  0.015420  0.283301  0.229035  1
  O  O31  1  0.530731  0.153602  0.569791  1
  O  O32  1  0.545497  0.206972  0.271910  1
  O  O33  1  0.042400  0.060365  0.603677  1
  O  O34  1  0.469139  0.153843  0.069459  1
  O  O35  1  0.956251  0.059488  0.105148  1
