# generated using pymatgen
data_Gd4C2SBr
_symmetry_space_group_name_H-M   'P 1'
_cell_length_a   3.75104000
_cell_length_b   3.75094914
_cell_length_c   13.71046700
_cell_angle_alpha   90.00000000
_cell_angle_beta   90.00000000
_cell_angle_gamma   119.99585274
_symmetry_Int_Tables_number   1
_chemical_formula_structural   Gd4C2SBr
_chemical_formula_sum   'Gd4 C2 S1 Br1'
_cell_volume   167.06824058
_cell_formula_units_Z   1
loop_
 _symmetry_equiv_pos_site_id
 _symmetry_equiv_pos_as_xyz
  1  'x, y, z'
loop_
 _atom_site_type_symbol
 _atom_site_label
 _atom_site_symmetry_multiplicity
 _atom_site_fract_x
 _atom_site_fract_y
 _atom_site_fract_z
 _atom_site_occupancy
  Gd  Gd0  1  0.333282  0.666664  0.082027  1
  Gd  Gd1  1  0.666603  0.333229  0.613159  1
  Gd  Gd2  1  0.666603  0.333229  0.886841  1
  Gd  Gd3  1  0.333282  0.666664  0.417973  1
  C  C4  1  0.000026  0.000009  0.993499  1
  C  C5  1  0.000026  0.000009  0.506501  1
  S  S6  1  0.333242  0.666485  0.750000  1
  Br  Br7  1  0.666935  0.333709  0.250000  1
