# generated using pymatgen
data_Dy7Ag(Sn11Ru3)2
_symmetry_space_group_name_H-M   'P 1'
_cell_length_a   9.84031300
_cell_length_b   9.84031358
_cell_length_c   10.06192600
_cell_angle_alpha   90.00000000
_cell_angle_beta   90.00000000
_cell_angle_gamma   119.99999468
_symmetry_Int_Tables_number   1
_chemical_formula_structural   Dy7Ag(Sn11Ru3)2
_chemical_formula_sum   'Dy7 Ag1 Sn22 Ru6'
_cell_volume   843.78077295
_cell_formula_units_Z   1
loop_
 _symmetry_equiv_pos_site_id
 _symmetry_equiv_pos_as_xyz
  1  'x, y, z'
loop_
 _atom_site_type_symbol
 _atom_site_label
 _atom_site_symmetry_multiplicity
 _atom_site_fract_x
 _atom_site_fract_y
 _atom_site_fract_z
 _atom_site_occupancy
  Dy  Dy0  1  0.000000  0.000000  0.000000  1
  Dy  Dy1  1  0.483768  0.516232  0.304188  1
  Dy  Dy2  1  0.516232  0.483768  0.695812  1
  Dy  Dy3  1  0.483768  0.967536  0.304188  1
  Dy  Dy4  1  0.516232  0.032464  0.695812  1
  Dy  Dy5  1  0.032464  0.516232  0.304188  1
  Dy  Dy6  1  0.967536  0.483768  0.695812  1
  Ag  Ag7  1  0.000000  0.000000  0.500000  1
  Sn  Sn8  1  0.349092  0.000000  0.000000  1
  Sn  Sn9  1  0.650908  0.000000  0.000000  1
  Sn  Sn10  1  0.000000  0.349092  0.000000  1
  Sn  Sn11  1  0.000000  0.650908  0.000000  1
  Sn  Sn12  1  0.650908  0.650908  0.000000  1
  Sn  Sn13  1  0.349092  0.349092  0.000000  1
  Sn  Sn14  1  0.333333  0.666667  0.823111  1
  Sn  Sn15  1  0.666667  0.333333  0.176889  1
  Sn  Sn16  1  0.780128  0.219872  0.462991  1
  Sn  Sn17  1  0.219872  0.780128  0.537009  1
  Sn  Sn18  1  0.780128  0.560258  0.462991  1
  Sn  Sn19  1  0.219872  0.439742  0.537009  1
  Sn  Sn20  1  0.439742  0.219872  0.462991  1
  Sn  Sn21  1  0.560258  0.780128  0.537009  1
  Sn  Sn22  1  0.333333  0.666667  0.126691  1
  Sn  Sn23  1  0.666667  0.333333  0.873309  1
  Sn  Sn24  1  0.118661  0.881339  0.274635  1
  Sn  Sn25  1  0.881339  0.118661  0.725365  1
  Sn  Sn26  1  0.118661  0.237321  0.274635  1
  Sn  Sn27  1  0.881339  0.762679  0.725365  1
  Sn  Sn28  1  0.762679  0.881339  0.274635  1
  Sn  Sn29  1  0.237321  0.118661  0.725365  1
  Ru  Ru30  1  0.831180  0.168820  0.204051  1
  Ru  Ru31  1  0.168820  0.831180  0.795949  1
  Ru  Ru32  1  0.831180  0.662361  0.204051  1
  Ru  Ru33  1  0.168820  0.337639  0.795949  1
  Ru  Ru34  1  0.337639  0.168820  0.204051  1
  Ru  Ru35  1  0.662361  0.831180  0.795949  1
