# generated using pymatgen
data_CeSm5(ErSb10)2
_symmetry_space_group_name_H-M   'P 1'
_cell_length_a   4.19671000
_cell_length_b   13.35785077
_cell_length_c   14.88023884
_cell_angle_alpha   78.58035181
_cell_angle_beta   90.00000000
_cell_angle_gamma   90.00000000
_symmetry_Int_Tables_number   1
_chemical_formula_structural   CeSm5(ErSb10)2
_chemical_formula_sum   'Ce1 Sm5 Er2 Sb20'
_cell_volume   817.65787731
_cell_formula_units_Z   1
loop_
 _symmetry_equiv_pos_site_id
 _symmetry_equiv_pos_as_xyz
  1  'x, y, z'
loop_
 _atom_site_type_symbol
 _atom_site_label
 _atom_site_symmetry_multiplicity
 _atom_site_fract_x
 _atom_site_fract_y
 _atom_site_fract_z
 _atom_site_occupancy
  Ce  Ce0  1  0.250000  0.668686  0.572031  1
  Sm  Sm1  1  0.250000  0.392934  0.771989  1
  Sm  Sm2  1  0.250000  0.953144  0.356447  1
  Sm  Sm3  1  0.750000  0.048128  0.640324  1
  Sm  Sm4  1  0.250000  0.663834  0.858712  1
  Sm  Sm5  1  0.750000  0.337667  0.145732  1
  Er  Er6  1  0.750000  0.330779  0.424060  1
  Er  Er7  1  0.750000  0.604822  0.229293  1
  Sb  Sb8  1  0.250000  0.425502  0.551187  1
  Sb  Sb9  1  0.750000  0.570070  0.444445  1
  Sb  Sb10  1  0.250000  0.718921  0.066849  1
  Sb  Sb11  1  0.750000  0.279862  0.938994  1
  Sb  Sb12  1  0.250000  0.420520  0.977405  1
  Sb  Sb13  1  0.750000  0.579546  0.026932  1
  Sb  Sb14  1  0.250000  0.860043  0.678746  1
  Sb  Sb15  1  0.750000  0.141010  0.322844  1
  Sb  Sb16  1  0.250000  0.150764  0.173128  1
  Sb  Sb17  1  0.750000  0.851405  0.826673  1
  Sb  Sb18  1  0.250000  0.711059  0.346712  1
  Sb  Sb19  1  0.750000  0.286904  0.649896  1
  Sb  Sb20  1  0.250000  0.143784  0.777172  1
  Sb  Sb21  1  0.750000  0.853030  0.221321  1
  Sb  Sb22  1  0.250000  0.426054  0.269459  1
  Sb  Sb23  1  0.750000  0.578572  0.731184  1
  Sb  Sb24  1  0.250000  0.145600  0.479918  1
  Sb  Sb25  1  0.750000  0.854492  0.517082  1
  Sb  Sb26  1  0.250000  0.970002  0.100224  1
  Sb  Sb27  1  0.750000  0.032864  0.901242  1
