# generated using pymatgen
data_Sc19Si16Mo
_symmetry_space_group_name_H-M   'P 1'
_cell_length_a   6.86832938
_cell_length_b   7.19068127
_cell_length_c   13.58424300
_cell_angle_alpha   90.00000000
_cell_angle_beta   90.00000000
_cell_angle_gamma   89.84041181
_symmetry_Int_Tables_number   1
_chemical_formula_structural   Sc19Si16Mo
_chemical_formula_sum   'Sc19 Si16 Mo1'
_cell_volume   670.89554869
_cell_formula_units_Z   1
loop_
 _symmetry_equiv_pos_site_id
 _symmetry_equiv_pos_as_xyz
  1  'x, y, z'
loop_
 _atom_site_type_symbol
 _atom_site_label
 _atom_site_symmetry_multiplicity
 _atom_site_fract_x
 _atom_site_fract_y
 _atom_site_fract_z
 _atom_site_occupancy
  Sc  Sc0  1  0.840840  0.007900  0.250000  1
  Sc  Sc1  1  0.339856  0.494587  0.250000  1
  Sc  Sc2  1  0.658540  0.509411  0.750000  1
  Sc  Sc3  1  0.993496  0.684157  0.599797  1
  Sc  Sc4  1  0.012160  0.320043  0.407269  1
  Sc  Sc5  1  0.511624  0.180342  0.406456  1
  Sc  Sc6  1  0.012160  0.320043  0.092731  1
  Sc  Sc7  1  0.486492  0.821726  0.597407  1
  Sc  Sc8  1  0.993496  0.684157  0.900203  1
  Sc  Sc9  1  0.486492  0.821726  0.902593  1
  Sc  Sc10  1  0.511624  0.180342  0.093544  1
  Sc  Sc11  1  0.330591  0.319548  0.627625  1
  Sc  Sc12  1  0.669107  0.678355  0.374650  1
  Sc  Sc13  1  0.171933  0.826836  0.377463  1
  Sc  Sc14  1  0.669107  0.678355  0.125350  1
  Sc  Sc15  1  0.826713  0.170671  0.628639  1
  Sc  Sc16  1  0.330591  0.319548  0.872375  1
  Sc  Sc17  1  0.826713  0.170671  0.871361  1
  Sc  Sc18  1  0.171933  0.826836  0.122537  1
  Si  Si19  1  0.031182  0.390016  0.750000  1
  Si  Si20  1  0.970448  0.606741  0.250000  1
  Si  Si21  1  0.468497  0.898055  0.250000  1
  Si  Si22  1  0.519933  0.088860  0.750000  1
  Si  Si23  1  0.282397  0.646164  0.750000  1
  Si  Si24  1  0.716873  0.365713  0.250000  1
  Si  Si25  1  0.214222  0.137273  0.250000  1
  Si  Si26  1  0.793827  0.862904  0.750000  1
  Si  Si27  1  0.159068  0.027388  0.547801  1
  Si  Si28  1  0.838915  0.968276  0.463383  1
  Si  Si29  1  0.340631  0.532497  0.463518  1
  Si  Si30  1  0.838915  0.968276  0.036617  1
  Si  Si31  1  0.664516  0.467390  0.538631  1
  Si  Si32  1  0.159068  0.027388  0.952199  1
  Si  Si33  1  0.664516  0.467390  0.961369  1
  Si  Si34  1  0.340631  0.532497  0.036482  1
  Mo  Mo35  1  0.152896  0.997913  0.750000  1
