# generated using pymatgen
data_CaSb12(OsPd)2
_symmetry_space_group_name_H-M   'P 1'
_cell_length_a   8.24887052
_cell_length_b   8.21812582
_cell_length_c   8.21812580
_cell_angle_alpha   109.41868879
_cell_angle_beta   109.46913310
_cell_angle_gamma   109.37468282
_symmetry_Int_Tables_number   1
_chemical_formula_structural   CaSb12(OsPd)2
_chemical_formula_sum   'Ca1 Sb12 Os2 Pd2'
_cell_volume   429.66054745
_cell_formula_units_Z   1
loop_
 _symmetry_equiv_pos_site_id
 _symmetry_equiv_pos_as_xyz
  1  'x, y, z'
loop_
 _atom_site_type_symbol
 _atom_site_label
 _atom_site_symmetry_multiplicity
 _atom_site_fract_x
 _atom_site_fract_y
 _atom_site_fract_z
 _atom_site_occupancy
  Ca  Ca0  1  0.000000  0.000000  0.000000  1
  Sb  Sb1  1  0.840663  0.656183  0.504997  1
  Sb  Sb2  1  0.159337  0.343817  0.495003  1
  Sb  Sb3  1  0.159337  0.664334  0.815520  1
  Sb  Sb4  1  0.840663  0.335666  0.184480  1
  Sb  Sb5  1  0.656932  0.505689  0.841528  1
  Sb  Sb6  1  0.343068  0.494311  0.158472  1
  Sb  Sb7  1  0.656932  0.815404  0.151243  1
  Sb  Sb8  1  0.343068  0.184596  0.848757  1
  Sb  Sb9  1  0.506555  0.843846  0.662709  1
  Sb  Sb10  1  0.493445  0.156154  0.337291  1
  Sb  Sb11  1  0.188226  0.847565  0.340661  1
  Sb  Sb12  1  0.811774  0.152435  0.659339  1
  Os  Os13  1  0.500000  0.500000  0.500000  1
  Os  Os14  1  0.500000  0.000000  0.000000  1
  Pd  Pd15  1  0.000000  0.500000  0.000000  1
  Pd  Pd16  1  0.000000  0.000000  0.500000  1
