# generated using pymatgen
data_Dy3HoMnOsC4
_symmetry_space_group_name_H-M   'P 1'
_cell_length_a   5.07380800
_cell_length_b   6.41179169
_cell_length_c   9.71817329
_cell_angle_alpha   90.52675338
_cell_angle_beta   90.00000000
_cell_angle_gamma   90.00000000
_symmetry_Int_Tables_number   1
_chemical_formula_structural   Dy3HoMnOsC4
_chemical_formula_sum   'Dy6 Ho2 Mn2 Os2 C8'
_cell_volume   316.14019621
_cell_formula_units_Z   2
loop_
 _symmetry_equiv_pos_site_id
 _symmetry_equiv_pos_as_xyz
  1  'x, y, z'
loop_
 _atom_site_type_symbol
 _atom_site_label
 _atom_site_symmetry_multiplicity
 _atom_site_fract_x
 _atom_site_fract_y
 _atom_site_fract_z
 _atom_site_occupancy
  Dy  Dy0  1  0.750000  0.819619  0.052081  1
  Dy  Dy1  1  0.250000  0.180381  0.947919  1
  Dy  Dy2  1  0.250000  0.525279  0.215708  1
  Dy  Dy3  1  0.750000  0.474721  0.784292  1
  Dy  Dy4  1  0.750000  0.974732  0.712896  1
  Dy  Dy5  1  0.250000  0.025268  0.287104  1
  Ho  Ho6  1  0.250000  0.683259  0.556822  1
  Ho  Ho7  1  0.750000  0.316741  0.443178  1
  Mn  Mn8  1  0.250000  0.728234  0.860634  1
  Mn  Mn9  1  0.750000  0.271766  0.139366  1
  Os  Os10  1  0.750000  0.773824  0.360861  1
  Os  Os11  1  0.250000  0.226176  0.639139  1
  C  C12  1  0.250000  0.469449  0.764038  1
  C  C13  1  0.750000  0.530551  0.235962  1
  C  C14  1  0.750000  0.045785  0.254955  1
  C  C15  1  0.250000  0.954215  0.745045  1
  C  C16  1  0.250000  0.812332  0.038019  1
  C  C17  1  0.750000  0.187668  0.961981  1
  C  C18  1  0.750000  0.676692  0.549334  1
  C  C19  1  0.250000  0.323308  0.450666  1
