# generated using pymatgen
data_Ac4Ga3Ge
_symmetry_space_group_name_H-M   'P 1'
_cell_length_a   4.34223200
_cell_length_b   4.70670100
_cell_length_c   12.06595500
_cell_angle_alpha   90.00000000
_cell_angle_beta   90.00000000
_cell_angle_gamma   90.00000000
_symmetry_Int_Tables_number   1
_chemical_formula_structural   Ac4Ga3Ge
_chemical_formula_sum   'Ac4 Ga3 Ge1'
_cell_volume   246.59901346
_cell_formula_units_Z   1
loop_
 _symmetry_equiv_pos_site_id
 _symmetry_equiv_pos_as_xyz
  1  'x, y, z'
loop_
 _atom_site_type_symbol
 _atom_site_label
 _atom_site_symmetry_multiplicity
 _atom_site_fract_x
 _atom_site_fract_y
 _atom_site_fract_z
 _atom_site_occupancy
  Ac  Ac0  1  0.000000  0.000000  0.142565  1
  Ac  Ac1  1  0.000000  0.500000  0.643816  1
  Ac  Ac2  1  0.500000  0.500000  0.357712  1
  Ac  Ac3  1  0.500000  0.000000  0.857399  1
  Ga  Ga4  1  0.000000  0.500000  0.935242  1
  Ga  Ga5  1  0.500000  0.500000  0.065458  1
  Ga  Ga6  1  0.500000  0.000000  0.566077  1
  Ge  Ge7  1  0.000000  0.000000  0.431732  1
