# generated using pymatgen
data_La3Ce4Er(AlRh)8
_symmetry_space_group_name_H-M   'P 1'
_cell_length_a   4.22768400
_cell_length_b   7.14140029
_cell_length_c   16.08988807
_cell_angle_alpha   90.29347413
_cell_angle_beta   90.00000000
_cell_angle_gamma   90.00000000
_symmetry_Int_Tables_number   1
_chemical_formula_structural   La3Ce4Er(AlRh)8
_chemical_formula_sum   'La3 Ce4 Er1 Al8 Rh8'
_cell_volume   485.77283041
_cell_formula_units_Z   1
loop_
 _symmetry_equiv_pos_site_id
 _symmetry_equiv_pos_as_xyz
  1  'x, y, z'
loop_
 _atom_site_type_symbol
 _atom_site_label
 _atom_site_symmetry_multiplicity
 _atom_site_fract_x
 _atom_site_fract_y
 _atom_site_fract_z
 _atom_site_occupancy
  La  La0  1  0.250000  0.156877  0.560929  1
  La  La1  1  0.750000  0.841501  0.438235  1
  La  La2  1  0.250000  0.657430  0.941727  1
  Ce  Ce3  1  0.250000  0.032813  0.781541  1
  Ce  Ce4  1  0.750000  0.965808  0.217815  1
  Ce  Ce5  1  0.250000  0.531734  0.721680  1
  Ce  Ce6  1  0.750000  0.467480  0.277568  1
  Er  Er7  1  0.750000  0.339176  0.061497  1
  Al  Al8  1  0.250000  0.144648  0.346583  1
  Al  Al9  1  0.750000  0.854747  0.651838  1
  Al  Al10  1  0.250000  0.636735  0.147955  1
  Al  Al11  1  0.750000  0.354758  0.852003  1
  Al  Al12  1  0.250000  0.011051  0.062193  1
  Al  Al13  1  0.750000  0.999968  0.940119  1
  Al  Al14  1  0.250000  0.502788  0.437165  1
  Al  Al15  1  0.750000  0.495738  0.562373  1
  Rh  Rh16  1  0.750000  0.285459  0.422196  1
  Rh  Rh17  1  0.250000  0.714314  0.576564  1
  Rh  Rh18  1  0.750000  0.778310  0.075154  1
  Rh  Rh19  1  0.250000  0.221524  0.929035  1
  Rh  Rh20  1  0.750000  0.749537  0.812178  1
  Rh  Rh21  1  0.250000  0.259376  0.183708  1
  Rh  Rh22  1  0.750000  0.247633  0.688976  1
  Rh  Rh23  1  0.250000  0.750596  0.310971  1
