# generated using pymatgen
data_Li2CeSmSi2Sn
_symmetry_space_group_name_H-M   'P 1'
_cell_length_a   9.74619833
_cell_length_b   9.74619771
_cell_length_c   6.82312700
_cell_angle_alpha   90.00000000
_cell_angle_beta   90.00000000
_cell_angle_gamma   153.25935639
_symmetry_Int_Tables_number   1
_chemical_formula_structural   Li2CeSmSi2Sn
_chemical_formula_sum   'Li4 Ce2 Sm2 Si4 Sn2'
_cell_volume   291.62227525
_cell_formula_units_Z   2
loop_
 _symmetry_equiv_pos_site_id
 _symmetry_equiv_pos_as_xyz
  1  'x, y, z'
loop_
 _atom_site_type_symbol
 _atom_site_label
 _atom_site_symmetry_multiplicity
 _atom_site_fract_x
 _atom_site_fract_y
 _atom_site_fract_z
 _atom_site_occupancy
  Li  Li0  1  0.815665  0.184335  0.554664  1
  Li  Li1  1  0.184335  0.815665  0.445336  1
  Li  Li2  1  0.184335  0.815665  0.054664  1
  Li  Li3  1  0.815665  0.184335  0.945336  1
  Ce  Ce4  1  0.547875  0.452125  0.250000  1
  Ce  Ce5  1  0.452125  0.547875  0.750000  1
  Sm  Sm6  1  0.350964  0.649036  0.250000  1
  Sm  Sm7  1  0.649036  0.350964  0.750000  1
  Si  Si8  1  0.942954  0.057046  0.072804  1
  Si  Si9  1  0.057046  0.942954  0.927196  1
  Si  Si10  1  0.057046  0.942954  0.572804  1
  Si  Si11  1  0.942954  0.057046  0.427196  1
  Sn  Sn12  1  0.719198  0.280802  0.250000  1
  Sn  Sn13  1  0.280802  0.719198  0.750000  1
