# generated using pymatgen
data_ErTh(AlIr)2
_symmetry_space_group_name_H-M   'P 1'
_cell_length_a   6.88988400
_cell_length_b   4.33602800
_cell_length_c   8.00424100
_cell_angle_alpha   90.00000000
_cell_angle_beta   90.00000000
_cell_angle_gamma   90.00000000
_symmetry_Int_Tables_number   1
_chemical_formula_structural   ErTh(AlIr)2
_chemical_formula_sum   'Er2 Th2 Al4 Ir4'
_cell_volume   239.12453826
_cell_formula_units_Z   2
loop_
 _symmetry_equiv_pos_site_id
 _symmetry_equiv_pos_as_xyz
  1  'x, y, z'
loop_
 _atom_site_type_symbol
 _atom_site_label
 _atom_site_symmetry_multiplicity
 _atom_site_fract_x
 _atom_site_fract_y
 _atom_site_fract_z
 _atom_site_occupancy
  Er  Er0  1  0.964428  0.250000  0.185641  1
  Er  Er1  1  0.464428  0.250000  0.314359  1
  Th  Th2  1  0.032734  0.750000  0.823846  1
  Th  Th3  1  0.532734  0.750000  0.676154  1
  Al  Al4  1  0.864652  0.250000  0.551939  1
  Al  Al5  1  0.364652  0.250000  0.948061  1
  Al  Al6  1  0.136525  0.750000  0.429676  1
  Al  Al7  1  0.636525  0.750000  0.070324  1
  Ir  Ir8  1  0.737916  0.250000  0.877297  1
  Ir  Ir9  1  0.237916  0.250000  0.622703  1
  Ir  Ir10  1  0.263745  0.750000  0.118371  1
  Ir  Ir11  1  0.763745  0.750000  0.381629  1
