# generated using pymatgen
data_ErTm4(FeB3)2
_symmetry_space_group_name_H-M   'P 1'
_cell_length_a   8.14894285
_cell_length_b   8.14894297
_cell_length_c   8.14894219
_cell_angle_alpha   38.57314637
_cell_angle_beta   38.57314536
_cell_angle_gamma   38.57313440
_symmetry_Int_Tables_number   1
_chemical_formula_structural   ErTm4(FeB3)2
_chemical_formula_sum   'Er1 Tm4 Fe2 B6'
_cell_volume   189.04286511
_cell_formula_units_Z   1
loop_
 _symmetry_equiv_pos_site_id
 _symmetry_equiv_pos_as_xyz
  1  'x, y, z'
loop_
 _atom_site_type_symbol
 _atom_site_label
 _atom_site_symmetry_multiplicity
 _atom_site_fract_x
 _atom_site_fract_y
 _atom_site_fract_z
 _atom_site_occupancy
  Er  Er0  1  0.000000  0.000000  0.000000  1
  Tm  Tm1  1  0.583664  0.583664  0.583664  1
  Tm  Tm2  1  0.416336  0.416336  0.416336  1
  Tm  Tm3  1  0.748607  0.748607  0.748607  1
  Tm  Tm4  1  0.251393  0.251393  0.251393  1
  Fe  Fe5  1  0.882998  0.882998  0.882998  1
  Fe  Fe6  1  0.117002  0.117002  0.117002  1
  B  B7  1  0.500000  0.831510  0.168490  1
  B  B8  1  0.168490  0.500000  0.831510  1
  B  B9  1  0.831510  0.168490  0.500000  1
  B  B10  1  0.500000  0.168490  0.831510  1
  B  B11  1  0.831510  0.500000  0.168490  1
  B  B12  1  0.168490  0.831510  0.500000  1
