# generated using pymatgen
data_TbHo2Lu2Bi3
_symmetry_space_group_name_H-M   'P 1'
_cell_length_a   8.19409900
_cell_length_b   9.44615700
_cell_length_c   11.97911600
_cell_angle_alpha   90.00000000
_cell_angle_beta   90.00000000
_cell_angle_gamma   90.00000000
_symmetry_Int_Tables_number   1
_chemical_formula_structural   TbHo2Lu2Bi3
_chemical_formula_sum   'Tb4 Ho8 Lu8 Bi12'
_cell_volume   927.21646859
_cell_formula_units_Z   4
loop_
 _symmetry_equiv_pos_site_id
 _symmetry_equiv_pos_as_xyz
  1  'x, y, z'
loop_
 _atom_site_type_symbol
 _atom_site_label
 _atom_site_symmetry_multiplicity
 _atom_site_fract_x
 _atom_site_fract_y
 _atom_site_fract_z
 _atom_site_occupancy
  Tb  Tb0  1  0.313662  0.250232  0.218231  1
  Tb  Tb1  1  0.813662  0.249768  0.281769  1
  Tb  Tb2  1  0.686338  0.750232  0.781769  1
  Tb  Tb3  1  0.186338  0.749768  0.718231  1
  Ho  Ho4  1  0.352695  0.749953  0.217338  1
  Ho  Ho5  1  0.852695  0.750047  0.282662  1
  Ho  Ho6  1  0.647305  0.249953  0.782662  1
  Ho  Ho7  1  0.147305  0.250047  0.717338  1
  Ho  Ho8  1  0.692350  0.564846  0.059384  1
  Ho  Ho9  1  0.192350  0.935154  0.440616  1
  Ho  Ho10  1  0.307650  0.064846  0.940616  1
  Ho  Ho11  1  0.807650  0.435154  0.559384  1
  Lu  Lu12  1  0.307729  0.433542  0.940802  1
  Lu  Lu13  1  0.807729  0.066458  0.559198  1
  Lu  Lu14  1  0.692271  0.933542  0.059198  1
  Lu  Lu15  1  0.192271  0.566458  0.440802  1
  Lu  Lu16  1  0.476697  0.249815  0.488752  1
  Lu  Lu17  1  0.976697  0.250185  0.011248  1
  Lu  Lu18  1  0.523303  0.749815  0.511248  1
  Lu  Lu19  1  0.023303  0.750185  0.988752  1
  Bi  Bi20  1  0.403932  0.748472  0.958679  1
  Bi  Bi21  1  0.903932  0.751528  0.541321  1
  Bi  Bi22  1  0.596068  0.248472  0.041321  1
  Bi  Bi23  1  0.096068  0.251528  0.458679  1
  Bi  Bi24  1  0.565680  0.994995  0.327316  1
  Bi  Bi25  1  0.065680  0.505005  0.172684  1
  Bi  Bi26  1  0.434320  0.494995  0.672684  1
  Bi  Bi27  1  0.934320  0.005005  0.827316  1
  Bi  Bi28  1  0.434571  0.004760  0.672757  1
  Bi  Bi29  1  0.934571  0.495240  0.827243  1
  Bi  Bi30  1  0.565429  0.504760  0.327243  1
  Bi  Bi31  1  0.065429  0.995240  0.172757  1
