# generated using pymatgen
data_Dy8V11Si16Mo
_symmetry_space_group_name_H-M   'P 1'
_cell_length_a   6.67799609
_cell_length_b   6.88062206
_cell_length_c   12.89312200
_cell_angle_alpha   90.00000000
_cell_angle_beta   90.00000000
_cell_angle_gamma   90.04483616
_symmetry_Int_Tables_number   1
_chemical_formula_structural   Dy8V11Si16Mo
_chemical_formula_sum   'Dy8 V11 Si16 Mo1'
_cell_volume   592.42288006
_cell_formula_units_Z   1
loop_
 _symmetry_equiv_pos_site_id
 _symmetry_equiv_pos_as_xyz
  1  'x, y, z'
loop_
 _atom_site_type_symbol
 _atom_site_label
 _atom_site_symmetry_multiplicity
 _atom_site_fract_x
 _atom_site_fract_y
 _atom_site_fract_z
 _atom_site_occupancy
  Dy  Dy0  1  0.500145  0.331398  0.094861  1
  Dy  Dy1  1  0.999511  0.168586  0.405172  1
  Dy  Dy2  1  0.499567  0.668881  0.595985  1
  Dy  Dy3  1  0.999805  0.832028  0.903932  1
  Dy  Dy4  1  0.499567  0.668881  0.904015  1
  Dy  Dy5  1  0.999805  0.832028  0.596068  1
  Dy  Dy6  1  0.500145  0.331398  0.405139  1
  Dy  Dy7  1  0.999511  0.168586  0.094828  1
  V  V8  1  0.836769  0.327307  0.627003  1
  V  V9  1  0.336675  0.172812  0.873111  1
  V  V10  1  0.163960  0.670975  0.126602  1
  V  V11  1  0.662929  0.828112  0.373492  1
  V  V12  1  0.163960  0.670975  0.373398  1
  V  V13  1  0.662929  0.828112  0.126508  1
  V  V14  1  0.836769  0.327307  0.872997  1
  V  V15  1  0.336675  0.172812  0.626889  1
  V  V16  1  0.663926  0.015338  0.750000  1
  V  V17  1  0.163571  0.484383  0.750000  1
  V  V18  1  0.336295  0.985065  0.250000  1
  Si  Si19  1  0.659103  0.044382  0.545429  1
  Si  Si20  1  0.159457  0.455924  0.954506  1
  Si  Si21  1  0.340817  0.955999  0.044542  1
  Si  Si22  1  0.840608  0.545108  0.456967  1
  Si  Si23  1  0.340817  0.955999  0.455458  1
  Si  Si24  1  0.840608  0.545108  0.043033  1
  Si  Si25  1  0.659103  0.044382  0.954571  1
  Si  Si26  1  0.159457  0.455924  0.545494  1
  Si  Si27  1  0.538971  0.365408  0.750000  1
  Si  Si28  1  0.038448  0.134279  0.750000  1
  Si  Si29  1  0.460178  0.635529  0.250000  1
  Si  Si30  1  0.962834  0.868059  0.250000  1
  Si  Si31  1  0.804016  0.615068  0.750000  1
  Si  Si32  1  0.304129  0.885180  0.750000  1
  Si  Si33  1  0.198577  0.380712  0.250000  1
  Si  Si34  1  0.694835  0.115984  0.250000  1
  Mo  Mo35  1  0.835528  0.511972  0.250000  1
