# generated using pymatgen
data_Rb(NbSe2)2
_symmetry_space_group_name_H-M   'P 1'
_cell_length_a   3.58753837
_cell_length_b   6.10101310
_cell_length_c   17.67214300
_cell_angle_alpha   90.00000000
_cell_angle_beta   90.00000000
_cell_angle_gamma   90.01552453
_symmetry_Int_Tables_number   1
_chemical_formula_structural   Rb(NbSe2)2
_chemical_formula_sum   'Rb2 Nb4 Se8'
_cell_volume   386.80111121
_cell_formula_units_Z   2
loop_
 _symmetry_equiv_pos_site_id
 _symmetry_equiv_pos_as_xyz
  1  'x, y, z'
loop_
 _atom_site_type_symbol
 _atom_site_label
 _atom_site_symmetry_multiplicity
 _atom_site_fract_x
 _atom_site_fract_y
 _atom_site_fract_z
 _atom_site_occupancy
  Rb  Rb0  1  0.000000  0.000000  0.500000  1
  Rb  Rb1  1  0.500000  0.500000  0.000000  1
  Nb  Nb2  1  0.999965  0.000014  0.749972  1
  Nb  Nb3  1  0.499965  0.500014  0.750028  1
  Nb  Nb4  1  0.000035  0.999986  0.250028  1
  Nb  Nb5  1  0.500035  0.499986  0.249972  1
  Se  Se6  1  0.500045  0.166549  0.656699  1
  Se  Se7  1  0.000066  0.664512  0.656949  1
  Se  Se8  1  0.999934  0.335488  0.343051  1
  Se  Se9  1  0.499955  0.833451  0.343301  1
  Se  Se10  1  0.999955  0.333451  0.156699  1
  Se  Se11  1  0.499934  0.835488  0.156949  1
  Se  Se12  1  0.500066  0.164512  0.843051  1
  Se  Se13  1  0.000045  0.666549  0.843301  1
