# generated using pymatgen
data_Na3PtO3
_symmetry_space_group_name_H-M   'P 1'
_cell_length_a   4.63754900
_cell_length_b   9.31355613
_cell_length_c   9.31501815
_cell_angle_alpha   89.98004498
_cell_angle_beta   90.00023387
_cell_angle_gamma   89.99856377
_symmetry_Int_Tables_number   1
_chemical_formula_structural   Na3PtO3
_chemical_formula_sum   'Na12 Pt4 O12'
_cell_volume   402.33491883
_cell_formula_units_Z   4
loop_
 _symmetry_equiv_pos_site_id
 _symmetry_equiv_pos_as_xyz
  1  'x, y, z'
loop_
 _atom_site_type_symbol
 _atom_site_label
 _atom_site_symmetry_multiplicity
 _atom_site_fract_x
 _atom_site_fract_y
 _atom_site_fract_z
 _atom_site_occupancy
  Na  Na0  1  0.500028  0.136773  0.863258  1
  Na  Na1  1  0.999967  0.363290  0.363111  1
  Na  Na2  1  0.000039  0.636963  0.636839  1
  Na  Na3  1  0.499956  0.863186  0.136859  1
  Na  Na4  1  0.000011  0.124456  0.623026  1
  Na  Na5  1  0.499982  0.122765  0.375470  1
  Na  Na6  1  0.000012  0.377308  0.875436  1
  Na  Na7  1  0.499968  0.375591  0.122831  1
  Na  Na8  1  0.500017  0.624625  0.877161  1
  Na  Na9  1  0.999978  0.623014  0.124384  1
  Na  Na10  1  0.500039  0.877195  0.624477  1
  Na  Na11  1  0.000004  0.875469  0.377148  1
  Pt  Pt12  1  0.500001  0.621125  0.378869  1
  Pt  Pt13  1  0.000014  0.878968  0.879008  1
  Pt  Pt14  1  0.999978  0.121036  0.121025  1
  Pt  Pt15  1  0.500007  0.378903  0.621092  1
  O  O16  1  0.000032  0.097808  0.902289  1
  O  O17  1  0.499961  0.402298  0.401997  1
  O  O18  1  0.500042  0.597901  0.597535  1
  O  O19  1  0.999951  0.902221  0.097929  1
  O  O20  1  0.999978  0.117221  0.333330  1
  O  O21  1  0.500003  0.166244  0.617344  1
  O  O22  1  0.999980  0.333351  0.117173  1
  O  O23  1  0.500012  0.382680  0.833748  1
  O  O24  1  0.499975  0.617296  0.166818  1
  O  O25  1  0.000010  0.666421  0.882648  1
  O  O26  1  0.500012  0.833259  0.382733  1
  O  O27  1  0.000040  0.882671  0.666508  1
