# generated using pymatgen
data_Zr4Sc2Nb4Sn6GeAs
_symmetry_space_group_name_H-M   'P 1'
_cell_length_a   8.59414600
_cell_length_b   8.59414671
_cell_length_c   5.77145500
_cell_angle_alpha   90.00000000
_cell_angle_beta   90.00000000
_cell_angle_gamma   120.00000497
_symmetry_Int_Tables_number   1
_chemical_formula_structural   Zr4Sc2Nb4Sn6GeAs
_chemical_formula_sum   'Zr4 Sc2 Nb4 Sn6 Ge1 As1'
_cell_volume   369.16576055
_cell_formula_units_Z   1
loop_
 _symmetry_equiv_pos_site_id
 _symmetry_equiv_pos_as_xyz
  1  'x, y, z'
loop_
 _atom_site_type_symbol
 _atom_site_label
 _atom_site_symmetry_multiplicity
 _atom_site_fract_x
 _atom_site_fract_y
 _atom_site_fract_z
 _atom_site_occupancy
  Zr  Zr0  1  0.000000  0.264103  0.749617  1
  Zr  Zr1  1  0.264929  0.264954  0.250496  1
  Zr  Zr2  1  0.735071  0.000025  0.250496  1
  Zr  Zr3  1  0.000000  0.735453  0.250082  1
  Sc  Sc4  1  0.734831  0.734992  0.749332  1
  Sc  Sc5  1  0.265169  0.000161  0.749332  1
  Nb  Nb6  1  0.667236  0.333545  0.997855  1
  Nb  Nb7  1  0.332764  0.666310  0.997855  1
  Nb  Nb8  1  0.332938  0.666756  0.502570  1
  Nb  Nb9  1  0.667062  0.333817  0.502570  1
  Sn  Sn10  1  0.397486  0.396620  0.750880  1
  Sn  Sn11  1  0.602514  0.999134  0.750880  1
  Sn  Sn12  1  0.000000  0.605508  0.750983  1
  Sn  Sn13  1  0.604227  0.604354  0.249023  1
  Sn  Sn14  1  0.395773  0.000127  0.249023  1
  Sn  Sn15  1  0.000000  0.396279  0.249048  1
  Ge  Ge16  1  0.000000  0.998870  0.997513  1
  As  As17  1  0.000000  0.998993  0.502445  1
