# generated using pymatgen
data_TbTmRh2F14
_symmetry_space_group_name_H-M   'P 1'
_cell_length_a   5.51250308
_cell_length_b   8.84921630
_cell_length_c   11.87897962
_cell_angle_alpha   62.54266757
_cell_angle_beta   90.09275503
_cell_angle_gamma   89.99593503
_symmetry_Int_Tables_number   1
_chemical_formula_structural   TbTmRh2F14
_chemical_formula_sum   'Tb2 Tm2 Rh4 F28'
_cell_volume   514.19656354
_cell_formula_units_Z   2
loop_
 _symmetry_equiv_pos_site_id
 _symmetry_equiv_pos_as_xyz
  1  'x, y, z'
loop_
 _atom_site_type_symbol
 _atom_site_label
 _atom_site_symmetry_multiplicity
 _atom_site_fract_x
 _atom_site_fract_y
 _atom_site_fract_z
 _atom_site_occupancy
  Tb  Tb0  1  0.760389  0.184909  0.234876  1
  Tb  Tb1  1  0.239611  0.815091  0.765124  1
  Tm  Tm2  1  0.261460  0.812245  0.265190  1
  Tm  Tm3  1  0.738540  0.187755  0.734810  1
  Rh  Rh4  1  0.758100  0.728100  0.044861  1
  Rh  Rh5  1  0.241900  0.271900  0.955139  1
  Rh  Rh6  1  0.257833  0.275605  0.457310  1
  Rh  Rh7  1  0.742167  0.724395  0.542690  1
  F  F8  1  0.941122  0.704718  0.414943  1
  F  F9  1  0.058878  0.295282  0.585057  1
  F  F10  1  0.439514  0.293282  0.083035  1
  F  F11  1  0.560486  0.706718  0.916965  1
  F  F12  1  0.466702  0.730139  0.137931  1
  F  F13  1  0.533298  0.269861  0.862069  1
  F  F14  1  0.967596  0.272386  0.364595  1
  F  F15  1  0.032404  0.727614  0.635405  1
  F  F16  1  0.954531  0.747095  0.175188  1
  F  F17  1  0.045469  0.252905  0.824812  1
  F  F18  1  0.450986  0.257124  0.326465  1
  F  F19  1  0.549014  0.742876  0.673535  1
  F  F20  1  0.769999  0.482683  0.141369  1
  F  F21  1  0.230001  0.517317  0.858631  1
  F  F22  1  0.269733  0.521587  0.359811  1
  F  F23  1  0.730267  0.478413  0.640189  1
  F  F24  1  0.944723  0.280038  0.042386  1
  F  F25  1  0.055277  0.719962  0.957614  1
  F  F26  1  0.442963  0.719115  0.454652  1
  F  F27  1  0.557037  0.280885  0.545348  1
  F  F28  1  0.741995  0.970053  0.450076  1
  F  F29  1  0.258005  0.029947  0.549924  1
  F  F30  1  0.241426  0.026670  0.050047  1
  F  F31  1  0.758574  0.973330  0.949953  1
  F  F32  1  0.581650  0.966365  0.231263  1
  F  F33  1  0.418350  0.033635  0.768737  1
  F  F34  1  0.088924  0.025262  0.269180  1
  F  F35  1  0.911076  0.974738  0.730820  1
