# generated using pymatgen
data_Ba4In2FeCoO10
_symmetry_space_group_name_H-M   'P 1'
_cell_length_a   6.00875100
_cell_length_b   7.96977011
_cell_length_c   12.42919067
_cell_angle_alpha   91.51538473
_cell_angle_beta   90.00000000
_cell_angle_gamma   90.00000000
_symmetry_Int_Tables_number   1
_chemical_formula_structural   Ba4In2FeCoO10
_chemical_formula_sum   'Ba8 In4 Fe2 Co2 O20'
_cell_volume   595.00543911
_cell_formula_units_Z   2
loop_
 _symmetry_equiv_pos_site_id
 _symmetry_equiv_pos_as_xyz
  1  'x, y, z'
loop_
 _atom_site_type_symbol
 _atom_site_label
 _atom_site_symmetry_multiplicity
 _atom_site_fract_x
 _atom_site_fract_y
 _atom_site_fract_z
 _atom_site_occupancy
  Ba  Ba0  1  0.756626  0.492158  0.357724  1
  Ba  Ba1  1  0.743374  0.992158  0.857724  1
  Ba  Ba2  1  0.241881  0.502538  0.639754  1
  Ba  Ba3  1  0.258119  0.002538  0.139754  1
  Ba  Ba4  1  0.754736  0.996751  0.379460  1
  Ba  Ba5  1  0.745264  0.496751  0.879460  1
  Ba  Ba6  1  0.244159  0.009780  0.618463  1
  Ba  Ba7  1  0.255841  0.509780  0.118463  1
  In  In8  1  0.747815  0.261426  0.630661  1
  In  In9  1  0.752185  0.761426  0.130661  1
  In  In10  1  0.251397  0.737276  0.369897  1
  In  In11  1  0.248603  0.237276  0.869897  1
  Fe  Fe12  1  0.741571  0.744909  0.585141  1
  Fe  Fe13  1  0.758429  0.244909  0.085141  1
  Co  Co14  1  0.257727  0.254599  0.410807  1
  Co  Co15  1  0.242273  0.754599  0.910807  1
  O  O16  1  0.756904  0.967851  0.639891  1
  O  O17  1  0.743096  0.467851  0.139891  1
  O  O18  1  0.244170  0.034285  0.365288  1
  O  O19  1  0.255830  0.534285  0.865288  1
  O  O20  1  0.739961  0.055758  0.172009  1
  O  O21  1  0.760039  0.555758  0.672009  1
  O  O22  1  0.259215  0.944310  0.832016  1
  O  O23  1  0.240785  0.444310  0.332016  1
  O  O24  1  0.531757  0.748687  0.266807  1
  O  O25  1  0.968243  0.248687  0.766807  1
  O  O26  1  0.465886  0.252004  0.734222  1
  O  O27  1  0.034114  0.752004  0.234222  1
  O  O28  1  0.523226  0.230286  0.982257  1
  O  O29  1  0.976774  0.730286  0.482257  1
  O  O30  1  0.477076  0.768777  0.017033  1
  O  O31  1  0.022924  0.268777  0.517033  1
  O  O32  1  0.033702  0.232523  0.009566  1
  O  O33  1  0.466298  0.732523  0.509566  1
  O  O34  1  0.966703  0.766083  0.989002  1
  O  O35  1  0.533297  0.266083  0.489002  1
