# generated using pymatgen
data_Ce3Y(AlIr)4
_symmetry_space_group_name_H-M   'P 1'
_cell_length_a   6.86213553
_cell_length_b   4.33386900
_cell_length_c   7.93769482
_cell_angle_alpha   90.00000000
_cell_angle_beta   89.77182052
_cell_angle_gamma   90.00000000
_symmetry_Int_Tables_number   1
_chemical_formula_structural   Ce3Y(AlIr)4
_chemical_formula_sum   'Ce3 Y1 Al4 Ir4'
_cell_volume   236.06196875
_cell_formula_units_Z   1
loop_
 _symmetry_equiv_pos_site_id
 _symmetry_equiv_pos_as_xyz
  1  'x, y, z'
loop_
 _atom_site_type_symbol
 _atom_site_label
 _atom_site_symmetry_multiplicity
 _atom_site_fract_x
 _atom_site_fract_y
 _atom_site_fract_z
 _atom_site_occupancy
  Ce  Ce0  1  0.464640  0.250000  0.316386  1
  Ce  Ce1  1  0.034162  0.750000  0.820723  1
  Ce  Ce2  1  0.535960  0.750000  0.683089  1
  Y  Y3  1  0.964334  0.250000  0.184228  1
  Al  Al4  1  0.863762  0.250000  0.559108  1
  Al  Al5  1  0.361009  0.250000  0.940334  1
  Al  Al6  1  0.134122  0.750000  0.436068  1
  Al  Al7  1  0.641452  0.750000  0.063816  1
  Ir  Ir8  1  0.737140  0.250000  0.877829  1
  Ir  Ir9  1  0.238724  0.250000  0.617985  1
  Ir  Ir10  1  0.265152  0.750000  0.115495  1
  Ir  Ir11  1  0.759543  0.750000  0.384940  1
