# generated using pymatgen
data_Lu10SiBi2Rh3
_symmetry_space_group_name_H-M   'P 1'
_cell_length_a   8.68216814
_cell_length_b   8.68216777
_cell_length_c   8.60918023
_cell_angle_alpha   127.44634835
_cell_angle_beta   127.44635181
_cell_angle_gamma   78.12286789
_symmetry_Int_Tables_number   1
_chemical_formula_structural   Lu10SiBi2Rh3
_chemical_formula_sum   'Lu10 Si1 Bi2 Rh3'
_cell_volume   394.98245571
_cell_formula_units_Z   1
loop_
 _symmetry_equiv_pos_site_id
 _symmetry_equiv_pos_as_xyz
  1  'x, y, z'
loop_
 _atom_site_type_symbol
 _atom_site_label
 _atom_site_symmetry_multiplicity
 _atom_site_fract_x
 _atom_site_fract_y
 _atom_site_fract_z
 _atom_site_occupancy
  Lu  Lu0  1  0.996756  0.004482  0.001240  1
  Lu  Lu1  1  0.495518  0.503244  0.998760  1
  Lu  Lu2  1  0.798022  0.295023  0.822702  1
  Lu  Lu3  1  0.204977  0.701978  0.177298  1
  Lu  Lu4  1  0.475321  0.972322  0.177298  1
  Lu  Lu5  1  0.285489  0.484688  0.500000  1
  Lu  Lu6  1  0.015312  0.214511  0.500000  1
  Lu  Lu7  1  0.527678  0.024679  0.822702  1
  Lu  Lu8  1  0.716645  0.529562  0.500000  1
  Lu  Lu9  1  0.970438  0.783355  0.500000  1
  Si  Si10  1  0.366304  0.133696  0.500000  1
  Bi  Bi11  1  0.254894  0.245106  0.000000  1
  Bi  Bi12  1  0.754894  0.745106  0.000000  1
  Rh  Rh13  1  0.146540  0.631276  0.777816  1
  Rh  Rh14  1  0.868724  0.353460  0.222184  1
  Rh  Rh15  1  0.622486  0.877514  0.500000  1
