# generated using pymatgen
data_Tb15Ho5(Sn5Sb3)2
_symmetry_space_group_name_H-M   'P 1'
_cell_length_a   8.10618888
_cell_length_b   8.15104672
_cell_length_c   15.40371100
_cell_angle_alpha   90.19454201
_cell_angle_beta   89.93714291
_cell_angle_gamma   90.06819332
_symmetry_Int_Tables_number   1
_chemical_formula_structural   Tb15Ho5(Sn5Sb3)2
_chemical_formula_sum   'Tb15 Ho5 Sn10 Sb6'
_cell_volume   1017.77643866
_cell_formula_units_Z   1
loop_
 _symmetry_equiv_pos_site_id
 _symmetry_equiv_pos_as_xyz
  1  'x, y, z'
loop_
 _atom_site_type_symbol
 _atom_site_label
 _atom_site_symmetry_multiplicity
 _atom_site_fract_x
 _atom_site_fract_y
 _atom_site_fract_z
 _atom_site_occupancy
  Tb  Tb0  1  0.879549  0.661554  0.620945  1
  Tb  Tb1  1  0.620674  0.161033  0.378681  1
  Tb  Tb2  1  0.121422  0.339186  0.120953  1
  Tb  Tb3  1  0.621240  0.162306  0.120728  1
  Tb  Tb4  1  0.120842  0.337920  0.379407  1
  Tb  Tb5  1  0.378181  0.839102  0.621639  1
  Tb  Tb6  1  0.877699  0.660595  0.878626  1
  Tb  Tb7  1  0.541984  0.327598  0.895966  1
  Tb  Tb8  1  0.043120  0.171387  0.604750  1
  Tb  Tb9  1  0.458862  0.676113  0.395756  1
  Tb  Tb10  1  0.959508  0.823610  0.103975  1
  Tb  Tb11  1  0.464079  0.672427  0.102836  1
  Tb  Tb12  1  0.962677  0.828860  0.396038  1
  Tb  Tb13  1  0.536541  0.321567  0.603166  1
  Tb  Tb14  1  0.035433  0.178220  0.897368  1
  Ho  Ho15  1  0.378140  0.839004  0.878645  1
  Ho  Ho16  1  0.208103  0.499483  0.749891  1
  Ho  Ho17  1  0.707702  0.000107  0.750537  1
  Ho  Ho18  1  0.792249  0.500069  0.248575  1
  Ho  Ho19  1  0.292074  0.000176  0.251055  1
  Sn  Sn20  1  0.280317  0.029591  0.456587  1
  Sn  Sn21  1  0.781037  0.469787  0.043304  1
  Sn  Sn22  1  0.573004  0.623321  0.749701  1
  Sn  Sn23  1  0.073454  0.877024  0.751305  1
  Sn  Sn24  1  0.425802  0.376962  0.250261  1
  Sn  Sn25  1  0.925945  0.123232  0.249462  1
  Sn  Sn26  1  0.343784  0.145353  0.751494  1
  Sn  Sn27  1  0.843532  0.354111  0.749137  1
  Sn  Sn28  1  0.656688  0.854494  0.249707  1
  Sn  Sn29  1  0.157039  0.645477  0.250017  1
  Sb  Sb30  1  0.275784  0.025050  0.044510  1
  Sb  Sb31  1  0.775049  0.475425  0.454587  1
  Sb  Sb32  1  0.722606  0.973509  0.545401  1
  Sb  Sb33  1  0.222780  0.528411  0.954568  1
  Sb  Sb34  1  0.720333  0.972082  0.954533  1
  Sb  Sb35  1  0.222766  0.525853  0.545888  1
