# generated using pymatgen
data_PrSm7(Si4W3)4
_symmetry_space_group_name_H-M   'P 1'
_cell_length_a   6.87356369
_cell_length_b   7.04162737
_cell_length_c   13.04622400
_cell_angle_alpha   89.96650110
_cell_angle_beta   89.97435113
_cell_angle_gamma   89.98756836
_symmetry_Int_Tables_number   1
_chemical_formula_structural   PrSm7(Si4W3)4
_chemical_formula_sum   'Pr1 Sm7 Si16 W12'
_cell_volume   631.45106973
_cell_formula_units_Z   1
loop_
 _symmetry_equiv_pos_site_id
 _symmetry_equiv_pos_as_xyz
  1  'x, y, z'
loop_
 _atom_site_type_symbol
 _atom_site_label
 _atom_site_symmetry_multiplicity
 _atom_site_fract_x
 _atom_site_fract_y
 _atom_site_fract_z
 _atom_site_occupancy
  Pr  Pr0  1  0.997381  0.165349  0.093110  1
  Sm  Sm1  1  0.496446  0.333809  0.093921  1
  Sm  Sm2  1  0.996685  0.166245  0.406088  1
  Sm  Sm3  1  0.503471  0.666254  0.593893  1
  Sm  Sm4  1  0.003464  0.834119  0.905633  1
  Sm  Sm5  1  0.503805  0.665934  0.905683  1
  Sm  Sm6  1  0.003388  0.833733  0.593837  1
  Sm  Sm7  1  0.496553  0.333897  0.406666  1
  Si  Si8  1  0.658532  0.044663  0.548162  1
  Si  Si9  1  0.158913  0.456718  0.950892  1
  Si  Si10  1  0.343992  0.953656  0.047844  1
  Si  Si11  1  0.841505  0.544338  0.452051  1
  Si  Si12  1  0.341304  0.955385  0.452266  1
  Si  Si13  1  0.840697  0.546788  0.047994  1
  Si  Si14  1  0.657311  0.044703  0.950962  1
  Si  Si15  1  0.158518  0.455430  0.548168  1
  Si  Si16  1  0.536211  0.365606  0.749632  1
  Si  Si17  1  0.036127  0.134365  0.749802  1
  Si  Si18  1  0.463619  0.633978  0.250340  1
  Si  Si19  1  0.963378  0.864159  0.251003  1
  Si  Si20  1  0.805023  0.626376  0.749671  1
  Si  Si21  1  0.304989  0.873740  0.749771  1
  Si  Si22  1  0.195954  0.375493  0.250884  1
  Si  Si23  1  0.693566  0.125730  0.250866  1
  W  W24  1  0.832259  0.336002  0.626362  1
  W  W25  1  0.332192  0.164137  0.872993  1
  W  W26  1  0.167676  0.664089  0.126694  1
  W  W27  1  0.667333  0.835683  0.374112  1
  W  W28  1  0.168097  0.664102  0.374182  1
  W  W29  1  0.667359  0.835311  0.127049  1
  W  W30  1  0.831991  0.336795  0.872798  1
  W  W31  1  0.331928  0.164028  0.626341  1
  W  W32  1  0.664583  0.004521  0.749636  1
  W  W33  1  0.164775  0.495834  0.749640  1
  W  W34  1  0.335955  0.994195  0.250586  1
  W  W35  1  0.835017  0.504836  0.250476  1
