# generated using pymatgen
data_Th8AlSi11Rh4
_symmetry_space_group_name_H-M   'P 1'
_cell_length_a   8.29454500
_cell_length_b   8.29454556
_cell_length_c   8.50337500
_cell_angle_alpha   89.99975132
_cell_angle_beta   90.00024868
_cell_angle_gamma   119.99045462
_symmetry_Int_Tables_number   1
_chemical_formula_structural   Th8AlSi11Rh4
_chemical_formula_sum   'Th8 Al1 Si11 Rh4'
_cell_volume   506.69765372
_cell_formula_units_Z   1
loop_
 _symmetry_equiv_pos_site_id
 _symmetry_equiv_pos_as_xyz
  1  'x, y, z'
loop_
 _atom_site_type_symbol
 _atom_site_label
 _atom_site_symmetry_multiplicity
 _atom_site_fract_x
 _atom_site_fract_y
 _atom_site_fract_z
 _atom_site_occupancy
  Th  Th0  1  0.500603  0.499397  0.750633  1
  Th  Th1  1  0.500823  0.499177  0.249362  1
  Th  Th2  1  0.001226  0.502459  0.749098  1
  Th  Th3  1  0.000720  0.502186  0.250884  1
  Th  Th4  1  0.497541  0.998774  0.749098  1
  Th  Th5  1  0.497814  0.999280  0.250884  1
  Th  Th6  1  0.001182  0.998818  0.748868  1
  Th  Th7  1  0.001158  0.998842  0.251113  1
  Al  Al8  1  0.832438  0.167562  0.999813  1
  Si  Si9  1  0.166551  0.833449  0.000161  1
  Si  Si10  1  0.333295  0.166321  0.999828  1
  Si  Si11  1  0.166616  0.833384  0.499805  1
  Si  Si12  1  0.666476  0.829910  0.000172  1
  Si  Si13  1  0.833654  0.166346  0.500188  1
  Si  Si14  1  0.833679  0.666705  0.999828  1
  Si  Si15  1  0.666980  0.833303  0.499816  1
  Si  Si16  1  0.170090  0.333524  0.000172  1
  Si  Si17  1  0.333437  0.166935  0.500159  1
  Si  Si18  1  0.166697  0.333020  0.499816  1
  Si  Si19  1  0.833065  0.666563  0.500159  1
  Rh  Rh20  1  0.662759  0.337241  0.999841  1
  Rh  Rh21  1  0.332993  0.667007  0.000193  1
  Rh  Rh22  1  0.333509  0.666491  0.499896  1
  Rh  Rh23  1  0.666694  0.333306  0.500210  1
