# generated using pymatgen
data_Nd5Ho2TmAu4
_symmetry_space_group_name_H-M   'P 1'
_cell_length_a   5.01833400
_cell_length_b   7.31656977
_cell_length_c   9.12923300
_cell_angle_alpha   89.80299885
_cell_angle_beta   90.00000000
_cell_angle_gamma   90.00000000
_symmetry_Int_Tables_number   1
_chemical_formula_structural   Nd5Ho2TmAu4
_chemical_formula_sum   'Nd5 Ho2 Tm1 Au4'
_cell_volume   335.19598327
_cell_formula_units_Z   1
loop_
 _symmetry_equiv_pos_site_id
 _symmetry_equiv_pos_as_xyz
  1  'x, y, z'
loop_
 _atom_site_type_symbol
 _atom_site_label
 _atom_site_symmetry_multiplicity
 _atom_site_fract_x
 _atom_site_fract_y
 _atom_site_fract_z
 _atom_site_occupancy
  Nd  Nd0  1  0.750000  0.653145  0.413183  1
  Nd  Nd1  1  0.250000  0.488752  0.177354  1
  Nd  Nd2  1  0.250000  0.993427  0.325293  1
  Nd  Nd3  1  0.750000  0.511246  0.820742  1
  Nd  Nd4  1  0.750000  0.010488  0.678473  1
  Ho  Ho5  1  0.250000  0.347920  0.584415  1
  Ho  Ho6  1  0.750000  0.150350  0.079406  1
  Tm  Tm7  1  0.250000  0.852638  0.921659  1
  Au  Au8  1  0.250000  0.244533  0.903290  1
  Au  Au9  1  0.250000  0.745210  0.610606  1
  Au  Au10  1  0.750000  0.756316  0.085463  1
  Au  Au11  1  0.750000  0.245975  0.400116  1
