# generated using pymatgen
data_HoNp3(ReB6)2
_symmetry_space_group_name_H-M   'P 1'
_cell_length_a   3.62172500
_cell_length_b   9.27447224
_cell_length_c   11.33971829
_cell_angle_alpha   89.97385430
_cell_angle_beta   90.00000000
_cell_angle_gamma   90.00000000
_symmetry_Int_Tables_number   1
_chemical_formula_structural   HoNp3(ReB6)2
_chemical_formula_sum   'Ho2 Np6 Re4 B24'
_cell_volume   380.89642567
_cell_formula_units_Z   2
loop_
 _symmetry_equiv_pos_site_id
 _symmetry_equiv_pos_as_xyz
  1  'x, y, z'
loop_
 _atom_site_type_symbol
 _atom_site_label
 _atom_site_symmetry_multiplicity
 _atom_site_fract_x
 _atom_site_fract_y
 _atom_site_fract_z
 _atom_site_occupancy
  Ho  Ho0  1  0.000000  0.337523  0.407366  1
  Ho  Ho1  1  0.000000  0.662477  0.592634  1
  Np  Np2  1  0.000000  0.837120  0.093628  1
  Np  Np3  1  0.000000  0.162880  0.906372  1
  Np  Np4  1  0.000000  0.958768  0.400425  1
  Np  Np5  1  0.000000  0.041232  0.599575  1
  Np  Np6  1  0.000000  0.458995  0.099261  1
  Np  Np7  1  0.000000  0.541005  0.900739  1
  Re  Re8  1  0.000000  0.647350  0.317283  1
  Re  Re9  1  0.000000  0.352650  0.682717  1
  Re  Re10  1  0.000000  0.144444  0.179764  1
  Re  Re11  1  0.000000  0.855556  0.820236  1
  B  B12  1  0.500000  0.551927  0.431328  1
  B  B13  1  0.500000  0.448073  0.568672  1
  B  B14  1  0.500000  0.051861  0.068250  1
  B  B15  1  0.500000  0.948139  0.931750  1
  B  B16  1  0.500000  0.743428  0.423601  1
  B  B17  1  0.500000  0.256572  0.576399  1
  B  B18  1  0.500000  0.243587  0.076406  1
  B  B19  1  0.500000  0.756413  0.923594  1
  B  B20  1  0.500000  0.804593  0.274498  1
  B  B21  1  0.500000  0.195407  0.725502  1
  B  B22  1  0.500000  0.304212  0.225089  1
  B  B23  1  0.500000  0.695788  0.774911  1
  B  B24  1  0.500000  0.644932  0.188373  1
  B  B25  1  0.500000  0.355068  0.811627  1
  B  B26  1  0.500000  0.144944  0.311924  1
  B  B27  1  0.500000  0.855056  0.688076  1
  B  B28  1  0.500000  0.987830  0.220635  1
  B  B29  1  0.500000  0.012170  0.779365  1
  B  B30  1  0.500000  0.488233  0.279799  1
  B  B31  1  0.500000  0.511767  0.720201  1
  B  B32  1  0.500000  0.642217  0.039433  1
  B  B33  1  0.500000  0.357783  0.960567  1
  B  B34  1  0.500000  0.140517  0.461135  1
  B  B35  1  0.500000  0.859483  0.538865  1
