# generated using pymatgen
data_Hf6Co4Si5As
_symmetry_space_group_name_H-M   'P 1'
_cell_length_a   3.84151000
_cell_length_b   5.33359901
_cell_length_c   12.79046100
_cell_angle_alpha   90.00000000
_cell_angle_beta   90.00000000
_cell_angle_gamma   111.10778835
_symmetry_Int_Tables_number   1
_chemical_formula_structural   Hf6Co4Si5As
_chemical_formula_sum   'Hf6 Co4 Si5 As1'
_cell_volume   244.48136262
_cell_formula_units_Z   1
loop_
 _symmetry_equiv_pos_site_id
 _symmetry_equiv_pos_as_xyz
  1  'x, y, z'
loop_
 _atom_site_type_symbol
 _atom_site_label
 _atom_site_symmetry_multiplicity
 _atom_site_fract_x
 _atom_site_fract_y
 _atom_site_fract_z
 _atom_site_occupancy
  Hf  Hf0  1  0.072983  0.145965  0.385818  1
  Hf  Hf1  1  0.924869  0.849740  0.618207  1
  Hf  Hf2  1  0.072983  0.145965  0.114182  1
  Hf  Hf3  1  0.924869  0.849740  0.881793  1
  Hf  Hf4  1  0.367428  0.734854  0.250000  1
  Hf  Hf5  1  0.635949  0.271899  0.750000  1
  Co  Co6  1  0.219363  0.438726  0.918825  1
  Co  Co7  1  0.781934  0.563867  0.078599  1
  Co  Co8  1  0.219363  0.438726  0.581175  1
  Co  Co9  1  0.781934  0.563867  0.421401  1
  Si  Si10  1  0.390273  0.780545  0.458938  1
  Si  Si11  1  0.609550  0.219102  0.542559  1
  Si  Si12  1  0.390273  0.780545  0.041062  1
  Si  Si13  1  0.609550  0.219102  0.957441  1
  Si  Si14  1  0.334692  0.669385  0.750000  1
  As  As15  1  0.663986  0.327973  0.250000  1
