# generated using pymatgen
data_HoSi4(RuRh)3
_symmetry_space_group_name_H-M   'P 1'
_cell_length_a   7.00000400
_cell_length_b   7.00000461
_cell_length_c   3.80287300
_cell_angle_alpha   90.00000000
_cell_angle_beta   90.00000000
_cell_angle_gamma   119.99999710
_symmetry_Int_Tables_number   1
_chemical_formula_structural   HoSi4(RuRh)3
_chemical_formula_sum   'Ho1 Si4 Ru3 Rh3'
_cell_volume   161.37604996
_cell_formula_units_Z   1
loop_
 _symmetry_equiv_pos_site_id
 _symmetry_equiv_pos_as_xyz
  1  'x, y, z'
loop_
 _atom_site_type_symbol
 _atom_site_label
 _atom_site_symmetry_multiplicity
 _atom_site_fract_x
 _atom_site_fract_y
 _atom_site_fract_z
 _atom_site_occupancy
  Ho  Ho0  1  0.000000  0.000000  0.000000  1
  Si  Si1  1  0.799940  0.599879  0.500000  1
  Si  Si2  1  0.333333  0.666667  0.000000  1
  Si  Si3  1  0.400121  0.200060  0.500000  1
  Si  Si4  1  0.799940  0.200060  0.500000  1
  Ru  Ru5  1  0.534687  0.069376  0.000000  1
  Ru  Ru6  1  0.534687  0.465313  0.000000  1
  Ru  Ru7  1  0.930624  0.465313  0.000000  1
  Rh  Rh8  1  0.603084  0.801542  0.500000  1
  Rh  Rh9  1  0.198458  0.396916  0.500000  1
  Rh  Rh10  1  0.198458  0.801542  0.500000  1
