# generated using pymatgen
data_CaTb2Yb5(Si3Pd)4
_symmetry_space_group_name_H-M   'P 1'
_cell_length_a   8.26359408
_cell_length_b   8.26359393
_cell_length_c   8.18591200
_cell_angle_alpha   90.00000000
_cell_angle_beta   90.00000000
_cell_angle_gamma   120.13013601
_symmetry_Int_Tables_number   1
_chemical_formula_structural   CaTb2Yb5(Si3Pd)4
_chemical_formula_sum   'Ca1 Tb2 Yb5 Si12 Pd4'
_cell_volume   483.46456173
_cell_formula_units_Z   1
loop_
 _symmetry_equiv_pos_site_id
 _symmetry_equiv_pos_as_xyz
  1  'x, y, z'
loop_
 _atom_site_type_symbol
 _atom_site_label
 _atom_site_symmetry_multiplicity
 _atom_site_fract_x
 _atom_site_fract_y
 _atom_site_fract_z
 _atom_site_occupancy
  Ca  Ca0  1  0.498678  0.501322  0.750000  1
  Tb  Tb1  1  0.999939  0.000061  0.250000  1
  Tb  Tb2  1  0.000062  0.999938  0.750000  1
  Yb  Yb3  1  0.501562  0.002789  0.250000  1
  Yb  Yb4  1  0.498385  0.997166  0.750000  1
  Yb  Yb5  1  0.997211  0.498438  0.250000  1
  Yb  Yb6  1  0.002834  0.501615  0.750000  1
  Yb  Yb7  1  0.501332  0.498668  0.250000  1
  Si  Si8  1  0.164562  0.328507  0.001473  1
  Si  Si9  1  0.835451  0.671498  0.999333  1
  Si  Si10  1  0.671493  0.835438  0.001473  1
  Si  Si11  1  0.835451  0.671498  0.500667  1
  Si  Si12  1  0.328502  0.164549  0.999333  1
  Si  Si13  1  0.164562  0.328507  0.498527  1
  Si  Si14  1  0.164004  0.835996  0.000912  1
  Si  Si15  1  0.328502  0.164549  0.500667  1
  Si  Si16  1  0.835978  0.164022  0.998037  1
  Si  Si17  1  0.671493  0.835438  0.498527  1
  Si  Si18  1  0.835978  0.164022  0.501963  1
  Si  Si19  1  0.164004  0.835996  0.499088  1
  Pd  Pd20  1  0.332778  0.667222  0.003613  1
  Pd  Pd21  1  0.667229  0.332771  0.998286  1
  Pd  Pd22  1  0.667229  0.332771  0.501714  1
  Pd  Pd23  1  0.332778  0.667222  0.496387  1
