# generated using pymatgen
data_EuHo(Al3Pd)3
_symmetry_space_group_name_H-M   'P 1'
_cell_length_a   7.64933926
_cell_length_b   7.65401506
_cell_length_c   9.51026800
_cell_angle_alpha   90.00000000
_cell_angle_beta   90.00000000
_cell_angle_gamma   119.65307738
_symmetry_Int_Tables_number   1
_chemical_formula_structural   EuHo(Al3Pd)3
_chemical_formula_sum   'Eu2 Ho2 Al18 Pd6'
_cell_volume   483.88732774
_cell_formula_units_Z   2
loop_
 _symmetry_equiv_pos_site_id
 _symmetry_equiv_pos_as_xyz
  1  'x, y, z'
loop_
 _atom_site_type_symbol
 _atom_site_label
 _atom_site_symmetry_multiplicity
 _atom_site_fract_x
 _atom_site_fract_y
 _atom_site_fract_z
 _atom_site_occupancy
  Eu  Eu0  1  0.994798  0.667998  0.250000  1
  Eu  Eu1  1  0.005202  0.332002  0.750000  1
  Ho  Ho2  1  0.669419  0.995123  0.250000  1
  Ho  Ho3  1  0.330581  0.004877  0.750000  1
  Al  Al4  1  0.129675  0.130579  0.250000  1
  Al  Al5  1  0.870325  0.869421  0.750000  1
  Al  Al6  1  0.001021  0.334180  0.076374  1
  Al  Al7  1  0.998979  0.665820  0.923626  1
  Al  Al8  1  0.998979  0.665820  0.576374  1
  Al  Al9  1  0.334917  0.000376  0.424250  1
  Al  Al10  1  0.001021  0.334180  0.423626  1
  Al  Al11  1  0.665083  0.999624  0.575750  1
  Al  Al12  1  0.665083  0.999624  0.924250  1
  Al  Al13  1  0.334917  0.000376  0.075750  1
  Al  Al14  1  0.333456  0.332942  0.556760  1
  Al  Al15  1  0.666544  0.667058  0.443240  1
  Al  Al16  1  0.666544  0.667058  0.056760  1
  Al  Al17  1  0.333456  0.332942  0.943240  1
  Al  Al18  1  0.343328  0.548678  0.250000  1
  Al  Al19  1  0.656672  0.451322  0.750000  1
  Al  Al20  1  0.544076  0.336426  0.250000  1
  Al  Al21  1  0.455924  0.663574  0.750000  1
  Pd  Pd22  1  0.669505  0.326498  0.000196  1
  Pd  Pd23  1  0.330495  0.673502  0.999804  1
  Pd  Pd24  1  0.330495  0.673502  0.500196  1
  Pd  Pd25  1  0.669505  0.326498  0.499804  1
  Pd  Pd26  1  0.000000  0.000000  0.000000  1
  Pd  Pd27  1  0.000000  0.000000  0.500000  1
