# generated using pymatgen
data_BaDy2Si3O10
_symmetry_space_group_name_H-M   'P 1'
_cell_length_a   12.34367600
_cell_length_b   5.46019630
_cell_length_c   6.92702308
_cell_angle_alpha   73.60088353
_cell_angle_beta   90.00000000
_cell_angle_gamma   90.00000000
_symmetry_Int_Tables_number   1
_chemical_formula_structural   BaDy2Si3O10
_chemical_formula_sum   'Ba2 Dy4 Si6 O20'
_cell_volume   447.88049238
_cell_formula_units_Z   2
loop_
 _symmetry_equiv_pos_site_id
 _symmetry_equiv_pos_as_xyz
  1  'x, y, z'
loop_
 _atom_site_type_symbol
 _atom_site_label
 _atom_site_symmetry_multiplicity
 _atom_site_fract_x
 _atom_site_fract_y
 _atom_site_fract_z
 _atom_site_occupancy
  Ba  Ba0  1  0.750000  0.762381  0.984948  1
  Ba  Ba1  1  0.250000  0.237619  0.015052  1
  Dy  Dy2  1  0.598816  0.158449  0.315593  1
  Dy  Dy3  1  0.901184  0.158449  0.315593  1
  Dy  Dy4  1  0.098816  0.841551  0.684407  1
  Dy  Dy5  1  0.401184  0.841551  0.684407  1
  Si  Si6  1  0.061503  0.695650  0.214205  1
  Si  Si7  1  0.250000  0.418647  0.488209  1
  Si  Si8  1  0.750000  0.581353  0.511791  1
  Si  Si9  1  0.438497  0.695650  0.214205  1
  Si  Si10  1  0.561503  0.304350  0.785795  1
  Si  Si11  1  0.938497  0.304350  0.785795  1
  O  O12  1  0.450067  0.897519  0.351993  1
  O  O13  1  0.143366  0.453901  0.338317  1
  O  O14  1  0.856634  0.546099  0.661683  1
  O  O15  1  0.356634  0.453901  0.338317  1
  O  O16  1  0.377854  0.836553  0.002954  1
  O  O17  1  0.877854  0.163447  0.997046  1
  O  O18  1  0.053808  0.435825  0.807878  1
  O  O19  1  0.950067  0.102481  0.648007  1
  O  O20  1  0.549933  0.102481  0.648007  1
  O  O21  1  0.250000  0.627258  0.616665  1
  O  O22  1  0.122146  0.836553  0.002954  1
  O  O23  1  0.553808  0.564175  0.192122  1
  O  O24  1  0.250000  0.124102  0.633208  1
  O  O25  1  0.643366  0.546099  0.661683  1
  O  O26  1  0.750000  0.875898  0.366792  1
  O  O27  1  0.946192  0.564175  0.192122  1
  O  O28  1  0.750000  0.372742  0.383335  1
  O  O29  1  0.446192  0.435825  0.807878  1
  O  O30  1  0.622146  0.163447  0.997046  1
  O  O31  1  0.049933  0.897519  0.351993  1
