# generated using pymatgen
data_LaErCu10
_symmetry_space_group_name_H-M   'P 1'
_cell_length_a   4.12963700
_cell_length_b   5.07590800
_cell_length_c   8.75952100
_cell_angle_alpha   90.00000000
_cell_angle_beta   90.00000000
_cell_angle_gamma   90.00000000
_symmetry_Int_Tables_number   1
_chemical_formula_structural   LaErCu10
_chemical_formula_sum   'La1 Er1 Cu10'
_cell_volume   183.61407894
_cell_formula_units_Z   1
loop_
 _symmetry_equiv_pos_site_id
 _symmetry_equiv_pos_as_xyz
  1  'x, y, z'
loop_
 _atom_site_type_symbol
 _atom_site_label
 _atom_site_symmetry_multiplicity
 _atom_site_fract_x
 _atom_site_fract_y
 _atom_site_fract_z
 _atom_site_occupancy
  La  La0  1  0.000000  0.500000  0.000000  1
  Er  Er1  1  0.000000  0.000000  0.500000  1
  Cu  Cu2  1  0.000000  0.500000  0.339760  1
  Cu  Cu3  1  0.000000  0.000000  0.825708  1
  Cu  Cu4  1  0.000000  0.000000  0.174292  1
  Cu  Cu5  1  0.000000  0.500000  0.660240  1
  Cu  Cu6  1  0.500000  0.500000  0.500000  1
  Cu  Cu7  1  0.500000  0.000000  0.000000  1
  Cu  Cu8  1  0.500000  0.753251  0.257276  1
  Cu  Cu9  1  0.500000  0.246749  0.742724  1
  Cu  Cu10  1  0.500000  0.246749  0.257276  1
  Cu  Cu11  1  0.500000  0.753251  0.742724  1
