# generated using pymatgen
data_Er3TmPd3RuO14
_symmetry_space_group_name_H-M   'P 1'
_cell_length_a   7.18186925
_cell_length_b   7.23292763
_cell_length_c   7.18186800
_cell_angle_alpha   60.23323819
_cell_angle_beta   59.99999654
_cell_angle_gamma   60.23323933
_symmetry_Int_Tables_number   1
_chemical_formula_structural   Er3TmPd3RuO14
_chemical_formula_sum   'Er3 Tm1 Pd3 Ru1 O14'
_cell_volume   264.72571122
_cell_formula_units_Z   1
loop_
 _symmetry_equiv_pos_site_id
 _symmetry_equiv_pos_as_xyz
  1  'x, y, z'
loop_
 _atom_site_type_symbol
 _atom_site_label
 _atom_site_symmetry_multiplicity
 _atom_site_fract_x
 _atom_site_fract_y
 _atom_site_fract_z
 _atom_site_occupancy
  Er  Er0  1  0.125000  0.125000  0.625000  1
  Er  Er1  1  0.125000  0.125000  0.125000  1
  Er  Er2  1  0.625000  0.125000  0.125000  1
  Tm  Tm3  1  0.125000  0.625000  0.125000  1
  Pd  Pd4  1  0.625000  0.625000  0.625000  1
  Pd  Pd5  1  0.125000  0.625000  0.625000  1
  Pd  Pd6  1  0.625000  0.625000  0.125000  1
  Ru  Ru7  1  0.625000  0.125000  0.625000  1
  O  O8  1  0.532822  0.529719  0.968729  1
  O  O9  1  0.968729  0.529719  0.968729  1
  O  O10  1  0.289499  0.284344  0.713078  1
  O  O11  1  0.000295  0.999113  0.000295  1
  O  O12  1  0.281271  0.720281  0.717178  1
  O  O13  1  0.717178  0.720281  0.281271  1
  O  O14  1  0.713078  0.284344  0.289499  1
  O  O15  1  0.536922  0.965656  0.536922  1
  O  O16  1  0.713078  0.284344  0.713078  1
  O  O17  1  0.536922  0.965656  0.960501  1
  O  O18  1  0.960501  0.965656  0.536922  1
  O  O19  1  0.249705  0.250887  0.249705  1
  O  O20  1  0.281271  0.720281  0.281271  1
  O  O21  1  0.968729  0.529719  0.532822  1
