# generated using pymatgen
data_La3Th(As2Au)4
_symmetry_space_group_name_H-M   'P 1'
_cell_length_a   4.16342300
_cell_length_b   4.19041910
_cell_length_c   20.78660548
_cell_angle_alpha   89.27626032
_cell_angle_beta   90.00000000
_cell_angle_gamma   90.00000000
_symmetry_Int_Tables_number   1
_chemical_formula_structural   La3Th(As2Au)4
_chemical_formula_sum   'La3 Th1 As8 Au4'
_cell_volume   362.62431564
_cell_formula_units_Z   1
loop_
 _symmetry_equiv_pos_site_id
 _symmetry_equiv_pos_as_xyz
  1  'x, y, z'
loop_
 _atom_site_type_symbol
 _atom_site_label
 _atom_site_symmetry_multiplicity
 _atom_site_fract_x
 _atom_site_fract_y
 _atom_site_fract_z
 _atom_site_occupancy
  La  La0  1  0.750000  0.725893  0.381275  1
  La  La1  1  0.250000  0.272993  0.620641  1
  La  La2  1  0.750000  0.761409  0.884787  1
  Th  Th3  1  0.250000  0.239974  0.114567  1
  As  As4  1  0.250000  0.747164  0.002773  1
  As  As5  1  0.750000  0.738090  0.152995  1
  As  As6  1  0.250000  0.227638  0.336827  1
  As  As7  1  0.750000  0.192559  0.497805  1
  As  As8  1  0.250000  0.808189  0.502341  1
  As  As9  1  0.750000  0.770431  0.662224  1
  As  As10  1  0.250000  0.264014  0.840789  1
  As  As11  1  0.750000  0.251935  0.003175  1
  Au  Au12  1  0.750000  0.225180  0.248129  1
  Au  Au13  1  0.250000  0.725951  0.247846  1
  Au  Au14  1  0.750000  0.273876  0.751990  1
  Au  Au15  1  0.250000  0.774707  0.751837  1
