# generated using pymatgen
data_Tm3Lu2InSb2
_symmetry_space_group_name_H-M   'P 1'
_cell_length_a   8.82675600
_cell_length_b   8.83593802
_cell_length_c   6.34938600
_cell_angle_alpha   90.00000000
_cell_angle_beta   90.00000000
_cell_angle_gamma   119.96563805
_symmetry_Int_Tables_number   1
_chemical_formula_structural   Tm3Lu2InSb2
_chemical_formula_sum   'Tm6 Lu4 In2 Sb4'
_cell_volume   429.00901272
_cell_formula_units_Z   2
loop_
 _symmetry_equiv_pos_site_id
 _symmetry_equiv_pos_as_xyz
  1  'x, y, z'
loop_
 _atom_site_type_symbol
 _atom_site_label
 _atom_site_symmetry_multiplicity
 _atom_site_fract_x
 _atom_site_fract_y
 _atom_site_fract_z
 _atom_site_occupancy
  Tm  Tm0  1  0.236780  0.000000  0.250000  1
  Tm  Tm1  1  0.763220  0.000000  0.750000  1
  Tm  Tm2  1  0.993115  0.237540  0.250000  1
  Tm  Tm3  1  0.755575  0.762460  0.250000  1
  Tm  Tm4  1  0.244425  0.237540  0.750000  1
  Tm  Tm5  1  0.006885  0.762460  0.750000  1
  Lu  Lu6  1  0.335103  0.670208  0.000000  1
  Lu  Lu7  1  0.664897  0.329792  0.500000  1
  Lu  Lu8  1  0.664897  0.329792  0.000000  1
  Lu  Lu9  1  0.335103  0.670208  0.500000  1
  In  In10  1  0.599777  0.000000  0.250000  1
  In  In11  1  0.400223  0.000000  0.750000  1
  Sb  Sb12  1  0.997348  0.607251  0.250000  1
  Sb  Sb13  1  0.390098  0.392749  0.250000  1
  Sb  Sb14  1  0.609902  0.607251  0.750000  1
  Sb  Sb15  1  0.002652  0.392749  0.750000  1
