# generated using pymatgen
data_Zr6BeGe(As2Ru3)2
_symmetry_space_group_name_H-M   'P 1'
_cell_length_a   7.70762529
_cell_length_b   7.70882961
_cell_length_c   7.70762707
_cell_angle_alpha   128.16142261
_cell_angle_beta   121.81822184
_cell_angle_gamma   81.65236538
_symmetry_Int_Tables_number   1
_chemical_formula_structural   Zr6BeGe(As2Ru3)2
_chemical_formula_sum   'Zr6 Be1 Ge1 As4 Ru6'
_cell_volume   294.58357119
_cell_formula_units_Z   1
loop_
 _symmetry_equiv_pos_site_id
 _symmetry_equiv_pos_as_xyz
  1  'x, y, z'
loop_
 _atom_site_type_symbol
 _atom_site_label
 _atom_site_symmetry_multiplicity
 _atom_site_fract_x
 _atom_site_fract_y
 _atom_site_fract_z
 _atom_site_occupancy
  Zr  Zr0  1  0.454638  0.661751  0.707113  1
  Zr  Zr1  1  0.545960  0.254567  0.208608  1
  Zr  Zr2  1  0.749925  0.852305  0.602380  1
  Zr  Zr3  1  0.249945  0.835687  0.085742  1
  Zr  Zr4  1  0.045764  0.252492  0.706727  1
  Zr  Zr5  1  0.953775  0.662195  0.208420  1
  Be  Be6  1  0.749693  0.253745  0.004053  1
  Ge  Ge7  1  0.250502  0.250952  0.500452  1
  As  As8  1  0.333700  0.587135  0.253738  1
  As  As9  1  0.666640  0.919973  0.253842  1
  As  As10  1  0.166132  0.919973  0.753333  1
  As  As11  1  0.833396  0.587135  0.753435  1
  Ru  Ru12  1  0.519313  0.492172  0.011609  1
  Ru  Ru13  1  0.980562  0.492172  0.472859  1
  Ru  Ru14  1  0.101158  0.254199  0.115538  1
  Ru  Ru15  1  0.862362  0.014474  0.116599  1
  Ru  Ru16  1  0.397875  0.014474  0.652113  1
  Ru  Ru17  1  0.638661  0.254199  0.653041  1
