# generated using pymatgen
data_Ta7Nb3Si5Au
_symmetry_space_group_name_H-M   'P 1'
_cell_length_a   7.57755051
_cell_length_b   7.58467282
_cell_length_c   7.58088359
_cell_angle_alpha   127.90397541
_cell_angle_beta   127.89006406
_cell_angle_gamma   76.74786253
_symmetry_Int_Tables_number   1
_chemical_formula_structural   Ta7Nb3Si5Au
_chemical_formula_sum   'Ta7 Nb3 Si5 Au1'
_cell_volume   263.53023625
_cell_formula_units_Z   1
loop_
 _symmetry_equiv_pos_site_id
 _symmetry_equiv_pos_as_xyz
  1  'x, y, z'
loop_
 _atom_site_type_symbol
 _atom_site_label
 _atom_site_symmetry_multiplicity
 _atom_site_fract_x
 _atom_site_fract_y
 _atom_site_fract_z
 _atom_site_occupancy
  Ta  Ta0  1  0.194685  0.681002  0.173902  1
  Ta  Ta1  1  0.992922  0.818699  0.513618  1
  Ta  Ta2  1  0.304987  0.479416  0.486067  1
  Ta  Ta3  1  0.478854  0.992482  0.173909  1
  Ta  Ta4  1  0.818408  0.304441  0.825588  1
  Ta  Ta5  1  0.998561  0.998074  0.000067  1
  Ta  Ta6  1  0.501794  0.502314  0.000243  1
  Nb  Nb7  1  0.022033  0.195740  0.515004  1
  Nb  Nb8  1  0.681047  0.507329  0.485410  1
  Nb  Nb9  1  0.507090  0.021499  0.825740  1
  Si  Si10  1  0.249493  0.249880  0.999974  1
  Si  Si11  1  0.369429  0.130472  0.500070  1
  Si  Si12  1  0.630447  0.869348  0.499782  1
  Si  Si13  1  0.869480  0.369531  0.239037  1
  Si  Si14  1  0.130685  0.630515  0.761211  1
  Au  Au15  1  0.750085  0.749258  0.000378  1
