# generated using pymatgen
data_MgZr(B4Ir3)2
_symmetry_space_group_name_H-M   'P 1'
_cell_length_a   7.63462400
_cell_length_b   7.63462421
_cell_length_c   3.46837600
_cell_angle_alpha   90.00000000
_cell_angle_beta   90.00000000
_cell_angle_gamma   120.00000775
_symmetry_Int_Tables_number   1
_chemical_formula_structural   MgZr(B4Ir3)2
_chemical_formula_sum   'Mg1 Zr1 B8 Ir6'
_cell_volume   175.07820635
_cell_formula_units_Z   1
loop_
 _symmetry_equiv_pos_site_id
 _symmetry_equiv_pos_as_xyz
  1  'x, y, z'
loop_
 _atom_site_type_symbol
 _atom_site_label
 _atom_site_symmetry_multiplicity
 _atom_site_fract_x
 _atom_site_fract_y
 _atom_site_fract_z
 _atom_site_occupancy
  Mg  Mg0  1  0.333333  0.666667  0.250000  1
  Zr  Zr1  1  0.666667  0.333333  0.750000  1
  B  B2  1  0.397818  0.943096  0.750000  1
  B  B3  1  0.056904  0.454722  0.750000  1
  B  B4  1  0.545278  0.602182  0.750000  1
  B  B5  1  0.593669  0.041974  0.250000  1
  B  B6  1  0.958026  0.551694  0.250000  1
  B  B7  1  0.448306  0.406331  0.250000  1
  B  B8  1  0.000000  0.000000  0.499491  1
  B  B9  1  0.000000  0.000000  0.000509  1
  Ir  Ir10  1  0.075532  0.745483  0.750000  1
  Ir  Ir11  1  0.254517  0.330049  0.750000  1
  Ir  Ir12  1  0.669951  0.924468  0.750000  1
  Ir  Ir13  1  0.921824  0.250927  0.250000  1
  Ir  Ir14  1  0.749073  0.670897  0.250000  1
  Ir  Ir15  1  0.329103  0.078176  0.250000  1
