# generated using pymatgen
data_TbY17(TmSn8)2
_symmetry_space_group_name_H-M   'P 1'
_cell_length_a   8.04046243
_cell_length_b   8.19148861
_cell_length_c   15.49785942
_cell_angle_alpha   90.01122313
_cell_angle_beta   89.92273697
_cell_angle_gamma   90.00446857
_symmetry_Int_Tables_number   1
_chemical_formula_structural   TbY17(TmSn8)2
_chemical_formula_sum   'Tb1 Y17 Tm2 Sn16'
_cell_volume   1020.74008835
_cell_formula_units_Z   1
loop_
 _symmetry_equiv_pos_site_id
 _symmetry_equiv_pos_as_xyz
  1  'x, y, z'
loop_
 _atom_site_type_symbol
 _atom_site_label
 _atom_site_symmetry_multiplicity
 _atom_site_fract_x
 _atom_site_fract_y
 _atom_site_fract_z
 _atom_site_occupancy
  Tb  Tb0  1  0.020047  0.179253  0.903193  1
  Y  Y1  1  0.366841  0.837524  0.877712  1
  Y  Y2  1  0.867652  0.662759  0.621879  1
  Y  Y3  1  0.632043  0.162542  0.377247  1
  Y  Y4  1  0.132657  0.337351  0.122702  1
  Y  Y5  1  0.632806  0.162700  0.122911  1
  Y  Y6  1  0.132113  0.337479  0.377334  1
  Y  Y7  1  0.367775  0.837379  0.622044  1
  Y  Y8  1  0.867330  0.662402  0.877825  1
  Y  Y9  1  0.521261  0.321295  0.902993  1
  Y  Y10  1  0.021827  0.178913  0.597247  1
  Y  Y11  1  0.478478  0.678888  0.402439  1
  Y  Y12  1  0.979034  0.820745  0.097395  1
  Y  Y13  1  0.478980  0.678984  0.097451  1
  Y  Y14  1  0.978483  0.821143  0.402494  1
  Y  Y15  1  0.521483  0.321248  0.596835  1
  Y  Y16  1  0.199060  0.502607  0.749950  1
  Y  Y17  1  0.699336  0.997162  0.749879  1
  Tm  Tm18  1  0.800857  0.496950  0.250101  1
  Tm  Tm19  1  0.300948  0.003056  0.250183  1
  Sn  Sn20  1  0.293471  0.035918  0.042625  1
  Sn  Sn21  1  0.792425  0.463709  0.457621  1
  Sn  Sn22  1  0.707705  0.963997  0.541411  1
  Sn  Sn23  1  0.207326  0.536960  0.958718  1
  Sn  Sn24  1  0.706065  0.962555  0.958805  1
  Sn  Sn25  1  0.207554  0.536437  0.541329  1
  Sn  Sn26  1  0.292470  0.036189  0.457711  1
  Sn  Sn27  1  0.793103  0.463382  0.042234  1
  Sn  Sn28  1  0.565421  0.618259  0.749876  1
  Sn  Sn29  1  0.065500  0.881744  0.749977  1
  Sn  Sn30  1  0.435627  0.381572  0.250082  1
  Sn  Sn31  1  0.935724  0.118551  0.250150  1
  Sn  Sn32  1  0.330876  0.148144  0.749876  1
  Sn  Sn33  1  0.830262  0.352176  0.749724  1
  Sn  Sn34  1  0.668785  0.850619  0.249974  1
  Sn  Sn35  1  0.168677  0.649407  0.250075  1
