# generated using pymatgen
data_Tb2Y8Cd3Ru
_symmetry_space_group_name_H-M   'P 1'
_cell_length_a   9.65648119
_cell_length_b   9.65648097
_cell_length_c   9.89522143
_cell_angle_alpha   90.05343618
_cell_angle_beta   89.94656223
_cell_angle_gamma   119.98056110
_symmetry_Int_Tables_number   1
_chemical_formula_structural   Tb2Y8Cd3Ru
_chemical_formula_sum   'Tb4 Y16 Cd6 Ru2'
_cell_volume   799.24277844
_cell_formula_units_Z   2
loop_
 _symmetry_equiv_pos_site_id
 _symmetry_equiv_pos_as_xyz
  1  'x, y, z'
loop_
 _atom_site_type_symbol
 _atom_site_label
 _atom_site_symmetry_multiplicity
 _atom_site_fract_x
 _atom_site_fract_y
 _atom_site_fract_z
 _atom_site_occupancy
  Tb  Tb0  1  0.209847  0.790153  0.439616  1
  Tb  Tb1  1  0.209863  0.419777  0.439648  1
  Tb  Tb2  1  0.580223  0.790137  0.439648  1
  Tb  Tb3  1  0.789941  0.210059  0.560562  1
  Y  Y4  1  0.999990  0.000010  0.499912  1
  Y  Y5  1  0.999992  0.000008  0.000159  1
  Y  Y6  1  0.790246  0.580584  0.559978  1
  Y  Y7  1  0.419416  0.209754  0.559978  1
  Y  Y8  1  0.790269  0.209731  0.939990  1
  Y  Y9  1  0.790128  0.580413  0.939963  1
  Y  Y10  1  0.419587  0.209872  0.939963  1
  Y  Y11  1  0.209714  0.790286  0.059951  1
  Y  Y12  1  0.209680  0.419398  0.059892  1
  Y  Y13  1  0.580602  0.790320  0.059892  1
  Y  Y14  1  0.541303  0.458697  0.249995  1
  Y  Y15  1  0.541244  0.082624  0.250017  1
  Y  Y16  1  0.917376  0.458756  0.250017  1
  Y  Y17  1  0.458739  0.541261  0.750009  1
  Y  Y18  1  0.458673  0.917380  0.749997  1
  Y  Y19  1  0.082620  0.541327  0.749997  1
  Cd  Cd20  1  0.885381  0.114619  0.249713  1
  Cd  Cd21  1  0.885361  0.770660  0.249870  1
  Cd  Cd22  1  0.229340  0.114639  0.249870  1
  Cd  Cd23  1  0.114672  0.885328  0.750146  1
  Cd  Cd24  1  0.114705  0.229318  0.750207  1
  Cd  Cd25  1  0.770682  0.885295  0.750207  1
  Ru  Ru26  1  0.333352  0.666648  0.251518  1
  Ru  Ru27  1  0.667056  0.332944  0.749283  1
