# generated using pymatgen
data_MnNb(Cu3Se4)2
_symmetry_space_group_name_H-M   'P 1'
_cell_length_a   8.01541500
_cell_length_b   8.01541500
_cell_length_c   5.70208000
_cell_angle_alpha   90.00000000
_cell_angle_beta   90.00000000
_cell_angle_gamma   90.00000000
_symmetry_Int_Tables_number   1
_chemical_formula_structural   MnNb(Cu3Se4)2
_chemical_formula_sum   'Mn1 Nb1 Cu6 Se8'
_cell_volume   366.34083595
_cell_formula_units_Z   1
loop_
 _symmetry_equiv_pos_site_id
 _symmetry_equiv_pos_as_xyz
  1  'x, y, z'
loop_
 _atom_site_type_symbol
 _atom_site_label
 _atom_site_symmetry_multiplicity
 _atom_site_fract_x
 _atom_site_fract_y
 _atom_site_fract_z
 _atom_site_occupancy
  Mn  Mn0  1  0.500000  0.500000  0.000000  1
  Nb  Nb1  1  0.000000  0.000000  0.000000  1
  Cu  Cu2  1  0.250704  0.749296  0.000000  1
  Cu  Cu3  1  0.749296  0.250704  0.000000  1
  Cu  Cu4  1  0.250704  0.250704  0.000000  1
  Cu  Cu5  1  0.749296  0.749296  0.000000  1
  Cu  Cu6  1  0.000000  0.000000  0.500000  1
  Cu  Cu7  1  0.500000  0.500000  0.500000  1
  Se  Se8  1  0.500000  0.263065  0.762107  1
  Se  Se9  1  0.000000  0.748497  0.749322  1
  Se  Se10  1  0.500000  0.736935  0.762107  1
  Se  Se11  1  0.000000  0.251503  0.749322  1
  Se  Se12  1  0.748497  0.000000  0.250678  1
  Se  Se13  1  0.263065  0.500000  0.237893  1
  Se  Se14  1  0.251503  0.000000  0.250678  1
  Se  Se15  1  0.736935  0.500000  0.237893  1
