# generated using pymatgen
data_Tm5Lu5(AlTe)3
_symmetry_space_group_name_H-M   'P 1'
_cell_length_a   8.68717800
_cell_length_b   8.70559078
_cell_length_c   6.32377600
_cell_angle_alpha   90.00000000
_cell_angle_beta   90.00000000
_cell_angle_gamma   119.66527813
_symmetry_Int_Tables_number   1
_chemical_formula_structural   Tm5Lu5(AlTe)3
_chemical_formula_sum   'Tm5 Lu5 Al3 Te3'
_cell_volume   415.56507605
_cell_formula_units_Z   1
loop_
 _symmetry_equiv_pos_site_id
 _symmetry_equiv_pos_as_xyz
  1  'x, y, z'
loop_
 _atom_site_type_symbol
 _atom_site_label
 _atom_site_symmetry_multiplicity
 _atom_site_fract_x
 _atom_site_fract_y
 _atom_site_fract_z
 _atom_site_occupancy
  Tm  Tm0  1  0.758045  0.003489  0.750000  1
  Tm  Tm1  1  0.985099  0.234563  0.250000  1
  Tm  Tm2  1  0.764253  0.766144  0.250000  1
  Tm  Tm3  1  0.245197  0.232601  0.750000  1
  Tm  Tm4  1  0.015141  0.770881  0.750000  1
  Lu  Lu5  1  0.331738  0.680951  0.003479  1
  Lu  Lu6  1  0.666906  0.323171  0.496594  1
  Lu  Lu7  1  0.666906  0.323171  0.003406  1
  Lu  Lu8  1  0.331738  0.680951  0.496521  1
  Lu  Lu9  1  0.235941  0.987214  0.250000  1
  Al  Al10  1  0.597827  0.998382  0.250000  1
  Al  Al11  1  0.405609  0.004291  0.750000  1
  Al  Al12  1  0.993578  0.599388  0.250000  1
  Te  Te13  1  0.387492  0.390386  0.250000  1
  Te  Te14  1  0.609852  0.607252  0.750000  1
  Te  Te15  1  0.004679  0.397164  0.750000  1
