# generated using pymatgen
data_Rb3ErSb2
_symmetry_space_group_name_H-M   'P 1'
_cell_length_a   10.16261327
_cell_length_b   10.16261365
_cell_length_c   10.16261411
_cell_angle_alpha   128.29760505
_cell_angle_beta   70.52711469
_cell_angle_gamma   135.52977311
_symmetry_Int_Tables_number   1
_chemical_formula_structural   Rb3ErSb2
_chemical_formula_sum   'Rb6 Er2 Sb4'
_cell_volume   565.61028764
_cell_formula_units_Z   2
loop_
 _symmetry_equiv_pos_site_id
 _symmetry_equiv_pos_as_xyz
  1  'x, y, z'
loop_
 _atom_site_type_symbol
 _atom_site_label
 _atom_site_symmetry_multiplicity
 _atom_site_fract_x
 _atom_site_fract_y
 _atom_site_fract_z
 _atom_site_occupancy
  Rb  Rb0  1  0.250000  0.250000  0.000000  1
  Rb  Rb1  1  0.750000  0.750000  0.000000  1
  Rb  Rb2  1  0.815887  0.297362  0.113251  1
  Rb  Rb3  1  0.684112  0.797363  0.481475  1
  Rb  Rb4  1  0.315887  0.202638  0.518525  1
  Rb  Rb5  1  0.184112  0.702638  0.886749  1
  Er  Er6  1  0.750000  0.250000  0.500000  1
  Er  Er7  1  0.250000  0.750000  0.500000  1
  Sb  Sb8  1  0.402297  0.807990  0.210287  1
  Sb  Sb9  1  0.097703  0.307990  0.405692  1
  Sb  Sb10  1  0.902297  0.692010  0.594309  1
  Sb  Sb11  1  0.597703  0.192010  0.789713  1
