# generated using pymatgen
data_YbY3(B4Os)4
_symmetry_space_group_name_H-M   'P 1'
_cell_length_a   3.55967600
_cell_length_b   5.97358968
_cell_length_c   11.54514432
_cell_angle_alpha   89.94534285
_cell_angle_beta   90.00000000
_cell_angle_gamma   90.00000000
_symmetry_Int_Tables_number   1
_chemical_formula_structural   YbY3(B4Os)4
_chemical_formula_sum   'Yb1 Y3 B16 Os4'
_cell_volume   245.49634284
_cell_formula_units_Z   1
loop_
 _symmetry_equiv_pos_site_id
 _symmetry_equiv_pos_as_xyz
  1  'x, y, z'
loop_
 _atom_site_type_symbol
 _atom_site_label
 _atom_site_symmetry_multiplicity
 _atom_site_fract_x
 _atom_site_fract_y
 _atom_site_fract_z
 _atom_site_occupancy
  Yb  Yb0  1  0.000000  0.370378  0.149218  1
  Y  Y1  1  0.000000  0.127746  0.649988  1
  Y  Y2  1  0.000000  0.871664  0.348563  1
  Y  Y3  1  0.000000  0.627833  0.851117  1
  B  B4  1  0.500000  0.475197  0.691473  1
  B  B5  1  0.500000  0.525105  0.308256  1
  B  B6  1  0.500000  0.974536  0.809168  1
  B  B7  1  0.500000  0.025697  0.190635  1
  B  B8  1  0.500000  0.288703  0.815013  1
  B  B9  1  0.500000  0.710816  0.184959  1
  B  B10  1  0.500000  0.788571  0.686008  1
  B  B11  1  0.500000  0.212966  0.313554  1
  B  B12  1  0.500000  0.363329  0.970551  1
  B  B13  1  0.500000  0.636160  0.030532  1
  B  B14  1  0.500000  0.863209  0.530125  1
  B  B15  1  0.500000  0.136573  0.469930  1
  B  B16  1  0.500000  0.387432  0.546826  1
  B  B17  1  0.500000  0.611699  0.452888  1
  B  B18  1  0.500000  0.888186  0.954299  1
  B  B19  1  0.500000  0.114243  0.047249  1
  Os  Os20  1  0.000000  0.140547  0.907102  1
  Os  Os21  1  0.000000  0.859946  0.091789  1
  Os  Os22  1  0.000000  0.640893  0.592952  1
  Os  Os23  1  0.000000  0.358572  0.407804  1
