# generated using pymatgen
data_Yb4(CdPd3)3
_symmetry_space_group_name_H-M   'P 1'
_cell_length_a   7.21416966
_cell_length_b   7.21416909
_cell_length_c   7.21416924
_cell_angle_alpha   106.79644025
_cell_angle_beta   106.79643675
_cell_angle_gamma   114.96441987
_symmetry_Int_Tables_number   1
_chemical_formula_structural   Yb4(CdPd3)3
_chemical_formula_sum   'Yb4 Cd3 Pd9'
_cell_volume   287.01436641
_cell_formula_units_Z   1
loop_
 _symmetry_equiv_pos_site_id
 _symmetry_equiv_pos_as_xyz
  1  'x, y, z'
loop_
 _atom_site_type_symbol
 _atom_site_label
 _atom_site_symmetry_multiplicity
 _atom_site_fract_x
 _atom_site_fract_y
 _atom_site_fract_z
 _atom_site_occupancy
  Yb  Yb0  1  0.238510  0.238510  0.477021  1
  Yb  Yb1  1  0.761490  0.761490  0.522979  1
  Yb  Yb2  1  0.238510  0.761490  0.000000  1
  Yb  Yb3  1  0.761490  0.238510  0.000000  1
  Cd  Cd4  1  0.500000  0.000000  0.500000  1
  Cd  Cd5  1  0.000000  0.500000  0.500000  1
  Cd  Cd6  1  0.500000  0.500000  0.000000  1
  Pd  Pd7  1  0.505743  0.256706  0.249036  1
  Pd  Pd8  1  0.494257  0.743294  0.750964  1
  Pd  Pd9  1  0.007668  0.256706  0.750964  1
  Pd  Pd10  1  0.256706  0.007668  0.750964  1
  Pd  Pd11  1  0.992332  0.743294  0.249036  1
  Pd  Pd12  1  0.743294  0.992332  0.249036  1
  Pd  Pd13  1  0.256706  0.505743  0.249036  1
  Pd  Pd14  1  0.743294  0.494257  0.750964  1
  Pd  Pd15  1  0.000000  0.000000  0.000000  1
