# generated using pymatgen
data_Ca3La17(Sn5Bi3)2
_symmetry_space_group_name_H-M   'P 1'
_cell_length_a   8.54161327
_cell_length_b   8.59698558
_cell_length_c   16.47947096
_cell_angle_alpha   89.86797408
_cell_angle_beta   90.01113606
_cell_angle_gamma   90.01192965
_symmetry_Int_Tables_number   1
_chemical_formula_structural   Ca3La17(Sn5Bi3)2
_chemical_formula_sum   'Ca3 La17 Sn10 Bi6'
_cell_volume   1210.11932821
_cell_formula_units_Z   1
loop_
 _symmetry_equiv_pos_site_id
 _symmetry_equiv_pos_as_xyz
  1  'x, y, z'
loop_
 _atom_site_type_symbol
 _atom_site_label
 _atom_site_symmetry_multiplicity
 _atom_site_fract_x
 _atom_site_fract_y
 _atom_site_fract_z
 _atom_site_occupancy
  Ca  Ca0  1  0.282447  0.000813  0.748841  1
  Ca  Ca1  1  0.784079  0.498535  0.751364  1
  Ca  Ca2  1  0.217601  0.500633  0.249886  1
  La  La3  1  0.962907  0.815840  0.893171  1
  La  La4  1  0.462391  0.683461  0.607353  1
  La  La5  1  0.540588  0.326414  0.105510  1
  La  La6  1  0.043177  0.176173  0.394429  1
  La  La7  1  0.969247  0.822600  0.606203  1
  La  La8  1  0.469204  0.676511  0.893717  1
  La  La9  1  0.533451  0.319561  0.394440  1
  La  La10  1  0.036126  0.182109  0.105411  1
  La  La11  1  0.886721  0.661141  0.380043  1
  La  La12  1  0.383226  0.837584  0.119703  1
  La  La13  1  0.609014  0.160653  0.619976  1
  La  La14  1  0.108834  0.337395  0.881030  1
  La  La15  1  0.115021  0.332209  0.619076  1
  La  La16  1  0.614878  0.165515  0.880424  1
  La  La17  1  0.381006  0.840333  0.381240  1
  La  La18  1  0.884273  0.657601  0.118566  1
  La  La19  1  0.713800  0.001188  0.249600  1
  Sn  Sn20  1  0.274876  0.026137  0.543707  1
  Sn  Sn21  1  0.773641  0.472243  0.956814  1
  Sn  Sn22  1  0.164894  0.637325  0.750125  1
  Sn  Sn23  1  0.667093  0.861348  0.749987  1
  Sn  Sn24  1  0.340067  0.139830  0.249073  1
  Sn  Sn25  1  0.837108  0.360392  0.250906  1
  Sn  Sn26  1  0.913194  0.116783  0.750040  1
  Sn  Sn27  1  0.413217  0.384345  0.750378  1
  Sn  Sn28  1  0.584370  0.621563  0.251099  1
  Sn  Sn29  1  0.082385  0.883088  0.248684  1
  Bi  Bi30  1  0.772410  0.474102  0.543876  1
  Bi  Bi31  1  0.273459  0.024606  0.955455  1
  Bi  Bi32  1  0.726352  0.973868  0.456630  1
  Bi  Bi33  1  0.226533  0.527249  0.043069  1
  Bi  Bi34  1  0.226058  0.527211  0.456661  1
  Bi  Bi35  1  0.726349  0.973640  0.043515  1
