# generated using pymatgen
data_CeY7BePt24
_symmetry_space_group_name_H-M   'P 1'
_cell_length_a   8.32551903
_cell_length_b   8.32552007
_cell_length_c   8.32552000
_cell_angle_alpha   89.95107624
_cell_angle_beta   90.04891688
_cell_angle_gamma   90.04892422
_symmetry_Int_Tables_number   1
_chemical_formula_structural   CeY7BePt24
_chemical_formula_sum   'Ce1 Y7 Be1 Pt24'
_cell_volume   577.07675851
_cell_formula_units_Z   1
loop_
 _symmetry_equiv_pos_site_id
 _symmetry_equiv_pos_as_xyz
  1  'x, y, z'
loop_
 _atom_site_type_symbol
 _atom_site_label
 _atom_site_symmetry_multiplicity
 _atom_site_fract_x
 _atom_site_fract_y
 _atom_site_fract_z
 _atom_site_occupancy
  Ce  Ce0  1  0.747344  0.252656  0.252656  1
  Y  Y1  1  0.250647  0.251173  0.251173  1
  Y  Y2  1  0.748842  0.748914  0.748914  1
  Y  Y3  1  0.748827  0.749353  0.251173  1
  Y  Y4  1  0.748827  0.251173  0.749353  1
  Y  Y5  1  0.251086  0.251158  0.748914  1
  Y  Y6  1  0.251086  0.748914  0.251158  1
  Y  Y7  1  0.251550  0.748450  0.748450  1
  Be  Be8  1  0.001556  0.998444  0.998444  1
  Pt  Pt9  1  0.254349  0.499744  0.999852  1
  Pt  Pt10  1  0.745520  0.499268  0.001153  1
  Pt  Pt11  1  0.998847  0.254480  0.499268  1
  Pt  Pt12  1  0.500732  0.254480  0.001153  1
  Pt  Pt13  1  0.000148  0.745651  0.499744  1
  Pt  Pt14  1  0.500256  0.745651  0.999852  1
  Pt  Pt15  1  0.500732  0.001153  0.254480  1
  Pt  Pt16  1  0.254349  0.999852  0.499744  1
  Pt  Pt17  1  0.500256  0.999852  0.745651  1
  Pt  Pt18  1  0.745520  0.001153  0.499268  1
  Pt  Pt19  1  0.998847  0.499268  0.254480  1
  Pt  Pt20  1  0.000148  0.499744  0.745651  1
  Pt  Pt21  1  0.251161  0.499972  0.499972  1
  Pt  Pt22  1  0.748399  0.499794  0.499794  1
  Pt  Pt23  1  0.500206  0.251601  0.499794  1
  Pt  Pt24  1  0.500028  0.748839  0.499972  1
  Pt  Pt25  1  0.500206  0.499794  0.251601  1
  Pt  Pt26  1  0.500028  0.499972  0.748839  1
  Pt  Pt27  1  0.269969  0.999667  0.999667  1
  Pt  Pt28  1  0.731528  0.000828  0.000828  1
  Pt  Pt29  1  0.999172  0.268472  0.000828  1
  Pt  Pt30  1  0.000333  0.730031  0.999667  1
  Pt  Pt31  1  0.999172  0.000828  0.268472  1
  Pt  Pt32  1  0.000333  0.999667  0.730031  1
