# generated using pymatgen
data_Tm2CuSiBr2
_symmetry_space_group_name_H-M   'P 1'
_cell_length_a   3.95964300
_cell_length_b   3.95964275
_cell_length_c   11.26927500
_cell_angle_alpha   90.00000000
_cell_angle_beta   90.00000000
_cell_angle_gamma   119.99997706
_symmetry_Int_Tables_number   1
_chemical_formula_structural   Tm2CuSiBr2
_chemical_formula_sum   'Tm2 Cu1 Si1 Br2'
_cell_volume   153.01666941
_cell_formula_units_Z   1
loop_
 _symmetry_equiv_pos_site_id
 _symmetry_equiv_pos_as_xyz
  1  'x, y, z'
loop_
 _atom_site_type_symbol
 _atom_site_label
 _atom_site_symmetry_multiplicity
 _atom_site_fract_x
 _atom_site_fract_y
 _atom_site_fract_z
 _atom_site_occupancy
  Tm  Tm0  1  0.000000  0.000000  0.168089  1
  Tm  Tm1  1  0.000000  0.000000  0.830719  1
  Cu  Cu2  1  0.333333  0.666667  0.012952  1
  Si  Si3  1  0.666667  0.333333  0.989276  1
  Br  Br4  1  0.333333  0.666667  0.671045  1
  Br  Br5  1  0.666667  0.333333  0.327919  1
