# generated using pymatgen
data_LiCe2ZnPt2
_symmetry_space_group_name_H-M   'P 1'
_cell_length_a   4.08427600
_cell_length_b   7.19897100
_cell_length_c   8.39739000
_cell_angle_alpha   90.00000000
_cell_angle_beta   90.00000000
_cell_angle_gamma   90.00000000
_symmetry_Int_Tables_number   1
_chemical_formula_structural   LiCe2ZnPt2
_chemical_formula_sum   'Li2 Ce4 Zn2 Pt4'
_cell_volume   246.90496889
_cell_formula_units_Z   2
loop_
 _symmetry_equiv_pos_site_id
 _symmetry_equiv_pos_as_xyz
  1  'x, y, z'
loop_
 _atom_site_type_symbol
 _atom_site_label
 _atom_site_symmetry_multiplicity
 _atom_site_fract_x
 _atom_site_fract_y
 _atom_site_fract_z
 _atom_site_occupancy
  Li  Li0  1  0.250000  0.623415  0.558666  1
  Li  Li1  1  0.250000  0.123415  0.941334  1
  Ce  Ce2  1  0.250000  0.048703  0.311867  1
  Ce  Ce3  1  0.250000  0.548703  0.188133  1
  Ce  Ce4  1  0.750000  0.952439  0.691109  1
  Ce  Ce5  1  0.750000  0.452439  0.808891  1
  Zn  Zn6  1  0.750000  0.373943  0.438748  1
  Zn  Zn7  1  0.750000  0.873943  0.061252  1
  Pt  Pt8  1  0.250000  0.244330  0.622820  1
  Pt  Pt9  1  0.250000  0.744330  0.877180  1
  Pt  Pt10  1  0.750000  0.757169  0.377548  1
  Pt  Pt11  1  0.750000  0.257169  0.122452  1
