# generated using pymatgen
data_Tb2Ho3TmGaCo2
_symmetry_space_group_name_H-M   'P 1'
_cell_length_a   8.26349267
_cell_length_b   8.26349261
_cell_length_c   8.26349319
_cell_angle_alpha   107.03763123
_cell_angle_beta   109.14313068
_cell_angle_gamma   112.27616213
_symmetry_Int_Tables_number   1
_chemical_formula_structural   Tb2Ho3TmGaCo2
_chemical_formula_sum   'Tb4 Ho6 Tm2 Ga2 Co4'
_cell_volume   433.45517010
_cell_formula_units_Z   2
loop_
 _symmetry_equiv_pos_site_id
 _symmetry_equiv_pos_as_xyz
  1  'x, y, z'
loop_
 _atom_site_type_symbol
 _atom_site_label
 _atom_site_symmetry_multiplicity
 _atom_site_fract_x
 _atom_site_fract_y
 _atom_site_fract_z
 _atom_site_occupancy
  Tb  Tb0  1  0.698416  0.261580  0.959907  1
  Tb  Tb1  1  0.301673  0.738509  0.040093  1
  Tb  Tb2  1  0.698416  0.738509  0.436837  1
  Tb  Tb3  1  0.301673  0.261580  0.563163  1
  Ho  Ho4  1  0.811258  0.138981  0.327725  1
  Ho  Ho5  1  0.811258  0.483534  0.672275  1
  Ho  Ho6  1  0.188692  0.861913  0.673220  1
  Ho  Ho7  1  0.188692  0.515470  0.326780  1
  Ho  Ho8  1  0.601828  0.780938  0.820889  1
  Ho  Ho9  1  0.960049  0.780938  0.179111  1
  Tm  Tm10  1  0.040795  0.219249  0.821545  1
  Tm  Tm11  1  0.397703  0.219249  0.178455  1
  Ga  Ga12  1  0.498728  0.498728  0.000000  1
  Ga  Ga13  1  0.499949  0.999949  0.500000  1
  Co  Co14  1  0.837540  0.499446  0.338095  1
  Co  Co15  1  0.161351  0.499446  0.661905  1
  Co  Co16  1  0.000990  0.115795  0.114805  1
  Co  Co17  1  0.000990  0.886185  0.885195  1
