# generated using pymatgen
data_Nb6AlGaC2
_symmetry_space_group_name_H-M   'P 1'
_cell_length_a   5.58699300
_cell_length_b   5.58699332
_cell_length_c   8.42686200
_cell_angle_alpha   90.00000000
_cell_angle_beta   90.00000000
_cell_angle_gamma   145.41034266
_symmetry_Int_Tables_number   1
_chemical_formula_structural   Nb6AlGaC2
_chemical_formula_sum   'Nb6 Al1 Ga1 C2'
_cell_volume   149.32665737
_cell_formula_units_Z   1
loop_
 _symmetry_equiv_pos_site_id
 _symmetry_equiv_pos_as_xyz
  1  'x, y, z'
loop_
 _atom_site_type_symbol
 _atom_site_label
 _atom_site_symmetry_multiplicity
 _atom_site_fract_x
 _atom_site_fract_y
 _atom_site_fract_z
 _atom_site_occupancy
  Nb  Nb0  1  0.631230  0.368772  0.048473  1
  Nb  Nb1  1  0.950656  0.049346  0.250000  1
  Nb  Nb2  1  0.631230  0.368772  0.451527  1
  Nb  Nb3  1  0.368346  0.631656  0.549858  1
  Nb  Nb4  1  0.051925  0.948077  0.750000  1
  Nb  Nb5  1  0.368346  0.631656  0.950143  1
  Al  Al6  1  0.252482  0.747520  0.250000  1
  Ga  Ga7  1  0.746633  0.253369  0.750000  1
  C  C8  1  0.999581  0.000419  0.998999  1
  C  C9  1  0.999581  0.000419  0.501001  1
