# generated using pymatgen
data_CsThCl5
_symmetry_space_group_name_H-M   'P 1'
_cell_length_a   7.26250500
_cell_length_b   9.99030000
_cell_length_c   13.13940800
_cell_angle_alpha   90.00000000
_cell_angle_beta   90.00000000
_cell_angle_gamma   90.00000000
_symmetry_Int_Tables_number   1
_chemical_formula_structural   CsThCl5
_chemical_formula_sum   'Cs4 Th4 Cl20'
_cell_volume   953.32454031
_cell_formula_units_Z   4
loop_
 _symmetry_equiv_pos_site_id
 _symmetry_equiv_pos_as_xyz
  1  'x, y, z'
loop_
 _atom_site_type_symbol
 _atom_site_label
 _atom_site_symmetry_multiplicity
 _atom_site_fract_x
 _atom_site_fract_y
 _atom_site_fract_z
 _atom_site_occupancy
  Cs  Cs0  1  0.250000  0.621300  0.166507  1
  Cs  Cs1  1  0.750000  0.121299  0.333493  1
  Cs  Cs2  1  0.250000  0.878701  0.666507  1
  Cs  Cs3  1  0.750000  0.378701  0.833492  1
  Th  Th4  1  0.750000  0.847735  0.989954  1
  Th  Th5  1  0.250000  0.347736  0.510045  1
  Th  Th6  1  0.750000  0.652267  0.489954  1
  Th  Th7  1  0.250000  0.152264  0.010047  1
  Cl  Cl8  1  0.000825  0.313281  0.089047  1
  Cl  Cl9  1  0.499174  0.313281  0.089047  1
  Cl  Cl10  1  0.016255  0.964282  0.122521  1
  Cl  Cl11  1  0.483745  0.964282  0.122521  1
  Cl  Cl12  1  0.750000  0.678951  0.146109  1
  Cl  Cl13  1  0.250000  0.178950  0.353892  1
  Cl  Cl14  1  0.516255  0.464284  0.377479  1
  Cl  Cl15  1  0.983745  0.464284  0.377479  1
  Cl  Cl16  1  0.500825  0.813281  0.410953  1
  Cl  Cl17  1  0.999176  0.813281  0.410953  1
  Cl  Cl18  1  0.000825  0.186720  0.589046  1
  Cl  Cl19  1  0.499174  0.186720  0.589046  1
  Cl  Cl20  1  0.016255  0.535717  0.622520  1
  Cl  Cl21  1  0.483745  0.535717  0.622520  1
  Cl  Cl22  1  0.750000  0.821048  0.646108  1
  Cl  Cl23  1  0.250000  0.321050  0.853892  1
  Cl  Cl24  1  0.516255  0.035717  0.877478  1
  Cl  Cl25  1  0.983745  0.035717  0.877478  1
  Cl  Cl26  1  0.500825  0.686720  0.910954  1
  Cl  Cl27  1  0.999176  0.686720  0.910954  1
