# generated using pymatgen
data_CePr4Nd3(CdIr)2
_symmetry_space_group_name_H-M   'P 1'
_cell_length_a   9.97845312
_cell_length_b   9.97845289
_cell_length_c   10.05784100
_cell_angle_alpha   59.73647165
_cell_angle_beta   59.73647243
_cell_angle_gamma   59.67871170
_symmetry_Int_Tables_number   1
_chemical_formula_structural   CePr4Nd3(CdIr)2
_chemical_formula_sum   'Ce2 Pr8 Nd6 Cd4 Ir4'
_cell_volume   703.58663049
_cell_formula_units_Z   2
loop_
 _symmetry_equiv_pos_site_id
 _symmetry_equiv_pos_as_xyz
  1  'x, y, z'
loop_
 _atom_site_type_symbol
 _atom_site_label
 _atom_site_symmetry_multiplicity
 _atom_site_fract_x
 _atom_site_fract_y
 _atom_site_fract_z
 _atom_site_occupancy
  Ce  Ce0  1  0.343306  0.343306  0.344476  1
  Ce  Ce1  1  0.343306  0.343306  0.968910  1
  Pr  Pr2  1  0.190785  0.190785  0.809215  1
  Pr  Pr3  1  0.809522  0.809522  0.190478  1
  Pr  Pr4  1  0.942504  0.559073  0.561630  1
  Pr  Pr5  1  0.559073  0.942504  0.936793  1
  Pr  Pr6  1  0.559073  0.942504  0.561630  1
  Pr  Pr7  1  0.942504  0.559073  0.936793  1
  Pr  Pr8  1  0.559216  0.559216  0.940784  1
  Pr  Pr9  1  0.937902  0.937902  0.562098  1
  Nd  Nd10  1  0.348590  0.953239  0.349085  1
  Nd  Nd11  1  0.953239  0.348590  0.349085  1
  Nd  Nd12  1  0.809752  0.190056  0.191095  1
  Nd  Nd13  1  0.190056  0.809752  0.809099  1
  Nd  Nd14  1  0.190056  0.809752  0.191095  1
  Nd  Nd15  1  0.809752  0.190056  0.809099  1
  Cd  Cd16  1  0.578111  0.578111  0.582758  1
  Cd  Cd17  1  0.578111  0.578111  0.261018  1
  Cd  Cd18  1  0.577158  0.261618  0.580611  1
  Cd  Cd19  1  0.261618  0.577158  0.580611  1
  Ir  Ir20  1  0.147471  0.147471  0.135122  1
  Ir  Ir21  1  0.147471  0.147471  0.569937  1
  Ir  Ir22  1  0.153445  0.567976  0.139290  1
  Ir  Ir23  1  0.567976  0.153445  0.139290  1
