# generated using pymatgen
data_Dy4Sc2CoTe2
_symmetry_space_group_name_H-M   'P 1'
_cell_length_a   8.03695200
_cell_length_b   8.19535535
_cell_length_c   3.91384100
_cell_angle_alpha   90.00000000
_cell_angle_beta   90.00000000
_cell_angle_gamma   119.36266216
_symmetry_Int_Tables_number   1
_chemical_formula_structural   Dy4Sc2CoTe2
_chemical_formula_sum   'Dy4 Sc2 Co1 Te2'
_cell_volume   224.67070276
_cell_formula_units_Z   1
loop_
 _symmetry_equiv_pos_site_id
 _symmetry_equiv_pos_as_xyz
  1  'x, y, z'
loop_
 _atom_site_type_symbol
 _atom_site_label
 _atom_site_symmetry_multiplicity
 _atom_site_fract_x
 _atom_site_fract_y
 _atom_site_fract_z
 _atom_site_occupancy
  Dy  Dy0  1  0.001935  0.399740  0.500000  1
  Dy  Dy1  1  0.602195  0.600260  0.500000  1
  Dy  Dy2  1  0.382519  0.000000  0.500000  1
  Dy  Dy3  1  0.766675  0.000000  0.000000  1
  Sc  Sc4  1  0.994539  0.768850  0.000000  1
  Sc  Sc5  1  0.225689  0.231150  0.000000  1
  Co  Co6  1  0.032119  0.000000  0.500000  1
  Te  Te7  1  0.327998  0.661666  0.000000  1
  Te  Te8  1  0.666332  0.338334  0.000000  1
