# generated using pymatgen
data_Ho4TcRu7
_symmetry_space_group_name_H-M   'P 1'
_cell_length_a   5.24578335
_cell_length_b   5.42116013
_cell_length_c   8.89637400
_cell_angle_alpha   90.00000000
_cell_angle_beta   90.00000000
_cell_angle_gamma   121.11221542
_symmetry_Int_Tables_number   1
_chemical_formula_structural   Ho4TcRu7
_chemical_formula_sum   'Ho4 Tc1 Ru7'
_cell_volume   216.60526025
_cell_formula_units_Z   1
loop_
 _symmetry_equiv_pos_site_id
 _symmetry_equiv_pos_as_xyz
  1  'x, y, z'
loop_
 _atom_site_type_symbol
 _atom_site_label
 _atom_site_symmetry_multiplicity
 _atom_site_fract_x
 _atom_site_fract_y
 _atom_site_fract_z
 _atom_site_occupancy
  Ho  Ho0  1  0.325458  0.662729  0.432373  1
  Ho  Ho1  1  0.651836  0.325917  0.565561  1
  Ho  Ho2  1  0.651836  0.325917  0.934439  1
  Ho  Ho3  1  0.325458  0.662729  0.067627  1
  Tc  Tc4  1  0.692003  0.846001  0.750000  1
  Ru  Ru5  1  0.973404  0.986702  0.500201  1
  Ru  Ru6  1  0.973404  0.986702  0.999799  1
  Ru  Ru7  1  0.838032  0.165647  0.250000  1
  Ru  Ru8  1  0.838032  0.672385  0.250000  1
  Ru  Ru9  1  0.365558  0.182779  0.250000  1
  Ru  Ru10  1  0.182490  0.822974  0.750000  1
  Ru  Ru11  1  0.182490  0.359516  0.750000  1
