# generated using pymatgen
data_Sc8Nb12Si15As
_symmetry_space_group_name_H-M   'P 1'
_cell_length_a   6.72626383
_cell_length_b   6.91478100
_cell_length_c   13.16348354
_cell_angle_alpha   89.96174633
_cell_angle_beta   90.25192424
_cell_angle_gamma   90.07853657
_symmetry_Int_Tables_number   1
_chemical_formula_structural   Sc8Nb12Si15As
_chemical_formula_sum   'Sc8 Nb12 Si15 As1'
_cell_volume   612.23543479
_cell_formula_units_Z   1
loop_
 _symmetry_equiv_pos_site_id
 _symmetry_equiv_pos_as_xyz
  1  'x, y, z'
loop_
 _atom_site_type_symbol
 _atom_site_label
 _atom_site_symmetry_multiplicity
 _atom_site_fract_x
 _atom_site_fract_y
 _atom_site_fract_z
 _atom_site_occupancy
  Sc  Sc0  1  0.498310  0.675624  0.595311  1
  Sc  Sc1  1  0.000549  0.825952  0.904237  1
  Sc  Sc2  1  0.499877  0.324915  0.094947  1
  Sc  Sc3  1  0.004025  0.176541  0.403258  1
  Sc  Sc4  1  0.499645  0.324866  0.404605  1
  Sc  Sc5  1  0.999785  0.174101  0.095372  1
  Sc  Sc6  1  0.500272  0.675059  0.904970  1
  Sc  Sc7  1  0.000282  0.824005  0.597006  1
  Nb  Nb8  1  0.659404  0.175198  0.625688  1
  Nb  Nb9  1  0.161560  0.325760  0.874974  1
  Nb  Nb10  1  0.338209  0.825536  0.125099  1
  Nb  Nb11  1  0.840456  0.670231  0.374176  1
  Nb  Nb12  1  0.338893  0.826182  0.375932  1
  Nb  Nb13  1  0.837975  0.674053  0.124912  1
  Nb  Nb14  1  0.661509  0.174815  0.874824  1
  Nb  Nb15  1  0.160186  0.326840  0.625303  1
  Nb  Nb16  1  0.836389  0.494439  0.749612  1
  Nb  Nb17  1  0.335684  0.004056  0.749740  1
  Nb  Nb18  1  0.163799  0.505525  0.250271  1
  Nb  Nb19  1  0.664736  0.995002  0.249033  1
  Si  Si20  1  0.169157  0.533039  0.039183  1
  Si  Si21  1  0.330986  0.032861  0.960365  1
  Si  Si22  1  0.830152  0.467122  0.539615  1
  Si  Si23  1  0.319549  0.034875  0.540938  1
  Si  Si24  1  0.830929  0.467378  0.960518  1
  Si  Si25  1  0.668927  0.967295  0.039502  1
  Si  Si26  1  0.170272  0.533198  0.460873  1
  Si  Si27  1  0.457103  0.385895  0.750415  1
  Si  Si28  1  0.957961  0.112970  0.750160  1
  Si  Si29  1  0.541780  0.614053  0.249845  1
  Si  Si30  1  0.042397  0.886145  0.249760  1
  Si  Si31  1  0.703478  0.861692  0.750506  1
  Si  Si32  1  0.203272  0.637208  0.750545  1
  Si  Si33  1  0.296819  0.138287  0.249560  1
  Si  Si34  1  0.797479  0.362247  0.249182  1
  As  As35  1  0.678197  0.967034  0.459763  1
