# generated using pymatgen
data_Er3Tm3TcIr
_symmetry_space_group_name_H-M   'P 1'
_cell_length_a   6.24115111
_cell_length_b   7.33748300
_cell_length_c   9.01141717
_cell_angle_alpha   90.00000000
_cell_angle_beta   90.02196652
_cell_angle_gamma   90.00000000
_symmetry_Int_Tables_number   1
_chemical_formula_structural   Er3Tm3TcIr
_chemical_formula_sum   'Er6 Tm6 Tc2 Ir2'
_cell_volume   412.67187307
_cell_formula_units_Z   2
loop_
 _symmetry_equiv_pos_site_id
 _symmetry_equiv_pos_as_xyz
  1  'x, y, z'
loop_
 _atom_site_type_symbol
 _atom_site_label
 _atom_site_symmetry_multiplicity
 _atom_site_fract_x
 _atom_site_fract_y
 _atom_site_fract_z
 _atom_site_occupancy
  Er  Er0  1  0.332261  0.675980  0.065184  1
  Er  Er1  1  0.167739  0.175980  0.434816  1
  Er  Er2  1  0.874058  0.539646  0.250005  1
  Er  Er3  1  0.625942  0.039646  0.249995  1
  Er  Er4  1  0.132386  0.459611  0.749975  1
  Er  Er5  1  0.367614  0.959611  0.750025  1
  Tm  Tm6  1  0.665656  0.324109  0.560298  1
  Tm  Tm7  1  0.834344  0.824109  0.939702  1
  Tm  Tm8  1  0.665716  0.324044  0.939711  1
  Tm  Tm9  1  0.834284  0.824044  0.560289  1
  Tm  Tm10  1  0.332306  0.675948  0.434867  1
  Tm  Tm11  1  0.167694  0.175948  0.065133  1
  Tc  Tc12  1  0.035808  0.884748  0.250006  1
  Tc  Tc13  1  0.464192  0.384748  0.249994  1
  Ir  Ir14  1  0.956012  0.115915  0.750093  1
  Ir  Ir15  1  0.543988  0.615915  0.749907  1
