# generated using pymatgen
data_Tb8Y9Lu3Sn16
_symmetry_space_group_name_H-M   'P 1'
_cell_length_a   8.01630808
_cell_length_b   8.16914610
_cell_length_c   15.47549900
_cell_angle_alpha   90.00000000
_cell_angle_beta   90.00000000
_cell_angle_gamma   90.08236914
_symmetry_Int_Tables_number   1
_chemical_formula_structural   Tb8Y9Lu3Sn16
_chemical_formula_sum   'Tb8 Y9 Lu3 Sn16'
_cell_volume   1013.43354508
_cell_formula_units_Z   1
loop_
 _symmetry_equiv_pos_site_id
 _symmetry_equiv_pos_as_xyz
  1  'x, y, z'
loop_
 _atom_site_type_symbol
 _atom_site_label
 _atom_site_symmetry_multiplicity
 _atom_site_fract_x
 _atom_site_fract_y
 _atom_site_fract_z
 _atom_site_occupancy
  Tb  Tb0  1  0.519521  0.320361  0.903446  1
  Tb  Tb1  1  0.018949  0.178986  0.596562  1
  Tb  Tb2  1  0.480568  0.679265  0.402716  1
  Tb  Tb3  1  0.980589  0.820777  0.096955  1
  Tb  Tb4  1  0.480568  0.679265  0.097284  1
  Tb  Tb5  1  0.980589  0.820777  0.403045  1
  Tb  Tb6  1  0.519521  0.320361  0.596554  1
  Tb  Tb7  1  0.018949  0.178986  0.903438  1
  Y  Y8  1  0.366078  0.837804  0.877817  1
  Y  Y9  1  0.865132  0.663046  0.622285  1
  Y  Y10  1  0.634367  0.162392  0.377342  1
  Y  Y11  1  0.134235  0.337398  0.123164  1
  Y  Y12  1  0.634367  0.162392  0.122658  1
  Y  Y13  1  0.134235  0.337398  0.376836  1
  Y  Y14  1  0.366078  0.837804  0.622183  1
  Y  Y15  1  0.865132  0.663046  0.877715  1
  Y  Y16  1  0.197111  0.502383  0.750000  1
  Lu  Lu17  1  0.697800  0.996649  0.750000  1
  Lu  Lu18  1  0.802579  0.497080  0.250000  1
  Lu  Lu19  1  0.302701  0.003050  0.250000  1
  Sn  Sn20  1  0.294246  0.037003  0.042591  1
  Sn  Sn21  1  0.794364  0.463337  0.457277  1
  Sn  Sn22  1  0.705600  0.963513  0.542390  1
  Sn  Sn23  1  0.205568  0.537040  0.958667  1
  Sn  Sn24  1  0.705600  0.963513  0.957610  1
  Sn  Sn25  1  0.205568  0.537040  0.541333  1
  Sn  Sn26  1  0.294246  0.037003  0.457409  1
  Sn  Sn27  1  0.794364  0.463337  0.042723  1
  Sn  Sn28  1  0.564016  0.619124  0.750000  1
  Sn  Sn29  1  0.062307  0.882696  0.750000  1
  Sn  Sn30  1  0.438030  0.381984  0.250000  1
  Sn  Sn31  1  0.937762  0.117406  0.250000  1
  Sn  Sn32  1  0.329727  0.147007  0.750000  1
  Sn  Sn33  1  0.827800  0.350023  0.750000  1
  Sn  Sn34  1  0.670933  0.850308  0.250000  1
  Sn  Sn35  1  0.170799  0.650446  0.250000  1
