# generated using pymatgen
data_Tb5Ho7TlCo4Os
_symmetry_space_group_name_H-M   'P 1'
_cell_length_a   8.29911065
_cell_length_b   8.30165924
_cell_length_c   8.29868033
_cell_angle_alpha   111.44469730
_cell_angle_beta   110.42914452
_cell_angle_gamma   106.56852801
_symmetry_Int_Tables_number   1
_chemical_formula_structural   Tb5Ho7TlCo4Os
_chemical_formula_sum   'Tb5 Ho7 Tl1 Co4 Os1'
_cell_volume   439.31810547
_cell_formula_units_Z   1
loop_
 _symmetry_equiv_pos_site_id
 _symmetry_equiv_pos_as_xyz
  1  'x, y, z'
loop_
 _atom_site_type_symbol
 _atom_site_label
 _atom_site_symmetry_multiplicity
 _atom_site_fract_x
 _atom_site_fract_y
 _atom_site_fract_z
 _atom_site_occupancy
  Tb  Tb0  1  0.817257  0.717577  0.534005  1
  Tb  Tb1  1  0.182389  0.282725  0.465556  1
  Tb  Tb2  1  0.183602  0.717609  0.900360  1
  Tb  Tb3  1  0.817181  0.282737  0.100397  1
  Tb  Tb4  1  0.685949  0.380097  0.694045  1
  Ho  Ho5  1  0.314424  0.621160  0.306720  1
  Ho  Ho6  1  0.685437  0.991801  0.306257  1
  Ho  Ho7  1  0.313937  0.007234  0.693214  1
  Ho  Ho8  1  0.588983  0.782996  0.806562  1
  Ho  Ho9  1  0.410623  0.217082  0.193042  1
  Ho  Ho10  1  0.976601  0.783081  0.194084  1
  Ho  Ho11  1  0.024297  0.217230  0.806591  1
  Tl  Tl12  1  0.499771  0.500183  0.000408  1
  Co  Co13  1  0.621691  0.999173  0.621635  1
  Co  Co14  1  0.377381  0.999073  0.377351  1
  Co  Co15  1  0.111721  0.611879  0.499985  1
  Co  Co16  1  0.888788  0.388455  0.499866  1
  Os  Os17  1  0.999969  0.999908  0.999924  1
