# generated using pymatgen
data_Y3Ho2SnSb2
_symmetry_space_group_name_H-M   'P 1'
_cell_length_a   8.97434918
_cell_length_b   8.96057372
_cell_length_c   6.39524300
_cell_angle_alpha   90.00000000
_cell_angle_beta   90.00000000
_cell_angle_gamma   119.94923644
_symmetry_Int_Tables_number   1
_chemical_formula_structural   Y3Ho2SnSb2
_chemical_formula_sum   'Y6 Ho4 Sn2 Sb4'
_cell_volume   445.60329089
_cell_formula_units_Z   2
loop_
 _symmetry_equiv_pos_site_id
 _symmetry_equiv_pos_as_xyz
  1  'x, y, z'
loop_
 _atom_site_type_symbol
 _atom_site_label
 _atom_site_symmetry_multiplicity
 _atom_site_fract_x
 _atom_site_fract_y
 _atom_site_fract_z
 _atom_site_occupancy
  Y  Y0  1  0.754914  0.999296  0.750000  1
  Y  Y1  1  0.754914  0.755617  0.250000  1
  Y  Y2  1  0.000902  0.244289  0.250000  1
  Y  Y3  1  0.000902  0.756614  0.750000  1
  Y  Y4  1  0.244398  0.242860  0.750000  1
  Y  Y5  1  0.244398  0.001538  0.250000  1
  Ho  Ho6  1  0.333711  0.666856  0.000000  1
  Ho  Ho7  1  0.665219  0.332610  0.500000  1
  Ho  Ho8  1  0.665219  0.332610  0.000000  1
  Ho  Ho9  1  0.333711  0.666856  0.500000  1
  Sn  Sn10  1  0.391642  0.999108  0.750000  1
  Sn  Sn11  1  0.391642  0.392534  0.250000  1
  Sb  Sb12  1  0.999425  0.609393  0.250000  1
  Sb  Sb13  1  0.999425  0.390033  0.750000  1
  Sb  Sb14  1  0.609790  0.609582  0.750000  1
  Sb  Sb15  1  0.609790  0.000208  0.250000  1
