# generated using pymatgen
data_Dy2YAl3Si2Tc
_symmetry_space_group_name_H-M   'P 1'
_cell_length_a   6.90804200
_cell_length_b   6.90804199
_cell_length_c   4.26477500
_cell_angle_alpha   90.00000000
_cell_angle_beta   90.00000000
_cell_angle_gamma   119.92297205
_symmetry_Int_Tables_number   1
_chemical_formula_structural   Dy2YAl3Si2Tc
_chemical_formula_sum   'Dy2 Y1 Al3 Si2 Tc1'
_cell_volume   176.38971684
_cell_formula_units_Z   1
loop_
 _symmetry_equiv_pos_site_id
 _symmetry_equiv_pos_as_xyz
  1  'x, y, z'
loop_
 _atom_site_type_symbol
 _atom_site_label
 _atom_site_symmetry_multiplicity
 _atom_site_fract_x
 _atom_site_fract_y
 _atom_site_fract_z
 _atom_site_occupancy
  Dy  Dy0  1  0.422523  0.999592  0.000000  1
  Dy  Dy1  1  0.999592  0.422522  0.000000  1
  Y  Y2  1  0.576094  0.576094  0.000000  1
  Al  Al3  1  0.768221  0.999439  0.500001  1
  Al  Al4  1  0.231547  0.231548  0.500001  1
  Al  Al5  1  0.999439  0.768222  0.500001  1
  Si  Si6  1  0.666615  0.332696  0.500001  1
  Si  Si7  1  0.332696  0.666616  0.500001  1
  Tc  Tc8  1  0.003271  0.003271  0.000000  1
