# generated using pymatgen
data_Pr5Dy11Cd4Ir3Pt
_symmetry_space_group_name_H-M   'P 1'
_cell_length_a   9.74673140
_cell_length_b   9.75968033
_cell_length_c   9.75967980
_cell_angle_alpha   60.12316211
_cell_angle_beta   60.07319676
_cell_angle_gamma   60.07319877
_symmetry_Int_Tables_number   1
_chemical_formula_structural   Pr5Dy11Cd4Ir3Pt
_chemical_formula_sum   'Pr5 Dy11 Cd4 Ir3 Pt1'
_cell_volume   657.80667843
_cell_formula_units_Z   1
loop_
 _symmetry_equiv_pos_site_id
 _symmetry_equiv_pos_as_xyz
  1  'x, y, z'
loop_
 _atom_site_type_symbol
 _atom_site_label
 _atom_site_symmetry_multiplicity
 _atom_site_fract_x
 _atom_site_fract_y
 _atom_site_fract_z
 _atom_site_occupancy
  Pr  Pr0  1  0.558451  0.942053  0.942053  1
  Pr  Pr1  1  0.562650  0.939393  0.559253  1
  Pr  Pr2  1  0.941630  0.559664  0.938079  1
  Pr  Pr3  1  0.562650  0.559253  0.939393  1
  Pr  Pr4  1  0.941630  0.938079  0.559664  1
  Dy  Dy5  1  0.346841  0.346928  0.346928  1
  Dy  Dy6  1  0.350229  0.352689  0.953556  1
  Dy  Dy7  1  0.350229  0.953556  0.352689  1
  Dy  Dy8  1  0.951472  0.351650  0.351650  1
  Dy  Dy9  1  0.807778  0.188232  0.188232  1
  Dy  Dy10  1  0.185212  0.812660  0.812660  1
  Dy  Dy11  1  0.187437  0.807274  0.190176  1
  Dy  Dy12  1  0.812697  0.186479  0.811408  1
  Dy  Dy13  1  0.187437  0.190176  0.807274  1
  Dy  Dy14  1  0.812697  0.811408  0.186479  1
  Dy  Dy15  1  0.944202  0.556570  0.556570  1
  Cd  Cd16  1  0.582397  0.579122  0.579122  1
  Cd  Cd17  1  0.578707  0.579431  0.262258  1
  Cd  Cd18  1  0.578707  0.262258  0.579431  1
  Cd  Cd19  1  0.259523  0.578961  0.578961  1
  Ir  Ir20  1  0.139745  0.145114  0.575176  1
  Ir  Ir21  1  0.139745  0.575176  0.145114  1
  Ir  Ir22  1  0.575273  0.141563  0.141563  1
  Pt  Pt23  1  0.142661  0.142313  0.142313  1
