# generated using pymatgen
data_Li2SmTm5(Co4P3)4
_symmetry_space_group_name_H-M   'P 1'
_cell_length_a   3.70043100
_cell_length_b   10.54671500
_cell_length_c   12.14467800
_cell_angle_alpha   90.00000000
_cell_angle_beta   90.00000000
_cell_angle_gamma   90.00000000
_symmetry_Int_Tables_number   1
_chemical_formula_structural   Li2SmTm5(Co4P3)4
_chemical_formula_sum   'Li2 Sm1 Tm5 Co16 P12'
_cell_volume   473.97509850
_cell_formula_units_Z   1
loop_
 _symmetry_equiv_pos_site_id
 _symmetry_equiv_pos_as_xyz
  1  'x, y, z'
loop_
 _atom_site_type_symbol
 _atom_site_label
 _atom_site_symmetry_multiplicity
 _atom_site_fract_x
 _atom_site_fract_y
 _atom_site_fract_z
 _atom_site_occupancy
  Li  Li0  1  0.500000  0.500000  0.151617  1
  Li  Li1  1  0.000000  0.000000  0.846310  1
  Sm  Sm2  1  0.000000  0.500000  0.523733  1
  Tm  Tm3  1  0.500000  0.000000  0.476565  1
  Tm  Tm4  1  0.500000  0.820468  0.205910  1
  Tm  Tm5  1  0.500000  0.179532  0.205910  1
  Tm  Tm6  1  0.000000  0.680307  0.794694  1
  Tm  Tm7  1  0.000000  0.319693  0.794694  1
  Co  Co8  1  0.500000  0.500000  0.707019  1
  Co  Co9  1  0.000000  0.000000  0.295635  1
  Co  Co10  1  0.000000  0.500000  0.987648  1
  Co  Co11  1  0.500000  0.000000  0.013160  1
  Co  Co12  1  0.500000  0.332398  0.997100  1
  Co  Co13  1  0.500000  0.667602  0.997100  1
  Co  Co14  1  0.000000  0.166898  0.003049  1
  Co  Co15  1  0.000000  0.833102  0.003049  1
  Co  Co16  1  0.500000  0.293790  0.430457  1
  Co  Co17  1  0.500000  0.706210  0.430457  1
  Co  Co18  1  0.000000  0.201228  0.569105  1
  Co  Co19  1  0.000000  0.798772  0.569105  1
  Co  Co20  1  0.500000  0.878986  0.707305  1
  Co  Co21  1  0.500000  0.121014  0.707305  1
  Co  Co22  1  0.000000  0.622611  0.291994  1
  Co  Co23  1  0.000000  0.377389  0.291994  1
  P  P24  1  0.500000  0.500000  0.885631  1
  P  P25  1  0.000000  0.000000  0.115695  1
  P  P26  1  0.500000  0.500000  0.343357  1
  P  P27  1  0.000000  0.000000  0.652776  1
  P  P28  1  0.500000  0.307866  0.617601  1
  P  P29  1  0.500000  0.692134  0.617601  1
  P  P30  1  0.000000  0.188563  0.383272  1
  P  P31  1  0.000000  0.811437  0.383272  1
  P  P32  1  0.500000  0.843065  0.892759  1
  P  P33  1  0.500000  0.156935  0.892759  1
  P  P34  1  0.000000  0.657907  0.107181  1
  P  P35  1  0.000000  0.342093  0.107181  1
