# generated using pymatgen
data_Dy4Al4Ru3Pt
_symmetry_space_group_name_H-M   'P 1'
_cell_length_a   4.09433000
_cell_length_b   7.00000159
_cell_length_c   8.09602760
_cell_angle_alpha   90.24754775
_cell_angle_beta   90.00000000
_cell_angle_gamma   90.00000000
_symmetry_Int_Tables_number   1
_chemical_formula_structural   Dy4Al4Ru3Pt
_chemical_formula_sum   'Dy4 Al4 Ru3 Pt1'
_cell_volume   232.03254771
_cell_formula_units_Z   1
loop_
 _symmetry_equiv_pos_site_id
 _symmetry_equiv_pos_as_xyz
  1  'x, y, z'
loop_
 _atom_site_type_symbol
 _atom_site_label
 _atom_site_symmetry_multiplicity
 _atom_site_fract_x
 _atom_site_fract_y
 _atom_site_fract_z
 _atom_site_occupancy
  Dy  Dy0  1  0.250000  0.470078  0.183405  1
  Dy  Dy1  1  0.750000  0.538928  0.818367  1
  Dy  Dy2  1  0.750000  0.028209  0.675787  1
  Dy  Dy3  1  0.250000  0.966927  0.320519  1
  Al  Al4  1  0.250000  0.855330  0.940269  1
  Al  Al5  1  0.750000  0.136451  0.064098  1
  Al  Al6  1  0.750000  0.638339  0.440471  1
  Al  Al7  1  0.250000  0.363057  0.558301  1
  Ru  Ru8  1  0.250000  0.734580  0.621535  1
  Ru  Ru9  1  0.750000  0.268534  0.378271  1
  Ru  Ru10  1  0.750000  0.769689  0.119562  1
  Pt  Pt11  1  0.250000  0.229877  0.879415  1
