# generated using pymatgen
data_NdSm(Er2Rh9)2
_symmetry_space_group_name_H-M   'P 1'
_cell_length_a   5.27333336
_cell_length_b   5.28793317
_cell_length_c   17.51228100
_cell_angle_alpha   90.00000000
_cell_angle_beta   90.00000000
_cell_angle_gamma   120.10038029
_symmetry_Int_Tables_number   1
_chemical_formula_structural   NdSm(Er2Rh9)2
_chemical_formula_sum   'Nd1 Sm1 Er4 Rh18'
_cell_volume   422.47825032
_cell_formula_units_Z   1
loop_
 _symmetry_equiv_pos_site_id
 _symmetry_equiv_pos_as_xyz
  1  'x, y, z'
loop_
 _atom_site_type_symbol
 _atom_site_label
 _atom_site_symmetry_multiplicity
 _atom_site_fract_x
 _atom_site_fract_y
 _atom_site_fract_z
 _atom_site_occupancy
  Nd  Nd0  1  0.666542  0.333059  0.250000  1
  Sm  Sm1  1  0.333544  0.667075  0.750000  1
  Er  Er2  1  0.333441  0.666858  0.541454  1
  Er  Er3  1  0.666469  0.333113  0.040915  1
  Er  Er4  1  0.666469  0.333113  0.459085  1
  Er  Er5  1  0.333441  0.666858  0.958546  1
  Rh  Rh6  1  0.166749  0.333832  0.124501  1
  Rh  Rh7  1  0.833173  0.666072  0.625018  1
  Rh  Rh8  1  0.665144  0.832052  0.124497  1
  Rh  Rh9  1  0.167020  0.832298  0.124477  1
  Rh  Rh10  1  0.833046  0.167892  0.624928  1
  Rh  Rh11  1  0.335152  0.167986  0.624855  1
  Rh  Rh12  1  0.833173  0.666072  0.874982  1
  Rh  Rh13  1  0.833046  0.167892  0.875072  1
  Rh  Rh14  1  0.335152  0.167986  0.875145  1
  Rh  Rh15  1  0.665144  0.832052  0.375503  1
  Rh  Rh16  1  0.167020  0.832298  0.375523  1
  Rh  Rh17  1  0.166749  0.333832  0.375499  1
  Rh  Rh18  1  0.999898  0.999639  0.250000  1
  Rh  Rh19  1  0.000660  0.000813  0.750000  1
  Rh  Rh20  1  0.332815  0.666018  0.250000  1
  Rh  Rh21  1  0.666614  0.333571  0.750000  1
  Rh  Rh22  1  0.999768  0.999809  0.999820  1
  Rh  Rh23  1  0.999768  0.999809  0.500180  1
