# generated using pymatgen
data_Tb5Bi2Pt
_symmetry_space_group_name_H-M   'P 1'
_cell_length_a   8.12383400
_cell_length_b   9.06514200
_cell_length_c   12.48977200
_cell_angle_alpha   90.00000000
_cell_angle_beta   90.00000000
_cell_angle_gamma   90.00000000
_symmetry_Int_Tables_number   1
_chemical_formula_structural   Tb5Bi2Pt
_chemical_formula_sum   'Tb20 Bi8 Pt4'
_cell_volume   919.79313208
_cell_formula_units_Z   4
loop_
 _symmetry_equiv_pos_site_id
 _symmetry_equiv_pos_as_xyz
  1  'x, y, z'
loop_
 _atom_site_type_symbol
 _atom_site_label
 _atom_site_symmetry_multiplicity
 _atom_site_fract_x
 _atom_site_fract_y
 _atom_site_fract_z
 _atom_site_occupancy
  Tb  Tb0  1  0.840095  0.750000  0.791052  1
  Tb  Tb1  1  0.159905  0.250000  0.208948  1
  Tb  Tb2  1  0.340095  0.250000  0.708948  1
  Tb  Tb3  1  0.659905  0.750000  0.291052  1
  Tb  Tb4  1  0.371201  0.750000  0.698454  1
  Tb  Tb5  1  0.628799  0.250000  0.301546  1
  Tb  Tb6  1  0.871201  0.250000  0.801546  1
  Tb  Tb7  1  0.128799  0.750000  0.198454  1
  Tb  Tb8  1  0.950139  0.750000  0.499792  1
  Tb  Tb9  1  0.049861  0.250000  0.500208  1
  Tb  Tb10  1  0.450139  0.250000  0.000208  1
  Tb  Tb11  1  0.549861  0.750000  0.999792  1
  Tb  Tb12  1  0.680412  0.045997  0.566495  1
  Tb  Tb13  1  0.319588  0.954003  0.433505  1
  Tb  Tb14  1  0.180412  0.954003  0.933505  1
  Tb  Tb15  1  0.319588  0.545997  0.433505  1
  Tb  Tb16  1  0.819588  0.045997  0.066495  1
  Tb  Tb17  1  0.680412  0.454003  0.566495  1
  Tb  Tb18  1  0.819588  0.454003  0.066495  1
  Tb  Tb19  1  0.180412  0.545997  0.933505  1
  Bi  Bi20  1  0.569575  0.490997  0.827123  1
  Bi  Bi21  1  0.430425  0.509003  0.172877  1
  Bi  Bi22  1  0.069575  0.509003  0.672877  1
  Bi  Bi23  1  0.430425  0.990997  0.172877  1
  Bi  Bi24  1  0.930425  0.490997  0.327123  1
  Bi  Bi25  1  0.569575  0.009003  0.827123  1
  Bi  Bi26  1  0.930425  0.009003  0.327123  1
  Bi  Bi27  1  0.069575  0.990997  0.672877  1
  Pt  Pt28  1  0.575299  0.750000  0.512013  1
  Pt  Pt29  1  0.424701  0.250000  0.487987  1
  Pt  Pt30  1  0.075299  0.250000  0.987987  1
  Pt  Pt31  1  0.924701  0.750000  0.012013  1
