# generated using pymatgen
data_ErSn6Ru3Rh
_symmetry_space_group_name_H-M   'P 1'
_cell_length_a   6.96664174
_cell_length_b   6.95263912
_cell_length_c   6.94370572
_cell_angle_alpha   120.35916068
_cell_angle_beta   120.42549024
_cell_angle_gamma   89.45456131
_symmetry_Int_Tables_number   1
_chemical_formula_structural   ErSn6Ru3Rh
_chemical_formula_sum   'Er1 Sn6 Ru3 Rh1'
_cell_volume   236.12020789
_cell_formula_units_Z   1
loop_
 _symmetry_equiv_pos_site_id
 _symmetry_equiv_pos_as_xyz
  1  'x, y, z'
loop_
 _atom_site_type_symbol
 _atom_site_label
 _atom_site_symmetry_multiplicity
 _atom_site_fract_x
 _atom_site_fract_y
 _atom_site_fract_z
 _atom_site_occupancy
  Er  Er0  1  0.996618  0.004272  0.000000  1
  Sn  Sn1  1  0.877484  0.534582  0.000000  1
  Sn  Sn2  1  0.536900  0.879600  0.000000  1
  Sn  Sn3  1  0.120966  0.114856  0.649877  1
  Sn  Sn4  1  0.002402  0.501059  0.497997  1
  Sn  Sn5  1  0.471090  0.464980  0.350123  1
  Sn  Sn6  1  0.504405  0.003062  0.502003  1
  Ru  Ru7  1  0.400006  0.401497  0.651136  1
  Ru  Ru8  1  0.597643  0.247229  0.000000  1
  Ru  Ru9  1  0.748869  0.750361  0.348864  1
  Rh  Rh10  1  0.243618  0.598503  0.000000  1
