# generated using pymatgen
data_Ho20Ir5RuRh6
_symmetry_space_group_name_H-M   'P 1'
_cell_length_a   10.80659132
_cell_length_b   10.80435532
_cell_length_c   6.37578100
_cell_angle_alpha   90.00067186
_cell_angle_beta   90.00013167
_cell_angle_gamma   90.05659865
_symmetry_Int_Tables_number   1
_chemical_formula_structural   Ho20Ir5RuRh6
_chemical_formula_sum   'Ho20 Ir5 Ru1 Rh6'
_cell_volume   744.42468386
_cell_formula_units_Z   1
loop_
 _symmetry_equiv_pos_site_id
 _symmetry_equiv_pos_as_xyz
  1  'x, y, z'
loop_
 _atom_site_type_symbol
 _atom_site_label
 _atom_site_symmetry_multiplicity
 _atom_site_fract_x
 _atom_site_fract_y
 _atom_site_fract_z
 _atom_site_occupancy
  Ho  Ho0  1  0.292345  0.087148  0.375146  1
  Ho  Ho1  1  0.292791  0.911307  0.881200  1
  Ho  Ho2  1  0.706595  0.088404  0.880640  1
  Ho  Ho3  1  0.707028  0.911599  0.375377  1
  Ho  Ho4  1  0.586435  0.792067  0.881300  1
  Ho  Ho5  1  0.586400  0.208564  0.376583  1
  Ho  Ho6  1  0.412319  0.791651  0.376519  1
  Ho  Ho7  1  0.413547  0.207913  0.881087  1
  Ho  Ho8  1  0.210226  0.412312  0.621126  1
  Ho  Ho9  1  0.209984  0.588568  0.120844  1
  Ho  Ho10  1  0.789778  0.412749  0.120779  1
  Ho  Ho11  1  0.789813  0.587694  0.621341  1
  Ho  Ho12  1  0.911870  0.709371  0.122192  1
  Ho  Ho13  1  0.910239  0.291143  0.621868  1
  Ho  Ho14  1  0.090047  0.709480  0.621284  1
  Ho  Ho15  1  0.089457  0.291270  0.121878  1
  Ho  Ho16  1  0.000191  0.999751  0.499144  1
  Ho  Ho17  1  0.000245  0.999811  0.999166  1
  Ho  Ho18  1  0.499938  0.499863  0.999115  1
  Ho  Ho19  1  0.500160  0.500013  0.499010  1
  Ir  Ir20  1  0.152283  0.846210  0.250314  1
  Ir  Ir21  1  0.654502  0.346479  0.749832  1
  Ir  Ir22  1  0.655038  0.653388  0.250213  1
  Ir  Ir23  1  0.345050  0.346466  0.250316  1
  Ir  Ir24  1  0.346030  0.653029  0.749780  1
  Ru  Ru25  1  0.500443  0.000217  0.124427  1
  Rh  Rh26  1  0.847700  0.153797  0.250335  1
  Rh  Rh27  1  0.847260  0.846632  0.749707  1
  Rh  Rh28  1  0.152307  0.153756  0.750072  1
  Rh  Rh29  1  0.500357  0.000176  0.623272  1
  Rh  Rh30  1  0.999835  0.499642  0.877787  1
  Rh  Rh31  1  0.999785  0.499530  0.378356  1
