# generated using pymatgen
data_Li8Nd8PdPt7
_symmetry_space_group_name_H-M   'P 1'
_cell_length_a   4.11062900
_cell_length_b   7.41421223
_cell_length_c   16.92323000
_cell_angle_alpha   89.67235363
_cell_angle_beta   90.00000000
_cell_angle_gamma   90.00000000
_symmetry_Int_Tables_number   1
_chemical_formula_structural   Li8Nd8PdPt7
_chemical_formula_sum   'Li8 Nd8 Pd1 Pt7'
_cell_volume   515.76213019
_cell_formula_units_Z   1
loop_
 _symmetry_equiv_pos_site_id
 _symmetry_equiv_pos_as_xyz
  1  'x, y, z'
loop_
 _atom_site_type_symbol
 _atom_site_label
 _atom_site_symmetry_multiplicity
 _atom_site_fract_x
 _atom_site_fract_y
 _atom_site_fract_z
 _atom_site_occupancy
  Li  Li0  1  0.250000  0.626256  0.351666  1
  Li  Li1  1  0.750000  0.374155  0.649712  1
  Li  Li2  1  0.750000  0.873839  0.851333  1
  Li  Li3  1  0.250000  0.126264  0.148450  1
  Li  Li4  1  0.250000  0.489846  0.058867  1
  Li  Li5  1  0.750000  0.510515  0.941390  1
  Li  Li6  1  0.750000  0.006690  0.558992  1
  Li  Li7  1  0.250000  0.988488  0.440996  1
  Nd  Nd8  1  0.250000  0.555258  0.786399  1
  Nd  Nd9  1  0.750000  0.445149  0.213288  1
  Nd  Nd10  1  0.750000  0.943619  0.286700  1
  Nd  Nd11  1  0.250000  0.053132  0.715045  1
  Nd  Nd12  1  0.250000  0.665123  0.562715  1
  Nd  Nd13  1  0.750000  0.339080  0.435049  1
  Nd  Nd14  1  0.750000  0.837835  0.062884  1
  Nd  Nd15  1  0.250000  0.162916  0.937254  1
  Pd  Pd16  1  0.250000  0.253491  0.559872  1
  Pt  Pt17  1  0.250000  0.744052  0.189637  1
  Pt  Pt18  1  0.750000  0.255920  0.809502  1
  Pt  Pt19  1  0.750000  0.757094  0.688885  1
  Pt  Pt20  1  0.250000  0.244112  0.311483  1
  Pt  Pt21  1  0.250000  0.753660  0.939749  1
  Pt  Pt22  1  0.750000  0.246779  0.059842  1
  Pt  Pt23  1  0.750000  0.746729  0.440292  1
