# generated using pymatgen
data_Zr3Ti3Al2(Ga2Pt3)2
_symmetry_space_group_name_H-M   'P 1'
_cell_length_a   7.10789157
_cell_length_b   7.14438989
_cell_length_c   6.99128548
_cell_angle_alpha   90.14968517
_cell_angle_beta   89.95959521
_cell_angle_gamma   120.13887589
_symmetry_Int_Tables_number   1
_chemical_formula_structural   Zr3Ti3Al2(Ga2Pt3)2
_chemical_formula_sum   'Zr3 Ti3 Al2 Ga4 Pt6'
_cell_volume   307.03123851
_cell_formula_units_Z   1
loop_
 _symmetry_equiv_pos_site_id
 _symmetry_equiv_pos_as_xyz
  1  'x, y, z'
loop_
 _atom_site_type_symbol
 _atom_site_label
 _atom_site_symmetry_multiplicity
 _atom_site_fract_x
 _atom_site_fract_y
 _atom_site_fract_z
 _atom_site_occupancy
  Zr  Zr0  1  0.593858  0.995840  0.250563  1
  Zr  Zr1  1  0.001594  0.594662  0.251076  1
  Zr  Zr2  1  0.404468  0.403524  0.250411  1
  Ti  Ti3  1  0.381035  0.382257  0.749027  1
  Ti  Ti4  1  0.999858  0.615891  0.748881  1
  Ti  Ti5  1  0.619141  0.001341  0.749336  1
  Al  Al6  1  0.261938  0.997569  0.990015  1
  Al  Al7  1  0.738129  0.735761  0.989880  1
  Ga  Ga8  1  0.999958  0.270358  0.991604  1
  Ga  Ga9  1  0.725791  0.724608  0.508322  1
  Ga  Ga10  1  0.274607  0.998770  0.508575  1
  Ga  Ga11  1  0.999635  0.274328  0.508063  1
  Pt  Pt12  1  0.660266  0.334108  0.967548  1
  Pt  Pt13  1  0.000102  0.999145  0.744917  1
  Pt  Pt14  1  0.666008  0.333700  0.534975  1
  Pt  Pt15  1  0.333836  0.667384  0.537553  1
  Pt  Pt16  1  0.339541  0.673541  0.965427  1
  Pt  Pt17  1  0.000236  0.997213  0.253828  1
