# generated using pymatgen
data_Nd16Dy4Si15P
_symmetry_space_group_name_H-M   'P 1'
_cell_length_a   7.80979757
_cell_length_b   7.81405863
_cell_length_c   15.33672000
_cell_angle_alpha   89.95411386
_cell_angle_beta   89.87173032
_cell_angle_gamma   90.11264000
_symmetry_Int_Tables_number   1
_chemical_formula_structural   Nd16Dy4Si15P
_chemical_formula_sum   'Nd16 Dy4 Si15 P1'
_cell_volume   935.93753203
_cell_formula_units_Z   1
loop_
 _symmetry_equiv_pos_site_id
 _symmetry_equiv_pos_as_xyz
  1  'x, y, z'
loop_
 _atom_site_type_symbol
 _atom_site_label
 _atom_site_symmetry_multiplicity
 _atom_site_fract_x
 _atom_site_fract_y
 _atom_site_fract_z
 _atom_site_occupancy
  Nd  Nd0  1  0.382008  0.011410  0.442611  1
  Nd  Nd1  1  0.486184  0.880638  0.694481  1
  Nd  Nd2  1  0.512951  0.120159  0.193983  1
  Nd  Nd3  1  0.879471  0.486798  0.305501  1
  Nd  Nd4  1  0.122402  0.510154  0.805355  1
  Nd  Nd5  1  0.620101  0.986696  0.943157  1
  Nd  Nd6  1  0.012622  0.378101  0.556488  1
  Nd  Nd7  1  0.986895  0.619066  0.055671  1
  Nd  Nd8  1  0.127671  0.979490  0.876313  1
  Nd  Nd9  1  0.523214  0.625260  0.127661  1
  Nd  Nd10  1  0.472273  0.371525  0.629480  1
  Nd  Nd11  1  0.624817  0.523106  0.870867  1
  Nd  Nd12  1  0.373832  0.474761  0.372970  1
  Nd  Nd13  1  0.876810  0.023873  0.379104  1
  Nd  Nd14  1  0.976249  0.124674  0.121591  1
  Nd  Nd15  1  0.027286  0.880773  0.622777  1
  Dy  Dy16  1  0.309135  0.308977  0.999765  1
  Dy  Dy17  1  0.190781  0.807688  0.250265  1
  Dy  Dy18  1  0.807629  0.191555  0.749826  1
  Dy  Dy19  1  0.690932  0.691208  0.500102  1
  Si  Si20  1  0.326411  0.687716  0.957528  1
  Si  Si21  1  0.673240  0.313602  0.459493  1
  Si  Si22  1  0.687806  0.327764  0.041502  1
  Si  Si23  1  0.312754  0.672581  0.542690  1
  Si  Si24  1  0.813057  0.827342  0.208586  1
  Si  Si25  1  0.172905  0.186933  0.291274  1
  Si  Si26  1  0.829558  0.812480  0.791236  1
  Si  Si27  1  0.285351  0.920777  0.062698  1
  Si  Si28  1  0.579314  0.784852  0.313052  1
  Si  Si29  1  0.424700  0.213541  0.814901  1
  Si  Si30  1  0.787068  0.579763  0.685728  1
  Si  Si31  1  0.213587  0.421298  0.186749  1
  Si  Si32  1  0.711599  0.077672  0.563639  1
  Si  Si33  1  0.922023  0.286410  0.936569  1
  Si  Si34  1  0.078451  0.713359  0.437793  1
  P  P35  1  0.178912  0.177997  0.708597  1
