# generated using pymatgen
data_Y12Th4Mg4Fe3Co
_symmetry_space_group_name_H-M   'P 1'
_cell_length_a   9.66260832
_cell_length_b   9.68414669
_cell_length_c   9.68414800
_cell_angle_alpha   60.00000237
_cell_angle_beta   59.92623876
_cell_angle_gamma   59.92623994
_symmetry_Int_Tables_number   1
_chemical_formula_structural   Y12Th4Mg4Fe3Co
_chemical_formula_sum   'Y12 Th4 Mg4 Fe3 Co1'
_cell_volume   640.05466979
_cell_formula_units_Z   1
loop_
 _symmetry_equiv_pos_site_id
 _symmetry_equiv_pos_as_xyz
  1  'x, y, z'
loop_
 _atom_site_type_symbol
 _atom_site_label
 _atom_site_symmetry_multiplicity
 _atom_site_fract_x
 _atom_site_fract_y
 _atom_site_fract_z
 _atom_site_occupancy
  Y  Y0  1  0.813896  0.187074  0.187074  1
  Y  Y1  1  0.186363  0.813291  0.813291  1
  Y  Y2  1  0.186363  0.813291  0.187055  1
  Y  Y3  1  0.813896  0.187074  0.811957  1
  Y  Y4  1  0.186363  0.187055  0.813291  1
  Y  Y5  1  0.813896  0.811957  0.187074  1
  Y  Y6  1  0.936361  0.563060  0.563060  1
  Y  Y7  1  0.561382  0.937281  0.937281  1
  Y  Y8  1  0.561382  0.937281  0.564057  1
  Y  Y9  1  0.936361  0.563060  0.937519  1
  Y  Y10  1  0.561382  0.564057  0.937281  1
  Y  Y11  1  0.936361  0.937519  0.563060  1
  Th  Th12  1  0.341205  0.344276  0.344276  1
  Th  Th13  1  0.341205  0.344276  0.970245  1
  Th  Th14  1  0.341205  0.970245  0.344276  1
  Th  Th15  1  0.972289  0.342571  0.342571  1
  Mg  Mg16  1  0.579078  0.579488  0.579488  1
  Mg  Mg17  1  0.579078  0.579488  0.261945  1
  Mg  Mg18  1  0.579078  0.261945  0.579488  1
  Mg  Mg19  1  0.261450  0.579516  0.579516  1
  Fe  Fe20  1  0.148148  0.145047  0.145047  1
  Fe  Fe21  1  0.148148  0.145047  0.561757  1
  Fe  Fe22  1  0.148148  0.561757  0.145047  1
  Co  Co23  1  0.566963  0.144345  0.144345  1
