# generated using pymatgen
data_La8MgHgOsPt
_symmetry_space_group_name_H-M   'P 1'
_cell_length_a   10.15586667
_cell_length_b   10.15586457
_cell_length_c   10.24782800
_cell_angle_alpha   59.69999491
_cell_angle_beta   59.70000181
_cell_angle_gamma   59.68511806
_symmetry_Int_Tables_number   1
_chemical_formula_structural   La8MgHgOsPt
_chemical_formula_sum   'La16 Mg2 Hg2 Os2 Pt2'
_cell_volume   742.21838411
_cell_formula_units_Z   2
loop_
 _symmetry_equiv_pos_site_id
 _symmetry_equiv_pos_as_xyz
  1  'x, y, z'
loop_
 _atom_site_type_symbol
 _atom_site_label
 _atom_site_symmetry_multiplicity
 _atom_site_fract_x
 _atom_site_fract_y
 _atom_site_fract_z
 _atom_site_occupancy
  La  La0  1  0.346615  0.346615  0.354501  1
  La  La1  1  0.346615  0.346615  0.952269  1
  La  La2  1  0.341903  0.963264  0.347417  1
  La  La3  1  0.963264  0.341903  0.347417  1
  La  La4  1  0.816606  0.188366  0.190609  1
  La  La5  1  0.188366  0.816606  0.804420  1
  La  La6  1  0.188366  0.816606  0.190609  1
  La  La7  1  0.816606  0.188366  0.804420  1
  La  La8  1  0.190224  0.190224  0.809776  1
  La  La9  1  0.808092  0.808092  0.191908  1
  La  La10  1  0.940830  0.555426  0.564903  1
  La  La11  1  0.555426  0.940830  0.938842  1
  La  La12  1  0.555426  0.940830  0.564903  1
  La  La13  1  0.940830  0.555426  0.938842  1
  La  La14  1  0.562714  0.562714  0.937286  1
  La  La15  1  0.940362  0.940362  0.559638  1
  Mg  Mg16  1  0.574544  0.574544  0.578751  1
  Mg  Mg17  1  0.574544  0.574544  0.272161  1
  Hg  Hg18  1  0.586639  0.251443  0.580960  1
  Hg  Hg19  1  0.251443  0.586639  0.580960  1
  Os  Os20  1  0.143596  0.143596  0.136474  1
  Os  Os21  1  0.143596  0.143596  0.576333  1
  Pt  Pt22  1  0.146914  0.576484  0.138300  1
  Pt  Pt23  1  0.576484  0.146914  0.138300  1
