# generated using pymatgen
data_LuZr2SnF15
_symmetry_space_group_name_H-M   'P 1'
_cell_length_a   8.06458968
_cell_length_b   8.06458904
_cell_length_c   8.08538500
_cell_angle_alpha   79.92879650
_cell_angle_beta   79.92879730
_cell_angle_gamma   99.81567446
_symmetry_Int_Tables_number   1
_chemical_formula_structural   LuZr2SnF15
_chemical_formula_sum   'Lu2 Zr4 Sn2 F30'
_cell_volume   498.68876416
_cell_formula_units_Z   2
loop_
 _symmetry_equiv_pos_site_id
 _symmetry_equiv_pos_as_xyz
  1  'x, y, z'
loop_
 _atom_site_type_symbol
 _atom_site_label
 _atom_site_symmetry_multiplicity
 _atom_site_fract_x
 _atom_site_fract_y
 _atom_site_fract_z
 _atom_site_occupancy
  Lu  Lu0  1  0.677403  0.322597  0.750000  1
  Lu  Lu1  1  0.322597  0.677403  0.250000  1
  Zr  Zr2  1  0.821792  0.749214  0.325530  1
  Zr  Zr3  1  0.250786  0.178208  0.174470  1
  Zr  Zr4  1  0.178208  0.250786  0.674470  1
  Zr  Zr5  1  0.749214  0.821792  0.825530  1
  Sn  Sn6  1  0.250272  0.749728  0.750000  1
  Sn  Sn7  1  0.749728  0.250272  0.250000  1
  F  F8  1  0.149061  0.183328  0.947892  1
  F  F9  1  0.684752  0.559058  0.848200  1
  F  F10  1  0.044166  0.653918  0.315225  1
  F  F11  1  0.653918  0.044166  0.815225  1
  F  F12  1  0.559058  0.684752  0.348200  1
  F  F13  1  0.183328  0.149061  0.447892  1
  F  F14  1  0.850939  0.816672  0.052108  1
  F  F15  1  0.315248  0.440942  0.151800  1
  F  F16  1  0.955834  0.346082  0.684775  1
  F  F17  1  0.346082  0.955834  0.184775  1
  F  F18  1  0.440942  0.315248  0.651800  1
  F  F19  1  0.816672  0.850939  0.552108  1
  F  F20  1  0.968727  0.031273  0.750000  1
  F  F21  1  0.540276  0.752635  0.030014  1
  F  F22  1  0.247365  0.459724  0.469986  1
  F  F23  1  0.459724  0.247365  0.969986  1
  F  F24  1  0.752635  0.540276  0.530014  1
  F  F25  1  0.031273  0.968727  0.250000  1
  F  F26  1  0.216137  0.727562  0.002230  1
  F  F27  1  0.225855  0.493473  0.786143  1
  F  F28  1  0.993316  0.715700  0.775072  1
  F  F29  1  0.715700  0.993316  0.275072  1
  F  F30  1  0.493473  0.225855  0.286143  1
  F  F31  1  0.727562  0.216137  0.502230  1
  F  F32  1  0.783863  0.272438  0.997770  1
  F  F33  1  0.774145  0.506527  0.213857  1
  F  F34  1  0.006684  0.284300  0.224928  1
  F  F35  1  0.284300  0.006684  0.724928  1
  F  F36  1  0.506527  0.774145  0.713857  1
  F  F37  1  0.272438  0.783863  0.497770  1
