# generated using pymatgen
data_Cs4MnCr7S16
_symmetry_space_group_name_H-M   'P 1'
_cell_length_a   5.95814805
_cell_length_b   6.89488327
_cell_length_c   16.69366800
_cell_angle_alpha   90.08886609
_cell_angle_beta   89.90578834
_cell_angle_gamma   90.03070989
_symmetry_Int_Tables_number   1
_chemical_formula_structural   Cs4MnCr7S16
_chemical_formula_sum   'Cs4 Mn1 Cr7 S16'
_cell_volume   685.78630788
_cell_formula_units_Z   1
loop_
 _symmetry_equiv_pos_site_id
 _symmetry_equiv_pos_as_xyz
  1  'x, y, z'
loop_
 _atom_site_type_symbol
 _atom_site_label
 _atom_site_symmetry_multiplicity
 _atom_site_fract_x
 _atom_site_fract_y
 _atom_site_fract_z
 _atom_site_occupancy
  Cs  Cs0  1  0.363342  0.998011  0.998996  1
  Cs  Cs1  1  0.636658  0.501989  0.501004  1
  Cs  Cs2  1  0.033931  0.997812  0.500905  1
  Cs  Cs3  1  0.966069  0.502188  0.999095  1
  Mn  Mn4  1  0.500000  0.250000  0.250000  1
  Cr  Cr5  1  0.003480  0.000376  0.250729  1
  Cr  Cr6  1  0.007671  0.001375  0.748945  1
  Cr  Cr7  1  0.996520  0.499624  0.249271  1
  Cr  Cr8  1  0.992329  0.498625  0.751055  1
  Cr  Cr9  1  0.500000  0.750000  0.750000  1
  Cr  Cr10  1  0.500000  0.750000  0.250000  1
  Cr  Cr11  1  0.500000  0.250000  0.750000  1
  S  S12  1  0.827149  0.250455  0.328826  1
  S  S13  1  0.834263  0.750213  0.671041  1
  S  S14  1  0.162852  0.749824  0.170683  1
  S  S15  1  0.166931  0.250733  0.829709  1
  S  S16  1  0.172851  0.249545  0.171174  1
  S  S17  1  0.165737  0.749787  0.828959  1
  S  S18  1  0.837148  0.750176  0.329317  1
  S  S19  1  0.833069  0.249267  0.670291  1
  S  S20  1  0.670403  0.003185  0.172057  1
  S  S21  1  0.673851  0.000381  0.828299  1
  S  S22  1  0.329597  0.496815  0.327943  1
  S  S23  1  0.326149  0.499619  0.671701  1
  S  S24  1  0.340504  0.003985  0.328623  1
  S  S25  1  0.339791  0.999726  0.670181  1
  S  S26  1  0.659496  0.496015  0.171377  1
  S  S27  1  0.660209  0.500274  0.829819  1
