# generated using pymatgen
data_LaTh(Al5Re)4
_symmetry_space_group_name_H-M   'P 1'
_cell_length_a   6.95510531
_cell_length_b   6.95510408
_cell_length_c   9.27576100
_cell_angle_alpha   90.00000000
_cell_angle_beta   90.00000000
_cell_angle_gamma   96.83280984
_symmetry_Int_Tables_number   1
_chemical_formula_structural   LaTh(Al5Re)4
_chemical_formula_sum   'La1 Th1 Al20 Re4'
_cell_volume   445.51397277
_cell_formula_units_Z   1
loop_
 _symmetry_equiv_pos_site_id
 _symmetry_equiv_pos_as_xyz
  1  'x, y, z'
loop_
 _atom_site_type_symbol
 _atom_site_label
 _atom_site_symmetry_multiplicity
 _atom_site_fract_x
 _atom_site_fract_y
 _atom_site_fract_z
 _atom_site_occupancy
  La  La0  1  0.125790  0.874210  0.250000  1
  Th  Th1  1  0.871028  0.128972  0.750000  1
  Al  Al2  1  0.406254  0.138036  0.750000  1
  Al  Al3  1  0.136557  0.401874  0.250000  1
  Al  Al4  1  0.598126  0.863443  0.250000  1
  Al  Al5  1  0.861964  0.593746  0.750000  1
  Al  Al6  1  0.521405  0.781007  0.750000  1
  Al  Al7  1  0.783482  0.525355  0.250000  1
  Al  Al8  1  0.474645  0.216518  0.250000  1
  Al  Al9  1  0.218993  0.478595  0.750000  1
  Al  Al10  1  0.840900  0.159100  0.400811  1
  Al  Al11  1  0.156317  0.843683  0.599886  1
  Al  Al12  1  0.840900  0.159100  0.099189  1
  Al  Al13  1  0.156317  0.843683  0.900114  1
  Al  Al14  1  0.621657  0.378343  0.544974  1
  Al  Al15  1  0.377499  0.622501  0.463632  1
  Al  Al16  1  0.621657  0.378343  0.955026  1
  Al  Al17  1  0.377499  0.622501  0.036368  1
  Al  Al18  1  0.774388  0.772464  0.999405  1
  Al  Al19  1  0.774388  0.772464  0.500595  1
  Al  Al20  1  0.227536  0.225612  0.999405  1
  Al  Al21  1  0.227536  0.225612  0.500595  1
  Re  Re22  1  0.502525  0.999942  0.998804  1
  Re  Re23  1  0.000058  0.497475  0.998804  1
  Re  Re24  1  0.502525  0.999942  0.501196  1
  Re  Re25  1  0.000058  0.497475  0.501196  1
