# generated using pymatgen
data_Ac8Lu11ScSi15Ru
_symmetry_space_group_name_H-M   'P 1'
_cell_length_a   7.58818621
_cell_length_b   7.98935969
_cell_length_c   14.82014500
_cell_angle_alpha   90.00000000
_cell_angle_beta   90.00000000
_cell_angle_gamma   89.97603127
_symmetry_Int_Tables_number   1
_chemical_formula_structural   Ac8Lu11ScSi15Ru
_chemical_formula_sum   'Ac8 Lu11 Sc1 Si15 Ru1'
_cell_volume   898.46749272
_cell_formula_units_Z   1
loop_
 _symmetry_equiv_pos_site_id
 _symmetry_equiv_pos_as_xyz
  1  'x, y, z'
loop_
 _atom_site_type_symbol
 _atom_site_label
 _atom_site_symmetry_multiplicity
 _atom_site_fract_x
 _atom_site_fract_y
 _atom_site_fract_z
 _atom_site_occupancy
  Ac  Ac0  1  0.014383  0.175266  0.099065  1
  Ac  Ac1  1  0.986569  0.828789  0.900367  1
  Ac  Ac2  1  0.484423  0.670985  0.903538  1
  Ac  Ac3  1  0.986569  0.828789  0.599633  1
  Ac  Ac4  1  0.512325  0.329772  0.096989  1
  Ac  Ac5  1  0.014383  0.175266  0.400935  1
  Ac  Ac6  1  0.512325  0.329772  0.403011  1
  Ac  Ac7  1  0.484423  0.670985  0.596462  1
  Lu  Lu8  1  0.144810  0.481267  0.750000  1
  Lu  Lu9  1  0.847378  0.502967  0.250000  1
  Lu  Lu10  1  0.659900  0.007001  0.750000  1
  Lu  Lu11  1  0.311503  0.170057  0.626328  1
  Lu  Lu12  1  0.680186  0.833102  0.372354  1
  Lu  Lu13  1  0.182649  0.675921  0.374083  1
  Lu  Lu14  1  0.680186  0.833102  0.127646  1
  Lu  Lu15  1  0.831408  0.313869  0.626791  1
  Lu  Lu16  1  0.311503  0.170057  0.873672  1
  Lu  Lu17  1  0.831408  0.313869  0.873209  1
  Lu  Lu18  1  0.182649  0.675921  0.125917  1
  Sc  Sc19  1  0.347478  0.001154  0.250000  1
  Si  Si20  1  0.984094  0.866894  0.250000  1
  Si  Si21  1  0.479532  0.635002  0.250000  1
  Si  Si22  1  0.524048  0.376339  0.750000  1
  Si  Si23  1  0.285212  0.886676  0.750000  1
  Si  Si24  1  0.700992  0.124796  0.250000  1
  Si  Si25  1  0.210078  0.379626  0.250000  1
  Si  Si26  1  0.775724  0.607249  0.750000  1
  Si  Si27  1  0.145559  0.469324  0.537839  1
  Si  Si28  1  0.857263  0.538857  0.460321  1
  Si  Si29  1  0.356724  0.964997  0.457843  1
  Si  Si30  1  0.857263  0.538857  0.039679  1
  Si  Si31  1  0.642672  0.033500  0.538095  1
  Si  Si32  1  0.145559  0.469324  0.962161  1
  Si  Si33  1  0.642672  0.033500  0.961905  1
  Si  Si34  1  0.356724  0.964997  0.042157  1
  Ru  Ru35  1  0.029422  0.122145  0.750000  1
