# generated using pymatgen
data_CuBi6(IrO9)2
_symmetry_space_group_name_H-M   'P 1'
_cell_length_a   9.24358800
_cell_length_b   9.24358674
_cell_length_c   5.19456200
_cell_angle_alpha   90.00000000
_cell_angle_beta   90.00000000
_cell_angle_gamma   119.99999926
_symmetry_Int_Tables_number   1
_chemical_formula_structural   CuBi6(IrO9)2
_chemical_formula_sum   'Cu1 Bi6 Ir2 O18'
_cell_volume   384.37990067
_cell_formula_units_Z   1
loop_
 _symmetry_equiv_pos_site_id
 _symmetry_equiv_pos_as_xyz
  1  'x, y, z'
loop_
 _atom_site_type_symbol
 _atom_site_label
 _atom_site_symmetry_multiplicity
 _atom_site_fract_x
 _atom_site_fract_y
 _atom_site_fract_z
 _atom_site_occupancy
  Cu  Cu0  1  0.666667  0.333333  0.998730  1
  Bi  Bi1  1  0.986623  0.372133  0.501090  1
  Bi  Bi2  1  0.299463  0.291513  0.001904  1
  Bi  Bi3  1  0.992049  0.700537  0.001904  1
  Bi  Bi4  1  0.627867  0.614491  0.501090  1
  Bi  Bi5  1  0.385509  0.013377  0.501090  1
  Bi  Bi6  1  0.708487  0.007951  0.001904  1
  Ir  Ir7  1  0.000000  0.000000  0.504174  1
  Ir  Ir8  1  0.333333  0.666667  0.003237  1
  O  O9  1  0.082477  0.198286  0.712856  1
  O  O10  1  0.228298  0.466880  0.214488  1
  O  O11  1  0.135269  0.596242  0.785807  1
  O  O12  1  0.403758  0.539027  0.785807  1
  O  O13  1  0.238583  0.771702  0.214488  1
  O  O14  1  0.115809  0.917523  0.712856  1
  O  O15  1  0.533120  0.761417  0.214488  1
  O  O16  1  0.199784  0.078729  0.284933  1
  O  O17  1  0.460973  0.864731  0.785807  1
  O  O18  1  0.801714  0.884191  0.712856  1
  O  O19  1  0.459224  0.226350  0.778289  1
  O  O20  1  0.593822  0.131470  0.218586  1
  O  O21  1  0.537648  0.406178  0.218586  1
  O  O22  1  0.773650  0.232874  0.778289  1
  O  O23  1  0.921271  0.121055  0.284933  1
  O  O24  1  0.767126  0.540776  0.778289  1
  O  O25  1  0.868530  0.462352  0.218586  1
  O  O26  1  0.878945  0.800216  0.284933  1
