# generated using pymatgen
data_Er2TmLu(Co3Si5)2
_symmetry_space_group_name_H-M   'P 1'
_cell_length_a   7.80958734
_cell_length_b   7.80905717
_cell_length_c   5.47185890
_cell_angle_alpha   70.85380933
_cell_angle_beta   70.84284091
_cell_angle_gamma   93.46502934
_symmetry_Int_Tables_number   1
_chemical_formula_structural   Er2TmLu(Co3Si5)2
_chemical_formula_sum   'Er2 Tm1 Lu1 Co6 Si10'
_cell_volume   292.45831457
_cell_formula_units_Z   1
loop_
 _symmetry_equiv_pos_site_id
 _symmetry_equiv_pos_as_xyz
  1  'x, y, z'
loop_
 _atom_site_type_symbol
 _atom_site_label
 _atom_site_symmetry_multiplicity
 _atom_site_fract_x
 _atom_site_fract_y
 _atom_site_fract_z
 _atom_site_occupancy
  Er  Er0  1  0.129876  0.404041  0.736228  1
  Er  Er1  1  0.595910  0.870184  0.763685  1
  Tm  Tm2  1  0.869933  0.595854  0.264638  1
  Lu  Lu3  1  0.404245  0.129956  0.235191  1
  Co  Co4  1  0.997177  0.002909  0.749984  1
  Co  Co5  1  0.539712  0.261945  0.625894  1
  Co  Co6  1  0.262283  0.540152  0.125613  1
  Co  Co7  1  0.459742  0.738253  0.374253  1
  Co  Co8  1  0.003537  0.996738  0.249961  1
  Co  Co9  1  0.737574  0.459769  0.874722  1
  Si  Si10  1  0.771389  0.228247  0.250070  1
  Si  Si11  1  0.227694  0.772547  0.749788  1
  Si  Si12  1  0.511480  0.488049  0.250061  1
  Si  Si13  1  0.488572  0.511258  0.750081  1
  Si  Si14  1  0.213271  0.787098  0.250049  1
  Si  Si15  1  0.786568  0.213340  0.749989  1
  Si  Si16  1  0.737519  0.933686  0.165990  1
  Si  Si17  1  0.933544  0.737139  0.666399  1
  Si  Si18  1  0.263110  0.066616  0.833472  1
  Si  Si19  1  0.066864  0.262221  0.333933  1
