# generated using pymatgen
data_PrFeP3Ir4
_symmetry_space_group_name_H-M   'P 1'
_cell_length_a   3.97322100
_cell_length_b   10.79452500
_cell_length_c   12.47149200
_cell_angle_alpha   90.00000000
_cell_angle_beta   90.00000000
_cell_angle_gamma   90.00000000
_symmetry_Int_Tables_number   1
_chemical_formula_structural   PrFeP3Ir4
_chemical_formula_sum   'Pr4 Fe4 P12 Ir16'
_cell_volume   534.89023712
_cell_formula_units_Z   4
loop_
 _symmetry_equiv_pos_site_id
 _symmetry_equiv_pos_as_xyz
  1  'x, y, z'
loop_
 _atom_site_type_symbol
 _atom_site_label
 _atom_site_symmetry_multiplicity
 _atom_site_fract_x
 _atom_site_fract_y
 _atom_site_fract_z
 _atom_site_occupancy
  Pr  Pr0  1  0.250000  0.581521  0.710420  1
  Pr  Pr1  1  0.250000  0.918479  0.210420  1
  Pr  Pr2  1  0.750000  0.418479  0.289580  1
  Pr  Pr3  1  0.750000  0.081521  0.789580  1
  Fe  Fe4  1  0.250000  0.458137  0.933830  1
  Fe  Fe5  1  0.250000  0.041863  0.433830  1
  Fe  Fe6  1  0.750000  0.541863  0.066170  1
  Fe  Fe7  1  0.750000  0.958137  0.566170  1
  P  P8  1  0.250000  0.432608  0.104488  1
  P  P9  1  0.250000  0.067392  0.604488  1
  P  P10  1  0.750000  0.567392  0.895512  1
  P  P11  1  0.750000  0.932608  0.395512  1
  P  P12  1  0.250000  0.271182  0.869301  1
  P  P13  1  0.250000  0.228818  0.369301  1
  P  P14  1  0.750000  0.728818  0.130699  1
  P  P15  1  0.750000  0.771182  0.630699  1
  P  P16  1  0.250000  0.598977  0.387573  1
  P  P17  1  0.250000  0.901023  0.887573  1
  P  P18  1  0.750000  0.401023  0.612427  1
  P  P19  1  0.750000  0.098977  0.112427  1
  Ir  Ir20  1  0.250000  0.720979  0.986393  1
  Ir  Ir21  1  0.250000  0.779021  0.486393  1
  Ir  Ir22  1  0.750000  0.279021  0.013607  1
  Ir  Ir23  1  0.750000  0.220979  0.513607  1
  Ir  Ir24  1  0.250000  0.408029  0.481451  1
  Ir  Ir25  1  0.250000  0.091971  0.981451  1
  Ir  Ir26  1  0.750000  0.591971  0.518549  1
  Ir  Ir27  1  0.750000  0.908029  0.018549  1
  Ir  Ir28  1  0.250000  0.233732  0.174541  1
  Ir  Ir29  1  0.250000  0.266268  0.674541  1
  Ir  Ir30  1  0.750000  0.766268  0.825459  1
  Ir  Ir31  1  0.750000  0.733732  0.325459  1
  Ir  Ir32  1  0.250000  0.879366  0.699585  1
  Ir  Ir33  1  0.250000  0.620634  0.199585  1
  Ir  Ir34  1  0.750000  0.120634  0.300415  1
  Ir  Ir35  1  0.750000  0.379366  0.800415  1
