# generated using pymatgen
data_KCrAs2O7
_symmetry_space_group_name_H-M   'P 1'
_cell_length_a   6.44053699
_cell_length_b   6.54224190
_cell_length_c   8.35830460
_cell_angle_alpha   96.47307961
_cell_angle_beta   104.02038491
_cell_angle_gamma   103.91132978
_symmetry_Int_Tables_number   1
_chemical_formula_structural   KCrAs2O7
_chemical_formula_sum   'K2 Cr2 As4 O14'
_cell_volume   326.15578944
_cell_formula_units_Z   2
loop_
 _symmetry_equiv_pos_site_id
 _symmetry_equiv_pos_as_xyz
  1  'x, y, z'
loop_
 _atom_site_type_symbol
 _atom_site_label
 _atom_site_symmetry_multiplicity
 _atom_site_fract_x
 _atom_site_fract_y
 _atom_site_fract_z
 _atom_site_occupancy
  K  K0  1  0.000000  0.500000  0.500000  1
  K  K1  1  0.000000  0.500000  0.000000  1
  Cr  Cr2  1  0.375074  0.191116  0.726517  1
  Cr  Cr3  1  0.624926  0.808884  0.273483  1
  As  As4  1  0.824727  0.034127  0.689777  1
  As  As5  1  0.483232  0.746394  0.833963  1
  As  As6  1  0.175273  0.965873  0.310223  1
  As  As7  1  0.516768  0.253606  0.166037  1
  O  O8  1  0.231646  0.116387  0.148207  1
  O  O9  1  0.310573  0.874732  0.722033  1
  O  O10  1  0.575354  0.496571  0.287496  1
  O  O11  1  0.911352  0.803869  0.218194  1
  O  O12  1  0.689427  0.125268  0.277967  1
  O  O13  1  0.768354  0.883613  0.851793  1
  O  O14  1  0.333365  0.789708  0.329340  1
  O  O15  1  0.446512  0.737774  0.028495  1
  O  O16  1  0.424646  0.503429  0.712504  1
  O  O17  1  0.207992  0.151607  0.479839  1
  O  O18  1  0.792008  0.848393  0.520161  1
  O  O19  1  0.088648  0.196131  0.781806  1
  O  O20  1  0.553488  0.262226  0.971505  1
  O  O21  1  0.666635  0.210292  0.670660  1
