# generated using pymatgen
data_Np2UP4
_symmetry_space_group_name_H-M   'P 1'
_cell_length_a   7.09450511
_cell_length_b   7.07470042
_cell_length_c   7.07520414
_cell_angle_alpha   109.48430246
_cell_angle_beta   109.39292453
_cell_angle_gamma   109.59476622
_symmetry_Int_Tables_number   1
_chemical_formula_structural   Np2UP4
_chemical_formula_sum   'Np4 U2 P8'
_cell_volume   273.17012060
_cell_formula_units_Z   2
loop_
 _symmetry_equiv_pos_site_id
 _symmetry_equiv_pos_as_xyz
  1  'x, y, z'
loop_
 _atom_site_type_symbol
 _atom_site_label
 _atom_site_symmetry_multiplicity
 _atom_site_fract_x
 _atom_site_fract_y
 _atom_site_fract_z
 _atom_site_occupancy
  Np  Np0  1  0.874622  0.123717  0.748115  1
  Np  Np1  1  0.374289  0.251537  0.627199  1
  Np  Np2  1  0.122752  0.748463  0.875663  1
  Np  Np3  1  0.750905  0.876283  0.124398  1
  U  U4  1  0.252277  0.626718  0.375891  1
  U  U5  1  0.625559  0.373282  0.249173  1
  P  P6  1  0.659648  0.659213  0.656538  1
  P  P7  1  0.496232  0.999977  0.337894  1
  P  P8  1  0.000436  0.340787  0.497325  1
  P  P9  1  0.340550  0.499764  0.004066  1
  P  P10  1  0.001636  0.837584  0.499550  1
  P  P11  1  0.840786  0.500236  0.004302  1
  P  P12  1  0.164052  0.162416  0.161966  1
  P  P13  1  0.496255  0.000023  0.837917  1
