# generated using pymatgen
data_CaLuNiRh3
_symmetry_space_group_name_H-M   'P 1'
_cell_length_a   5.35054217
_cell_length_b   5.35054312
_cell_length_c   5.15745597
_cell_angle_alpha   58.75362517
_cell_angle_beta   58.75362051
_cell_angle_gamma   60.00000110
_symmetry_Int_Tables_number   1
_chemical_formula_structural   CaLuNiRh3
_chemical_formula_sum   'Ca1 Lu1 Ni1 Rh3'
_cell_volume   102.39348010
_cell_formula_units_Z   1
loop_
 _symmetry_equiv_pos_site_id
 _symmetry_equiv_pos_as_xyz
  1  'x, y, z'
loop_
 _atom_site_type_symbol
 _atom_site_label
 _atom_site_symmetry_multiplicity
 _atom_site_fract_x
 _atom_site_fract_y
 _atom_site_fract_z
 _atom_site_occupancy
  Ca  Ca0  1  0.751355  0.751355  0.745937  1
  Lu  Lu1  1  0.497734  0.497734  0.506796  1
  Ni  Ni2  1  0.125483  0.125483  0.623552  1
  Rh  Rh3  1  0.125197  0.625035  0.124572  1
  Rh  Rh4  1  0.125197  0.125197  0.124572  1
  Rh  Rh5  1  0.625035  0.125197  0.124572  1
