# generated using pymatgen
data_Hf18Re5Mo3PtRh
_symmetry_space_group_name_H-M   'P 1'
_cell_length_a   8.72688400
_cell_length_b   8.72688287
_cell_length_c   8.49888400
_cell_angle_alpha   90.00000000
_cell_angle_beta   90.00000000
_cell_angle_gamma   120.07285536
_symmetry_Int_Tables_number   1
_chemical_formula_structural   Hf18Re5Mo3PtRh
_chemical_formula_sum   'Hf18 Re5 Mo3 Pt1 Rh1'
_cell_volume   560.13354574
_cell_formula_units_Z   1
loop_
 _symmetry_equiv_pos_site_id
 _symmetry_equiv_pos_as_xyz
  1  'x, y, z'
loop_
 _atom_site_type_symbol
 _atom_site_label
 _atom_site_symmetry_multiplicity
 _atom_site_fract_x
 _atom_site_fract_y
 _atom_site_fract_z
 _atom_site_occupancy
  Hf  Hf0  1  0.197114  0.802886  0.445309  1
  Hf  Hf1  1  0.198287  0.395432  0.446948  1
  Hf  Hf2  1  0.604568  0.801713  0.446948  1
  Hf  Hf3  1  0.805381  0.194619  0.554881  1
  Hf  Hf4  1  0.805732  0.611588  0.554358  1
  Hf  Hf5  1  0.388412  0.194268  0.554358  1
  Hf  Hf6  1  0.805381  0.194619  0.945119  1
  Hf  Hf7  1  0.805732  0.611588  0.945642  1
  Hf  Hf8  1  0.388412  0.194268  0.945642  1
  Hf  Hf9  1  0.197114  0.802886  0.054691  1
  Hf  Hf10  1  0.198287  0.395432  0.053052  1
  Hf  Hf11  1  0.604568  0.801713  0.053052  1
  Hf  Hf12  1  0.542443  0.457557  0.250000  1
  Hf  Hf13  1  0.541116  0.084770  0.250000  1
  Hf  Hf14  1  0.915230  0.458884  0.250000  1
  Hf  Hf15  1  0.457613  0.542387  0.750000  1
  Hf  Hf16  1  0.456875  0.915065  0.750000  1
  Hf  Hf17  1  0.084935  0.543125  0.750000  1
  Re  Re18  1  0.888620  0.775580  0.250000  1
  Re  Re19  1  0.224420  0.111380  0.250000  1
  Re  Re20  1  0.111146  0.888854  0.750000  1
  Re  Re21  1  0.111440  0.223088  0.750000  1
  Re  Re22  1  0.776912  0.888560  0.750000  1
  Mo  Mo23  1  0.889823  0.110177  0.250000  1
  Mo  Mo24  1  0.000222  0.999778  0.498174  1
  Mo  Mo25  1  0.000222  0.999778  0.001826  1
  Pt  Pt26  1  0.666664  0.333336  0.750000  1
  Rh  Rh27  1  0.333332  0.666668  0.250000  1
