# generated using pymatgen
data_Zr6GeBr14
_symmetry_space_group_name_H-M   'P 1'
_cell_length_a   10.19166600
_cell_length_b   10.19166607
_cell_length_c   12.26268500
_cell_angle_alpha   90.00000000
_cell_angle_beta   90.00000000
_cell_angle_gamma   95.12736923
_symmetry_Int_Tables_number   1
_chemical_formula_structural   Zr6GeBr14
_chemical_formula_sum   'Zr12 Ge2 Br28'
_cell_volume   1268.62895614
_cell_formula_units_Z   2
loop_
 _symmetry_equiv_pos_site_id
 _symmetry_equiv_pos_as_xyz
  1  'x, y, z'
loop_
 _atom_site_type_symbol
 _atom_site_label
 _atom_site_symmetry_multiplicity
 _atom_site_fract_x
 _atom_site_fract_y
 _atom_site_fract_z
 _atom_site_occupancy
  Zr  Zr0  1  0.949440  0.190903  0.121959  1
  Zr  Zr1  1  0.050560  0.809097  0.878041  1
  Zr  Zr2  1  0.550560  0.309097  0.621959  1
  Zr  Zr3  1  0.690903  0.449440  0.378041  1
  Zr  Zr4  1  0.449440  0.690903  0.378041  1
  Zr  Zr5  1  0.309097  0.550560  0.621959  1
  Zr  Zr6  1  0.809097  0.050560  0.878041  1
  Zr  Zr7  1  0.190903  0.949440  0.121959  1
  Zr  Zr8  1  0.346817  0.346817  0.389034  1
  Zr  Zr9  1  0.653183  0.653183  0.610966  1
  Zr  Zr10  1  0.153183  0.153183  0.889034  1
  Zr  Zr11  1  0.846817  0.846817  0.110966  1
  Ge  Ge12  1  0.000000  0.000000  0.000000  1
  Ge  Ge13  1  0.500000  0.500000  0.500000  1
  Br  Br14  1  0.285156  0.535881  0.247701  1
  Br  Br15  1  0.714844  0.464119  0.752299  1
  Br  Br16  1  0.214844  0.964119  0.747701  1
  Br  Br17  1  0.035881  0.785156  0.252299  1
  Br  Br18  1  0.785156  0.035881  0.252299  1
  Br  Br19  1  0.964119  0.214844  0.747701  1
  Br  Br20  1  0.464119  0.714844  0.752299  1
  Br  Br21  1  0.535881  0.285156  0.247701  1
  Br  Br22  1  0.115246  0.367647  0.010707  1
  Br  Br23  1  0.884754  0.632354  0.989293  1
  Br  Br24  1  0.384754  0.132354  0.510707  1
  Br  Br25  1  0.867647  0.615246  0.489293  1
  Br  Br26  1  0.615246  0.867646  0.489293  1
  Br  Br27  1  0.132353  0.384754  0.510707  1
  Br  Br28  1  0.632354  0.884754  0.989293  1
  Br  Br29  1  0.367647  0.115246  0.010707  1
  Br  Br30  1  0.905660  0.405660  0.250000  1
  Br  Br31  1  0.094340  0.594340  0.750000  1
  Br  Br32  1  0.594340  0.094340  0.750000  1
  Br  Br33  1  0.405660  0.905660  0.250000  1
  Br  Br34  1  0.745542  0.254458  0.000000  1
  Br  Br35  1  0.254458  0.745542  0.000000  1
  Br  Br36  1  0.754458  0.245542  0.500000  1
  Br  Br37  1  0.245542  0.754458  0.500000  1
  Br  Br38  1  0.155006  0.155006  0.268053  1
  Br  Br39  1  0.844994  0.844994  0.731947  1
  Br  Br40  1  0.344994  0.344994  0.768053  1
  Br  Br41  1  0.655006  0.655006  0.231947  1
