# generated using pymatgen
data_Ho2Ta3Ge4
_symmetry_space_group_name_H-M   'P 1'
_cell_length_a   6.99268600
_cell_length_b   7.14970100
_cell_length_c   13.52951300
_cell_angle_alpha   90.00000000
_cell_angle_beta   90.00000000
_cell_angle_gamma   90.00000000
_symmetry_Int_Tables_number   1
_chemical_formula_structural   Ho2Ta3Ge4
_chemical_formula_sum   'Ho8 Ta12 Ge16'
_cell_volume   676.41631073
_cell_formula_units_Z   4
loop_
 _symmetry_equiv_pos_site_id
 _symmetry_equiv_pos_as_xyz
  1  'x, y, z'
loop_
 _atom_site_type_symbol
 _atom_site_label
 _atom_site_symmetry_multiplicity
 _atom_site_fract_x
 _atom_site_fract_y
 _atom_site_fract_z
 _atom_site_occupancy
  Ho  Ho0  1  0.496639  0.326828  0.094548  1
  Ho  Ho1  1  0.996639  0.173172  0.405452  1
  Ho  Ho2  1  0.503361  0.673172  0.594548  1
  Ho  Ho3  1  0.003361  0.826828  0.905452  1
  Ho  Ho4  1  0.503361  0.673172  0.905452  1
  Ho  Ho5  1  0.003361  0.826828  0.594548  1
  Ho  Ho6  1  0.496639  0.326828  0.405452  1
  Ho  Ho7  1  0.996639  0.173172  0.094548  1
  Ta  Ta8  1  0.664328  0.013530  0.750000  1
  Ta  Ta9  1  0.164328  0.486470  0.750000  1
  Ta  Ta10  1  0.335672  0.986470  0.250000  1
  Ta  Ta11  1  0.835672  0.513530  0.250000  1
  Ta  Ta12  1  0.839570  0.329325  0.625842  1
  Ta  Ta13  1  0.339570  0.170675  0.874158  1
  Ta  Ta14  1  0.160430  0.670675  0.125842  1
  Ta  Ta15  1  0.660430  0.829325  0.374158  1
  Ta  Ta16  1  0.160430  0.670675  0.374158  1
  Ta  Ta17  1  0.660430  0.829325  0.125842  1
  Ta  Ta18  1  0.839570  0.329325  0.874158  1
  Ta  Ta19  1  0.339570  0.170675  0.625842  1
  Ge  Ge20  1  0.804675  0.639843  0.750000  1
  Ge  Ge21  1  0.304675  0.860157  0.750000  1
  Ge  Ge22  1  0.195325  0.360157  0.250000  1
  Ge  Ge23  1  0.695325  0.139843  0.250000  1
  Ge  Ge24  1  0.539718  0.378437  0.750000  1
  Ge  Ge25  1  0.039718  0.121563  0.750000  1
  Ge  Ge26  1  0.460282  0.621563  0.250000  1
  Ge  Ge27  1  0.960282  0.878437  0.250000  1
  Ge  Ge28  1  0.675670  0.037773  0.541671  1
  Ge  Ge29  1  0.175670  0.462227  0.958329  1
  Ge  Ge30  1  0.324330  0.962227  0.041671  1
  Ge  Ge31  1  0.824330  0.537773  0.458329  1
  Ge  Ge32  1  0.324330  0.962227  0.458329  1
  Ge  Ge33  1  0.824330  0.537773  0.041671  1
  Ge  Ge34  1  0.675670  0.037773  0.958329  1
  Ge  Ge35  1  0.175670  0.462227  0.541671  1
