# generated using pymatgen
data_ScMnGa6Fe5
_symmetry_space_group_name_H-M   'P 1'
_cell_length_a   5.00602404
_cell_length_b   6.55944879
_cell_length_c   6.55944840
_cell_angle_alpha   99.67573341
_cell_angle_beta   67.56785949
_cell_angle_gamma   112.43213463
_symmetry_Int_Tables_number   1
_chemical_formula_structural   ScMnGa6Fe5
_chemical_formula_sum   'Sc1 Mn1 Ga6 Fe5'
_cell_volume   183.96430872
_cell_formula_units_Z   1
loop_
 _symmetry_equiv_pos_site_id
 _symmetry_equiv_pos_as_xyz
  1  'x, y, z'
loop_
 _atom_site_type_symbol
 _atom_site_label
 _atom_site_symmetry_multiplicity
 _atom_site_fract_x
 _atom_site_fract_y
 _atom_site_fract_z
 _atom_site_occupancy
  Sc  Sc0  1  0.000000  0.000391  0.000391  1
  Mn  Mn1  1  0.499999  0.242912  0.242912  1
  Ga  Ga2  1  0.324155  0.824109  0.175800  1
  Ga  Ga3  1  0.000000  0.325630  0.325630  1
  Ga  Ga4  1  0.659398  0.659356  0.340558  1
  Ga  Ga5  1  0.340600  0.340558  0.659356  1
  Ga  Ga6  1  0.000000  0.674745  0.674745  1
  Ga  Ga7  1  0.675845  0.175800  0.824109  1
  Fe  Fe8  1  0.000936  0.500979  0.999273  1
  Fe  Fe9  1  0.500770  0.500979  0.999273  1
  Fe  Fe10  1  0.999064  0.999273  0.500979  1
  Fe  Fe11  1  0.499230  0.999273  0.500979  1
  Fe  Fe12  1  0.499999  0.755996  0.755996  1
