# generated using pymatgen
data_Yb4HfSi12Ir19
_symmetry_space_group_name_H-M   'P 1'
_cell_length_a   12.78427156
_cell_length_b   12.78427307
_cell_length_c   3.97990000
_cell_angle_alpha   90.00000000
_cell_angle_beta   90.00000000
_cell_angle_gamma   119.96612937
_symmetry_Int_Tables_number   1
_chemical_formula_structural   Yb4HfSi12Ir19
_chemical_formula_sum   'Yb4 Hf1 Si12 Ir19'
_cell_volume   563.51170600
_cell_formula_units_Z   1
loop_
 _symmetry_equiv_pos_site_id
 _symmetry_equiv_pos_as_xyz
  1  'x, y, z'
loop_
 _atom_site_type_symbol
 _atom_site_label
 _atom_site_symmetry_multiplicity
 _atom_site_fract_x
 _atom_site_fract_y
 _atom_site_fract_z
 _atom_site_occupancy
  Yb  Yb0  1  0.333085  0.666210  0.000000  1
  Yb  Yb1  1  0.666210  0.333085  0.000000  1
  Yb  Yb2  1  0.816550  0.999708  0.500000  1
  Yb  Yb3  1  0.999708  0.816550  0.500000  1
  Hf  Hf4  1  0.178900  0.178900  0.500000  1
  Si  Si5  1  0.819532  0.819532  0.000000  1
  Si  Si6  1  0.181630  0.000238  0.000000  1
  Si  Si7  1  0.000238  0.181630  0.000000  1
  Si  Si8  1  0.312178  0.833323  0.500000  1
  Si  Si9  1  0.167804  0.481408  0.500000  1
  Si  Si10  1  0.519270  0.686616  0.500000  1
  Si  Si11  1  0.833323  0.312178  0.500000  1
  Si  Si12  1  0.481408  0.167804  0.500000  1
  Si  Si13  1  0.686616  0.519270  0.500000  1
  Si  Si14  1  0.366842  0.366842  0.000000  1
  Si  Si15  1  0.631312  0.000102  0.000000  1
  Si  Si16  1  0.000102  0.631312  0.000000  1
  Ir  Ir17  1  0.194467  0.817807  0.000000  1
  Ir  Ir18  1  0.183000  0.371565  0.000000  1
  Ir  Ir19  1  0.621837  0.805727  0.000000  1
  Ir  Ir20  1  0.817807  0.194467  0.000000  1
  Ir  Ir21  1  0.371565  0.183000  0.000000  1
  Ir  Ir22  1  0.805727  0.621837  0.000000  1
  Ir  Ir23  1  0.717531  0.717531  0.500000  1
  Ir  Ir24  1  0.282564  0.003204  0.500000  1
  Ir  Ir25  1  0.003204  0.282564  0.500000  1
  Ir  Ir26  1  0.126379  0.640444  0.500000  1
  Ir  Ir27  1  0.358970  0.485745  0.500000  1
  Ir  Ir28  1  0.512327  0.873587  0.500000  1
  Ir  Ir29  1  0.640444  0.126379  0.500000  1
  Ir  Ir30  1  0.485745  0.358970  0.500000  1
  Ir  Ir31  1  0.873587  0.512327  0.500000  1
  Ir  Ir32  1  0.551684  0.551684  0.000000  1
  Ir  Ir33  1  0.448399  0.004117  0.000000  1
  Ir  Ir34  1  0.004117  0.448399  0.000000  1
  Ir  Ir35  1  0.005937  0.005937  0.000000  1
