# generated using pymatgen
data_Gd2Ta3Ge4
_symmetry_space_group_name_H-M   'P 1'
_cell_length_a   7.04669400
_cell_length_b   13.49220500
_cell_length_c   7.19542600
_cell_angle_alpha   90.00000000
_cell_angle_beta   90.00000000
_cell_angle_gamma   90.00000000
_symmetry_Int_Tables_number   1
_chemical_formula_structural   Gd2Ta3Ge4
_chemical_formula_sum   'Gd8 Ta12 Ge16'
_cell_volume   684.10829308
_cell_formula_units_Z   4
loop_
 _symmetry_equiv_pos_site_id
 _symmetry_equiv_pos_as_xyz
  1  'x, y, z'
loop_
 _atom_site_type_symbol
 _atom_site_label
 _atom_site_symmetry_multiplicity
 _atom_site_fract_x
 _atom_site_fract_y
 _atom_site_fract_z
 _atom_site_occupancy
  Gd  Gd0  1  0.001949  0.593922  0.172287  1
  Gd  Gd1  1  0.001949  0.906078  0.172287  1
  Gd  Gd2  1  0.501949  0.593922  0.327714  1
  Gd  Gd3  1  0.501949  0.906078  0.327714  1
  Gd  Gd4  1  0.498051  0.093922  0.672286  1
  Gd  Gd5  1  0.498051  0.406078  0.672286  1
  Gd  Gd6  1  0.998052  0.093922  0.827714  1
  Gd  Gd7  1  0.998052  0.406078  0.827714  1
  Ta  Ta8  1  0.338971  0.250000  0.014561  1
  Ta  Ta9  1  0.662043  0.126518  0.169372  1
  Ta  Ta10  1  0.662043  0.373482  0.169372  1
  Ta  Ta11  1  0.162042  0.126518  0.330629  1
  Ta  Ta12  1  0.162042  0.373482  0.330629  1
  Ta  Ta13  1  0.838972  0.250000  0.485439  1
  Ta  Ta14  1  0.161029  0.750000  0.514560  1
  Ta  Ta15  1  0.837957  0.626519  0.669371  1
  Ta  Ta16  1  0.837957  0.873482  0.669371  1
  Ta  Ta17  1  0.337957  0.626519  0.830629  1
  Ta  Ta18  1  0.337957  0.873482  0.830629  1
  Ta  Ta19  1  0.661028  0.750000  0.985440  1
  Ge  Ge20  1  0.327018  0.042954  0.039605  1
  Ge  Ge21  1  0.327018  0.457046  0.039605  1
  Ge  Ge22  1  0.302595  0.750000  0.138320  1
  Ge  Ge23  1  0.963722  0.250000  0.122378  1
  Ge  Ge24  1  0.463722  0.250000  0.377621  1
  Ge  Ge25  1  0.802596  0.750000  0.361681  1
  Ge  Ge26  1  0.827018  0.042954  0.460394  1
  Ge  Ge27  1  0.827018  0.457046  0.460394  1
  Ge  Ge28  1  0.172982  0.542954  0.539606  1
  Ge  Ge29  1  0.172982  0.957047  0.539606  1
  Ge  Ge30  1  0.197404  0.250000  0.638320  1
  Ge  Ge31  1  0.536278  0.750000  0.622378  1
  Ge  Ge32  1  0.036277  0.750000  0.877622  1
  Ge  Ge33  1  0.697404  0.250000  0.861680  1
  Ge  Ge34  1  0.672983  0.542954  0.960394  1
  Ge  Ge35  1  0.672983  0.957047  0.960394  1
