# generated using pymatgen
data_CaGd2(ThB15)2
_symmetry_space_group_name_H-M   'P 1'
_cell_length_a   4.09853400
_cell_length_b   4.09853400
_cell_length_c   20.51226400
_cell_angle_alpha   90.00000000
_cell_angle_beta   90.00000000
_cell_angle_gamma   90.00000000
_symmetry_Int_Tables_number   1
_chemical_formula_structural   CaGd2(ThB15)2
_chemical_formula_sum   'Ca1 Gd2 Th2 B30'
_cell_volume   344.56461990
_cell_formula_units_Z   1
loop_
 _symmetry_equiv_pos_site_id
 _symmetry_equiv_pos_as_xyz
  1  'x, y, z'
loop_
 _atom_site_type_symbol
 _atom_site_label
 _atom_site_symmetry_multiplicity
 _atom_site_fract_x
 _atom_site_fract_y
 _atom_site_fract_z
 _atom_site_occupancy
  Ca  Ca0  1  0.000000  0.000000  0.001015  1
  Gd  Gd1  1  0.000000  0.000000  0.200608  1
  Gd  Gd2  1  0.000000  0.000000  0.400569  1
  Th  Th3  1  0.000000  0.000000  0.602921  1
  Th  Th4  1  0.000000  0.000000  0.796044  1
  B  B5  1  0.500000  0.500000  0.160440  1
  B  B6  1  0.500000  0.500000  0.360440  1
  B  B7  1  0.500000  0.500000  0.560276  1
  B  B8  1  0.500000  0.500000  0.760421  1
  B  B9  1  0.500000  0.500000  0.959769  1
  B  B10  1  0.500000  0.199794  0.100441  1
  B  B11  1  0.500000  0.198971  0.300211  1
  B  B12  1  0.500000  0.198253  0.499957  1
  B  B13  1  0.500000  0.197083  0.699661  1
  B  B14  1  0.500000  0.199120  0.899532  1
  B  B15  1  0.199794  0.500000  0.100441  1
  B  B16  1  0.198971  0.500000  0.300211  1
  B  B17  1  0.198253  0.500000  0.499957  1
  B  B18  1  0.197083  0.500000  0.699661  1
  B  B19  1  0.199120  0.500000  0.899532  1
  B  B20  1  0.500000  0.500000  0.040156  1
  B  B21  1  0.500000  0.500000  0.240057  1
  B  B22  1  0.500000  0.500000  0.439735  1
  B  B23  1  0.500000  0.500000  0.639021  1
  B  B24  1  0.500000  0.500000  0.839321  1
  B  B25  1  0.500000  0.800206  0.100441  1
  B  B26  1  0.500000  0.801029  0.300211  1
  B  B27  1  0.500000  0.801747  0.499957  1
  B  B28  1  0.500000  0.802917  0.699661  1
  B  B29  1  0.500000  0.800880  0.899532  1
  B  B30  1  0.800206  0.500000  0.100441  1
  B  B31  1  0.801029  0.500000  0.300211  1
  B  B32  1  0.801747  0.500000  0.499957  1
  B  B33  1  0.802917  0.500000  0.699661  1
  B  B34  1  0.800880  0.500000  0.899532  1
