# generated using pymatgen
data_TaBe4ZnRu4
_symmetry_space_group_name_H-M   'P 1'
_cell_length_a   6.25653700
_cell_length_b   6.25653700
_cell_length_c   3.02236600
_cell_angle_alpha   90.00000000
_cell_angle_beta   90.00000000
_cell_angle_gamma   90.00000000
_symmetry_Int_Tables_number   1
_chemical_formula_structural   TaBe4ZnRu4
_chemical_formula_sum   'Ta1 Be4 Zn1 Ru4'
_cell_volume   118.30826611
_cell_formula_units_Z   1
loop_
 _symmetry_equiv_pos_site_id
 _symmetry_equiv_pos_as_xyz
  1  'x, y, z'
loop_
 _atom_site_type_symbol
 _atom_site_label
 _atom_site_symmetry_multiplicity
 _atom_site_fract_x
 _atom_site_fract_y
 _atom_site_fract_z
 _atom_site_occupancy
  Ta  Ta0  1  0.000000  0.000000  0.000000  1
  Be  Be1  1  0.132803  0.608937  0.000000  1
  Be  Be2  1  0.867197  0.391063  0.000000  1
  Be  Be3  1  0.608937  0.867197  0.000000  1
  Be  Be4  1  0.391063  0.132803  0.000000  1
  Zn  Zn5  1  0.500000  0.500000  0.000000  1
  Ru  Ru6  1  0.680434  0.157416  0.500000  1
  Ru  Ru7  1  0.319566  0.842584  0.500000  1
  Ru  Ru8  1  0.157416  0.319566  0.500000  1
  Ru  Ru9  1  0.842584  0.680434  0.500000  1
