# generated using pymatgen
data_TbSc3(AlRh)4
_symmetry_space_group_name_H-M   'P 1'
_cell_length_a   4.19081700
_cell_length_b   6.60121288
_cell_length_c   7.74557025
_cell_angle_alpha   89.40035718
_cell_angle_beta   90.00000000
_cell_angle_gamma   90.00000000
_symmetry_Int_Tables_number   1
_chemical_formula_structural   TbSc3(AlRh)4
_chemical_formula_sum   'Tb1 Sc3 Al4 Rh4'
_cell_volume   214.26540097
_cell_formula_units_Z   1
loop_
 _symmetry_equiv_pos_site_id
 _symmetry_equiv_pos_as_xyz
  1  'x, y, z'
loop_
 _atom_site_type_symbol
 _atom_site_label
 _atom_site_symmetry_multiplicity
 _atom_site_fract_x
 _atom_site_fract_y
 _atom_site_fract_z
 _atom_site_occupancy
  Tb  Tb0  1  0.750000  0.032039  0.679380  1
  Sc  Sc1  1  0.250000  0.964044  0.317463  1
  Sc  Sc2  1  0.750000  0.535500  0.824440  1
  Sc  Sc3  1  0.250000  0.466815  0.179611  1
  Al  Al4  1  0.750000  0.637199  0.437259  1
  Al  Al5  1  0.750000  0.142385  0.064106  1
  Al  Al6  1  0.250000  0.361905  0.555745  1
  Al  Al7  1  0.250000  0.855775  0.943588  1
  Rh  Rh8  1  0.750000  0.758972  0.119366  1
  Rh  Rh9  1  0.750000  0.261189  0.373164  1
  Rh  Rh10  1  0.250000  0.251180  0.886259  1
  Rh  Rh11  1  0.250000  0.732996  0.619619  1
