# generated using pymatgen
data_Li8Hf3PdBr24
_symmetry_space_group_name_H-M   'P 1'
_cell_length_a   6.73195200
_cell_length_b   6.73195298
_cell_length_c   28.19443500
_cell_angle_alpha   90.00000000
_cell_angle_beta   90.00000000
_cell_angle_gamma   120.00000503
_symmetry_Int_Tables_number   1
_chemical_formula_structural   Li8Hf3PdBr24
_chemical_formula_sum   'Li8 Hf3 Pd1 Br24'
_cell_volume   1106.56286115
_cell_formula_units_Z   1
loop_
 _symmetry_equiv_pos_site_id
 _symmetry_equiv_pos_as_xyz
  1  'x, y, z'
loop_
 _atom_site_type_symbol
 _atom_site_label
 _atom_site_symmetry_multiplicity
 _atom_site_fract_x
 _atom_site_fract_y
 _atom_site_fract_z
 _atom_site_occupancy
  Li  Li0  1  0.000000  0.000000  0.249366  1
  Li  Li1  1  0.000000  0.000000  0.750634  1
  Li  Li2  1  0.333333  0.666667  0.999535  1
  Li  Li3  1  0.333333  0.666667  0.500446  1
  Li  Li4  1  0.333333  0.666667  0.249647  1
  Li  Li5  1  0.666667  0.333333  0.750353  1
  Li  Li6  1  0.666667  0.333333  0.000465  1
  Li  Li7  1  0.666667  0.333333  0.499554  1
  Hf  Hf8  1  0.000000  0.000000  0.500000  1
  Hf  Hf9  1  0.333333  0.666667  0.750799  1
  Hf  Hf10  1  0.666667  0.333333  0.249201  1
  Pd  Pd11  1  0.000000  0.000000  0.000000  1
  Br  Br12  1  0.347830  0.014885  0.303144  1
  Br  Br13  1  0.334449  0.985823  0.804592  1
  Br  Br14  1  0.000890  0.306262  0.051306  1
  Br  Br15  1  0.998843  0.318072  0.553864  1
  Br  Br16  1  0.985115  0.332947  0.303144  1
  Br  Br17  1  0.014177  0.348626  0.804592  1
  Br  Br18  1  0.348626  0.334449  0.195408  1
  Br  Br19  1  0.332947  0.347830  0.696856  1
  Br  Br20  1  0.318072  0.319227  0.446136  1
  Br  Br21  1  0.306262  0.305373  0.948694  1
  Br  Br22  1  0.680773  0.998843  0.446136  1
  Br  Br23  1  0.305373  0.999110  0.051306  1
  Br  Br24  1  0.319227  0.001157  0.553864  1
  Br  Br25  1  0.693738  0.694627  0.051306  1
  Br  Br26  1  0.681928  0.680773  0.553864  1
  Br  Br27  1  0.667053  0.652170  0.303144  1
  Br  Br28  1  0.651374  0.665551  0.804592  1
  Br  Br29  1  0.985823  0.651374  0.195408  1
  Br  Br30  1  0.014885  0.667053  0.696856  1
  Br  Br31  1  0.001157  0.681928  0.446136  1
  Br  Br32  1  0.999110  0.693738  0.948694  1
  Br  Br33  1  0.694627  0.000890  0.948694  1
  Br  Br34  1  0.665551  0.014177  0.195408  1
  Br  Br35  1  0.652170  0.985115  0.696856  1
