# generated using pymatgen
data_Ta6Be15Au8
_symmetry_space_group_name_H-M   'P 1'
_cell_length_a   8.04910303
_cell_length_b   8.04910190
_cell_length_c   8.04910300
_cell_angle_alpha   59.99999959
_cell_angle_beta   60.00000424
_cell_angle_gamma   59.99999818
_symmetry_Int_Tables_number   1
_chemical_formula_structural   Ta6Be15Au8
_chemical_formula_sum   'Ta6 Be15 Au8'
_cell_volume   368.74607444
_cell_formula_units_Z   1
loop_
 _symmetry_equiv_pos_site_id
 _symmetry_equiv_pos_as_xyz
  1  'x, y, z'
loop_
 _atom_site_type_symbol
 _atom_site_label
 _atom_site_symmetry_multiplicity
 _atom_site_fract_x
 _atom_site_fract_y
 _atom_site_fract_z
 _atom_site_occupancy
  Ta  Ta0  1  0.183549  0.183549  0.816451  1
  Ta  Ta1  1  0.183549  0.816451  0.816451  1
  Ta  Ta2  1  0.816451  0.183549  0.183549  1
  Ta  Ta3  1  0.183549  0.816451  0.183549  1
  Ta  Ta4  1  0.816451  0.183549  0.816451  1
  Ta  Ta5  1  0.816451  0.816451  0.183549  1
  Be  Be6  1  0.500000  0.500000  0.500000  1
  Be  Be7  1  0.500000  0.500000  0.000000  1
  Be  Be8  1  0.000000  0.500000  0.500000  1
  Be  Be9  1  0.500000  0.000000  0.000000  1
  Be  Be10  1  0.000000  0.000000  0.500000  1
  Be  Be11  1  0.000000  0.500000  0.000000  1
  Be  Be12  1  0.500000  0.000000  0.500000  1
  Be  Be13  1  0.835324  0.494029  0.835324  1
  Be  Be14  1  0.164676  0.164676  0.505971  1
  Be  Be15  1  0.505971  0.164676  0.164676  1
  Be  Be16  1  0.164676  0.164676  0.164676  1
  Be  Be17  1  0.494029  0.835324  0.835324  1
  Be  Be18  1  0.835324  0.835324  0.835324  1
  Be  Be19  1  0.835324  0.835324  0.494029  1
  Be  Be20  1  0.164676  0.505971  0.164676  1
  Au  Au21  1  0.627397  0.117809  0.627397  1
  Au  Au22  1  0.372603  0.372603  0.882191  1
  Au  Au23  1  0.882191  0.372603  0.372603  1
  Au  Au24  1  0.372603  0.372603  0.372603  1
  Au  Au25  1  0.117809  0.627397  0.627397  1
  Au  Au26  1  0.627397  0.627397  0.627397  1
  Au  Au27  1  0.627397  0.627397  0.117809  1
  Au  Au28  1  0.372603  0.882191  0.372603  1
