# generated using pymatgen
data_CaDyNpO6
_symmetry_space_group_name_H-M   'P 1'
_cell_length_a   5.52223400
_cell_length_b   7.86085168
_cell_length_c   11.90239477
_cell_angle_alpha   73.88977258
_cell_angle_beta   90.00000000
_cell_angle_gamma   90.00000000
_symmetry_Int_Tables_number   1
_chemical_formula_structural   CaDyNpO6
_chemical_formula_sum   'Ca4 Dy4 Np4 O24'
_cell_volume   496.38648278
_cell_formula_units_Z   4
loop_
 _symmetry_equiv_pos_site_id
 _symmetry_equiv_pos_as_xyz
  1  'x, y, z'
loop_
 _atom_site_type_symbol
 _atom_site_label
 _atom_site_symmetry_multiplicity
 _atom_site_fract_x
 _atom_site_fract_y
 _atom_site_fract_z
 _atom_site_occupancy
  Ca  Ca0  1  0.188180  0.794235  0.578798  1
  Ca  Ca1  1  0.811820  0.794235  0.078798  1
  Ca  Ca2  1  0.188180  0.205765  0.921202  1
  Ca  Ca3  1  0.811820  0.205765  0.421202  1
  Dy  Dy4  1  0.742910  0.000000  0.750000  1
  Dy  Dy5  1  0.257090  0.000000  0.250000  1
  Dy  Dy6  1  0.692371  0.500000  0.750000  1
  Dy  Dy7  1  0.307629  0.500000  0.250000  1
  Np  Np8  1  0.254417  0.725315  0.884103  1
  Np  Np9  1  0.745583  0.725315  0.384103  1
  Np  Np10  1  0.254417  0.274685  0.615897  1
  Np  Np11  1  0.745583  0.274685  0.115897  1
  O  O12  1  0.050844  0.939674  0.889714  1
  O  O13  1  0.541764  0.852192  0.927448  1
  O  O14  1  0.949156  0.939674  0.389714  1
  O  O15  1  0.455195  0.796368  0.730036  1
  O  O16  1  0.458236  0.852192  0.427448  1
  O  O17  1  0.963492  0.707887  0.772191  1
  O  O18  1  0.544805  0.796368  0.230036  1
  O  O19  1  0.855336  0.629913  0.550444  1
  O  O20  1  0.385800  0.490355  0.884236  1
  O  O21  1  0.036508  0.707887  0.272191  1
  O  O22  1  0.385800  0.509645  0.615764  1
  O  O23  1  0.855336  0.370087  0.949556  1
  O  O24  1  0.144664  0.629913  0.050444  1
  O  O25  1  0.614200  0.490355  0.384236  1
  O  O26  1  0.963492  0.292113  0.727809  1
  O  O27  1  0.614200  0.509645  0.115764  1
  O  O28  1  0.144664  0.370087  0.449556  1
  O  O29  1  0.455195  0.203632  0.769964  1
  O  O30  1  0.036508  0.292113  0.227809  1
  O  O31  1  0.541764  0.147808  0.572552  1
  O  O32  1  0.544805  0.203632  0.269964  1
  O  O33  1  0.050844  0.060326  0.610286  1
  O  O34  1  0.458236  0.147808  0.072552  1
  O  O35  1  0.949156  0.060326  0.110286  1
