# generated using pymatgen
data_SeSF34
_symmetry_space_group_name_H-M   'P 1'
_cell_length_a   8.70698400
_cell_length_b   8.68250900
_cell_length_c   10.22265173
_cell_angle_alpha   77.73591992
_cell_angle_beta   86.12003686
_cell_angle_gamma   65.40199462
_symmetry_Int_Tables_number   1
_chemical_formula_structural   SeSF34
_chemical_formula_sum   'Se1 S1 F34'
_cell_volume   686.46081903
_cell_formula_units_Z   1
loop_
 _symmetry_equiv_pos_site_id
 _symmetry_equiv_pos_as_xyz
  1  'x, y, z'
loop_
 _atom_site_type_symbol
 _atom_site_label
 _atom_site_symmetry_multiplicity
 _atom_site_fract_x
 _atom_site_fract_y
 _atom_site_fract_z
 _atom_site_occupancy
  Se  Se0  1  0.863345  0.247261  0.760645  1
  S  S1  1  0.136721  0.750548  0.243176  1
  F  F2  1  0.620928  0.200123  0.472986  1
  F  F3  1  0.380397  0.793245  0.529383  1
  F  F4  1  0.830027  0.706069  0.715294  1
  F  F5  1  0.165847  0.302521  0.293937  1
  F  F6  1  0.102831  0.737314  0.866816  1
  F  F7  1  0.908344  0.253017  0.137670  1
  F  F8  1  0.562218  0.140488  0.375136  1
  F  F9  1  0.442490  0.858944  0.620640  1
  F  F10  1  0.656519  0.326916  0.701097  1
  F  F11  1  0.326271  0.679017  0.299174  1
  F  F12  1  0.923513  0.084238  0.670002  1
  F  F13  1  0.078856  0.902519  0.324701  1
  F  F14  1  0.907504  0.378742  0.624408  1
  F  F15  1  0.095448  0.630620  0.368758  1
  F  F16  1  0.861129  0.814805  0.601101  1
  F  F17  1  0.158599  0.163314  0.393313  1
  F  F18  1  0.803947  0.411015  0.850921  1
  F  F19  1  0.194247  0.597839  0.161795  1
  F  F20  1  0.214532  0.687564  0.760135  1
  F  F21  1  0.783040  0.317558  0.232732  1
  F  F22  1  0.948167  0.821940  0.185740  1
  F  F23  1  0.069244  0.167422  0.821819  1
  F  F24  1  0.818036  0.115571  0.896712  1
  F  F25  1  0.178801  0.870786  0.117617  1
  F  F26  1  0.493010  0.589244  0.988306  1
  F  F27  1  0.496289  0.420091  0.012736  1
  F  F28  1  0.443229  0.092000  0.862741  1
  F  F29  1  0.540899  0.918170  0.134814  1
  F  F30  1  0.283646  0.272199  0.597327  1
  F  F31  1  0.714167  0.729091  0.395566  1
  F  F32  1  0.259345  0.402677  0.670983  1
  F  F33  1  0.742710  0.600754  0.318650  1
  F  F34  1  0.558401  0.932445  0.829944  1
  F  F35  1  0.437305  0.083936  0.163225  1
