# generated using pymatgen
data_TbCe3(SnRh2)2
_symmetry_space_group_name_H-M   'P 1'
_cell_length_a   7.61280953
_cell_length_b   7.61280838
_cell_length_c   3.77417900
_cell_angle_alpha   90.00000000
_cell_angle_beta   90.00000000
_cell_angle_gamma   88.30291856
_symmetry_Int_Tables_number   1
_chemical_formula_structural   TbCe3(SnRh2)2
_chemical_formula_sum   'Tb1 Ce3 Sn2 Rh4'
_cell_volume   218.63607397
_cell_formula_units_Z   1
loop_
 _symmetry_equiv_pos_site_id
 _symmetry_equiv_pos_as_xyz
  1  'x, y, z'
loop_
 _atom_site_type_symbol
 _atom_site_label
 _atom_site_symmetry_multiplicity
 _atom_site_fract_x
 _atom_site_fract_y
 _atom_site_fract_z
 _atom_site_occupancy
  Tb  Tb0  1  0.671527  0.171527  0.500000  1
  Ce  Ce1  1  0.328149  0.828149  0.500000  1
  Ce  Ce2  1  0.169618  0.325571  0.500000  1
  Ce  Ce3  1  0.825571  0.669618  0.500000  1
  Sn  Sn4  1  0.993380  0.999803  0.000000  1
  Sn  Sn5  1  0.499803  0.493380  0.000000  1
  Rh  Rh6  1  0.143467  0.643467  0.000000  1
  Rh  Rh7  1  0.878769  0.378769  0.000000  1
  Rh  Rh8  1  0.632442  0.857275  0.000000  1
  Rh  Rh9  1  0.357275  0.132442  0.000000  1
