# generated using pymatgen
data_Tl2CrAgF6
_symmetry_space_group_name_H-M   'P 1'
_cell_length_a   6.27337515
_cell_length_b   6.27337495
_cell_length_c   6.27337500
_cell_angle_alpha   59.99999445
_cell_angle_beta   59.99999551
_cell_angle_gamma   59.99999899
_symmetry_Int_Tables_number   1
_chemical_formula_structural   Tl2CrAgF6
_chemical_formula_sum   'Tl2 Cr1 Ag1 F6'
_cell_volume   174.57768059
_cell_formula_units_Z   1
loop_
 _symmetry_equiv_pos_site_id
 _symmetry_equiv_pos_as_xyz
  1  'x, y, z'
loop_
 _atom_site_type_symbol
 _atom_site_label
 _atom_site_symmetry_multiplicity
 _atom_site_fract_x
 _atom_site_fract_y
 _atom_site_fract_z
 _atom_site_occupancy
  Tl  Tl0  1  0.250000  0.250000  0.250000  1
  Tl  Tl1  1  0.750000  0.750000  0.750000  1
  Cr  Cr2  1  0.000000  0.000000  0.000000  1
  Ag  Ag3  1  0.500000  0.500000  0.500000  1
  F  F4  1  0.778674  0.221326  0.221326  1
  F  F5  1  0.221326  0.778674  0.221326  1
  F  F6  1  0.778674  0.778674  0.221326  1
  F  F7  1  0.221326  0.221326  0.778674  1
  F  F8  1  0.778674  0.221326  0.778674  1
  F  F9  1  0.221326  0.778674  0.778674  1
