# generated using pymatgen
data_PrBi3O7
_symmetry_space_group_name_H-M   'P 1'
_cell_length_a   6.77302223
_cell_length_b   6.98939140
_cell_length_c   7.97367011
_cell_angle_alpha   106.17263395
_cell_angle_beta   89.24690235
_cell_angle_gamma   99.60037820
_symmetry_Int_Tables_number   1
_chemical_formula_structural   PrBi3O7
_chemical_formula_sum   'Pr2 Bi6 O14'
_cell_volume   357.23193476
_cell_formula_units_Z   2
loop_
 _symmetry_equiv_pos_site_id
 _symmetry_equiv_pos_as_xyz
  1  'x, y, z'
loop_
 _atom_site_type_symbol
 _atom_site_label
 _atom_site_symmetry_multiplicity
 _atom_site_fract_x
 _atom_site_fract_y
 _atom_site_fract_z
 _atom_site_occupancy
  Pr  Pr0  1  0.457950  0.996711  0.247163  1
  Pr  Pr1  1  0.542050  0.003289  0.752837  1
  Bi  Bi2  1  0.000000  0.000000  0.500000  1
  Bi  Bi3  1  0.000000  0.000000  0.000000  1
  Bi  Bi4  1  0.260787  0.504323  0.872652  1
  Bi  Bi5  1  0.739213  0.495677  0.127348  1
  Bi  Bi6  1  0.720783  0.473899  0.605919  1
  Bi  Bi7  1  0.279217  0.526101  0.394081  1
  O  O8  1  0.464738  0.642284  0.184506  1
  O  O9  1  0.535262  0.357716  0.815494  1
  O  O10  1  0.294883  0.935942  0.954541  1
  O  O11  1  0.705117  0.064058  0.045459  1
  O  O12  1  0.285993  0.905209  0.505477  1
  O  O13  1  0.714007  0.094791  0.494523  1
  O  O14  1  0.531229  0.353352  0.359628  1
  O  O15  1  0.468771  0.646648  0.640372  1
  O  O16  1  0.905293  0.685071  0.973607  1
  O  O17  1  0.094707  0.314929  0.026393  1
  O  O18  1  0.114257  0.317896  0.619655  1
  O  O19  1  0.885743  0.682104  0.380345  1
  O  O20  1  0.888161  0.925052  0.731315  1
  O  O21  1  0.111839  0.074948  0.268685  1
