# generated using pymatgen
data_La4IrRuAu2
_symmetry_space_group_name_H-M   'P 1'
_cell_length_a   4.57365300
_cell_length_b   5.97547399
_cell_length_c   7.63897365
_cell_angle_alpha   91.92101021
_cell_angle_beta   90.00000000
_cell_angle_gamma   90.00000000
_symmetry_Int_Tables_number   1
_chemical_formula_structural   La4IrRuAu2
_chemical_formula_sum   'La4 Ir1 Ru1 Au2'
_cell_volume   208.65386717
_cell_formula_units_Z   1
loop_
 _symmetry_equiv_pos_site_id
 _symmetry_equiv_pos_as_xyz
  1  'x, y, z'
loop_
 _atom_site_type_symbol
 _atom_site_label
 _atom_site_symmetry_multiplicity
 _atom_site_fract_x
 _atom_site_fract_y
 _atom_site_fract_z
 _atom_site_occupancy
  La  La0  1  0.250000  0.649375  0.165324  1
  La  La1  1  0.750000  0.357447  0.836423  1
  La  La2  1  0.750000  0.134923  0.283895  1
  La  La3  1  0.250000  0.866428  0.717144  1
  Ir  Ir4  1  0.250000  0.171470  0.047740  1
  Ru  Ru5  1  0.750000  0.819570  0.948675  1
  Au  Au6  1  0.750000  0.651089  0.462709  1
  Au  Au7  1  0.250000  0.349700  0.538090  1
