# generated using pymatgen
data_Ca20AlZn11
_symmetry_space_group_name_H-M   'P 1'
_cell_length_a   7.96394100
_cell_length_b   7.96394100
_cell_length_c   14.94563200
_cell_angle_alpha   90.00000000
_cell_angle_beta   90.00000000
_cell_angle_gamma   90.00000000
_symmetry_Int_Tables_number   1
_chemical_formula_structural   Ca20AlZn11
_chemical_formula_sum   'Ca20 Al1 Zn11'
_cell_volume   947.91708837
_cell_formula_units_Z   1
loop_
 _symmetry_equiv_pos_site_id
 _symmetry_equiv_pos_as_xyz
  1  'x, y, z'
loop_
 _atom_site_type_symbol
 _atom_site_label
 _atom_site_symmetry_multiplicity
 _atom_site_fract_x
 _atom_site_fract_y
 _atom_site_fract_z
 _atom_site_occupancy
  Ca  Ca0  1  0.669050  0.169166  0.101973  1
  Ca  Ca1  1  0.167813  0.669211  0.602745  1
  Ca  Ca2  1  0.330950  0.830834  0.101973  1
  Ca  Ca3  1  0.832187  0.330789  0.602745  1
  Ca  Ca4  1  0.830834  0.669050  0.101973  1
  Ca  Ca5  1  0.330789  0.167813  0.602745  1
  Ca  Ca6  1  0.169166  0.330950  0.101973  1
  Ca  Ca7  1  0.669211  0.832187  0.602745  1
  Ca  Ca8  1  0.830834  0.330950  0.898027  1
  Ca  Ca9  1  0.330789  0.832187  0.397255  1
  Ca  Ca10  1  0.169166  0.669050  0.898027  1
  Ca  Ca11  1  0.669211  0.167813  0.397255  1
  Ca  Ca12  1  0.669050  0.830834  0.898027  1
  Ca  Ca13  1  0.167813  0.330789  0.397255  1
  Ca  Ca14  1  0.330950  0.169166  0.898027  1
  Ca  Ca15  1  0.832187  0.669211  0.397255  1
  Ca  Ca16  1  0.500000  0.500000  0.751010  1
  Ca  Ca17  1  0.000000  0.000000  0.247336  1
  Ca  Ca18  1  0.000000  0.000000  0.752664  1
  Ca  Ca19  1  0.500000  0.500000  0.248990  1
  Al  Al20  1  0.000000  0.000000  0.000000  1
  Zn  Zn21  1  0.500000  0.500000  0.500000  1
  Zn  Zn22  1  0.500000  0.500000  0.000000  1
  Zn  Zn23  1  0.000000  0.000000  0.500000  1
  Zn  Zn24  1  0.619058  0.119105  0.749350  1
  Zn  Zn25  1  0.119105  0.619058  0.250650  1
  Zn  Zn26  1  0.880895  0.380942  0.250650  1
  Zn  Zn27  1  0.380942  0.880895  0.749350  1
  Zn  Zn28  1  0.880895  0.619058  0.749350  1
  Zn  Zn29  1  0.380942  0.119105  0.250650  1
  Zn  Zn30  1  0.119105  0.380942  0.749350  1
  Zn  Zn31  1  0.619058  0.880895  0.250650  1
