# generated using pymatgen
data_TbTm3(CuP)6
_symmetry_space_group_name_H-M   'P 1'
_cell_length_a   3.82271500
_cell_length_b   10.61948700
_cell_length_c   12.89611400
_cell_angle_alpha   90.00000000
_cell_angle_beta   90.00000000
_cell_angle_gamma   90.00000000
_symmetry_Int_Tables_number   1
_chemical_formula_structural   TbTm3(CuP)6
_chemical_formula_sum   'Tb2 Tm6 Cu12 P12'
_cell_volume   523.52125876
_cell_formula_units_Z   2
loop_
 _symmetry_equiv_pos_site_id
 _symmetry_equiv_pos_as_xyz
  1  'x, y, z'
loop_
 _atom_site_type_symbol
 _atom_site_label
 _atom_site_symmetry_multiplicity
 _atom_site_fract_x
 _atom_site_fract_y
 _atom_site_fract_z
 _atom_site_occupancy
  Tb  Tb0  1  0.250000  0.931518  0.792116  1
  Tb  Tb1  1  0.750000  0.431518  0.707884  1
  Tm  Tm2  1  0.250000  0.569109  0.291618  1
  Tm  Tm3  1  0.750000  0.069109  0.208382  1
  Tm  Tm4  1  0.250000  0.840452  0.502904  1
  Tm  Tm5  1  0.750000  0.340452  0.997096  1
  Tm  Tm6  1  0.250000  0.659009  0.004099  1
  Tm  Tm7  1  0.750000  0.159009  0.495901  1
  Cu  Cu8  1  0.250000  0.405549  0.512108  1
  Cu  Cu9  1  0.750000  0.905549  0.987892  1
  Cu  Cu10  1  0.250000  0.094352  0.013521  1
  Cu  Cu11  1  0.750000  0.594352  0.486479  1
  Cu  Cu12  1  0.250000  0.272060  0.331277  1
  Cu  Cu13  1  0.750000  0.772060  0.168723  1
  Cu  Cu14  1  0.250000  0.228578  0.831801  1
  Cu  Cu15  1  0.750000  0.728578  0.668199  1
  Cu  Cu16  1  0.250000  0.859756  0.282036  1
  Cu  Cu17  1  0.750000  0.359756  0.217964  1
  Cu  Cu18  1  0.250000  0.640681  0.782766  1
  Cu  Cu19  1  0.750000  0.140681  0.717234  1
  P  P20  1  0.250000  0.241652  0.640697  1
  P  P21  1  0.750000  0.741652  0.859303  1
  P  P22  1  0.250000  0.255948  0.141742  1
  P  P23  1  0.750000  0.755948  0.358258  1
  P  P24  1  0.250000  0.606522  0.602250  1
  P  P25  1  0.750000  0.106522  0.897750  1
  P  P26  1  0.250000  0.894766  0.102678  1
  P  P27  1  0.750000  0.394766  0.397322  1
  P  P28  1  0.250000  0.056399  0.369785  1
  P  P29  1  0.750000  0.556399  0.130215  1
  P  P30  1  0.250000  0.443647  0.872447  1
  P  P31  1  0.750000  0.943647  0.627553  1
