# generated using pymatgen
data_Y2Co4Ni5P7W3
_symmetry_space_group_name_H-M   'P 1'
_cell_length_a   9.31421600
_cell_length_b   9.28247462
_cell_length_c   3.74231100
_cell_angle_alpha   90.00000000
_cell_angle_beta   90.00000000
_cell_angle_gamma   120.05452991
_symmetry_Int_Tables_number   1
_chemical_formula_structural   Y2Co4Ni5P7W3
_chemical_formula_sum   'Y2 Co4 Ni5 P7 W3'
_cell_volume   280.05393874
_cell_formula_units_Z   1
loop_
 _symmetry_equiv_pos_site_id
 _symmetry_equiv_pos_as_xyz
  1  'x, y, z'
loop_
 _atom_site_type_symbol
 _atom_site_label
 _atom_site_symmetry_multiplicity
 _atom_site_fract_x
 _atom_site_fract_y
 _atom_site_fract_z
 _atom_site_occupancy
  Y  Y0  1  0.334996  0.668599  0.000000  1
  Y  Y1  1  0.665879  0.333203  0.500000  1
  Co  Co2  1  0.722139  0.877347  0.000000  1
  Co  Co3  1  0.153624  0.277548  0.000000  1
  Co  Co4  1  0.123984  0.846928  0.000000  1
  Co  Co5  1  0.562513  0.947161  0.500000  1
  Ni  Ni6  1  0.631395  0.568221  0.000000  1
  Ni  Ni7  1  0.932376  0.365124  0.000000  1
  Ni  Ni8  1  0.432990  0.062328  0.000000  1
  Ni  Ni9  1  0.384572  0.441109  0.500000  1
  Ni  Ni10  1  0.056075  0.615110  0.500000  1
  P  P11  1  0.594971  0.715478  0.500000  1
  P  P12  1  0.117765  0.405331  0.500000  1
  P  P13  1  0.289151  0.881654  0.500000  1
  P  P14  1  0.999726  0.999764  0.000000  1
  P  P15  1  0.890888  0.591525  0.000000  1
  P  P16  1  0.697080  0.105116  0.000000  1
  P  P17  1  0.408501  0.299713  0.000000  1
  W  W18  1  0.880927  0.779966  0.500000  1
  W  W19  1  0.900049  0.118289  0.500000  1
  W  W20  1  0.220397  0.100485  0.500000  1
