# generated using pymatgen
data_Ho2Er10Co4SnRh
_symmetry_space_group_name_H-M   'P 1'
_cell_length_a   8.21488420
_cell_length_b   8.21507083
_cell_length_c   8.21488588
_cell_angle_alpha   110.94899633
_cell_angle_beta   110.67539830
_cell_angle_gamma   106.82056886
_symmetry_Int_Tables_number   1
_chemical_formula_structural   Ho2Er10Co4SnRh
_chemical_formula_sum   'Ho2 Er10 Co4 Sn1 Rh1'
_cell_volume   426.08978871
_cell_formula_units_Z   1
loop_
 _symmetry_equiv_pos_site_id
 _symmetry_equiv_pos_as_xyz
  1  'x, y, z'
loop_
 _atom_site_type_symbol
 _atom_site_label
 _atom_site_symmetry_multiplicity
 _atom_site_fract_x
 _atom_site_fract_y
 _atom_site_fract_z
 _atom_site_occupancy
  Ho  Ho0  1  0.313334  0.617355  0.304019  1
  Ho  Ho1  1  0.686666  0.382646  0.695981  1
  Er  Er2  1  0.313357  0.009389  0.696032  1
  Er  Er3  1  0.686643  0.990611  0.303968  1
  Er  Er4  1  0.411710  0.214252  0.196988  1
  Er  Er5  1  0.588290  0.785748  0.803012  1
  Er  Er6  1  0.017264  0.214252  0.802541  1
  Er  Er7  1  0.982736  0.785748  0.197459  1
  Er  Er8  1  0.184908  0.288064  0.473419  1
  Er  Er9  1  0.815092  0.711936  0.526581  1
  Er  Er10  1  0.185355  0.711936  0.896844  1
  Er  Er11  1  0.814645  0.288064  0.103156  1
  Co  Co12  1  0.112107  0.612275  0.500168  1
  Co  Co13  1  0.887894  0.387726  0.499832  1
  Co  Co14  1  0.378019  0.000000  0.378019  1
  Co  Co15  1  0.621981  0.000000  0.621981  1
  Sn  Sn16  1  0.500000  0.500000  0.000000  1
  Rh  Rh17  1  0.000000  0.000000  0.000000  1
