# generated using pymatgen
data_CaTbEr6(B6Os)4
_symmetry_space_group_name_H-M   'P 1'
_cell_length_a   3.63732500
_cell_length_b   9.12492776
_cell_length_c   11.51616231
_cell_angle_alpha   89.90589696
_cell_angle_beta   90.00000000
_cell_angle_gamma   90.00000000
_symmetry_Int_Tables_number   1
_chemical_formula_structural   CaTbEr6(B6Os)4
_chemical_formula_sum   'Ca1 Tb1 Er6 B24 Os4'
_cell_volume   382.22468713
_cell_formula_units_Z   1
loop_
 _symmetry_equiv_pos_site_id
 _symmetry_equiv_pos_as_xyz
  1  'x, y, z'
loop_
 _atom_site_type_symbol
 _atom_site_label
 _atom_site_symmetry_multiplicity
 _atom_site_fract_x
 _atom_site_fract_y
 _atom_site_fract_z
 _atom_site_occupancy
  Ca  Ca0  1  0.000000  0.321965  0.413543  1
  Tb  Tb1  1  0.000000  0.676641  0.585499  1
  Er  Er2  1  0.000000  0.822006  0.086504  1
  Er  Er3  1  0.000000  0.178686  0.914589  1
  Er  Er4  1  0.000000  0.944097  0.371576  1
  Er  Er5  1  0.000000  0.057656  0.627671  1
  Er  Er6  1  0.000000  0.443130  0.128180  1
  Er  Er7  1  0.000000  0.556087  0.873116  1
  B  B8  1  0.500000  0.554102  0.432125  1
  B  B9  1  0.500000  0.445990  0.567898  1
  B  B10  1  0.500000  0.052908  0.066227  1
  B  B11  1  0.500000  0.946426  0.933168  1
  B  B12  1  0.500000  0.748675  0.418555  1
  B  B13  1  0.500000  0.251647  0.581582  1
  B  B14  1  0.500000  0.247700  0.080012  1
  B  B15  1  0.500000  0.751769  0.920140  1
  B  B16  1  0.500000  0.791784  0.265547  1
  B  B17  1  0.500000  0.209078  0.734628  1
  B  B18  1  0.500000  0.290027  0.232772  1
  B  B19  1  0.500000  0.709519  0.767148  1
  B  B20  1  0.500000  0.631814  0.185188  1
  B  B21  1  0.500000  0.368491  0.815616  1
  B  B22  1  0.500000  0.130572  0.313508  1
  B  B23  1  0.500000  0.869322  0.685779  1
  B  B24  1  0.500000  0.982433  0.211825  1
  B  B25  1  0.500000  0.017622  0.787504  1
  B  B26  1  0.500000  0.483450  0.286656  1
  B  B27  1  0.500000  0.516579  0.713633  1
  B  B28  1  0.500000  0.607631  0.029865  1
  B  B29  1  0.500000  0.392521  0.970550  1
  B  B30  1  0.500000  0.103057  0.471322  1
  B  B31  1  0.500000  0.896029  0.528831  1
  Os  Os32  1  0.000000  0.639809  0.319674  1
  Os  Os33  1  0.000000  0.361757  0.681014  1
  Os  Os34  1  0.000000  0.135930  0.176730  1
  Os  Os35  1  0.000000  0.863090  0.821826  1
