# generated using pymatgen
data_Y10GaSn4Bi
_symmetry_space_group_name_H-M   'P 1'
_cell_length_a   8.95295216
_cell_length_b   8.95705137
_cell_length_c   6.55927300
_cell_angle_alpha   90.00000000
_cell_angle_beta   90.00000000
_cell_angle_gamma   120.00080576
_symmetry_Int_Tables_number   1
_chemical_formula_structural   Y10GaSn4Bi
_chemical_formula_sum   'Y10 Ga1 Sn4 Bi1'
_cell_volume   455.52701852
_cell_formula_units_Z   1
loop_
 _symmetry_equiv_pos_site_id
 _symmetry_equiv_pos_as_xyz
  1  'x, y, z'
loop_
 _atom_site_type_symbol
 _atom_site_label
 _atom_site_symmetry_multiplicity
 _atom_site_fract_x
 _atom_site_fract_y
 _atom_site_fract_z
 _atom_site_occupancy
  Y  Y0  1  0.760987  0.760943  0.250000  1
  Y  Y1  1  0.999579  0.240120  0.250000  1
  Y  Y2  1  0.756807  0.005790  0.750000  1
  Y  Y3  1  0.330942  0.674227  0.500432  1
  Y  Y4  1  0.240072  0.999477  0.250000  1
  Y  Y5  1  0.661205  0.322917  0.500451  1
  Y  Y6  1  0.015637  0.768524  0.750000  1
  Y  Y7  1  0.330942  0.674227  0.999568  1
  Y  Y8  1  0.239898  0.230089  0.750000  1
  Y  Y9  1  0.661205  0.322917  0.999549  1
  Ga  Ga10  1  0.397003  0.000634  0.750000  1
  Sn  Sn11  1  0.605022  0.998157  0.250000  1
  Sn  Sn12  1  0.001909  0.395123  0.750000  1
  Sn  Sn13  1  0.393737  0.395944  0.250000  1
  Sn  Sn14  1  0.995638  0.603027  0.250000  1
  Bi  Bi15  1  0.609420  0.607887  0.750000  1
