# generated using pymatgen
data_Yb2Y3Sb3O14
_symmetry_space_group_name_H-M   'P 1'
_cell_length_a   7.40137780
_cell_length_b   7.40135781
_cell_length_c   7.40136509
_cell_angle_alpha   119.42636574
_cell_angle_beta   60.57355915
_cell_angle_gamma   119.42646851
_symmetry_Int_Tables_number   1
_chemical_formula_structural   Yb2Y3Sb3O14
_chemical_formula_sum   'Yb2 Y3 Sb3 O14'
_cell_volume   290.41001779
_cell_formula_units_Z   1
loop_
 _symmetry_equiv_pos_site_id
 _symmetry_equiv_pos_as_xyz
  1  'x, y, z'
loop_
 _atom_site_type_symbol
 _atom_site_label
 _atom_site_symmetry_multiplicity
 _atom_site_fract_x
 _atom_site_fract_y
 _atom_site_fract_z
 _atom_site_occupancy
  Yb  Yb0  1  0.499998  0.500000  0.999998  1
  Yb  Yb1  1  0.999999  0.999996  0.500000  1
  Y  Y2  1  0.000000  0.500001  0.000001  1
  Y  Y3  1  0.499996  0.999999  0.999999  1
  Y  Y4  1  0.500002  0.500002  0.500000  1
  Sb  Sb5  1  0.500005  0.000000  0.500016  1
  Sb  Sb6  1  0.999982  0.500002  0.499979  1
  Sb  Sb7  1  0.000019  0.000009  0.000004  1
  O  O8  1  0.624856  0.375144  0.124854  1
  O  O9  1  0.375140  0.624856  0.875141  1
  O  O10  1  0.092113  0.319695  0.180310  1
  O  O11  1  0.680306  0.907883  0.180304  1
  O  O12  1  0.680308  0.319696  0.592115  1
  O  O13  1  0.907885  0.680309  0.819699  1
  O  O14  1  0.319692  0.092109  0.819690  1
  O  O15  1  0.319698  0.680307  0.407885  1
  O  O16  1  0.628357  0.900199  0.599801  1
  O  O17  1  0.099807  0.371636  0.599808  1
  O  O18  1  0.099800  0.900198  0.128359  1
  O  O19  1  0.371642  0.099805  0.400193  1
  O  O20  1  0.900200  0.628350  0.400202  1
  O  O21  1  0.900195  0.099804  0.871642  1
