# generated using pymatgen
data_Ta3Nb2(CuSi)4
_symmetry_space_group_name_H-M   'P 1'
_cell_length_a   7.43477070
_cell_length_b   7.43477018
_cell_length_c   7.43487721
_cell_angle_alpha   93.43408116
_cell_angle_beta   93.38604503
_cell_angle_gamma   151.76747329
_symmetry_Int_Tables_number   1
_chemical_formula_structural   Ta3Nb2(CuSi)4
_chemical_formula_sum   'Ta3 Nb2 Cu4 Si4'
_cell_volume   188.53876585
_cell_formula_units_Z   1
loop_
 _symmetry_equiv_pos_site_id
 _symmetry_equiv_pos_as_xyz
  1  'x, y, z'
loop_
 _atom_site_type_symbol
 _atom_site_label
 _atom_site_symmetry_multiplicity
 _atom_site_fract_x
 _atom_site_fract_y
 _atom_site_fract_z
 _atom_site_occupancy
  Ta  Ta0  1  0.500376  0.499645  0.000021  1
  Ta  Ta1  1  0.128476  0.805118  0.933593  1
  Ta  Ta2  1  0.195234  0.127794  0.323028  1
  Nb  Nb3  1  0.804578  0.870565  0.675143  1
  Nb  Nb4  1  0.870923  0.195583  0.066506  1
  Cu  Cu5  1  0.396712  0.918528  0.315240  1
  Cu  Cu6  1  0.603984  0.083277  0.687260  1
  Cu  Cu7  1  0.918197  0.603898  0.522095  1
  Cu  Cu8  1  0.081806  0.395950  0.477755  1
  Si  Si9  1  0.247733  0.559605  0.807338  1
  Si  Si10  1  0.440008  0.247670  0.687678  1
  Si  Si11  1  0.559412  0.751901  0.311313  1
  Si  Si12  1  0.752562  0.440466  0.193028  1
