# generated using pymatgen
data_Rb12LuScSe8
_symmetry_space_group_name_H-M   'P 1'
_cell_length_a   11.17922800
_cell_length_b   11.17922712
_cell_length_c   8.37769300
_cell_angle_alpha   90.00000000
_cell_angle_beta   90.00000000
_cell_angle_gamma   119.99999670
_symmetry_Int_Tables_number   1
_chemical_formula_structural   Rb12LuScSe8
_chemical_formula_sum   'Rb12 Lu1 Sc1 Se8'
_cell_volume   906.73145269
_cell_formula_units_Z   1
loop_
 _symmetry_equiv_pos_site_id
 _symmetry_equiv_pos_as_xyz
  1  'x, y, z'
loop_
 _atom_site_type_symbol
 _atom_site_label
 _atom_site_symmetry_multiplicity
 _atom_site_fract_x
 _atom_site_fract_y
 _atom_site_fract_z
 _atom_site_occupancy
  Rb  Rb0  1  0.132520  0.867480  0.545603  1
  Rb  Rb1  1  0.266759  0.133380  0.043444  1
  Rb  Rb2  1  0.866620  0.733241  0.043444  1
  Rb  Rb3  1  0.132520  0.265040  0.545603  1
  Rb  Rb4  1  0.734960  0.867480  0.545603  1
  Rb  Rb5  1  0.866620  0.133380  0.043444  1
  Rb  Rb6  1  0.533125  0.466875  0.362507  1
  Rb  Rb7  1  0.060063  0.530031  0.860324  1
  Rb  Rb8  1  0.469969  0.939937  0.860324  1
  Rb  Rb9  1  0.533125  0.066251  0.362507  1
  Rb  Rb10  1  0.933749  0.466875  0.362507  1
  Rb  Rb11  1  0.469969  0.530031  0.860324  1
  Lu  Lu12  1  0.333333  0.666667  0.257379  1
  Sc  Sc13  1  0.666667  0.333333  0.758153  1
  Se  Se14  1  0.333333  0.666667  0.577539  1
  Se  Se15  1  0.666667  0.333333  0.068516  1
  Se  Se16  1  0.202415  0.797585  0.151851  1
  Se  Se17  1  0.413247  0.206623  0.655543  1
  Se  Se18  1  0.793377  0.586753  0.655543  1
  Se  Se19  1  0.202415  0.404831  0.151851  1
  Se  Se20  1  0.595169  0.797585  0.151851  1
  Se  Se21  1  0.793377  0.206623  0.655543  1
