# generated using pymatgen
data_LiLa6Pr2Zn7Rh8
_symmetry_space_group_name_H-M   'P 1'
_cell_length_a   4.11413800
_cell_length_b   7.33770710
_cell_length_c   16.59226872
_cell_angle_alpha   90.12995469
_cell_angle_beta   90.00000000
_cell_angle_gamma   90.00000000
_symmetry_Int_Tables_number   1
_chemical_formula_structural   LiLa6Pr2Zn7Rh8
_chemical_formula_sum   'Li1 La6 Pr2 Zn7 Rh8'
_cell_volume   500.89175444
_cell_formula_units_Z   1
loop_
 _symmetry_equiv_pos_site_id
 _symmetry_equiv_pos_as_xyz
  1  'x, y, z'
loop_
 _atom_site_type_symbol
 _atom_site_label
 _atom_site_symmetry_multiplicity
 _atom_site_fract_x
 _atom_site_fract_y
 _atom_site_fract_z
 _atom_site_occupancy
  Li  Li0  1  0.250000  0.992157  0.439630  1
  La  La1  1  0.750000  0.455178  0.217431  1
  La  La2  1  0.750000  0.956466  0.282541  1
  La  La3  1  0.250000  0.045260  0.716575  1
  La  La4  1  0.250000  0.168945  0.940427  1
  La  La5  1  0.250000  0.545632  0.783164  1
  La  La6  1  0.250000  0.668199  0.559853  1
  Pr  Pr7  1  0.750000  0.832256  0.059979  1
  Pr  Pr8  1  0.750000  0.334942  0.440684  1
  Zn  Zn9  1  0.750000  0.503238  0.940184  1
  Zn  Zn10  1  0.750000  0.004080  0.557746  1
  Zn  Zn11  1  0.250000  0.630899  0.351394  1
  Zn  Zn12  1  0.750000  0.372211  0.648774  1
  Zn  Zn13  1  0.750000  0.872650  0.851462  1
  Zn  Zn14  1  0.250000  0.499885  0.060466  1
  Zn  Zn15  1  0.250000  0.127204  0.148849  1
  Rh  Rh16  1  0.250000  0.243869  0.566693  1
  Rh  Rh17  1  0.750000  0.256967  0.064773  1
  Rh  Rh18  1  0.250000  0.249352  0.310910  1
  Rh  Rh19  1  0.750000  0.253561  0.812778  1
  Rh  Rh20  1  0.250000  0.740932  0.934101  1
  Rh  Rh21  1  0.750000  0.753451  0.686765  1
  Rh  Rh22  1  0.750000  0.746206  0.436678  1
  Rh  Rh23  1  0.250000  0.746460  0.188143  1
