# generated using pymatgen
data_La6Zn3CuSb12
_symmetry_space_group_name_H-M   'P 1'
_cell_length_a   4.33492800
_cell_length_b   10.45153657
_cell_length_c   13.50615870
_cell_angle_alpha   90.20233988
_cell_angle_beta   90.00000000
_cell_angle_gamma   90.00000000
_symmetry_Int_Tables_number   1
_chemical_formula_structural   La6Zn3CuSb12
_chemical_formula_sum   'La6 Zn3 Cu1 Sb12'
_cell_volume   611.91510441
_cell_formula_units_Z   1
loop_
 _symmetry_equiv_pos_site_id
 _symmetry_equiv_pos_as_xyz
  1  'x, y, z'
loop_
 _atom_site_type_symbol
 _atom_site_label
 _atom_site_symmetry_multiplicity
 _atom_site_fract_x
 _atom_site_fract_y
 _atom_site_fract_z
 _atom_site_occupancy
  La  La0  1  0.750000  0.241412  0.751092  1
  La  La1  1  0.750000  0.256858  0.407201  1
  La  La2  1  0.250000  0.745828  0.914344  1
  La  La3  1  0.250000  0.741887  0.591258  1
  La  La4  1  0.250000  0.764076  0.246347  1
  La  La5  1  0.750000  0.249884  0.090093  1
  Zn  Zn6  1  0.250000  0.998133  0.414055  1
  Zn  Zn7  1  0.750000  0.000939  0.586910  1
  Zn  Zn8  1  0.750000  0.001564  0.916589  1
  Cu  Cu9  1  0.250000  0.000375  0.082512  1
  Sb  Sb10  1  0.750000  0.507495  0.249124  1
  Sb  Sb11  1  0.750000  0.492751  0.917407  1
  Sb  Sb12  1  0.750000  0.855158  0.750985  1
  Sb  Sb13  1  0.750000  0.836978  0.422820  1
  Sb  Sb14  1  0.250000  0.159510  0.921253  1
  Sb  Sb15  1  0.250000  0.162157  0.577444  1
  Sb  Sb16  1  0.250000  0.136132  0.247924  1
  Sb  Sb17  1  0.250000  0.505641  0.083463  1
  Sb  Sb18  1  0.250000  0.493914  0.750553  1
  Sb  Sb19  1  0.250000  0.508038  0.415632  1
  Sb  Sb20  1  0.750000  0.491652  0.583310  1
  Sb  Sb21  1  0.750000  0.849620  0.079682  1
