# generated using pymatgen
data_Pr2Cd5
_symmetry_space_group_name_H-M   'P 1'
_cell_length_a   18.51960203
_cell_length_b   18.51960241
_cell_length_c   5.23265900
_cell_angle_alpha   90.00000000
_cell_angle_beta   90.00000000
_cell_angle_gamma   168.17421506
_symmetry_Int_Tables_number   1
_chemical_formula_structural   Pr2Cd5
_chemical_formula_sum   'Pr4 Cd10'
_cell_volume   367.79444807
_cell_formula_units_Z   2
loop_
 _symmetry_equiv_pos_site_id
 _symmetry_equiv_pos_as_xyz
  1  'x, y, z'
loop_
 _atom_site_type_symbol
 _atom_site_label
 _atom_site_symmetry_multiplicity
 _atom_site_fract_x
 _atom_site_fract_y
 _atom_site_fract_z
 _atom_site_occupancy
  Pr  Pr0  1  0.929839  0.070161  0.500000  1
  Pr  Pr1  1  0.070161  0.929839  0.500000  1
  Pr  Pr2  1  0.790883  0.209117  0.500000  1
  Pr  Pr3  1  0.209117  0.790883  0.500000  1
  Cd  Cd4  1  0.639551  0.360449  0.500000  1
  Cd  Cd5  1  0.360449  0.639551  0.500000  1
  Cd  Cd6  1  0.715336  0.284664  0.000000  1
  Cd  Cd7  1  0.284664  0.715336  0.000000  1
  Cd  Cd8  1  0.500000  0.500000  0.500000  1
  Cd  Cd9  1  0.568965  0.431035  0.000000  1
  Cd  Cd10  1  0.431035  0.568965  0.000000  1
  Cd  Cd11  1  0.856606  0.143394  0.000000  1
  Cd  Cd12  1  0.143394  0.856606  0.000000  1
  Cd  Cd13  1  0.000000  0.000000  0.000000  1
