# generated using pymatgen
data_Pr8Si12OsRh3
_symmetry_space_group_name_H-M   'P 1'
_cell_length_a   8.28537700
_cell_length_b   8.28537728
_cell_length_c   8.52425700
_cell_angle_alpha   90.00000000
_cell_angle_beta   90.00000000
_cell_angle_gamma   120.00000286
_symmetry_Int_Tables_number   1
_chemical_formula_structural   Pr8Si12OsRh3
_chemical_formula_sum   'Pr8 Si12 Os1 Rh3'
_cell_volume   506.77095719
_cell_formula_units_Z   1
loop_
 _symmetry_equiv_pos_site_id
 _symmetry_equiv_pos_as_xyz
  1  'x, y, z'
loop_
 _atom_site_type_symbol
 _atom_site_label
 _atom_site_symmetry_multiplicity
 _atom_site_fract_x
 _atom_site_fract_y
 _atom_site_fract_z
 _atom_site_occupancy
  Pr  Pr0  1  0.500812  0.499188  0.747512  1
  Pr  Pr1  1  0.501796  0.498204  0.252412  1
  Pr  Pr2  1  0.998377  0.499188  0.747512  1
  Pr  Pr3  1  0.996408  0.498204  0.252412  1
  Pr  Pr4  1  0.500812  0.001623  0.747512  1
  Pr  Pr5  1  0.501796  0.003592  0.252412  1
  Pr  Pr6  1  0.000000  0.000000  0.751797  1
  Pr  Pr7  1  0.000000  0.000000  0.248680  1
  Si  Si8  1  0.833432  0.166568  0.000372  1
  Si  Si9  1  0.167003  0.832997  0.999869  1
  Si  Si10  1  0.333135  0.166568  0.000372  1
  Si  Si11  1  0.166810  0.833190  0.499793  1
  Si  Si12  1  0.665993  0.832997  0.999869  1
  Si  Si13  1  0.832966  0.167034  0.500313  1
  Si  Si14  1  0.833432  0.666865  0.000372  1
  Si  Si15  1  0.666381  0.833190  0.499793  1
  Si  Si16  1  0.167003  0.334007  0.999869  1
  Si  Si17  1  0.334068  0.167034  0.500313  1
  Si  Si18  1  0.166810  0.333619  0.499793  1
  Si  Si19  1  0.832966  0.665932  0.500313  1
  Os  Os20  1  0.666667  0.333333  0.501176  1
  Rh  Rh21  1  0.666667  0.333333  0.997813  1
  Rh  Rh22  1  0.333333  0.666667  0.001448  1
  Rh  Rh23  1  0.333333  0.666667  0.498274  1
