# generated using pymatgen
data_YTh2ZnHg2Au3
_symmetry_space_group_name_H-M   'P 1'
_cell_length_a   7.65269672
_cell_length_b   7.81152253
_cell_length_c   4.06298900
_cell_angle_alpha   90.00000000
_cell_angle_beta   90.00000000
_cell_angle_gamma   119.27811279
_symmetry_Int_Tables_number   1
_chemical_formula_structural   YTh2ZnHg2Au3
_chemical_formula_sum   'Y1 Th2 Zn1 Hg2 Au3'
_cell_volume   211.85556724
_cell_formula_units_Z   1
loop_
 _symmetry_equiv_pos_site_id
 _symmetry_equiv_pos_as_xyz
  1  'x, y, z'
loop_
 _atom_site_type_symbol
 _atom_site_label
 _atom_site_symmetry_multiplicity
 _atom_site_fract_x
 _atom_site_fract_y
 _atom_site_fract_z
 _atom_site_occupancy
  Y  Y0  1  0.402088  0.404066  0.000000  1
  Th  Th1  1  0.592552  0.999781  0.000000  1
  Th  Th2  1  0.996016  0.591858  0.000000  1
  Zn  Zn3  1  0.258650  0.007457  0.500000  1
  Hg  Hg4  1  0.009794  0.262692  0.500000  1
  Hg  Hg5  1  0.736263  0.734256  0.500000  1
  Au  Au6  1  0.330451  0.681345  0.500000  1
  Au  Au7  1  0.649169  0.319822  0.500000  1
  Au  Au8  1  0.025016  0.998722  0.000000  1
