# generated using pymatgen
data_K6LuScF12
_symmetry_space_group_name_H-M   'P 1'
_cell_length_a   6.53040072
_cell_length_b   6.30567055
_cell_length_c   10.98116739
_cell_angle_alpha   55.21608982
_cell_angle_beta   89.92600627
_cell_angle_gamma   90.01881640
_symmetry_Int_Tables_number   1
_chemical_formula_structural   K6LuScF12
_chemical_formula_sum   'K6 Lu1 Sc1 F12'
_cell_volume   371.38615490
_cell_formula_units_Z   1
loop_
 _symmetry_equiv_pos_site_id
 _symmetry_equiv_pos_as_xyz
  1  'x, y, z'
loop_
 _atom_site_type_symbol
 _atom_site_label
 _atom_site_symmetry_multiplicity
 _atom_site_fract_x
 _atom_site_fract_y
 _atom_site_fract_z
 _atom_site_occupancy
  K  K0  1  0.500000  0.500000  0.000000  1
  K  K1  1  0.000000  0.500000  0.500000  1
  K  K2  1  0.051156  0.736977  0.750119  1
  K  K3  1  0.948844  0.263023  0.249881  1
  K  K4  1  0.549426  0.269538  0.743779  1
  K  K5  1  0.450574  0.730462  0.256221  1
  Lu  Lu6  1  0.000000  0.000000  0.000000  1
  Sc  Sc7  1  0.500000  0.000000  0.500000  1
  F  F8  1  0.760236  0.777038  0.561680  1
  F  F9  1  0.239764  0.222962  0.438320  1
  F  F10  1  0.269722  0.230933  0.935336  1
  F  F11  1  0.730278  0.769067  0.064664  1
  F  F12  1  0.452760  0.886768  0.713959  1
  F  F13  1  0.547240  0.113232  0.286041  1
  F  F14  1  0.950706  0.117514  0.778090  1
  F  F15  1  0.049294  0.882486  0.221910  1
  F  F16  1  0.330246  0.689422  0.544829  1
  F  F17  1  0.669754  0.310578  0.455171  1
  F  F18  1  0.826210  0.322996  0.952862  1
  F  F19  1  0.173790  0.677004  0.047138  1
