# generated using pymatgen
data_Mn6W6C
_symmetry_space_group_name_H-M   'P 1'
_cell_length_a   7.77952947
_cell_length_b   7.77952951
_cell_length_c   7.77953000
_cell_angle_alpha   59.99999792
_cell_angle_beta   59.99999776
_cell_angle_gamma   59.99999621
_symmetry_Int_Tables_number   1
_chemical_formula_structural   Mn6W6C
_chemical_formula_sum   'Mn12 W12 C2'
_cell_volume   332.92391909
_cell_formula_units_Z   2
loop_
 _symmetry_equiv_pos_site_id
 _symmetry_equiv_pos_as_xyz
  1  'x, y, z'
loop_
 _atom_site_type_symbol
 _atom_site_label
 _atom_site_symmetry_multiplicity
 _atom_site_fract_x
 _atom_site_fract_y
 _atom_site_fract_z
 _atom_site_occupancy
  Mn  Mn0  1  0.421015  0.421015  0.736956  1
  Mn  Mn1  1  0.421015  0.736956  0.421015  1
  Mn  Mn2  1  0.736956  0.421015  0.421015  1
  Mn  Mn3  1  0.421015  0.421015  0.421015  1
  Mn  Mn4  1  0.828985  0.828985  0.513044  1
  Mn  Mn5  1  0.828985  0.513044  0.828985  1
  Mn  Mn6  1  0.513044  0.828985  0.828985  1
  Mn  Mn7  1  0.828985  0.828985  0.828985  1
  Mn  Mn8  1  0.625000  0.625000  0.125000  1
  Mn  Mn9  1  0.625000  0.125000  0.625000  1
  Mn  Mn10  1  0.125000  0.625000  0.625000  1
  Mn  Mn11  1  0.625000  0.625000  0.625000  1
  W  W12  1  0.054092  0.054092  0.445908  1
  W  W13  1  0.445908  0.054092  0.445908  1
  W  W14  1  0.054092  0.445908  0.445908  1
  W  W15  1  0.445908  0.445908  0.054092  1
  W  W16  1  0.054092  0.445908  0.054092  1
  W  W17  1  0.445908  0.054092  0.054092  1
  W  W18  1  0.195908  0.195908  0.804092  1
  W  W19  1  0.804092  0.195908  0.804092  1
  W  W20  1  0.195908  0.804092  0.804092  1
  W  W21  1  0.804092  0.804092  0.195908  1
  W  W22  1  0.195908  0.804092  0.195908  1
  W  W23  1  0.804092  0.195908  0.195908  1
  C  C24  1  0.250000  0.250000  0.250000  1
  C  C25  1  0.000000  0.000000  0.000000  1
