# generated using pymatgen
data_Tm8Si12Pt3Au
_symmetry_space_group_name_H-M   'P 1'
_cell_length_a   8.17610500
_cell_length_b   8.17610507
_cell_length_c   7.78491400
_cell_angle_alpha   90.00000000
_cell_angle_beta   90.00000000
_cell_angle_gamma   119.99999568
_symmetry_Int_Tables_number   1
_chemical_formula_structural   Tm8Si12Pt3Au
_chemical_formula_sum   'Tm8 Si12 Pt3 Au1'
_cell_volume   450.68945185
_cell_formula_units_Z   1
loop_
 _symmetry_equiv_pos_site_id
 _symmetry_equiv_pos_as_xyz
  1  'x, y, z'
loop_
 _atom_site_type_symbol
 _atom_site_label
 _atom_site_symmetry_multiplicity
 _atom_site_fract_x
 _atom_site_fract_y
 _atom_site_fract_z
 _atom_site_occupancy
  Tm  Tm0  1  0.513637  0.027273  0.252240  1
  Tm  Tm1  1  0.489375  0.978752  0.748253  1
  Tm  Tm2  1  0.972727  0.486363  0.252240  1
  Tm  Tm3  1  0.021248  0.510625  0.748253  1
  Tm  Tm4  1  0.513637  0.486363  0.252240  1
  Tm  Tm5  1  0.489375  0.510625  0.748253  1
  Tm  Tm6  1  0.000000  0.000000  0.249914  1
  Tm  Tm7  1  0.000000  0.000000  0.748564  1
  Si  Si8  1  0.162203  0.324405  0.000401  1
  Si  Si9  1  0.833856  0.667713  0.997432  1
  Si  Si10  1  0.675595  0.837797  0.000401  1
  Si  Si11  1  0.835202  0.670405  0.503512  1
  Si  Si12  1  0.332287  0.166144  0.997432  1
  Si  Si13  1  0.165153  0.330305  0.495843  1
  Si  Si14  1  0.162203  0.837797  0.000401  1
  Si  Si15  1  0.329595  0.164798  0.503512  1
  Si  Si16  1  0.833856  0.166144  0.997432  1
  Si  Si17  1  0.669695  0.834847  0.495843  1
  Si  Si18  1  0.835202  0.164798  0.503512  1
  Si  Si19  1  0.165153  0.834847  0.495843  1
  Pt  Pt20  1  0.666667  0.333333  0.960409  1
  Pt  Pt21  1  0.666667  0.333333  0.539181  1
  Pt  Pt22  1  0.333333  0.666667  0.464986  1
  Au  Au23  1  0.333333  0.666667  0.043901  1
