# generated using pymatgen
data_Ba3P6Os5Ru
_symmetry_space_group_name_H-M   'P 1'
_cell_length_a   8.86562762
_cell_length_b   8.87285979
_cell_length_c   8.87286200
_cell_angle_alpha   153.63239214
_cell_angle_beta   91.40056505
_cell_angle_gamma   94.57016592
_symmetry_Int_Tables_number   1
_chemical_formula_structural   Ba3P6Os5Ru
_chemical_formula_sum   'Ba3 P6 Os5 Ru1'
_cell_volume   301.67668337
_cell_formula_units_Z   1
loop_
 _symmetry_equiv_pos_site_id
 _symmetry_equiv_pos_as_xyz
  1  'x, y, z'
loop_
 _atom_site_type_symbol
 _atom_site_label
 _atom_site_symmetry_multiplicity
 _atom_site_fract_x
 _atom_site_fract_y
 _atom_site_fract_z
 _atom_site_occupancy
  Ba  Ba0  1  0.333986  0.333466  0.000521  1
  Ba  Ba1  1  0.665644  0.666889  0.998755  1
  Ba  Ba2  1  0.000256  0.999674  0.000582  1
  P  P3  1  0.319823  0.666499  0.653323  1
  P  P4  1  0.679321  0.333809  0.345512  1
  P  P5  1  0.987099  0.332336  0.654762  1
  P  P6  1  0.345644  0.999783  0.345861  1
  P  P7  1  0.012914  0.666571  0.346343  1
  P  P8  1  0.655333  0.000974  0.654359  1
  Os  Os9  1  0.583527  0.833884  0.749642  1
  Os  Os10  1  0.249527  0.499494  0.750032  1
  Os  Os11  1  0.750065  0.500803  0.249261  1
  Os  Os12  1  0.082215  0.832512  0.249703  1
  Os  Os13  1  0.415761  0.166647  0.249116  1
  Ru  Ru14  1  0.918885  0.166658  0.752227  1
