# generated using pymatgen
data_CaLa2Nd4OsBr12
_symmetry_space_group_name_H-M   'P 1'
_cell_length_a   9.59732834
_cell_length_b   9.57985131
_cell_length_c   9.71580593
_cell_angle_alpha   107.28761542
_cell_angle_beta   106.78354506
_cell_angle_gamma   107.02949979
_symmetry_Int_Tables_number   1
_chemical_formula_structural   CaLa2Nd4OsBr12
_chemical_formula_sum   'Ca1 La2 Nd4 Os1 Br12'
_cell_volume   743.23962260
_cell_formula_units_Z   1
loop_
 _symmetry_equiv_pos_site_id
 _symmetry_equiv_pos_as_xyz
  1  'x, y, z'
loop_
 _atom_site_type_symbol
 _atom_site_label
 _atom_site_symmetry_multiplicity
 _atom_site_fract_x
 _atom_site_fract_y
 _atom_site_fract_z
 _atom_site_occupancy
  Ca  Ca0  1  0.500540  0.500192  0.501122  1
  La  La1  1  0.312195  0.104047  0.025228  1
  La  La2  1  0.027130  0.314688  0.105614  1
  Nd  Nd3  1  0.107562  0.027213  0.321410  1
  Nd  Nd4  1  0.890078  0.972604  0.677228  1
  Nd  Nd5  1  0.972989  0.689106  0.894852  1
  Nd  Nd6  1  0.690764  0.894350  0.973754  1
  Os  Os7  1  0.003184  0.004633  0.000623  1
  Br  Br8  1  0.679910  0.215645  0.067416  1
  Br  Br9  1  0.385856  0.463043  0.173025  1
  Br  Br10  1  0.067993  0.684873  0.216810  1
  Br  Br11  1  0.780355  0.930575  0.314237  1
  Br  Br12  1  0.455738  0.166540  0.382865  1
  Br  Br13  1  0.168377  0.378702  0.460016  1
  Br  Br14  1  0.834251  0.620769  0.545670  1
  Br  Br15  1  0.543929  0.833827  0.623106  1
  Br  Br16  1  0.214913  0.067074  0.679023  1
  Br  Br17  1  0.929621  0.315286  0.776883  1
  Br  Br18  1  0.620792  0.543390  0.832114  1
  Br  Br19  1  0.313827  0.773449  0.929008  1
