# generated using pymatgen
data_Tb4Dy8TlCo4Cu
_symmetry_space_group_name_H-M   'P 1'
_cell_length_a   8.32939517
_cell_length_b   8.32939571
_cell_length_c   8.32939534
_cell_angle_alpha   111.29870905
_cell_angle_beta   110.36912689
_cell_angle_gamma   106.78031602
_symmetry_Int_Tables_number   1
_chemical_formula_structural   Tb4Dy8TlCo4Cu
_chemical_formula_sum   'Tb4 Dy8 Tl1 Co4 Cu1'
_cell_volume   444.09273615
_cell_formula_units_Z   1
loop_
 _symmetry_equiv_pos_site_id
 _symmetry_equiv_pos_as_xyz
  1  'x, y, z'
loop_
 _atom_site_type_symbol
 _atom_site_label
 _atom_site_symmetry_multiplicity
 _atom_site_fract_x
 _atom_site_fract_y
 _atom_site_fract_z
 _atom_site_occupancy
  Tb  Tb0  1  0.585668  0.785281  0.800387  1
  Tb  Tb1  1  0.414332  0.214719  0.199613  1
  Tb  Tb2  1  0.984894  0.785281  0.199613  1
  Tb  Tb3  1  0.015106  0.214719  0.800387  1
  Dy  Dy4  1  0.814616  0.706684  0.521300  1
  Dy  Dy5  1  0.185384  0.293316  0.478700  1
  Dy  Dy6  1  0.185384  0.706684  0.892069  1
  Dy  Dy7  1  0.814616  0.293316  0.107931  1
  Dy  Dy8  1  0.684086  0.379087  0.695002  1
  Dy  Dy9  1  0.315914  0.620913  0.304998  1
  Dy  Dy10  1  0.684086  0.989083  0.304998  1
  Dy  Dy11  1  0.315914  0.010917  0.695002  1
  Tl  Tl12  1  0.500000  0.500000  0.000000  1
  Co  Co13  1  0.621940  0.000000  0.621940  1
  Co  Co14  1  0.378060  0.000000  0.378060  1
  Co  Co15  1  0.112631  0.612631  0.500000  1
  Co  Co16  1  0.887369  0.387369  0.500000  1
  Cu  Cu17  1  0.000000  0.000000  0.000000  1
