# generated using pymatgen
data_Ta3Fe4B7
_symmetry_space_group_name_H-M   'P 1'
_cell_length_a   9.36146955
_cell_length_b   9.36147217
_cell_length_c   8.96333300
_cell_angle_alpha   90.00000000
_cell_angle_beta   90.00000000
_cell_angle_gamma   160.35724202
_symmetry_Int_Tables_number   1
_chemical_formula_structural   Ta3Fe4B7
_chemical_formula_sum   'Ta6 Fe8 B14'
_cell_volume   264.05636730
_cell_formula_units_Z   2
loop_
 _symmetry_equiv_pos_site_id
 _symmetry_equiv_pos_as_xyz
  1  'x, y, z'
loop_
 _atom_site_type_symbol
 _atom_site_label
 _atom_site_symmetry_multiplicity
 _atom_site_fract_x
 _atom_site_fract_y
 _atom_site_fract_z
 _atom_site_occupancy
  Ta  Ta0  1  0.698050  0.301950  0.250000  1
  Ta  Ta1  1  0.301950  0.698050  0.750000  1
  Ta  Ta2  1  0.580790  0.419209  0.553992  1
  Ta  Ta3  1  0.419210  0.580791  0.446008  1
  Ta  Ta4  1  0.419210  0.580791  0.053992  1
  Ta  Ta5  1  0.580790  0.419209  0.946008  1
  Fe  Fe6  1  0.542200  0.457800  0.250000  1
  Fe  Fe7  1  0.457800  0.542200  0.750000  1
  Fe  Fe8  1  0.844361  0.155639  0.250000  1
  Fe  Fe9  1  0.155639  0.844361  0.750000  1
  Fe  Fe10  1  0.801142  0.198857  0.507383  1
  Fe  Fe11  1  0.198858  0.801143  0.492617  1
  Fe  Fe12  1  0.198858  0.801143  0.007383  1
  Fe  Fe13  1  0.801142  0.198857  0.992617  1
  B  B14  1  0.956069  0.043931  0.250000  1
  B  B15  1  0.043931  0.956069  0.750000  1
  B  B16  1  0.891727  0.108273  0.648928  1
  B  B17  1  0.108273  0.891727  0.351072  1
  B  B18  1  0.108273  0.891727  0.148928  1
  B  B19  1  0.891727  0.108273  0.851072  1
  B  B20  1  0.709663  0.290338  0.647480  1
  B  B21  1  0.290337  0.709662  0.352520  1
  B  B22  1  0.290337  0.709662  0.147480  1
  B  B23  1  0.709663  0.290338  0.852520  1
  B  B24  1  0.985030  0.014970  0.592876  1
  B  B25  1  0.014970  0.985030  0.407124  1
  B  B26  1  0.014970  0.985030  0.092876  1
  B  B27  1  0.985030  0.014970  0.907124  1
