# generated using pymatgen
data_Tb6Er2Hf11Si16W
_symmetry_space_group_name_H-M   'P 1'
_cell_length_a   7.25602962
_cell_length_b   7.25332205
_cell_length_c   13.32676900
_cell_angle_alpha   89.93715236
_cell_angle_beta   90.06333430
_cell_angle_gamma   90.08196140
_symmetry_Int_Tables_number   1
_chemical_formula_structural   Tb6Er2Hf11Si16W
_chemical_formula_sum   'Tb6 Er2 Hf11 Si16 W1'
_cell_volume   701.39054590
_cell_formula_units_Z   1
loop_
 _symmetry_equiv_pos_site_id
 _symmetry_equiv_pos_as_xyz
  1  'x, y, z'
loop_
 _atom_site_type_symbol
 _atom_site_label
 _atom_site_symmetry_multiplicity
 _atom_site_fract_x
 _atom_site_fract_y
 _atom_site_fract_z
 _atom_site_occupancy
  Tb  Tb0  1  0.156033  0.495066  0.465596  1
  Tb  Tb1  1  0.502217  0.845708  0.034421  1
  Tb  Tb2  1  0.845838  0.502470  0.965588  1
  Tb  Tb3  1  0.495205  0.156195  0.534569  1
  Tb  Tb4  1  0.343683  0.997971  0.787105  1
  Tb  Tb5  1  0.656677  0.004715  0.282939  1
  Er  Er6  1  0.999062  0.344213  0.212587  1
  Er  Er7  1  0.003688  0.656174  0.716951  1
  Hf  Hf8  1  0.825913  0.825477  0.500030  1
  Hf  Hf9  1  0.324308  0.674283  0.248506  1
  Hf  Hf10  1  0.674882  0.324844  0.751449  1
  Hf  Hf11  1  0.147036  0.997085  0.373411  1
  Hf  Hf12  1  0.853727  0.005012  0.878042  1
  Hf  Hf13  1  0.504045  0.647565  0.624434  1
  Hf  Hf14  1  0.349397  0.494174  0.877244  1
  Hf  Hf15  1  0.493758  0.349699  0.122612  1
  Hf  Hf16  1  0.647817  0.503640  0.375640  1
  Hf  Hf17  1  0.997413  0.147084  0.626575  1
  Hf  Hf18  1  0.004700  0.853766  0.121932  1
  Si  Si19  1  0.360494  0.296114  0.315349  1
  Si  Si20  1  0.638287  0.704644  0.817105  1
  Si  Si21  1  0.203894  0.860758  0.567829  1
  Si  Si22  1  0.139041  0.797696  0.932740  1
  Si  Si23  1  0.799054  0.140324  0.067615  1
  Si  Si24  1  0.861774  0.204736  0.432792  1
  Si  Si25  1  0.294915  0.362428  0.684258  1
  Si  Si26  1  0.705827  0.636305  0.182418  1
  Si  Si27  1  0.293179  0.052175  0.182315  1
  Si  Si28  1  0.704747  0.950766  0.686579  1
  Si  Si29  1  0.450092  0.795668  0.434929  1
  Si  Si30  1  0.202984  0.544812  0.064240  1
  Si  Si31  1  0.545730  0.203832  0.936016  1
  Si  Si32  1  0.796486  0.450875  0.565492  1
  Si  Si33  1  0.051246  0.294795  0.817414  1
  Si  Si34  1  0.951596  0.703034  0.313140  1
  W  W35  1  0.175256  0.175895  0.000141  1
