# generated using pymatgen
data_Nd2U2Al17GaIr6
_symmetry_space_group_name_H-M   'P 1'
_cell_length_a   7.59621877
_cell_length_b   7.62185630
_cell_length_c   9.49489100
_cell_angle_alpha   90.00000000
_cell_angle_beta   90.00000000
_cell_angle_gamma   119.50033036
_symmetry_Int_Tables_number   1
_chemical_formula_structural   Nd2U2Al17GaIr6
_chemical_formula_sum   'Nd2 U2 Al17 Ga1 Ir6'
_cell_volume   478.45771619
_cell_formula_units_Z   1
loop_
 _symmetry_equiv_pos_site_id
 _symmetry_equiv_pos_as_xyz
  1  'x, y, z'
loop_
 _atom_site_type_symbol
 _atom_site_label
 _atom_site_symmetry_multiplicity
 _atom_site_fract_x
 _atom_site_fract_y
 _atom_site_fract_z
 _atom_site_occupancy
  Nd  Nd0  1  0.995326  0.673779  0.750000  1
  Nd  Nd1  1  0.003704  0.328236  0.250000  1
  U  U2  1  0.672402  0.995517  0.750000  1
  U  U3  1  0.329210  0.003751  0.250000  1
  Al  Al4  1  0.869878  0.868718  0.250000  1
  Al  Al5  1  0.002901  0.336176  0.575497  1
  Al  Al6  1  0.997232  0.663938  0.423872  1
  Al  Al7  1  0.997232  0.663938  0.076128  1
  Al  Al8  1  0.336084  0.002173  0.927677  1
  Al  Al9  1  0.002901  0.336176  0.924503  1
  Al  Al10  1  0.664201  0.997805  0.073029  1
  Al  Al11  1  0.664201  0.997805  0.426971  1
  Al  Al12  1  0.336084  0.002173  0.572323  1
  Al  Al13  1  0.334545  0.334709  0.054315  1
  Al  Al14  1  0.664756  0.664596  0.948772  1
  Al  Al15  1  0.664756  0.664596  0.551228  1
  Al  Al16  1  0.334545  0.334709  0.445685  1
  Al  Al17  1  0.342781  0.549226  0.750000  1
  Al  Al18  1  0.656473  0.451413  0.250000  1
  Al  Al19  1  0.546968  0.335541  0.750000  1
  Al  Al20  1  0.453143  0.663578  0.250000  1
  Ga  Ga21  1  0.133749  0.134890  0.750000  1
  Ir  Ir22  1  0.670117  0.327058  0.500222  1
  Ir  Ir23  1  0.328989  0.671973  0.500131  1
  Ir  Ir24  1  0.328989  0.671973  0.999869  1
  Ir  Ir25  1  0.670117  0.327058  0.999778  1
  Ir  Ir26  1  0.999359  0.999249  0.497834  1
  Ir  Ir27  1  0.999359  0.999249  0.002166  1
