# generated using pymatgen
data_Sc3In4NiIr
_symmetry_space_group_name_H-M   'P 1'
_cell_length_a   7.67555000
_cell_length_b   7.67555062
_cell_length_c   3.58052900
_cell_angle_alpha   90.00000000
_cell_angle_beta   90.00000000
_cell_angle_gamma   119.99999734
_symmetry_Int_Tables_number   1
_chemical_formula_structural   Sc3In4NiIr
_chemical_formula_sum   'Sc3 In4 Ni1 Ir1'
_cell_volume   182.68247382
_cell_formula_units_Z   1
loop_
 _symmetry_equiv_pos_site_id
 _symmetry_equiv_pos_as_xyz
  1  'x, y, z'
loop_
 _atom_site_type_symbol
 _atom_site_label
 _atom_site_symmetry_multiplicity
 _atom_site_fract_x
 _atom_site_fract_y
 _atom_site_fract_z
 _atom_site_occupancy
  Sc  Sc0  1  0.705344  0.955154  0.500000  1
  Sc  Sc1  1  0.249809  0.294656  0.500000  1
  Sc  Sc2  1  0.044846  0.750191  0.500000  1
  In  In3  1  0.921010  0.334678  0.000000  1
  In  In4  1  0.413669  0.078990  0.000000  1
  In  In5  1  0.665322  0.586331  0.000000  1
  In  In6  1  0.333333  0.666667  0.000000  1
  Ni  Ni7  1  0.666667  0.333333  0.500000  1
  Ir  Ir8  1  0.000000  0.000000  0.000000  1
