# generated using pymatgen
data_Yb5Si2Hg
_symmetry_space_group_name_H-M   'P 1'
_cell_length_a   9.33622109
_cell_length_b   9.33622164
_cell_length_c   9.33622140
_cell_angle_alpha   131.57877543
_cell_angle_beta   131.57878031
_cell_angle_gamma   70.89512225
_symmetry_Int_Tables_number   1
_chemical_formula_structural   Yb5Si2Hg
_chemical_formula_sum   'Yb10 Si4 Hg2'
_cell_volume   445.96952313
_cell_formula_units_Z   2
loop_
 _symmetry_equiv_pos_site_id
 _symmetry_equiv_pos_as_xyz
  1  'x, y, z'
loop_
 _atom_site_type_symbol
 _atom_site_label
 _atom_site_symmetry_multiplicity
 _atom_site_fract_x
 _atom_site_fract_y
 _atom_site_fract_z
 _atom_site_occupancy
  Yb  Yb0  1  0.000000  0.000000  0.000000  1
  Yb  Yb1  1  0.500000  0.500000  0.000000  1
  Yb  Yb2  1  0.186307  0.686307  0.149000  1
  Yb  Yb3  1  0.462693  0.962693  0.149000  1
  Yb  Yb4  1  0.037307  0.186307  0.500000  1
  Yb  Yb5  1  0.313693  0.462693  0.500000  1
  Yb  Yb6  1  0.686307  0.537307  0.500000  1
  Yb  Yb7  1  0.962693  0.813693  0.500000  1
  Yb  Yb8  1  0.537307  0.037307  0.851001  1
  Yb  Yb9  1  0.813693  0.313693  0.851001  1
  Si  Si10  1  0.887747  0.387747  0.275495  1
  Si  Si11  1  0.387747  0.112253  0.500000  1
  Si  Si12  1  0.612253  0.887747  0.500000  1
  Si  Si13  1  0.112253  0.612253  0.724505  1
  Hg  Hg14  1  0.250000  0.250000  0.000000  1
  Hg  Hg15  1  0.750000  0.750000  0.000000  1
