# generated using pymatgen
data_SrEu3(SiPd2)4
_symmetry_space_group_name_H-M   'P 1'
_cell_length_a   5.76570224
_cell_length_b   6.93506800
_cell_length_c   7.67024100
_cell_angle_alpha   90.00000000
_cell_angle_beta   89.90509521
_cell_angle_gamma   90.00000000
_symmetry_Int_Tables_number   1
_chemical_formula_structural   SrEu3(SiPd2)4
_chemical_formula_sum   'Sr1 Eu3 Si4 Pd8'
_cell_volume   306.69828528
_cell_formula_units_Z   1
loop_
 _symmetry_equiv_pos_site_id
 _symmetry_equiv_pos_as_xyz
  1  'x, y, z'
loop_
 _atom_site_type_symbol
 _atom_site_label
 _atom_site_symmetry_multiplicity
 _atom_site_fract_x
 _atom_site_fract_y
 _atom_site_fract_z
 _atom_site_occupancy
  Sr  Sr0  1  0.365827  0.750000  0.027176  1
  Eu  Eu1  1  0.136439  0.750000  0.526854  1
  Eu  Eu2  1  0.865022  0.250000  0.472371  1
  Eu  Eu3  1  0.635907  0.250000  0.972282  1
  Si  Si4  1  0.862190  0.750000  0.871317  1
  Si  Si5  1  0.140951  0.250000  0.126967  1
  Si  Si6  1  0.358687  0.250000  0.627173  1
  Si  Si7  1  0.642696  0.750000  0.376396  1
  Pd  Pd8  1  0.599615  0.553248  0.667402  1
  Pd  Pd9  1  0.403974  0.445365  0.334287  1
  Pd  Pd10  1  0.092591  0.445260  0.830018  1
  Pd  Pd11  1  0.403974  0.054635  0.334287  1
  Pd  Pd12  1  0.899961  0.553101  0.168026  1
  Pd  Pd13  1  0.599615  0.946752  0.667402  1
  Pd  Pd14  1  0.899961  0.946899  0.168026  1
  Pd  Pd15  1  0.092591  0.054740  0.830018  1
