# generated using pymatgen
data_Np2MnAl9Pd2
_symmetry_space_group_name_H-M   'P 1'
_cell_length_a   7.58054270
_cell_length_b   7.58054330
_cell_length_c   9.41640000
_cell_angle_alpha   90.00000000
_cell_angle_beta   90.00000000
_cell_angle_gamma   118.28323155
_symmetry_Int_Tables_number   1
_chemical_formula_structural   Np2MnAl9Pd2
_chemical_formula_sum   'Np4 Mn2 Al18 Pd4'
_cell_volume   476.51012514
_cell_formula_units_Z   2
loop_
 _symmetry_equiv_pos_site_id
 _symmetry_equiv_pos_as_xyz
  1  'x, y, z'
loop_
 _atom_site_type_symbol
 _atom_site_label
 _atom_site_symmetry_multiplicity
 _atom_site_fract_x
 _atom_site_fract_y
 _atom_site_fract_z
 _atom_site_occupancy
  Np  Np0  1  0.994192  0.686006  0.250000  1
  Np  Np1  1  0.005808  0.313994  0.750000  1
  Np  Np2  1  0.686006  0.994192  0.250000  1
  Np  Np3  1  0.313994  0.005808  0.750000  1
  Mn  Mn4  1  0.000000  0.000000  0.000000  1
  Mn  Mn5  1  0.000000  0.000000  0.500000  1
  Al  Al6  1  0.134998  0.134998  0.250000  1
  Al  Al7  1  0.865002  0.865002  0.750000  1
  Al  Al8  1  0.001984  0.336866  0.078249  1
  Al  Al9  1  0.998016  0.663134  0.921751  1
  Al  Al10  1  0.998016  0.663134  0.578249  1
  Al  Al11  1  0.336866  0.001984  0.421751  1
  Al  Al12  1  0.001984  0.336866  0.421751  1
  Al  Al13  1  0.663134  0.998016  0.578249  1
  Al  Al14  1  0.663134  0.998016  0.921751  1
  Al  Al15  1  0.336866  0.001984  0.078249  1
  Al  Al16  1  0.328929  0.328929  0.547873  1
  Al  Al17  1  0.671071  0.671071  0.452127  1
  Al  Al18  1  0.671071  0.671071  0.047873  1
  Al  Al19  1  0.328929  0.328929  0.952127  1
  Al  Al20  1  0.344702  0.555594  0.250000  1
  Al  Al21  1  0.655298  0.444406  0.750000  1
  Al  Al22  1  0.555594  0.344702  0.250000  1
  Al  Al23  1  0.444406  0.655298  0.750000  1
  Pd  Pd24  1  0.671827  0.328173  0.000000  1
  Pd  Pd25  1  0.328173  0.671827  0.000000  1
  Pd  Pd26  1  0.328173  0.671827  0.500000  1
  Pd  Pd27  1  0.671827  0.328173  0.500000  1
