# generated using pymatgen
data_Nb6Re5Si6Rh
_symmetry_space_group_name_H-M   'P 1'
_cell_length_a   7.56374692
_cell_length_b   7.53450707
_cell_length_c   7.53450683
_cell_angle_alpha   127.69068836
_cell_angle_beta   122.79586501
_cell_angle_gamma   81.10940415
_symmetry_Int_Tables_number   1
_chemical_formula_structural   Nb6Re5Si6Rh
_chemical_formula_sum   'Nb6 Re5 Si6 Rh1'
_cell_volume   275.37122652
_cell_formula_units_Z   1
loop_
 _symmetry_equiv_pos_site_id
 _symmetry_equiv_pos_as_xyz
  1  'x, y, z'
loop_
 _atom_site_type_symbol
 _atom_site_label
 _atom_site_symmetry_multiplicity
 _atom_site_fract_x
 _atom_site_fract_y
 _atom_site_fract_z
 _atom_site_occupancy
  Nb  Nb0  1  0.554746  0.094188  0.050413  1
  Nb  Nb1  1  0.445254  0.495667  0.539442  1
  Nb  Nb2  1  0.980254  0.501583  0.044961  1
  Nb  Nb3  1  0.019746  0.064706  0.521329  1
  Nb  Nb4  1  0.758820  0.911151  0.664107  1
  Nb  Nb5  1  0.241180  0.905287  0.152331  1
  Re  Re6  1  0.000000  0.243730  0.243730  1
  Re  Re7  1  0.162429  0.747640  0.660073  1
  Re  Re8  1  0.837571  0.497644  0.585211  1
  Re  Re9  1  0.591605  0.748410  0.090960  1
  Re  Re10  1  0.408395  0.499355  0.156805  1
  Si  Si11  1  0.776516  0.522715  0.244931  1
  Si  Si12  1  0.223484  0.468416  0.746200  1
  Si  Si13  1  0.338435  0.838766  0.506688  1
  Si  Si14  1  0.661565  0.168254  0.500332  1
  Si  Si15  1  0.828694  0.824141  0.988743  1
  Si  Si16  1  0.171306  0.160050  0.995447  1
  Rh  Rh17  1  0.500000  0.250497  0.750497  1
