# generated using pymatgen
data_Dy9Er(AlSb2)2
_symmetry_space_group_name_H-M   'P 1'
_cell_length_a   8.89401113
_cell_length_b   8.89829330
_cell_length_c   6.40974302
_cell_angle_alpha   89.99188013
_cell_angle_beta   90.00406423
_cell_angle_gamma   120.01592250
_symmetry_Int_Tables_number   1
_chemical_formula_structural   Dy9Er(AlSb2)2
_chemical_formula_sum   'Dy9 Er1 Al2 Sb4'
_cell_volume   439.24409022
_cell_formula_units_Z   1
loop_
 _symmetry_equiv_pos_site_id
 _symmetry_equiv_pos_as_xyz
  1  'x, y, z'
loop_
 _atom_site_type_symbol
 _atom_site_label
 _atom_site_symmetry_multiplicity
 _atom_site_fract_x
 _atom_site_fract_y
 _atom_site_fract_z
 _atom_site_occupancy
  Dy  Dy0  1  0.008651  0.766034  0.750067  1
  Dy  Dy1  1  0.008651  0.242617  0.249933  1
  Dy  Dy2  1  0.755492  0.756566  0.249973  1
  Dy  Dy3  1  0.755492  0.998925  0.750027  1
  Dy  Dy4  1  0.241574  0.232367  0.750081  1
  Dy  Dy5  1  0.241574  0.009207  0.249919  1
  Dy  Dy6  1  0.335863  0.667932  0.500000  1
  Dy  Dy7  1  0.655959  0.327979  0.000000  1
  Dy  Dy8  1  0.655855  0.327927  0.500000  1
  Er  Er9  1  0.335697  0.667849  0.000000  1
  Al  Al10  1  0.397780  0.996828  0.750276  1
  Al  Al11  1  0.397780  0.400952  0.249724  1
  Sb  Sb12  1  0.998988  0.606626  0.249721  1
  Sb  Sb13  1  0.998988  0.392362  0.750279  1
  Sb  Sb14  1  0.605830  0.605237  0.750335  1
  Sb  Sb15  1  0.605830  0.000593  0.249665  1
