# generated using pymatgen
data_TbPa3(GePt)4
_symmetry_space_group_name_H-M   'P 1'
_cell_length_a   4.40902800
_cell_length_b   7.05842313
_cell_length_c   7.66620419
_cell_angle_alpha   90.06434591
_cell_angle_beta   90.00000000
_cell_angle_gamma   90.00000000
_symmetry_Int_Tables_number   1
_chemical_formula_structural   TbPa3(GePt)4
_chemical_formula_sum   'Tb1 Pa3 Ge4 Pt4'
_cell_volume   238.57814357
_cell_formula_units_Z   1
loop_
 _symmetry_equiv_pos_site_id
 _symmetry_equiv_pos_as_xyz
  1  'x, y, z'
loop_
 _atom_site_type_symbol
 _atom_site_label
 _atom_site_symmetry_multiplicity
 _atom_site_fract_x
 _atom_site_fract_y
 _atom_site_fract_z
 _atom_site_occupancy
  Tb  Tb0  1  0.250000  0.495616  0.202679  1
  Pa  Pa1  1  0.750000  0.505326  0.792299  1
  Pa  Pa2  1  0.250000  0.995816  0.296408  1
  Pa  Pa3  1  0.750000  0.006791  0.706868  1
  Ge  Ge4  1  0.250000  0.807222  0.912398  1
  Ge  Ge5  1  0.250000  0.308553  0.588131  1
  Ge  Ge6  1  0.750000  0.191649  0.091274  1
  Ge  Ge7  1  0.750000  0.697004  0.409537  1
  Pt  Pt8  1  0.250000  0.713085  0.583205  1
  Pt  Pt9  1  0.250000  0.206265  0.915420  1
  Pt  Pt10  1  0.750000  0.786676  0.082513  1
  Pt  Pt11  1  0.750000  0.285998  0.419268  1
