# generated using pymatgen
data_Ca4TmU5O18
_symmetry_space_group_name_H-M   'P 1'
_cell_length_a   6.85400876
_cell_length_b   7.56342342
_cell_length_c   8.48217779
_cell_angle_alpha   99.38480354
_cell_angle_beta   98.53675348
_cell_angle_gamma   107.77500501
_symmetry_Int_Tables_number   1
_chemical_formula_structural   Ca4TmU5O18
_chemical_formula_sum   'Ca4 Tm1 U5 O18'
_cell_volume   403.81933744
_cell_formula_units_Z   1
loop_
 _symmetry_equiv_pos_site_id
 _symmetry_equiv_pos_as_xyz
  1  'x, y, z'
loop_
 _atom_site_type_symbol
 _atom_site_label
 _atom_site_symmetry_multiplicity
 _atom_site_fract_x
 _atom_site_fract_y
 _atom_site_fract_z
 _atom_site_occupancy
  Ca  Ca0  1  0.596297  0.700738  0.196429  1
  Ca  Ca1  1  0.405766  0.302329  0.803474  1
  Ca  Ca2  1  0.207612  0.898533  0.419202  1
  Ca  Ca3  1  0.001524  0.505466  0.003383  1
  Tm  Tm4  1  0.798696  0.109950  0.578531  1
  U  U5  1  0.997379  0.997817  0.999186  1
  U  U6  1  0.789757  0.581962  0.590248  1
  U  U7  1  0.627042  0.204536  0.191453  1
  U  U8  1  0.375229  0.795449  0.805567  1
  U  U9  1  0.210507  0.421408  0.410408  1
  O  O10  1  0.816759  0.811766  0.482850  1
  O  O11  1  0.001896  0.251396  0.165738  1
  O  O12  1  0.672286  0.415446  0.064672  1
  O  O13  1  0.480652  0.997144  0.673156  1
  O  O14  1  0.861678  0.336680  0.428519  1
  O  O15  1  0.508469  0.404353  0.347683  1
  O  O16  1  0.256189  0.621505  0.279144  1
  O  O17  1  0.987500  0.835163  0.166511  1
  O  O18  1  0.656972  0.928557  0.004219  1
  O  O19  1  0.339295  0.069901  0.994467  1
  O  O20  1  0.998034  0.153405  0.822709  1
  O  O21  1  0.746430  0.370000  0.715994  1
  O  O22  1  0.493131  0.590817  0.655795  1
  O  O23  1  0.137324  0.661239  0.574442  1
  O  O24  1  0.550801  0.004618  0.329067  1
  O  O25  1  0.324915  0.583595  0.932901  1
  O  O26  1  0.991673  0.744737  0.833126  1
  O  O27  1  0.166188  0.201491  0.531126  1
