# generated using pymatgen
data_Li3Lu2Hf4Os3
_symmetry_space_group_name_H-M   'P 1'
_cell_length_a   4.68622900
_cell_length_b   6.65053600
_cell_length_c   13.95380700
_cell_angle_alpha   90.00000000
_cell_angle_beta   90.00232381
_cell_angle_gamma   90.00000000
_symmetry_Int_Tables_number   1
_chemical_formula_structural   Li3Lu2Hf4Os3
_chemical_formula_sum   'Li6 Lu4 Hf8 Os6'
_cell_volume   434.88343716
_cell_formula_units_Z   2
loop_
 _symmetry_equiv_pos_site_id
 _symmetry_equiv_pos_as_xyz
  1  'x, y, z'
loop_
 _atom_site_type_symbol
 _atom_site_label
 _atom_site_symmetry_multiplicity
 _atom_site_fract_x
 _atom_site_fract_y
 _atom_site_fract_z
 _atom_site_occupancy
  Li  Li0  1  0.000011  0.000000  0.996390  1
  Li  Li1  1  0.499586  0.500000  0.170319  1
  Li  Li2  1  0.999604  0.000000  0.337122  1
  Li  Li3  1  0.499992  0.500000  0.500586  1
  Li  Li4  1  0.000414  0.000000  0.666068  1
  Li  Li5  1  0.500405  0.500000  0.829525  1
  Lu  Lu6  1  0.500020  0.250448  0.997886  1
  Lu  Lu7  1  0.500020  0.749552  0.997886  1
  Lu  Lu8  1  0.999693  0.249574  0.168761  1
  Lu  Lu9  1  0.999693  0.750425  0.168761  1
  Hf  Hf10  1  0.499729  0.247740  0.336665  1
  Hf  Hf11  1  0.499729  0.752259  0.336665  1
  Hf  Hf12  1  0.000002  0.252801  0.501295  1
  Hf  Hf13  1  0.000002  0.747199  0.501295  1
  Hf  Hf14  1  0.500261  0.247192  0.665371  1
  Hf  Hf15  1  0.500261  0.752807  0.665371  1
  Hf  Hf16  1  0.000276  0.252245  0.830005  1
  Hf  Hf17  1  0.000276  0.747754  0.830005  1
  Os  Os18  1  0.000044  0.500000  0.986983  1
  Os  Os19  1  0.499691  0.000000  0.179693  1
  Os  Os20  1  0.999717  0.500000  0.345092  1
  Os  Os21  1  0.499986  0.000000  0.501232  1
  Os  Os22  1  0.000272  0.500000  0.665452  1
  Os  Os23  1  0.500311  0.000000  0.821570  1
