# generated using pymatgen
data_Np6Co5Ni13As12
_symmetry_space_group_name_H-M   'P 1'
_cell_length_a   3.83926800
_cell_length_b   10.82257776
_cell_length_c   12.69298300
_cell_angle_alpha   89.95907133
_cell_angle_beta   90.00000000
_cell_angle_gamma   90.00000000
_symmetry_Int_Tables_number   1
_chemical_formula_structural   Np6Co5Ni13As12
_chemical_formula_sum   'Np6 Co5 Ni13 As12'
_cell_volume   527.40316489
_cell_formula_units_Z   1
loop_
 _symmetry_equiv_pos_site_id
 _symmetry_equiv_pos_as_xyz
  1  'x, y, z'
loop_
 _atom_site_type_symbol
 _atom_site_label
 _atom_site_symmetry_multiplicity
 _atom_site_fract_x
 _atom_site_fract_y
 _atom_site_fract_z
 _atom_site_occupancy
  Np  Np0  1  0.000000  0.499126  0.519406  1
  Np  Np1  1  0.500000  0.001139  0.480139  1
  Np  Np2  1  0.500000  0.816202  0.206752  1
  Np  Np3  1  0.500000  0.184448  0.206173  1
  Np  Np4  1  0.000000  0.683237  0.792982  1
  Np  Np5  1  0.000000  0.316301  0.794397  1
  Co  Co6  1  0.000000  0.500742  0.982260  1
  Co  Co7  1  0.500000  0.998913  0.017699  1
  Co  Co8  1  0.500000  0.333569  0.996200  1
  Co  Co9  1  0.500000  0.668151  0.996735  1
  Co  Co10  1  0.000000  0.166772  0.003170  1
  Ni  Ni11  1  0.500000  0.499669  0.151753  1
  Ni  Ni12  1  0.000000  0.000637  0.847678  1
  Ni  Ni13  1  0.500000  0.500524  0.701039  1
  Ni  Ni14  1  0.000000  0.999210  0.299256  1
  Ni  Ni15  1  0.000000  0.832525  0.003745  1
  Ni  Ni16  1  0.500000  0.303135  0.426305  1
  Ni  Ni17  1  0.500000  0.695791  0.426136  1
  Ni  Ni18  1  0.000000  0.196461  0.574110  1
  Ni  Ni19  1  0.000000  0.804079  0.573707  1
  Ni  Ni20  1  0.500000  0.878655  0.706910  1
  Ni  Ni21  1  0.500000  0.121426  0.708351  1
  Ni  Ni22  1  0.000000  0.620407  0.293635  1
  Ni  Ni23  1  0.000000  0.378039  0.291083  1
  As  As24  1  0.500000  0.501076  0.881063  1
  As  As25  1  0.000000  0.001156  0.120134  1
  As  As26  1  0.500000  0.499515  0.340468  1
  As  As27  1  0.000000  0.999941  0.659588  1
  As  As28  1  0.500000  0.314260  0.613001  1
  As  As29  1  0.500000  0.686424  0.611994  1
  As  As30  1  0.000000  0.185935  0.387233  1
  As  As31  1  0.000000  0.813788  0.387634  1
  As  As32  1  0.500000  0.847265  0.890915  1
  As  As33  1  0.500000  0.153526  0.893917  1
  As  As34  1  0.000000  0.651439  0.108640  1
  As  As35  1  0.000000  0.346515  0.105787  1
