# generated using pymatgen
data_Nd3Cu4(SnGe)2
_symmetry_space_group_name_H-M   'P 1'
_cell_length_a   8.44131704
_cell_length_b   8.44131777
_cell_length_c   8.44131724
_cell_angle_alpha   149.13367437
_cell_angle_beta   132.43569809
_cell_angle_gamma   57.78289212
_symmetry_Int_Tables_number   1
_chemical_formula_structural   Nd3Cu4(SnGe)2
_chemical_formula_sum   'Nd3 Cu4 Sn2 Ge2'
_cell_volume   226.05717491
_cell_formula_units_Z   1
loop_
 _symmetry_equiv_pos_site_id
 _symmetry_equiv_pos_as_xyz
  1  'x, y, z'
loop_
 _atom_site_type_symbol
 _atom_site_label
 _atom_site_symmetry_multiplicity
 _atom_site_fract_x
 _atom_site_fract_y
 _atom_site_fract_z
 _atom_site_occupancy
  Nd  Nd0  1  0.500000  0.000000  0.500000  1
  Nd  Nd1  1  0.127500  0.127500  0.000000  1
  Nd  Nd2  1  0.872500  0.872500  0.000000  1
  Cu  Cu3  1  0.844741  0.658797  0.185944  1
  Cu  Cu4  1  0.472853  0.658797  0.814056  1
  Cu  Cu5  1  0.527147  0.341203  0.185944  1
  Cu  Cu6  1  0.155259  0.341203  0.814056  1
  Sn  Sn7  1  0.717572  0.217572  0.500000  1
  Sn  Sn8  1  0.282428  0.782428  0.500000  1
  Ge  Ge9  1  0.811554  0.500000  0.311554  1
  Ge  Ge10  1  0.188446  0.500000  0.688446  1
