# generated using pymatgen
data_La2NdEu3(MoO7)2
_symmetry_space_group_name_H-M   'P 1'
_cell_length_a   6.65954085
_cell_length_b   6.71440970
_cell_length_c   7.73384600
_cell_angle_alpha   90.00000000
_cell_angle_beta   90.00000000
_cell_angle_gamma   111.08304759
_symmetry_Int_Tables_number   1
_chemical_formula_structural   La2NdEu3(MoO7)2
_chemical_formula_sum   'La2 Nd1 Eu3 Mo2 O14'
_cell_volume   322.66898318
_cell_formula_units_Z   1
loop_
 _symmetry_equiv_pos_site_id
 _symmetry_equiv_pos_as_xyz
  1  'x, y, z'
loop_
 _atom_site_type_symbol
 _atom_site_label
 _atom_site_symmetry_multiplicity
 _atom_site_fract_x
 _atom_site_fract_y
 _atom_site_fract_z
 _atom_site_occupancy
  La  La0  1  0.999240  0.000075  0.999200  1
  La  La1  1  0.999240  0.000075  0.500800  1
  Nd  Nd2  1  0.072068  0.520802  0.250000  1
  Eu  Eu3  1  0.939984  0.479229  0.750000  1
  Eu  Eu4  1  0.519921  0.060969  0.250000  1
  Eu  Eu5  1  0.479686  0.943779  0.750000  1
  Mo  Mo6  1  0.502111  0.500375  0.999279  1
  Mo  Mo7  1  0.502111  0.500375  0.500721  1
  O  O8  1  0.435257  0.442673  0.250000  1
  O  O9  1  0.560351  0.556494  0.750000  1
  O  O10  1  0.890797  0.157145  0.250000  1
  O  O11  1  0.108260  0.843392  0.750000  1
  O  O12  1  0.151702  0.887175  0.250000  1
  O  O13  1  0.847006  0.112611  0.750000  1
  O  O14  1  0.806003  0.557106  0.036028  1
  O  O15  1  0.192775  0.440702  0.969563  1
  O  O16  1  0.192775  0.440702  0.530437  1
  O  O17  1  0.559219  0.807067  0.469042  1
  O  O18  1  0.806003  0.557106  0.463972  1
  O  O19  1  0.438136  0.192542  0.530760  1
  O  O20  1  0.438136  0.192542  0.969240  1
  O  O21  1  0.559219  0.807067  0.030958  1
