# generated using pymatgen
data_ReTc4Ir2Ru
_symmetry_space_group_name_H-M   'P 1'
_cell_length_a   5.54161877
_cell_length_b   5.55247883
_cell_length_c   4.36044800
_cell_angle_alpha   90.00000000
_cell_angle_beta   90.00000000
_cell_angle_gamma   120.08973295
_symmetry_Int_Tables_number   1
_chemical_formula_structural   ReTc4Ir2Ru
_chemical_formula_sum   'Re1 Tc4 Ir2 Ru1'
_cell_volume   116.08922082
_cell_formula_units_Z   1
loop_
 _symmetry_equiv_pos_site_id
 _symmetry_equiv_pos_as_xyz
  1  'x, y, z'
loop_
 _atom_site_type_symbol
 _atom_site_label
 _atom_site_symmetry_multiplicity
 _atom_site_fract_x
 _atom_site_fract_y
 _atom_site_fract_z
 _atom_site_occupancy
  Re  Re0  1  0.158743  0.324338  0.250000  1
  Tc  Tc1  1  0.677315  0.840145  0.250000  1
  Tc  Tc2  1  0.160658  0.837046  0.250000  1
  Tc  Tc3  1  0.837568  0.676416  0.750000  1
  Tc  Tc4  1  0.325103  0.161732  0.750000  1
  Ir  Ir5  1  0.335589  0.665368  0.750000  1
  Ir  Ir6  1  0.668622  0.334215  0.250000  1
  Ru  Ru7  1  0.836403  0.160739  0.750000  1
