# generated using pymatgen
data_DyPa(Co3P2)2
_symmetry_space_group_name_H-M   'P 1'
_cell_length_a   3.72035000
_cell_length_b   10.45179763
_cell_length_c   12.15977808
_cell_angle_alpha   90.08138915
_cell_angle_beta   90.00000000
_cell_angle_gamma   90.00000000
_symmetry_Int_Tables_number   1
_chemical_formula_structural   DyPa(Co3P2)2
_chemical_formula_sum   'Dy3 Pa3 Co18 P12'
_cell_volume   472.82453253
_cell_formula_units_Z   3
loop_
 _symmetry_equiv_pos_site_id
 _symmetry_equiv_pos_as_xyz
  1  'x, y, z'
loop_
 _atom_site_type_symbol
 _atom_site_label
 _atom_site_symmetry_multiplicity
 _atom_site_fract_x
 _atom_site_fract_y
 _atom_site_fract_z
 _atom_site_occupancy
  Dy  Dy0  1  0.500000  0.185653  0.205651  1
  Dy  Dy1  1  0.000000  0.684970  0.794518  1
  Dy  Dy2  1  0.000000  0.314952  0.793608  1
  Pa  Pa3  1  0.000000  0.499608  0.528797  1
  Pa  Pa4  1  0.500000  0.001034  0.473727  1
  Pa  Pa5  1  0.500000  0.818655  0.207900  1
  Co  Co6  1  0.500000  0.499927  0.160021  1
  Co  Co7  1  0.000000  0.999274  0.842104  1
  Co  Co8  1  0.500000  0.499624  0.696323  1
  Co  Co9  1  0.000000  0.994198  0.299817  1
  Co  Co10  1  0.000000  0.499451  0.982854  1
  Co  Co11  1  0.500000  0.999878  0.015486  1
  Co  Co12  1  0.500000  0.334383  0.993543  1
  Co  Co13  1  0.500000  0.666036  0.995134  1
  Co  Co14  1  0.000000  0.167237  0.005373  1
  Co  Co15  1  0.000000  0.834425  0.007240  1
  Co  Co16  1  0.500000  0.301204  0.431334  1
  Co  Co17  1  0.500000  0.697141  0.430257  1
  Co  Co18  1  0.000000  0.196915  0.567631  1
  Co  Co19  1  0.000000  0.802936  0.570717  1
  Co  Co20  1  0.500000  0.880964  0.711647  1
  Co  Co21  1  0.500000  0.119703  0.711114  1
  Co  Co22  1  0.000000  0.622456  0.287168  1
  Co  Co23  1  0.000000  0.380698  0.288849  1
  P  P24  1  0.500000  0.499973  0.878182  1
  P  P25  1  0.000000  0.003095  0.118276  1
  P  P26  1  0.500000  0.498799  0.343842  1
  P  P27  1  0.000000  0.999955  0.657969  1
  P  P28  1  0.500000  0.306491  0.616574  1
  P  P29  1  0.500000  0.693125  0.617337  1
  P  P30  1  0.000000  0.190760  0.382005  1
  P  P31  1  0.000000  0.806632  0.388444  1
  P  P32  1  0.500000  0.847548  0.893935  1
  P  P33  1  0.500000  0.153108  0.893812  1
  P  P34  1  0.000000  0.650783  0.103465  1
  P  P35  1  0.000000  0.348409  0.105347  1
