# generated using pymatgen
data_Ba2TiNbO6
_symmetry_space_group_name_H-M   'P 1'
_cell_length_a   5.80013297
_cell_length_b   5.80011376
_cell_length_c   5.80012900
_cell_angle_alpha   60.00062584
_cell_angle_beta   59.99975315
_cell_angle_gamma   90.00070892
_symmetry_Int_Tables_number   1
_chemical_formula_structural   Ba2TiNbO6
_chemical_formula_sum   'Ba2 Ti1 Nb1 O6'
_cell_volume   137.97389277
_cell_formula_units_Z   1
loop_
 _symmetry_equiv_pos_site_id
 _symmetry_equiv_pos_as_xyz
  1  'x, y, z'
loop_
 _atom_site_type_symbol
 _atom_site_label
 _atom_site_symmetry_multiplicity
 _atom_site_fract_x
 _atom_site_fract_y
 _atom_site_fract_z
 _atom_site_occupancy
  Ba  Ba0  1  0.250003  0.750001  0.499997  1
  Ba  Ba1  1  0.750001  0.250001  0.499999  1
  Ti  Ti2  1  0.500001  0.500000  0.999999  1
  Nb  Nb3  1  0.000000  0.999999  0.000001  1
  O  O4  1  0.251462  0.251464  0.000000  1
  O  O5  1  0.748538  0.251462  0.000000  1
  O  O6  1  0.251460  0.748537  0.000001  1
  O  O7  1  0.748534  0.748535  0.000002  1
  O  O8  1  0.251460  0.251459  0.497080  1
  O  O9  1  0.748539  0.748538  0.502922  1
