# generated using pymatgen
data_Hf16NbCo4Ru3
_symmetry_space_group_name_H-M   'P 1'
_cell_length_a   8.63143129
_cell_length_b   8.63244171
_cell_length_c   8.63240104
_cell_angle_alpha   59.99950871
_cell_angle_beta   59.99632000
_cell_angle_gamma   59.99556347
_symmetry_Int_Tables_number   1
_chemical_formula_structural   Hf16NbCo4Ru3
_chemical_formula_sum   'Hf16 Nb1 Co4 Ru3'
_cell_volume   454.78363430
_cell_formula_units_Z   1
loop_
 _symmetry_equiv_pos_site_id
 _symmetry_equiv_pos_as_xyz
  1  'x, y, z'
loop_
 _atom_site_type_symbol
 _atom_site_label
 _atom_site_symmetry_multiplicity
 _atom_site_fract_x
 _atom_site_fract_y
 _atom_site_fract_z
 _atom_site_occupancy
  Hf  Hf0  1  0.054401  0.648539  0.648530  1
  Hf  Hf1  1  0.650073  0.050054  0.649939  1
  Hf  Hf2  1  0.650078  0.649945  0.050038  1
  Hf  Hf3  1  0.650061  0.649928  0.649931  1
  Hf  Hf4  1  0.803983  0.800397  0.197802  1
  Hf  Hf5  1  0.201855  0.202020  0.798069  1
  Hf  Hf6  1  0.803980  0.197801  0.800404  1
  Hf  Hf7  1  0.201857  0.798065  0.202020  1
  Hf  Hf8  1  0.201839  0.798069  0.798078  1
  Hf  Hf9  1  0.803980  0.197818  0.197817  1
  Hf  Hf10  1  0.436659  0.435775  0.063790  1
  Hf  Hf11  1  0.066922  0.063489  0.434808  1
  Hf  Hf12  1  0.436651  0.063785  0.435783  1
  Hf  Hf13  1  0.066919  0.434805  0.063485  1
  Hf  Hf14  1  0.066926  0.434791  0.434802  1
  Hf  Hf15  1  0.436662  0.063782  0.063786  1
  Nb  Nb16  1  0.732191  0.422606  0.422594  1
  Co  Co17  1  0.421898  0.859366  0.859360  1
  Co  Co18  1  0.859188  0.422487  0.859154  1
  Co  Co19  1  0.859179  0.859155  0.422495  1
  Co  Co20  1  0.859194  0.859161  0.859156  1
  Ru  Ru21  1  0.411829  0.757911  0.415125  1
  Ru  Ru22  1  0.411838  0.415123  0.757912  1
  Ru  Ru23  1  0.411833  0.415127  0.415122  1
