# generated using pymatgen
data_ErLu4Hf5(Si5Ir2)4
_symmetry_space_group_name_H-M   'P 1'
_cell_length_a   12.44651181
_cell_length_b   12.43914181
_cell_length_c   4.14440400
_cell_angle_alpha   90.00000000
_cell_angle_beta   90.00000000
_cell_angle_gamma   89.93816776
_symmetry_Int_Tables_number   1
_chemical_formula_structural   ErLu4Hf5(Si5Ir2)4
_chemical_formula_sum   'Er1 Lu4 Hf5 Si20 Ir8'
_cell_volume   641.65252241
_cell_formula_units_Z   1
loop_
 _symmetry_equiv_pos_site_id
 _symmetry_equiv_pos_as_xyz
  1  'x, y, z'
loop_
 _atom_site_type_symbol
 _atom_site_label
 _atom_site_symmetry_multiplicity
 _atom_site_fract_x
 _atom_site_fract_y
 _atom_site_fract_z
 _atom_site_occupancy
  Er  Er0  1  0.616294  0.883680  0.500000  1
  Lu  Lu1  1  0.000215  0.000174  0.000000  1
  Lu  Lu2  1  0.883635  0.383801  0.500000  1
  Lu  Lu3  1  0.116174  0.616489  0.500000  1
  Lu  Lu4  1  0.383718  0.116097  0.500000  1
  Hf  Hf5  1  0.499778  0.499824  0.000000  1
  Hf  Hf6  1  0.673822  0.174477  0.500000  1
  Hf  Hf7  1  0.326069  0.825405  0.500000  1
  Hf  Hf8  1  0.174358  0.326538  0.500000  1
  Hf  Hf9  1  0.825666  0.673737  0.500000  1
  Si  Si10  1  0.565767  0.066807  0.000000  1
  Si  Si11  1  0.434384  0.932987  0.000000  1
  Si  Si12  1  0.066780  0.434774  0.000000  1
  Si  Si13  1  0.933007  0.565467  0.000000  1
  Si  Si14  1  0.665918  0.700746  0.000000  1
  Si  Si15  1  0.333781  0.299077  0.000000  1
  Si  Si16  1  0.164464  0.801290  0.000000  1
  Si  Si17  1  0.835611  0.199264  0.000000  1
  Si  Si18  1  0.298515  0.666130  0.000000  1
  Si  Si19  1  0.700876  0.333815  0.000000  1
  Si  Si20  1  0.198844  0.164772  0.000000  1
  Si  Si21  1  0.801247  0.835450  0.000000  1
  Si  Si22  1  0.651224  0.508290  0.500000  1
  Si  Si23  1  0.348632  0.491184  0.500000  1
  Si  Si24  1  0.154662  0.991576  0.500000  1
  Si  Si25  1  0.845880  0.008083  0.500000  1
  Si  Si26  1  0.491531  0.650897  0.500000  1
  Si  Si27  1  0.508695  0.348634  0.500000  1
  Si  Si28  1  0.008312  0.154933  0.500000  1
  Si  Si29  1  0.992335  0.845346  0.500000  1
  Ir  Ir30  1  0.743433  0.520234  0.000000  1
  Ir  Ir31  1  0.256319  0.479733  0.000000  1
  Ir  Ir32  1  0.246540  0.979660  0.000000  1
  Ir  Ir33  1  0.754395  0.021200  0.000000  1
  Ir  Ir34  1  0.478825  0.742723  0.000000  1
  Ir  Ir35  1  0.520205  0.256431  0.000000  1
  Ir  Ir36  1  0.020559  0.246967  0.000000  1
  Ir  Ir37  1  0.979532  0.753312  0.000000  1
