# generated using pymatgen
data_Yb3TmNbOs7
_symmetry_space_group_name_H-M   'P 1'
_cell_length_a   5.40697100
_cell_length_b   5.40697054
_cell_length_c   8.60364600
_cell_angle_alpha   90.00000000
_cell_angle_beta   90.00000000
_cell_angle_gamma   119.99999670
_symmetry_Int_Tables_number   1
_chemical_formula_structural   Yb3TmNbOs7
_chemical_formula_sum   'Yb3 Tm1 Nb1 Os7'
_cell_volume   217.83177108
_cell_formula_units_Z   1
loop_
 _symmetry_equiv_pos_site_id
 _symmetry_equiv_pos_as_xyz
  1  'x, y, z'
loop_
 _atom_site_type_symbol
 _atom_site_label
 _atom_site_symmetry_multiplicity
 _atom_site_fract_x
 _atom_site_fract_y
 _atom_site_fract_z
 _atom_site_occupancy
  Yb  Yb0  1  0.666667  0.333333  0.575097  1
  Yb  Yb1  1  0.666667  0.333333  0.935029  1
  Yb  Yb2  1  0.333333  0.666667  0.059732  1
  Tm  Tm3  1  0.333333  0.666667  0.425770  1
  Nb  Nb4  1  0.000000  0.000000  0.500258  1
  Os  Os5  1  0.000000  0.000000  0.001775  1
  Os  Os6  1  0.826901  0.173099  0.249493  1
  Os  Os7  1  0.826901  0.653801  0.249493  1
  Os  Os8  1  0.346199  0.173099  0.249493  1
  Os  Os9  1  0.172813  0.827187  0.751287  1
  Os  Os10  1  0.172813  0.345627  0.751287  1
  Os  Os11  1  0.654373  0.827187  0.751287  1
