# generated using pymatgen
data_Dy4Ho5ThRu4
_symmetry_space_group_name_H-M   'P 1'
_cell_length_a   6.36297114
_cell_length_b   7.25950278
_cell_length_c   8.54829998
_cell_angle_alpha   96.32134390
_cell_angle_beta   112.25545365
_cell_angle_gamma   90.67703440
_symmetry_Int_Tables_number   1
_chemical_formula_structural   Dy4Ho5ThRu4
_chemical_formula_sum   'Dy4 Ho5 Th1 Ru4'
_cell_volume   362.61044168
_cell_formula_units_Z   1
loop_
 _symmetry_equiv_pos_site_id
 _symmetry_equiv_pos_as_xyz
  1  'x, y, z'
loop_
 _atom_site_type_symbol
 _atom_site_label
 _atom_site_symmetry_multiplicity
 _atom_site_fract_x
 _atom_site_fract_y
 _atom_site_fract_z
 _atom_site_occupancy
  Dy  Dy0  1  0.789880  0.582769  0.809616  1
  Dy  Dy1  1  0.022399  0.085416  0.812142  1
  Dy  Dy2  1  0.209024  0.415746  0.185182  1
  Dy  Dy3  1  0.639985  0.815571  0.436562  1
  Ho  Ho4  1  0.208801  0.684417  0.568233  1
  Ho  Ho5  1  0.358287  0.187126  0.568428  1
  Ho  Ho6  1  0.793230  0.314242  0.435463  1
  Ho  Ho7  1  0.419887  0.747582  0.997231  1
  Ho  Ho8  1  0.578765  0.250438  0.999828  1
  Th  Th9  1  0.986384  0.908160  0.187850  1
  Ru  Ru10  1  0.829028  0.587643  0.220385  1
  Ru  Ru11  1  0.607085  0.925452  0.782879  1
  Ru  Ru12  1  0.176466  0.424077  0.777141  1
  Ru  Ru13  1  0.380778  0.071360  0.219059  1
