# generated using pymatgen
data_Nd12FeRuI17
_symmetry_space_group_name_H-M   'P 1'
_cell_length_a   10.03051414
_cell_length_b   12.04188934
_cell_length_c   12.08482824
_cell_angle_alpha   93.59925677
_cell_angle_beta   104.67911317
_cell_angle_gamma   114.29720082
_symmetry_Int_Tables_number   1
_chemical_formula_structural   Nd12FeRuI17
_chemical_formula_sum   'Nd12 Fe1 Ru1 I17'
_cell_volume   1263.65474899
_cell_formula_units_Z   1
loop_
 _symmetry_equiv_pos_site_id
 _symmetry_equiv_pos_as_xyz
  1  'x, y, z'
loop_
 _atom_site_type_symbol
 _atom_site_label
 _atom_site_symmetry_multiplicity
 _atom_site_fract_x
 _atom_site_fract_y
 _atom_site_fract_z
 _atom_site_occupancy
  Nd  Nd0  1  0.052862  0.504261  0.319919  1
  Nd  Nd1  1  0.987479  0.812380  0.578453  1
  Nd  Nd2  1  0.648844  0.240893  0.282930  1
  Nd  Nd3  1  0.009964  0.191855  0.413066  1
  Nd  Nd4  1  0.226100  0.668756  0.993501  1
  Nd  Nd5  1  0.262178  0.990406  0.893144  1
  Nd  Nd6  1  0.351234  0.759792  0.717084  1
  Nd  Nd7  1  0.939022  0.485471  0.676135  1
  Nd  Nd8  1  0.744865  0.020190  0.110542  1
  Nd  Nd9  1  0.147403  0.286946  0.151651  1
  Nd  Nd10  1  0.778553  0.328241  0.015249  1
  Nd  Nd11  1  0.852410  0.711947  0.848388  1
  Fe  Fe12  1  0.896041  0.261708  0.213959  1
  Ru  Ru13  1  0.104215  0.738270  0.785827  1
  I  I14  1  0.784788  0.528258  0.418321  1
  I  I15  1  0.642748  0.418866  0.760847  1
  I  I16  1  0.843190  0.896026  0.324595  1
  I  I17  1  0.325690  0.212896  0.368356  1
  I  I18  1  0.156196  0.105100  0.674434  1
  I  I19  1  0.587223  0.052242  0.844291  1
  I  I20  1  0.755682  0.183499  0.536675  1
  I  I21  1  0.549433  0.709566  0.953358  1
  I  I22  1  0.357966  0.580737  0.241128  1
  I  I23  1  0.213863  0.471730  0.581476  1
  I  I24  1  0.054988  0.367667  0.897753  1
  I  I25  1  0.451133  0.292176  0.047109  1
  I  I26  1  0.999370  0.998958  0.999608  1
  I  I27  1  0.243307  0.814319  0.462300  1
  I  I28  1  0.413634  0.948074  0.156159  1
  I  I29  1  0.674672  0.787146  0.631270  1
  I  I30  1  0.944946  0.631625  0.102474  1
