# generated using pymatgen
data_Dy2HoZn3Cu2Pt
_symmetry_space_group_name_H-M   'P 1'
_cell_length_a   7.13832274
_cell_length_b   7.13830370
_cell_length_c   3.89561900
_cell_angle_alpha   90.00000000
_cell_angle_beta   90.00000000
_cell_angle_gamma   120.05211934
_symmetry_Int_Tables_number   1
_chemical_formula_structural   Dy2HoZn3Cu2Pt
_chemical_formula_sum   'Dy2 Ho1 Zn3 Cu2 Pt1'
_cell_volume   171.81852274
_cell_formula_units_Z   1
loop_
 _symmetry_equiv_pos_site_id
 _symmetry_equiv_pos_as_xyz
  1  'x, y, z'
loop_
 _atom_site_type_symbol
 _atom_site_label
 _atom_site_symmetry_multiplicity
 _atom_site_fract_x
 _atom_site_fract_y
 _atom_site_fract_z
 _atom_site_occupancy
  Dy  Dy0  1  0.410702  0.407994  0.000000  1
  Dy  Dy1  1  0.592118  0.002848  0.000000  1
  Ho  Ho2  1  0.997359  0.589560  0.000000  1
  Zn  Zn3  1  0.757086  0.761933  0.500000  1
  Zn  Zn4  1  0.237945  0.994323  0.500000  1
  Zn  Zn5  1  0.005453  0.244088  0.500000  1
  Cu  Cu6  1  0.999432  0.999615  0.000000  1
  Cu  Cu7  1  0.332658  0.665632  0.500000  1
  Pt  Pt8  1  0.667247  0.334007  0.500000  1
