# generated using pymatgen
data_NdTh7(Si3Rh)4
_symmetry_space_group_name_H-M   'P 1'
_cell_length_a   8.23696300
_cell_length_b   8.23705980
_cell_length_c   8.42977000
_cell_angle_alpha   90.00000000
_cell_angle_beta   90.00000000
_cell_angle_gamma   120.00041782
_symmetry_Int_Tables_number   1
_chemical_formula_structural   NdTh7(Si3Rh)4
_chemical_formula_sum   'Nd1 Th7 Si12 Rh4'
_cell_volume   495.31771719
_cell_formula_units_Z   1
loop_
 _symmetry_equiv_pos_site_id
 _symmetry_equiv_pos_as_xyz
  1  'x, y, z'
loop_
 _atom_site_type_symbol
 _atom_site_label
 _atom_site_symmetry_multiplicity
 _atom_site_fract_x
 _atom_site_fract_y
 _atom_site_fract_z
 _atom_site_occupancy
  Nd  Nd0  1  0.000005  0.000005  0.749999  1
  Th  Th1  1  0.000002  0.000002  0.249999  1
  Th  Th2  1  0.499906  0.000305  0.249999  1
  Th  Th3  1  0.999708  0.499603  0.249999  1
  Th  Th4  1  0.500412  0.500111  0.249999  1
  Th  Th5  1  0.000316  0.499926  0.749999  1
  Th  Th6  1  0.500086  0.500399  0.749999  1
  Th  Th7  1  0.499617  0.999697  0.749999  1
  Si  Si8  1  0.833578  0.166364  0.000483  1
  Si  Si9  1  0.332793  0.166438  0.000481  1
  Si  Si10  1  0.833650  0.667220  0.000481  1
  Si  Si11  1  0.833578  0.166364  0.499517  1
  Si  Si12  1  0.332793  0.166438  0.499519  1
  Si  Si13  1  0.833650  0.667220  0.499519  1
  Si  Si14  1  0.166437  0.332787  0.500405  1
  Si  Si15  1  0.166355  0.833579  0.500405  1
  Si  Si16  1  0.667229  0.833657  0.500407  1
  Si  Si17  1  0.166437  0.332787  0.999596  1
  Si  Si18  1  0.166355  0.833579  0.999596  1
  Si  Si19  1  0.667229  0.833657  0.999594  1
  Rh  Rh20  1  0.333344  0.666679  0.001058  1
  Rh  Rh21  1  0.333344  0.666679  0.498942  1
  Rh  Rh22  1  0.666681  0.333344  0.501742  1
  Rh  Rh23  1  0.666681  0.333344  0.998258  1
