# generated using pymatgen
data_Cs2NaSc(AsS2)6
_symmetry_space_group_name_H-M   'P 1'
_cell_length_a   9.57687900
_cell_length_b   9.57687795
_cell_length_c   7.78312500
_cell_angle_alpha   90.00000000
_cell_angle_beta   90.00000000
_cell_angle_gamma   120.00000709
_symmetry_Int_Tables_number   1
_chemical_formula_structural   Cs2NaSc(AsS2)6
_chemical_formula_sum   'Cs2 Na1 Sc1 As6 S12'
_cell_volume   618.20506518
_cell_formula_units_Z   1
loop_
 _symmetry_equiv_pos_site_id
 _symmetry_equiv_pos_as_xyz
  1  'x, y, z'
loop_
 _atom_site_type_symbol
 _atom_site_label
 _atom_site_symmetry_multiplicity
 _atom_site_fract_x
 _atom_site_fract_y
 _atom_site_fract_z
 _atom_site_occupancy
  Cs  Cs0  1  0.333333  0.666667  0.843655  1
  Cs  Cs1  1  0.666667  0.333333  0.156345  1
  Na  Na2  1  0.000000  0.000000  0.000000  1
  Sc  Sc3  1  0.000000  0.000000  0.500000  1
  As  As4  1  0.274896  0.830124  0.388057  1
  As  As5  1  0.169876  0.444773  0.388057  1
  As  As6  1  0.555227  0.725104  0.388057  1
  As  As7  1  0.725104  0.169876  0.611943  1
  As  As8  1  0.830124  0.555227  0.611943  1
  As  As9  1  0.444773  0.274896  0.611943  1
  S  S10  1  0.222112  0.017889  0.290386  1
  S  S11  1  0.982111  0.204224  0.290386  1
  S  S12  1  0.795776  0.777888  0.290386  1
  S  S13  1  0.777888  0.982111  0.709614  1
  S  S14  1  0.017889  0.795776  0.709614  1
  S  S15  1  0.204224  0.222112  0.709614  1
  S  S16  1  0.510851  0.906205  0.231534  1
  S  S17  1  0.093795  0.604646  0.231534  1
  S  S18  1  0.395354  0.489149  0.231534  1
  S  S19  1  0.489149  0.093795  0.768466  1
  S  S20  1  0.906205  0.395354  0.768466  1
  S  S21  1  0.604646  0.510851  0.768466  1
