# generated using pymatgen
data_TbCeMnC4
_symmetry_space_group_name_H-M   'P 1'
_cell_length_a   6.60000747
_cell_length_b   6.80701955
_cell_length_c   6.80702027
_cell_angle_alpha   136.24932025
_cell_angle_beta   111.60920030
_cell_angle_gamma   85.30099379
_symmetry_Int_Tables_number   1
_chemical_formula_structural   TbCeMnC4
_chemical_formula_sum   'Tb2 Ce2 Mn2 C8'
_cell_volume   188.38080836
_cell_formula_units_Z   2
loop_
 _symmetry_equiv_pos_site_id
 _symmetry_equiv_pos_as_xyz
  1  'x, y, z'
loop_
 _atom_site_type_symbol
 _atom_site_label
 _atom_site_symmetry_multiplicity
 _atom_site_fract_x
 _atom_site_fract_y
 _atom_site_fract_z
 _atom_site_occupancy
  Tb  Tb0  1  0.192073  0.859177  0.332897  1
  Tb  Tb1  1  0.807927  0.140823  0.667103  1
  Ce  Ce2  1  0.505776  0.352376  0.153400  1
  Ce  Ce3  1  0.494224  0.647624  0.846600  1
  Mn  Mn4  1  0.000000  0.251685  0.251685  1
  Mn  Mn5  1  0.000000  0.748315  0.748315  1
  C  C6  1  0.248392  0.076983  0.171409  1
  C  C7  1  0.751608  0.923017  0.828591  1
  C  C8  1  0.919686  0.580875  0.338811  1
  C  C9  1  0.080314  0.419125  0.661189  1
  C  C10  1  0.472547  0.125760  0.346787  1
  C  C11  1  0.527453  0.874240  0.653213  1
  C  C12  1  0.790479  0.625639  0.164839  1
  C  C13  1  0.209521  0.374361  0.835161  1
