# generated using pymatgen
data_NdSmYAlC3
_symmetry_space_group_name_H-M   'P 1'
_cell_length_a   3.67581500
_cell_length_b   7.27934815
_cell_length_c   10.11534567
_cell_angle_alpha   89.18267291
_cell_angle_beta   90.00000000
_cell_angle_gamma   90.00000000
_symmetry_Int_Tables_number   1
_chemical_formula_structural   NdSmYAlC3
_chemical_formula_sum   'Nd2 Sm2 Y2 Al2 C6'
_cell_volume   270.63419907
_cell_formula_units_Z   2
loop_
 _symmetry_equiv_pos_site_id
 _symmetry_equiv_pos_as_xyz
  1  'x, y, z'
loop_
 _atom_site_type_symbol
 _atom_site_label
 _atom_site_symmetry_multiplicity
 _atom_site_fract_x
 _atom_site_fract_y
 _atom_site_fract_z
 _atom_site_occupancy
  Nd  Nd0  1  0.500000  0.511094  0.192708  1
  Nd  Nd1  1  0.500000  0.488906  0.807292  1
  Sm  Sm2  1  0.000000  0.750658  0.458909  1
  Sm  Sm3  1  0.000000  0.249342  0.541091  1
  Y  Y4  1  0.500000  0.990040  0.201528  1
  Y  Y5  1  0.500000  0.009960  0.798472  1
  Al  Al6  1  0.000000  0.777061  0.008522  1
  Al  Al7  1  0.000000  0.222939  0.991478  1
  C  C8  1  0.500000  0.507373  0.564871  1
  C  C9  1  0.500000  0.492627  0.435129  1
  C  C10  1  0.500000  0.991628  0.565039  1
  C  C11  1  0.500000  0.008372  0.434961  1
  C  C12  1  0.000000  0.759315  0.208363  1
  C  C13  1  0.000000  0.240685  0.791637  1
