# generated using pymatgen
data_Ba(AcAl6)2
_symmetry_space_group_name_H-M   'P 1'
_cell_length_a   9.03021328
_cell_length_b   9.03021280
_cell_length_c   9.03021284
_cell_angle_alpha   150.28567286
_cell_angle_beta   105.29230995
_cell_angle_gamma   82.40029975
_symmetry_Int_Tables_number   1
_chemical_formula_structural   Ba(AcAl6)2
_chemical_formula_sum   'Ba1 Ac2 Al12'
_cell_volume   344.78253002
_cell_formula_units_Z   1
loop_
 _symmetry_equiv_pos_site_id
 _symmetry_equiv_pos_as_xyz
  1  'x, y, z'
loop_
 _atom_site_type_symbol
 _atom_site_label
 _atom_site_symmetry_multiplicity
 _atom_site_fract_x
 _atom_site_fract_y
 _atom_site_fract_z
 _atom_site_occupancy
  Ba  Ba0  1  0.000359  0.000000  0.000359  1
  Ac  Ac1  1  0.334555  0.333601  0.000954  1
  Ac  Ac2  1  0.667352  0.666399  0.000954  1
  Al  Al3  1  0.621971  0.000000  0.621971  1
  Al  Al4  1  0.380253  0.000000  0.380253  1
  Al  Al5  1  0.253652  0.500000  0.753652  1
  Al  Al6  1  0.748330  0.500000  0.248330  1
  Al  Al7  1  0.582727  0.831895  0.750832  1
  Al  Al8  1  0.918937  0.168105  0.750832  1
  Al  Al9  1  0.288943  0.667327  0.621617  1
  Al  Al10  1  0.954290  0.332673  0.621617  1
  Al  Al11  1  0.047209  0.667784  0.379425  1
  Al  Al12  1  0.711639  0.332216  0.379425  1
  Al  Al13  1  0.082900  0.832508  0.250392  1
  Al  Al14  1  0.417883  0.167492  0.250392  1
