# generated using pymatgen
data_HoU(SnRh)2
_symmetry_space_group_name_H-M   'P 1'
_cell_length_a   7.43027300
_cell_length_b   7.43027396
_cell_length_c   7.98333600
_cell_angle_alpha   90.00000000
_cell_angle_beta   90.00000000
_cell_angle_gamma   120.00000787
_symmetry_Int_Tables_number   1
_chemical_formula_structural   HoU(SnRh)2
_chemical_formula_sum   'Ho3 U3 Sn6 Rh6'
_cell_volume   381.70214734
_cell_formula_units_Z   3
loop_
 _symmetry_equiv_pos_site_id
 _symmetry_equiv_pos_as_xyz
  1  'x, y, z'
loop_
 _atom_site_type_symbol
 _atom_site_label
 _atom_site_symmetry_multiplicity
 _atom_site_fract_x
 _atom_site_fract_y
 _atom_site_fract_z
 _atom_site_occupancy
  Ho  Ho0  1  0.000103  0.409126  0.750000  1
  Ho  Ho1  1  0.590874  0.590978  0.750000  1
  Ho  Ho2  1  0.409022  0.999897  0.750000  1
  U  U3  1  0.998489  0.413818  0.250000  1
  U  U4  1  0.586182  0.584671  0.250000  1
  U  U5  1  0.415329  0.001511  0.250000  1
  Sn  Sn6  1  0.255390  0.255750  0.504069  1
  Sn  Sn7  1  0.000361  0.744610  0.504069  1
  Sn  Sn8  1  0.000361  0.744610  0.995931  1
  Sn  Sn9  1  0.744250  0.999639  0.504069  1
  Sn  Sn10  1  0.744250  0.999639  0.995931  1
  Sn  Sn11  1  0.255390  0.255750  0.995931  1
  Rh  Rh12  1  0.333333  0.666667  0.472944  1
  Rh  Rh13  1  0.666667  0.333333  0.476315  1
  Rh  Rh14  1  0.333333  0.666667  0.027056  1
  Rh  Rh15  1  0.000000  0.000000  0.750000  1
  Rh  Rh16  1  0.000000  0.000000  0.250000  1
  Rh  Rh17  1  0.666667  0.333333  0.023685  1
