# generated using pymatgen
data_Tm2Lu10Co5Pb
_symmetry_space_group_name_H-M   'P 1'
_cell_length_a   8.11179566
_cell_length_b   8.10832556
_cell_length_c   8.11179587
_cell_angle_alpha   110.99742844
_cell_angle_beta   110.98142178
_cell_angle_gamma   106.49211848
_symmetry_Int_Tables_number   1
_chemical_formula_structural   Tm2Lu10Co5Pb
_chemical_formula_sum   'Tm2 Lu10 Co5 Pb1'
_cell_volume   409.80257079
_cell_formula_units_Z   1
loop_
 _symmetry_equiv_pos_site_id
 _symmetry_equiv_pos_as_xyz
  1  'x, y, z'
loop_
 _atom_site_type_symbol
 _atom_site_label
 _atom_site_symmetry_multiplicity
 _atom_site_fract_x
 _atom_site_fract_y
 _atom_site_fract_z
 _atom_site_occupancy
  Tm  Tm0  1  0.212693  0.017868  0.805175  1
  Tm  Tm1  1  0.787307  0.982132  0.194825  1
  Lu  Lu2  1  0.285920  0.184376  0.469703  1
  Lu  Lu3  1  0.714080  0.815624  0.530297  1
  Lu  Lu4  1  0.285326  0.815624  0.101542  1
  Lu  Lu5  1  0.714674  0.184376  0.898458  1
  Lu  Lu6  1  0.618888  0.312922  0.307024  1
  Lu  Lu7  1  0.381112  0.687078  0.692976  1
  Lu  Lu8  1  0.005898  0.312922  0.694034  1
  Lu  Lu9  1  0.994102  0.687078  0.305966  1
  Lu  Lu10  1  0.212471  0.407660  0.195191  1
  Lu  Lu11  1  0.787529  0.592340  0.804809  1
  Co  Co12  1  0.000441  0.375736  0.375295  1
  Co  Co13  1  0.999559  0.624264  0.624705  1
  Co  Co14  1  0.387334  0.886968  0.499635  1
  Co  Co15  1  0.612666  0.113032  0.500365  1
  Co  Co16  1  0.000000  0.000000  0.000000  1
  Pb  Pb17  1  0.500000  0.500000  0.000000  1
