# generated using pymatgen
data_VNiTeO6
_symmetry_space_group_name_H-M   'P 1'
_cell_length_a   4.61636300
_cell_length_b   4.61636300
_cell_length_c   9.19947200
_cell_angle_alpha   90.00000000
_cell_angle_beta   90.00000000
_cell_angle_gamma   89.99860992
_symmetry_Int_Tables_number   1
_chemical_formula_structural   VNiTeO6
_chemical_formula_sum   'V2 Ni2 Te2 O12'
_cell_volume   196.04817551
_cell_formula_units_Z   2
loop_
 _symmetry_equiv_pos_site_id
 _symmetry_equiv_pos_as_xyz
  1  'x, y, z'
loop_
 _atom_site_type_symbol
 _atom_site_label
 _atom_site_symmetry_multiplicity
 _atom_site_fract_x
 _atom_site_fract_y
 _atom_site_fract_z
 _atom_site_occupancy
  V  V0  1  0.500000  0.500000  0.168349  1
  V  V1  1  0.000000  0.000000  0.668364  1
  Ni  Ni2  1  0.500000  0.500000  0.834664  1
  Ni  Ni3  1  0.000000  0.000000  0.334631  1
  Te  Te4  1  0.500000  0.500000  0.500783  1
  Te  Te5  1  0.000000  0.000000  0.000705  1
  O  O6  1  0.201655  0.798345  0.505648  1
  O  O7  1  0.798345  0.201655  0.505648  1
  O  O8  1  0.298348  0.298348  0.005678  1
  O  O9  1  0.701652  0.701652  0.005678  1
  O  O10  1  0.201957  0.798043  0.159130  1
  O  O11  1  0.798043  0.201957  0.159130  1
  O  O12  1  0.298045  0.298045  0.659105  1
  O  O13  1  0.701955  0.701955  0.659105  1
  O  O14  1  0.811778  0.188222  0.833355  1
  O  O15  1  0.188222  0.811778  0.833355  1
  O  O16  1  0.688233  0.688233  0.333336  1
  O  O17  1  0.311768  0.311768  0.333336  1
