# generated using pymatgen
data_NpPaBiN2
_symmetry_space_group_name_H-M   'P 1'
_cell_length_a   7.12916078
_cell_length_b   7.12916139
_cell_length_c   7.12916259
_cell_angle_alpha   147.84942808
_cell_angle_beta   147.84943217
_cell_angle_gamma   46.10768993
_symmetry_Int_Tables_number   1
_chemical_formula_structural   NpPaBiN2
_chemical_formula_sum   'Np1 Pa1 Bi1 N2'
_cell_volume   102.25262717
_cell_formula_units_Z   1
loop_
 _symmetry_equiv_pos_site_id
 _symmetry_equiv_pos_as_xyz
  1  'x, y, z'
loop_
 _atom_site_type_symbol
 _atom_site_label
 _atom_site_symmetry_multiplicity
 _atom_site_fract_x
 _atom_site_fract_y
 _atom_site_fract_z
 _atom_site_occupancy
  Np  Np0  1  0.337244  0.337244  0.000000  1
  Pa  Pa1  1  0.666576  0.666576  0.000000  1
  Bi  Bi2  1  0.001296  0.001296  0.000000  1
  N  N3  1  0.247442  0.747442  0.500000  1
  N  N4  1  0.747442  0.247442  0.500000  1
