# generated using pymatgen
data_Sc2Ta4B4IrRu9
_symmetry_space_group_name_H-M   'P 1'
_cell_length_a   9.47641290
_cell_length_b   9.47641224
_cell_length_c   3.05849100
_cell_angle_alpha   90.00000000
_cell_angle_beta   90.00000000
_cell_angle_gamma   90.39936088
_symmetry_Int_Tables_number   1
_chemical_formula_structural   Sc2Ta4B4IrRu9
_chemical_formula_sum   'Sc2 Ta4 B4 Ir1 Ru9'
_cell_volume   274.65314575
_cell_formula_units_Z   1
loop_
 _symmetry_equiv_pos_site_id
 _symmetry_equiv_pos_as_xyz
  1  'x, y, z'
loop_
 _atom_site_type_symbol
 _atom_site_label
 _atom_site_symmetry_multiplicity
 _atom_site_fract_x
 _atom_site_fract_y
 _atom_site_fract_z
 _atom_site_occupancy
  Sc  Sc0  1  0.820914  0.679086  0.000000  1
  Sc  Sc1  1  0.179086  0.320914  0.000000  1
  Ta  Ta2  1  0.323787  0.823787  0.000000  1
  Ta  Ta3  1  0.676213  0.176213  0.000000  1
  Ta  Ta4  1  0.500000  0.500000  0.000000  1
  Ta  Ta5  1  0.000000  0.000000  0.000000  1
  B  B6  1  0.622020  0.877980  0.000000  1
  B  B7  1  0.377980  0.122020  0.000000  1
  B  B8  1  0.123679  0.623679  0.000000  1
  B  B9  1  0.876321  0.376321  0.000000  1
  Ir  Ir10  1  0.000000  0.500000  0.500000  1
  Ru  Ru11  1  0.563582  0.720728  0.500000  1
  Ru  Ru12  1  0.436418  0.279272  0.500000  1
  Ru  Ru13  1  0.075082  0.782972  0.500000  1
  Ru  Ru14  1  0.924918  0.217028  0.500000  1
  Ru  Ru15  1  0.282972  0.575082  0.500000  1
  Ru  Ru16  1  0.717028  0.424918  0.500000  1
  Ru  Ru17  1  0.220728  0.063582  0.500000  1
  Ru  Ru18  1  0.779272  0.936418  0.500000  1
  Ru  Ru19  1  0.500000  0.000000  0.500000  1
