# generated using pymatgen
data_CrSi2Rh5
_symmetry_space_group_name_H-M   'P 1'
_cell_length_a   3.93534200
_cell_length_b   5.36405100
_cell_length_c   10.25185600
_cell_angle_alpha   90.00000000
_cell_angle_beta   90.00000000
_cell_angle_gamma   90.00000000
_symmetry_Int_Tables_number   1
_chemical_formula_structural   CrSi2Rh5
_chemical_formula_sum   'Cr2 Si4 Rh10'
_cell_volume   216.41027470
_cell_formula_units_Z   2
loop_
 _symmetry_equiv_pos_site_id
 _symmetry_equiv_pos_as_xyz
  1  'x, y, z'
loop_
 _atom_site_type_symbol
 _atom_site_label
 _atom_site_symmetry_multiplicity
 _atom_site_fract_x
 _atom_site_fract_y
 _atom_site_fract_z
 _atom_site_occupancy
  Cr  Cr0  1  0.500000  0.830342  0.357992  1
  Cr  Cr1  1  0.500000  0.330342  0.142008  1
  Si  Si2  1  0.000000  0.548476  0.492186  1
  Si  Si3  1  0.500000  0.134173  0.643403  1
  Si  Si4  1  0.500000  0.634173  0.856597  1
  Si  Si5  1  0.000000  0.048476  0.007814  1
  Rh  Rh6  1  0.000000  0.374313  0.715643  1
  Rh  Rh7  1  0.000000  0.080837  0.243929  1
  Rh  Rh8  1  0.000000  0.874313  0.784357  1
  Rh  Rh9  1  0.500000  0.825370  0.100596  1
  Rh  Rh10  1  0.500000  0.187553  0.888717  1
  Rh  Rh11  1  0.500000  0.687553  0.611283  1
  Rh  Rh12  1  0.000000  0.018938  0.511224  1
  Rh  Rh13  1  0.500000  0.325370  0.399404  1
  Rh  Rh14  1  0.000000  0.518938  0.988776  1
  Rh  Rh15  1  0.000000  0.580837  0.256071  1
