# generated using pymatgen
data_Dy2Mg2AgIr
_symmetry_space_group_name_H-M   'P 1'
_cell_length_a   4.12570400
_cell_length_b   7.32663032
_cell_length_c   8.91390575
_cell_angle_alpha   86.52376173
_cell_angle_beta   90.00000000
_cell_angle_gamma   90.00000000
_symmetry_Int_Tables_number   1
_chemical_formula_structural   Dy2Mg2AgIr
_chemical_formula_sum   'Dy4 Mg4 Ag2 Ir2'
_cell_volume   268.94938688
_cell_formula_units_Z   2
loop_
 _symmetry_equiv_pos_site_id
 _symmetry_equiv_pos_as_xyz
  1  'x, y, z'
loop_
 _atom_site_type_symbol
 _atom_site_label
 _atom_site_symmetry_multiplicity
 _atom_site_fract_x
 _atom_site_fract_y
 _atom_site_fract_z
 _atom_site_occupancy
  Dy  Dy0  1  0.250000  0.524372  0.159735  1
  Dy  Dy1  1  0.750000  0.475628  0.840265  1
  Dy  Dy2  1  0.750000  0.945199  0.694533  1
  Dy  Dy3  1  0.250000  0.054801  0.305467  1
  Mg  Mg4  1  0.250000  0.642203  0.569756  1
  Mg  Mg5  1  0.750000  0.357797  0.430244  1
  Mg  Mg6  1  0.750000  0.865102  0.056175  1
  Mg  Mg7  1  0.250000  0.134898  0.943825  1
  Ag  Ag8  1  0.750000  0.744526  0.370435  1
  Ag  Ag9  1  0.250000  0.255474  0.629565  1
  Ir  Ir10  1  0.250000  0.749693  0.868803  1
  Ir  Ir11  1  0.750000  0.250307  0.131197  1
