# generated using pymatgen
data_VReTcBr13
_symmetry_space_group_name_H-M   'P 1'
_cell_length_a   11.75925100
_cell_length_b   9.93195199
_cell_length_c   10.55913225
_cell_angle_alpha   83.01984279
_cell_angle_beta   90.00000000
_cell_angle_gamma   90.00000000
_symmetry_Int_Tables_number   1
_chemical_formula_structural   VReTcBr13
_chemical_formula_sum   'V2 Re2 Tc2 Br26'
_cell_volume   1224.08521506
_cell_formula_units_Z   2
loop_
 _symmetry_equiv_pos_site_id
 _symmetry_equiv_pos_as_xyz
  1  'x, y, z'
loop_
 _atom_site_type_symbol
 _atom_site_label
 _atom_site_symmetry_multiplicity
 _atom_site_fract_x
 _atom_site_fract_y
 _atom_site_fract_z
 _atom_site_occupancy
  V  V0  1  0.250000  0.261609  0.504068  1
  V  V1  1  0.750000  0.738391  0.495932  1
  Re  Re2  1  0.250000  0.687402  0.871890  1
  Re  Re3  1  0.750000  0.312598  0.128110  1
  Tc  Tc4  1  0.250000  0.825439  0.090079  1
  Tc  Tc5  1  0.750000  0.174561  0.909921  1
  Br  Br6  1  0.593006  0.815676  0.588454  1
  Br  Br7  1  0.093006  0.184324  0.411546  1
  Br  Br8  1  0.750000  0.435779  0.899672  1
  Br  Br9  1  0.250000  0.564221  0.100328  1
  Br  Br10  1  0.907850  0.147783  0.079885  1
  Br  Br11  1  0.407850  0.852217  0.920115  1
  Br  Br12  1  0.092150  0.852217  0.920115  1
  Br  Br13  1  0.592150  0.147783  0.079885  1
  Br  Br14  1  0.750000  0.199535  0.350850  1
  Br  Br15  1  0.250000  0.800465  0.649150  1
  Br  Br16  1  0.899996  0.469989  0.179785  1
  Br  Br17  1  0.399996  0.530011  0.820215  1
  Br  Br18  1  0.100004  0.530011  0.820215  1
  Br  Br19  1  0.600004  0.469989  0.179785  1
  Br  Br20  1  0.750000  0.924977  0.916645  1
  Br  Br21  1  0.250000  0.075023  0.083355  1
  Br  Br22  1  0.899138  0.197046  0.744699  1
  Br  Br23  1  0.399138  0.802954  0.255301  1
  Br  Br24  1  0.100862  0.802954  0.255301  1
  Br  Br25  1  0.600862  0.197046  0.744699  1
  Br  Br26  1  0.750000  0.807724  0.284127  1
  Br  Br27  1  0.250000  0.192276  0.715873  1
  Br  Br28  1  0.750000  0.508793  0.522926  1
  Br  Br29  1  0.250000  0.491207  0.477074  1
  Br  Br30  1  0.906994  0.815676  0.588454  1
  Br  Br31  1  0.406994  0.184324  0.411546  1
