# generated using pymatgen
data_Li2TiZnO4
_symmetry_space_group_name_H-M   'P 1'
_cell_length_a   5.58445300
_cell_length_b   5.11474918
_cell_length_c   8.25185636
_cell_angle_alpha   51.66457257
_cell_angle_beta   90.00000000
_cell_angle_gamma   90.00000000
_symmetry_Int_Tables_number   1
_chemical_formula_structural   Li2TiZnO4
_chemical_formula_sum   'Li4 Ti2 Zn2 O8'
_cell_volume   184.88017665
_cell_formula_units_Z   2
loop_
 _symmetry_equiv_pos_site_id
 _symmetry_equiv_pos_as_xyz
  1  'x, y, z'
loop_
 _atom_site_type_symbol
 _atom_site_label
 _atom_site_symmetry_multiplicity
 _atom_site_fract_x
 _atom_site_fract_y
 _atom_site_fract_z
 _atom_site_occupancy
  Li  Li0  1  0.831653  0.502120  0.000311  1
  Li  Li1  1  0.668615  0.754192  0.248303  1
  Li  Li2  1  0.331385  0.754192  0.748303  1
  Li  Li3  1  0.168347  0.502120  0.500311  1
  Ti  Ti4  1  0.832669  0.997789  0.499892  1
  Ti  Ti5  1  0.167331  0.997789  0.999892  1
  Zn  Zn6  1  0.664129  0.249065  0.752392  1
  Zn  Zn7  1  0.335871  0.249065  0.252392  1
  O  O8  1  0.171869  0.637317  0.001024  1
  O  O9  1  0.676242  0.876886  0.733562  1
  O  O10  1  0.828131  0.637317  0.501024  1
  O  O11  1  0.323758  0.876886  0.233562  1
  O  O12  1  0.146068  0.112065  0.497938  1
  O  O13  1  0.853932  0.112065  0.997938  1
  O  O14  1  0.674628  0.344565  0.265577  1
  O  O15  1  0.325372  0.344565  0.765577  1
