# generated using pymatgen
data_Y7Er9(C2Cl3)4
_symmetry_space_group_name_H-M   'P 1'
_cell_length_a   3.63425500
_cell_length_b   10.41607604
_cell_length_c   19.55450408
_cell_angle_alpha   90.01011721
_cell_angle_beta   90.00000000
_cell_angle_gamma   90.00000000
_symmetry_Int_Tables_number   1
_chemical_formula_structural   Y7Er9(C2Cl3)4
_chemical_formula_sum   'Y7 Er9 C8 Cl12'
_cell_volume   740.22941303
_cell_formula_units_Z   1
loop_
 _symmetry_equiv_pos_site_id
 _symmetry_equiv_pos_as_xyz
  1  'x, y, z'
loop_
 _atom_site_type_symbol
 _atom_site_label
 _atom_site_symmetry_multiplicity
 _atom_site_fract_x
 _atom_site_fract_y
 _atom_site_fract_z
 _atom_site_occupancy
  Y  Y0  1  0.250000  0.138680  0.572481  1
  Y  Y1  1  0.250000  0.638717  0.927553  1
  Y  Y2  1  0.750000  0.861276  0.426996  1
  Y  Y3  1  0.750000  0.361292  0.072516  1
  Y  Y4  1  0.250000  0.637832  0.755262  1
  Y  Y5  1  0.250000  0.137854  0.744739  1
  Y  Y6  1  0.750000  0.362243  0.244583  1
  Er  Er7  1  0.750000  0.862126  0.256254  1
  Er  Er8  1  0.250000  0.099247  0.330725  1
  Er  Er9  1  0.250000  0.599985  0.169058  1
  Er  Er10  1  0.750000  0.900425  0.669001  1
  Er  Er11  1  0.750000  0.400382  0.830982  1
  Er  Er12  1  0.250000  0.124921  0.164640  1
  Er  Er13  1  0.250000  0.625368  0.335126  1
  Er  Er14  1  0.750000  0.874854  0.835414  1
  Er  Er15  1  0.750000  0.374771  0.664576  1
  C  C16  1  0.250000  0.864050  0.346621  1
  C  C17  1  0.250000  0.363915  0.152292  1
  C  C18  1  0.750000  0.136010  0.652131  1
  C  C19  1  0.750000  0.635997  0.847898  1
  C  C20  1  0.250000  0.388199  0.749606  1
  C  C21  1  0.250000  0.888038  0.750399  1
  C  C22  1  0.750000  0.613944  0.250408  1
  C  C23  1  0.750000  0.109888  0.249615  1
  Cl  Cl24  1  0.250000  0.376481  0.951428  1
  Cl  Cl25  1  0.250000  0.876438  0.548365  1
  Cl  Cl26  1  0.750000  0.623716  0.048541  1
  Cl  Cl27  1  0.750000  0.123292  0.451419  1
  Cl  Cl28  1  0.250000  0.889628  0.944939  1
  Cl  Cl29  1  0.250000  0.389641  0.555103  1
  Cl  Cl30  1  0.750000  0.110120  0.054998  1
  Cl  Cl31  1  0.750000  0.610597  0.444991  1
  Cl  Cl32  1  0.250000  0.360124  0.355345  1
  Cl  Cl33  1  0.250000  0.860240  0.146013  1
  Cl  Cl34  1  0.750000  0.639854  0.644691  1
  Cl  Cl35  1  0.750000  0.139855  0.855294  1
