# generated using pymatgen
data_Hf18Re6Mo2IrRh
_symmetry_space_group_name_H-M   'P 1'
_cell_length_a   8.69012300
_cell_length_b   8.69012301
_cell_length_c   8.49213700
_cell_angle_alpha   90.00000000
_cell_angle_beta   90.00000000
_cell_angle_gamma   120.00000378
_symmetry_Int_Tables_number   1
_chemical_formula_structural   Hf18Re6Mo2IrRh
_chemical_formula_sum   'Hf18 Re6 Mo2 Ir1 Rh1'
_cell_volume   555.39178847
_cell_formula_units_Z   1
loop_
 _symmetry_equiv_pos_site_id
 _symmetry_equiv_pos_as_xyz
  1  'x, y, z'
loop_
 _atom_site_type_symbol
 _atom_site_label
 _atom_site_symmetry_multiplicity
 _atom_site_fract_x
 _atom_site_fract_y
 _atom_site_fract_z
 _atom_site_occupancy
  Hf  Hf0  1  0.196896  0.803104  0.445596  1
  Hf  Hf1  1  0.196896  0.393792  0.445596  1
  Hf  Hf2  1  0.606208  0.803104  0.445596  1
  Hf  Hf3  1  0.803562  0.196438  0.554455  1
  Hf  Hf4  1  0.803562  0.607124  0.554455  1
  Hf  Hf5  1  0.392876  0.196438  0.554455  1
  Hf  Hf6  1  0.803562  0.196438  0.945545  1
  Hf  Hf7  1  0.803562  0.607124  0.945545  1
  Hf  Hf8  1  0.392876  0.196438  0.945545  1
  Hf  Hf9  1  0.196896  0.803104  0.054404  1
  Hf  Hf10  1  0.196896  0.393792  0.054404  1
  Hf  Hf11  1  0.606208  0.803104  0.054404  1
  Hf  Hf12  1  0.542241  0.457759  0.250000  1
  Hf  Hf13  1  0.542241  0.084481  0.250000  1
  Hf  Hf14  1  0.915519  0.457759  0.250000  1
  Hf  Hf15  1  0.458177  0.541823  0.750000  1
  Hf  Hf16  1  0.458177  0.916354  0.750000  1
  Hf  Hf17  1  0.083646  0.541823  0.750000  1
  Re  Re18  1  0.888635  0.111365  0.250000  1
  Re  Re19  1  0.888635  0.777269  0.250000  1
  Re  Re20  1  0.222731  0.111365  0.250000  1
  Re  Re21  1  0.111207  0.888793  0.750000  1
  Re  Re22  1  0.111207  0.222415  0.750000  1
  Re  Re23  1  0.777585  0.888793  0.750000  1
  Mo  Mo24  1  0.000000  0.000000  0.499624  1
  Mo  Mo25  1  0.000000  0.000000  0.000376  1
  Ir  Ir26  1  0.666667  0.333333  0.750000  1
  Rh  Rh27  1  0.333333  0.666667  0.250000  1
