# generated using pymatgen
data_Er3Lu(ZnRh)4
_symmetry_space_group_name_H-M   'P 1'
_cell_length_a   4.06643400
_cell_length_b   6.83152555
_cell_length_c   8.03647812
_cell_angle_alpha   89.76348257
_cell_angle_beta   90.00000000
_cell_angle_gamma   90.00000000
_symmetry_Int_Tables_number   1
_chemical_formula_structural   Er3Lu(ZnRh)4
_chemical_formula_sum   'Er3 Lu1 Zn4 Rh4'
_cell_volume   223.25104025
_cell_formula_units_Z   1
loop_
 _symmetry_equiv_pos_site_id
 _symmetry_equiv_pos_as_xyz
  1  'x, y, z'
loop_
 _atom_site_type_symbol
 _atom_site_label
 _atom_site_symmetry_multiplicity
 _atom_site_fract_x
 _atom_site_fract_y
 _atom_site_fract_z
 _atom_site_occupancy
  Er  Er0  1  0.250000  0.534342  0.184744  1
  Er  Er1  1  0.750000  0.464760  0.816250  1
  Er  Er2  1  0.750000  0.965574  0.682774  1
  Lu  Lu3  1  0.250000  0.035188  0.316809  1
  Zn  Zn4  1  0.250000  0.641382  0.564203  1
  Zn  Zn5  1  0.750000  0.359899  0.435321  1
  Zn  Zn6  1  0.750000  0.859772  0.063741  1
  Zn  Zn7  1  0.250000  0.140049  0.935766  1
  Rh  Rh8  1  0.250000  0.754984  0.877712  1
  Rh  Rh9  1  0.750000  0.242188  0.123542  1
  Rh  Rh10  1  0.750000  0.746075  0.378082  1
  Rh  Rh11  1  0.250000  0.255787  0.621057  1
