# generated using pymatgen
data_ErTm2Ga5Rh
_symmetry_space_group_name_H-M   'P 1'
_cell_length_a   6.88798400
_cell_length_b   6.88817578
_cell_length_c   4.24837100
_cell_angle_alpha   90.00000000
_cell_angle_beta   90.00000000
_cell_angle_gamma   119.99908858
_symmetry_Int_Tables_number   1
_chemical_formula_structural   ErTm2Ga5Rh
_chemical_formula_sum   'Er1 Tm2 Ga5 Rh1'
_cell_volume   174.56348640
_cell_formula_units_Z   1
loop_
 _symmetry_equiv_pos_site_id
 _symmetry_equiv_pos_as_xyz
  1  'x, y, z'
loop_
 _atom_site_type_symbol
 _atom_site_label
 _atom_site_symmetry_multiplicity
 _atom_site_fract_x
 _atom_site_fract_y
 _atom_site_fract_z
 _atom_site_occupancy
  Er  Er0  1  0.589539  0.000000  0.000000  1
  Tm  Tm1  1  0.999906  0.589892  0.000000  1
  Tm  Tm2  1  0.410014  0.410108  0.000000  1
  Ga  Ga3  1  0.238327  0.000000  0.500000  1
  Ga  Ga4  1  0.000158  0.238527  0.500000  1
  Ga  Ga5  1  0.761631  0.761473  0.500000  1
  Ga  Ga6  1  0.333149  0.666366  0.500000  1
  Ga  Ga7  1  0.666784  0.333634  0.500000  1
  Rh  Rh8  1  0.000491  0.000000  0.000000  1
