# generated using pymatgen
data_NdPu(Al3Ir)3
_symmetry_space_group_name_H-M   'P 1'
_cell_length_a   7.60126169
_cell_length_b   7.55839731
_cell_length_c   9.54668100
_cell_angle_alpha   90.00000000
_cell_angle_beta   90.00000000
_cell_angle_gamma   119.54829649
_symmetry_Int_Tables_number   1
_chemical_formula_structural   NdPu(Al3Ir)3
_chemical_formula_sum   'Nd2 Pu2 Al18 Ir6'
_cell_volume   477.15256786
_cell_formula_units_Z   2
loop_
 _symmetry_equiv_pos_site_id
 _symmetry_equiv_pos_as_xyz
  1  'x, y, z'
loop_
 _atom_site_type_symbol
 _atom_site_label
 _atom_site_symmetry_multiplicity
 _atom_site_fract_x
 _atom_site_fract_y
 _atom_site_fract_z
 _atom_site_occupancy
  Nd  Nd0  1  0.671586  0.996468  0.250000  1
  Nd  Nd1  1  0.328414  0.003532  0.750000  1
  Pu  Pu2  1  0.995353  0.670407  0.250000  1
  Pu  Pu3  1  0.004647  0.329593  0.750000  1
  Al  Al4  1  0.130139  0.128773  0.250000  1
  Al  Al5  1  0.869861  0.871227  0.750000  1
  Al  Al6  1  0.002509  0.337442  0.072019  1
  Al  Al7  1  0.997491  0.662558  0.927981  1
  Al  Al8  1  0.997491  0.662558  0.572019  1
  Al  Al9  1  0.333339  0.001241  0.424891  1
  Al  Al10  1  0.002509  0.337442  0.427981  1
  Al  Al11  1  0.666661  0.998759  0.575109  1
  Al  Al12  1  0.666661  0.998759  0.924891  1
  Al  Al13  1  0.333339  0.001241  0.075109  1
  Al  Al14  1  0.333168  0.334423  0.550498  1
  Al  Al15  1  0.666832  0.665577  0.449502  1
  Al  Al16  1  0.666832  0.665577  0.050498  1
  Al  Al17  1  0.333168  0.334423  0.949502  1
  Al  Al18  1  0.335986  0.546165  0.250000  1
  Al  Al19  1  0.664014  0.453835  0.750000  1
  Al  Al20  1  0.548271  0.343068  0.250000  1
  Al  Al21  1  0.451729  0.656932  0.750000  1
  Ir  Ir22  1  0.669604  0.327540  0.999817  1
  Ir  Ir23  1  0.330396  0.672460  0.000183  1
  Ir  Ir24  1  0.330396  0.672460  0.499817  1
  Ir  Ir25  1  0.669604  0.327540  0.500183  1
  Ir  Ir26  1  0.000000  0.000000  0.000000  1
  Ir  Ir27  1  0.000000  0.000000  0.500000  1
