# generated using pymatgen
data_Nd11In(Hg2Ir)4
_symmetry_space_group_name_H-M   'P 1'
_cell_length_a   13.36235941
_cell_length_b   13.36235839
_cell_length_c   3.88618400
_cell_angle_alpha   90.00000000
_cell_angle_beta   90.00000000
_cell_angle_gamma   114.40184551
_symmetry_Int_Tables_number   1
_chemical_formula_structural   Nd11In(Hg2Ir)4
_chemical_formula_sum   'Nd11 In1 Hg8 Ir4'
_cell_volume   631.90358985
_cell_formula_units_Z   1
loop_
 _symmetry_equiv_pos_site_id
 _symmetry_equiv_pos_as_xyz
  1  'x, y, z'
loop_
 _atom_site_type_symbol
 _atom_site_label
 _atom_site_symmetry_multiplicity
 _atom_site_fract_x
 _atom_site_fract_y
 _atom_site_fract_z
 _atom_site_occupancy
  Nd  Nd0  1  0.500000  0.500000  0.500000  1
  Nd  Nd1  1  0.797054  0.797054  0.500000  1
  Nd  Nd2  1  0.202946  0.202946  0.500000  1
  Nd  Nd3  1  0.587063  0.918915  0.500000  1
  Nd  Nd4  1  0.412937  0.081085  0.500000  1
  Nd  Nd5  1  0.918915  0.587063  0.500000  1
  Nd  Nd6  1  0.081085  0.412937  0.500000  1
  Nd  Nd7  1  0.129594  0.870406  0.500000  1
  Nd  Nd8  1  0.870406  0.129594  0.500000  1
  Nd  Nd9  1  0.333108  0.666892  0.500000  1
  Nd  Nd10  1  0.666892  0.333108  0.500000  1
  In  In11  1  0.000000  0.000000  0.000000  1
  Hg  Hg12  1  0.350023  0.867266  0.000000  1
  Hg  Hg13  1  0.649977  0.132734  0.000000  1
  Hg  Hg14  1  0.867266  0.350023  0.000000  1
  Hg  Hg15  1  0.132734  0.649977  0.000000  1
  Hg  Hg16  1  0.558436  0.711051  0.000000  1
  Hg  Hg17  1  0.441564  0.288949  0.000000  1
  Hg  Hg18  1  0.711051  0.558436  0.000000  1
  Hg  Hg19  1  0.288949  0.441564  0.000000  1
  Ir  Ir20  1  0.758805  0.949153  0.000000  1
  Ir  Ir21  1  0.241195  0.050847  0.000000  1
  Ir  Ir22  1  0.949153  0.758805  0.000000  1
  Ir  Ir23  1  0.050847  0.241195  0.000000  1
