# generated using pymatgen
data_Ho10Ga3Bi2Os
_symmetry_space_group_name_H-M   'P 1'
_cell_length_a   8.69326498
_cell_length_b   8.69326330
_cell_length_c   8.80547900
_cell_angle_alpha   125.69913648
_cell_angle_beta   125.69914479
_cell_angle_gamma   79.50657600
_symmetry_Int_Tables_number   1
_chemical_formula_structural   Ho10Ga3Bi2Os
_chemical_formula_sum   'Ho10 Ga3 Bi2 Os1'
_cell_volume   426.01955569
_cell_formula_units_Z   1
loop_
 _symmetry_equiv_pos_site_id
 _symmetry_equiv_pos_as_xyz
  1  'x, y, z'
loop_
 _atom_site_type_symbol
 _atom_site_label
 _atom_site_symmetry_multiplicity
 _atom_site_fract_x
 _atom_site_fract_y
 _atom_site_fract_z
 _atom_site_occupancy
  Ho  Ho0  1  0.004669  0.009149  0.013819  1
  Ho  Ho1  1  0.490851  0.495331  0.986181  1
  Ho  Ho2  1  0.015619  0.501674  0.799455  1
  Ho  Ho3  1  0.716165  0.202218  0.200545  1
  Ho  Ho4  1  0.519052  0.705579  0.500000  1
  Ho  Ho5  1  0.193352  0.039323  0.500000  1
  Ho  Ho6  1  0.998326  0.484381  0.200545  1
  Ho  Ho7  1  0.297782  0.783835  0.799455  1
  Ho  Ho8  1  0.460677  0.306648  0.500000  1
  Ho  Ho9  1  0.794421  0.980948  0.500000  1
  Ga  Ga10  1  0.360835  0.855668  0.216502  1
  Ga  Ga11  1  0.644332  0.139165  0.783498  1
  Ga  Ga12  1  0.866754  0.633246  0.500000  1
  Bi  Bi13  1  0.755468  0.744532  0.000000  1
  Bi  Bi14  1  0.255468  0.244532  0.000000  1
  Os  Os15  1  0.126233  0.373767  0.500000  1
