# generated using pymatgen
data_Pr5Nd11(AgIr)4
_symmetry_space_group_name_H-M   'P 1'
_cell_length_a   9.90919659
_cell_length_b   9.91301986
_cell_length_c   9.91297727
_cell_angle_alpha   60.00195784
_cell_angle_beta   60.01293580
_cell_angle_gamma   60.01326840
_symmetry_Int_Tables_number   1
_chemical_formula_structural   Pr5Nd11(AgIr)4
_chemical_formula_sum   'Pr5 Nd11 Ag4 Ir4'
_cell_volume   688.69342971
_cell_formula_units_Z   1
loop_
 _symmetry_equiv_pos_site_id
 _symmetry_equiv_pos_as_xyz
  1  'x, y, z'
loop_
 _atom_site_type_symbol
 _atom_site_label
 _atom_site_symmetry_multiplicity
 _atom_site_fract_x
 _atom_site_fract_y
 _atom_site_fract_z
 _atom_site_occupancy
  Pr  Pr0  1  0.561244  0.938756  0.938759  1
  Pr  Pr1  1  0.561659  0.938334  0.561608  1
  Pr  Pr2  1  0.938399  0.561609  0.938333  1
  Pr  Pr3  1  0.561657  0.561609  0.938334  1
  Pr  Pr4  1  0.938397  0.938333  0.561611  1
  Nd  Nd5  1  0.349933  0.350460  0.350461  1
  Nd  Nd6  1  0.350490  0.350783  0.948230  1
  Nd  Nd7  1  0.350492  0.948230  0.350783  1
  Nd  Nd8  1  0.949146  0.350461  0.350459  1
  Nd  Nd9  1  0.810359  0.189639  0.189642  1
  Nd  Nd10  1  0.189687  0.810313  0.810315  1
  Nd  Nd11  1  0.189939  0.809838  0.189421  1
  Nd  Nd12  1  0.810804  0.189418  0.809838  1
  Nd  Nd13  1  0.189943  0.189420  0.809836  1
  Nd  Nd14  1  0.810804  0.809838  0.189418  1
  Nd  Nd15  1  0.938366  0.561637  0.561634  1
  Ag  Ag16  1  0.581165  0.580856  0.580855  1
  Ag  Ag17  1  0.580672  0.580743  0.257911  1
  Ag  Ag18  1  0.580672  0.257912  0.580744  1
  Ag  Ag19  1  0.257122  0.580856  0.580857  1
  Ir  Ir20  1  0.141489  0.142253  0.142254  1
  Ir  Ir21  1  0.141776  0.143031  0.573415  1
  Ir  Ir22  1  0.141778  0.573416  0.143028  1
  Ir  Ir23  1  0.574004  0.142252  0.142253  1
