# generated using pymatgen
data_Tb5Y5Si5P
_symmetry_space_group_name_H-M   'P 1'
_cell_length_a   8.45741571
_cell_length_b   8.45741432
_cell_length_c   6.35248700
_cell_angle_alpha   90.00000000
_cell_angle_beta   90.00000000
_cell_angle_gamma   120.07580795
_symmetry_Int_Tables_number   1
_chemical_formula_structural   Tb5Y5Si5P
_chemical_formula_sum   'Tb5 Y5 Si5 P1'
_cell_volume   393.20355955
_cell_formula_units_Z   1
loop_
 _symmetry_equiv_pos_site_id
 _symmetry_equiv_pos_as_xyz
  1  'x, y, z'
loop_
 _atom_site_type_symbol
 _atom_site_label
 _atom_site_symmetry_multiplicity
 _atom_site_fract_x
 _atom_site_fract_y
 _atom_site_fract_z
 _atom_site_occupancy
  Tb  Tb0  1  0.666381  0.332534  0.249390  1
  Tb  Tb1  1  0.332534  0.666381  0.249390  1
  Tb  Tb2  1  0.332534  0.666381  0.750610  1
  Tb  Tb3  1  0.666381  0.332534  0.750610  1
  Tb  Tb4  1  0.755103  0.755103  0.500000  1
  Y  Y5  1  0.243423  0.999343  0.500000  1
  Y  Y6  1  0.999343  0.243423  0.500000  1
  Y  Y7  1  0.246916  0.246916  0.000000  1
  Y  Y8  1  0.756571  0.999226  0.000000  1
  Y  Y9  1  0.999226  0.756571  0.000000  1
  Si  Si10  1  0.391221  0.391221  0.500000  1
  Si  Si11  1  0.606238  0.999650  0.500000  1
  Si  Si12  1  0.999650  0.606238  0.500000  1
  Si  Si13  1  0.392939  0.000127  0.000000  1
  Si  Si14  1  0.000127  0.392939  0.000000  1
  P  P15  1  0.611465  0.611465  0.000000  1
