# generated using pymatgen
data_Pr3Th(SiPd14)2
_symmetry_space_group_name_H-M   'P 1'
_cell_length_a   9.00583400
_cell_length_b   9.00583400
_cell_length_c   7.15885900
_cell_angle_alpha   90.00000000
_cell_angle_beta   90.00000000
_cell_angle_gamma   90.00000000
_symmetry_Int_Tables_number   1
_chemical_formula_structural   Pr3Th(SiPd14)2
_chemical_formula_sum   'Pr3 Th1 Si2 Pd28'
_cell_volume   580.61958876
_cell_formula_units_Z   1
loop_
 _symmetry_equiv_pos_site_id
 _symmetry_equiv_pos_as_xyz
  1  'x, y, z'
loop_
 _atom_site_type_symbol
 _atom_site_label
 _atom_site_symmetry_multiplicity
 _atom_site_fract_x
 _atom_site_fract_y
 _atom_site_fract_z
 _atom_site_occupancy
  Pr  Pr0  1  0.500000  0.000000  0.935689  1
  Pr  Pr1  1  0.000000  0.500000  0.064311  1
  Pr  Pr2  1  0.500000  0.500000  0.500000  1
  Th  Th3  1  0.000000  0.000000  0.500000  1
  Si  Si4  1  0.500000  0.000000  0.449479  1
  Si  Si5  1  0.000000  0.500000  0.550521  1
  Pd  Pd6  1  0.334334  0.834833  0.614297  1
  Pd  Pd7  1  0.334334  0.165167  0.614297  1
  Pd  Pd8  1  0.665666  0.834833  0.614297  1
  Pd  Pd9  1  0.665666  0.165167  0.614297  1
  Pd  Pd10  1  0.165167  0.665666  0.385703  1
  Pd  Pd11  1  0.165167  0.334334  0.385703  1
  Pd  Pd12  1  0.834833  0.665666  0.385703  1
  Pd  Pd13  1  0.834833  0.334334  0.385703  1
  Pd  Pd14  1  0.500000  0.771402  0.257323  1
  Pd  Pd15  1  0.500000  0.228598  0.257323  1
  Pd  Pd16  1  0.268426  0.000000  0.260847  1
  Pd  Pd17  1  0.731574  0.000000  0.260847  1
  Pd  Pd18  1  0.000000  0.731574  0.739153  1
  Pd  Pd19  1  0.000000  0.268426  0.739153  1
  Pd  Pd20  1  0.228598  0.500000  0.742677  1
  Pd  Pd21  1  0.771402  0.500000  0.742677  1
  Pd  Pd22  1  0.500000  0.348539  0.856729  1
  Pd  Pd23  1  0.500000  0.651461  0.856729  1
  Pd  Pd24  1  0.849983  0.000000  0.851795  1
  Pd  Pd25  1  0.150017  0.000000  0.851795  1
  Pd  Pd26  1  0.000000  0.150017  0.148205  1
  Pd  Pd27  1  0.000000  0.849983  0.148205  1
  Pd  Pd28  1  0.651461  0.500000  0.143271  1
  Pd  Pd29  1  0.348539  0.500000  0.143271  1
  Pd  Pd30  1  0.249200  0.750800  0.000000  1
  Pd  Pd31  1  0.249200  0.249200  0.000000  1
  Pd  Pd32  1  0.750800  0.750800  0.000000  1
  Pd  Pd33  1  0.750800  0.249200  0.000000  1
