# generated using pymatgen
data_Hf3U(AsO4)6
_symmetry_space_group_name_H-M   'P 1'
_cell_length_a   9.49372565
_cell_length_b   9.49372650
_cell_length_c   9.49372600
_cell_angle_alpha   58.12743581
_cell_angle_beta   58.12743973
_cell_angle_gamma   58.12744614
_symmetry_Int_Tables_number   1
_chemical_formula_structural   Hf3U(AsO4)6
_chemical_formula_sum   'Hf3 U1 As6 O24'
_cell_volume   579.08349087
_cell_formula_units_Z   1
loop_
 _symmetry_equiv_pos_site_id
 _symmetry_equiv_pos_as_xyz
  1  'x, y, z'
loop_
 _atom_site_type_symbol
 _atom_site_label
 _atom_site_symmetry_multiplicity
 _atom_site_fract_x
 _atom_site_fract_y
 _atom_site_fract_z
 _atom_site_occupancy
  Hf  Hf0  1  0.140455  0.140455  0.140455  1
  Hf  Hf1  1  0.359773  0.359773  0.359773  1
  Hf  Hf2  1  0.640997  0.640997  0.640997  1
  U  U3  1  0.859900  0.859900  0.859900  1
  As  As4  1  0.034070  0.457124  0.748938  1
  As  As5  1  0.457124  0.748938  0.034070  1
  As  As6  1  0.748938  0.034070  0.457124  1
  As  As7  1  0.255489  0.972664  0.526643  1
  As  As8  1  0.526643  0.255489  0.972664  1
  As  As9  1  0.972664  0.526643  0.255489  1
  O  O10  1  0.159008  0.511044  0.254568  1
  O  O11  1  0.254568  0.159008  0.511044  1
  O  O12  1  0.086304  0.266649  0.912005  1
  O  O13  1  0.511044  0.254568  0.159008  1
  O  O14  1  0.204647  0.468491  0.554935  1
  O  O15  1  0.995288  0.631476  0.799622  1
  O  O16  1  0.266649  0.912005  0.086304  1
  O  O17  1  0.468491  0.554935  0.204647  1
  O  O18  1  0.554935  0.204647  0.468491  1
  O  O19  1  0.195025  0.003700  0.371191  1
  O  O20  1  0.091935  0.915433  0.730477  1
  O  O21  1  0.371191  0.195025  0.003700  1
  O  O22  1  0.631476  0.799622  0.995288  1
  O  O23  1  0.912005  0.086304  0.266649  1
  O  O24  1  0.799622  0.995288  0.631476  1
  O  O25  1  0.444694  0.797100  0.533464  1
  O  O26  1  0.533464  0.444694  0.797100  1
  O  O27  1  0.730477  0.091935  0.915433  1
  O  O28  1  0.003700  0.371191  0.195025  1
  O  O29  1  0.797100  0.533464  0.444694  1
  O  O30  1  0.491239  0.740950  0.844697  1
  O  O31  1  0.915433  0.730477  0.091935  1
  O  O32  1  0.740950  0.844697  0.491239  1
  O  O33  1  0.844697  0.491239  0.740950  1
