# generated using pymatgen
data_Pr7Dy3(Si2Sn)2
_symmetry_space_group_name_H-M   'P 1'
_cell_length_a   7.80842945
_cell_length_b   9.23688603
_cell_length_c   7.80842945
_cell_angle_alpha   114.86076617
_cell_angle_beta   90.54024142
_cell_angle_gamma   114.64329988
_symmetry_Int_Tables_number   1
_chemical_formula_structural   Pr7Dy3(Si2Sn)2
_chemical_formula_sum   'Pr7 Dy3 Si4 Sn2'
_cell_volume   452.65514787
_cell_formula_units_Z   1
loop_
 _symmetry_equiv_pos_site_id
 _symmetry_equiv_pos_as_xyz
  1  'x, y, z'
loop_
 _atom_site_type_symbol
 _atom_site_label
 _atom_site_symmetry_multiplicity
 _atom_site_fract_x
 _atom_site_fract_y
 _atom_site_fract_z
 _atom_site_occupancy
  Pr  Pr0  1  0.187183  0.721133  0.033952  1
  Pr  Pr1  1  0.684869  0.721741  0.184903  1
  Pr  Pr2  1  0.036839  0.721741  0.536873  1
  Pr  Pr3  1  0.463844  0.276024  0.312178  1
  Pr  Pr4  1  0.814120  0.279275  0.965154  1
  Pr  Pr5  1  0.312505  0.276981  0.813382  1
  Pr  Pr6  1  0.963597  0.276981  0.464474  1
  Dy  Dy7  1  0.998958  0.997366  0.999723  1
  Dy  Dy8  1  0.497643  0.997366  0.498408  1
  Dy  Dy9  1  0.539274  0.731343  0.692071  1
  Si  Si10  1  0.874158  0.996368  0.622210  1
  Si  Si11  1  0.120162  0.998568  0.378406  1
  Si  Si12  1  0.621063  0.997174  0.115203  1
  Si  Si13  1  0.381971  0.997174  0.876111  1
  Sn  Sn14  1  0.747619  0.505384  0.749190  1
  Sn  Sn15  1  0.256194  0.505384  0.257765  1
