# generated using pymatgen
data_Ti2CuPt2Au
_symmetry_space_group_name_H-M   'P 1'
_cell_length_a   3.36325600
_cell_length_b   6.61269748
_cell_length_c   8.43775123
_cell_angle_alpha   89.63193732
_cell_angle_beta   90.00000000
_cell_angle_gamma   90.00000000
_symmetry_Int_Tables_number   1
_chemical_formula_structural   Ti2CuPt2Au
_chemical_formula_sum   'Ti4 Cu2 Pt4 Au2'
_cell_volume   187.65335635
_cell_formula_units_Z   2
loop_
 _symmetry_equiv_pos_site_id
 _symmetry_equiv_pos_as_xyz
  1  'x, y, z'
loop_
 _atom_site_type_symbol
 _atom_site_label
 _atom_site_symmetry_multiplicity
 _atom_site_fract_x
 _atom_site_fract_y
 _atom_site_fract_z
 _atom_site_occupancy
  Ti  Ti0  1  0.250000  0.618467  0.751831  1
  Ti  Ti1  1  0.750000  0.381533  0.248169  1
  Ti  Ti2  1  0.250000  0.127580  0.765366  1
  Ti  Ti3  1  0.750000  0.872420  0.234634  1
  Cu  Cu4  1  0.750000  0.393308  0.924496  1
  Cu  Cu5  1  0.250000  0.606692  0.075504  1
  Pt  Pt6  1  0.250000  0.149262  0.080128  1
  Pt  Pt7  1  0.750000  0.850738  0.919872  1
  Pt  Pt8  1  0.250000  0.628489  0.389327  1
  Pt  Pt9  1  0.750000  0.371511  0.610673  1
  Au  Au10  1  0.750000  0.870873  0.588974  1
  Au  Au11  1  0.250000  0.129127  0.411026  1
