# generated using pymatgen
data_TbHo7Ti5Si16Mo7
_symmetry_space_group_name_H-M   'P 1'
_cell_length_a   6.94108214
_cell_length_b   6.93319773
_cell_length_c   12.83345358
_cell_angle_alpha   89.89071637
_cell_angle_beta   89.99364838
_cell_angle_gamma   90.01767755
_symmetry_Int_Tables_number   1
_chemical_formula_structural   TbHo7Ti5Si16Mo7
_chemical_formula_sum   'Tb1 Ho7 Ti5 Si16 Mo7'
_cell_volume   617.59461504
_cell_formula_units_Z   1
loop_
 _symmetry_equiv_pos_site_id
 _symmetry_equiv_pos_as_xyz
  1  'x, y, z'
loop_
 _atom_site_type_symbol
 _atom_site_label
 _atom_site_symmetry_multiplicity
 _atom_site_fract_x
 _atom_site_fract_y
 _atom_site_fract_z
 _atom_site_occupancy
  Tb  Tb0  1  0.341089  0.004190  0.467176  1
  Ho  Ho1  1  0.497187  0.841106  0.718819  1
  Ho  Ho2  1  0.502559  0.159337  0.218387  1
  Ho  Ho3  1  0.840668  0.496485  0.280912  1
  Ho  Ho4  1  0.158898  0.502280  0.782945  1
  Ho  Ho5  1  0.658820  0.997141  0.968325  1
  Ho  Ho6  1  0.002850  0.340801  0.531883  1
  Ho  Ho7  1  0.996235  0.660099  0.031178  1
  Ti  Ti8  1  0.329064  0.329450  0.999488  1
  Ti  Ti9  1  0.170124  0.828596  0.249876  1
  Ti  Ti10  1  0.827476  0.172167  0.750525  1
  Ti  Ti11  1  0.670496  0.668321  0.499326  1
  Ti  Ti12  1  0.994143  0.841467  0.625919  1
  Si  Si13  1  0.201851  0.130250  0.684137  1
  Si  Si14  1  0.370635  0.701088  0.933849  1
  Si  Si15  1  0.631524  0.300286  0.433875  1
  Si  Si16  1  0.699377  0.369836  0.066275  1
  Si  Si17  1  0.300554  0.629200  0.565695  1
  Si  Si18  1  0.799518  0.870358  0.183619  1
  Si  Si19  1  0.127802  0.200934  0.315988  1
  Si  Si20  1  0.871313  0.799818  0.816112  1
  Si  Si21  1  0.289023  0.958116  0.062930  1
  Si  Si22  1  0.542285  0.788372  0.312499  1
  Si  Si23  1  0.457456  0.210981  0.812848  1
  Si  Si24  1  0.789403  0.543484  0.687499  1
  Si  Si25  1  0.210873  0.457855  0.186726  1
  Si  Si26  1  0.711644  0.043602  0.563655  1
  Si  Si27  1  0.957547  0.289373  0.937305  1
  Si  Si28  1  0.043560  0.710282  0.437050  1
  Mo  Mo29  1  0.159323  0.008301  0.875457  1
  Mo  Mo30  1  0.492773  0.658041  0.124217  1
  Mo  Mo31  1  0.507380  0.342033  0.623853  1
  Mo  Mo32  1  0.657018  0.491764  0.877501  1
  Mo  Mo33  1  0.342944  0.504675  0.374527  1
  Mo  Mo34  1  0.840390  0.991451  0.373358  1
  Mo  Mo35  1  0.006200  0.158461  0.126266  1
