# generated using pymatgen
data_Np4Re6Si6Rh
_symmetry_space_group_name_H-M   'P 1'
_cell_length_a   7.14484314
_cell_length_b   7.14243588
_cell_length_c   7.14243609
_cell_angle_alpha   109.52513391
_cell_angle_beta   109.45976301
_cell_angle_gamma   109.45976254
_symmetry_Int_Tables_number   1
_chemical_formula_structural   Np4Re6Si6Rh
_chemical_formula_sum   'Np4 Re6 Si6 Rh1'
_cell_volume   280.47691941
_cell_formula_units_Z   1
loop_
 _symmetry_equiv_pos_site_id
 _symmetry_equiv_pos_as_xyz
  1  'x, y, z'
loop_
 _atom_site_type_symbol
 _atom_site_label
 _atom_site_symmetry_multiplicity
 _atom_site_fract_x
 _atom_site_fract_y
 _atom_site_fract_z
 _atom_site_occupancy
  Np  Np0  1  0.500000  0.500000  0.500000  1
  Np  Np1  1  0.000000  0.000000  0.500000  1
  Np  Np2  1  0.500000  0.000000  0.000000  1
  Np  Np3  1  0.000000  0.500000  0.000000  1
  Re  Re4  1  0.751125  0.250667  0.500334  1
  Re  Re5  1  0.500000  0.250001  0.749999  1
  Re  Re6  1  0.500000  0.749999  0.250001  1
  Re  Re7  1  0.248875  0.499666  0.749333  1
  Re  Re8  1  0.751125  0.500334  0.250667  1
  Re  Re9  1  0.248875  0.749333  0.499666  1
  Si  Si10  1  0.308864  0.308836  0.000030  1
  Si  Si11  1  0.000020  0.308652  0.308652  1
  Si  Si12  1  0.999980  0.691348  0.691348  1
  Si  Si13  1  0.691136  0.999970  0.691164  1
  Si  Si14  1  0.308864  0.000030  0.308836  1
  Si  Si15  1  0.691136  0.691164  0.999970  1
  Rh  Rh16  1  0.000000  0.000000  0.000000  1
