# generated using pymatgen
data_Ho2Er3IrRu
_symmetry_space_group_name_H-M   'P 1'
_cell_length_a   6.34517421
_cell_length_b   7.26438874
_cell_length_c   8.42855265
_cell_angle_alpha   96.89092303
_cell_angle_beta   112.11144337
_cell_angle_gamma   89.99999600
_symmetry_Int_Tables_number   1
_chemical_formula_structural   Ho2Er3IrRu
_chemical_formula_sum   'Ho4 Er6 Ir2 Ru2'
_cell_volume   356.89997229
_cell_formula_units_Z   2
loop_
 _symmetry_equiv_pos_site_id
 _symmetry_equiv_pos_as_xyz
  1  'x, y, z'
loop_
 _atom_site_type_symbol
 _atom_site_label
 _atom_site_symmetry_multiplicity
 _atom_site_fract_x
 _atom_site_fract_y
 _atom_site_fract_z
 _atom_site_occupancy
  Ho  Ho0  1  0.791584  0.582614  0.813243  1
  Ho  Ho1  1  0.978341  0.917386  0.186757  1
  Ho  Ho2  1  0.210130  0.415107  0.185873  1
  Ho  Ho3  1  0.024256  0.084893  0.814127  1
  Er  Er4  1  0.206396  0.683630  0.564809  1
  Er  Er5  1  0.641587  0.816370  0.435191  1
  Er  Er6  1  0.793441  0.314534  0.436464  1
  Er  Er7  1  0.356976  0.185466  0.563536  1
  Er  Er8  1  0.421185  0.750000  0.000000  1
  Er  Er9  1  0.577781  0.250000  0.000000  1
  Ir  Ir10  1  0.600914  0.922903  0.778939  1
  Ir  Ir11  1  0.821975  0.577097  0.221061  1
  Ru  Ru12  1  0.398088  0.075543  0.220741  1
  Ru  Ru13  1  0.177347  0.424457  0.779259  1
