# generated using pymatgen
data_TiNb4Zn(B2Ru5)2
_symmetry_space_group_name_H-M   'P 1'
_cell_length_a   9.33858700
_cell_length_b   9.33858700
_cell_length_c   3.01417700
_cell_angle_alpha   90.00000000
_cell_angle_beta   90.00000000
_cell_angle_gamma   90.00000000
_symmetry_Int_Tables_number   1
_chemical_formula_structural   TiNb4Zn(B2Ru5)2
_chemical_formula_sum   'Ti1 Nb4 Zn1 B4 Ru10'
_cell_volume   262.86398640
_cell_formula_units_Z   1
loop_
 _symmetry_equiv_pos_site_id
 _symmetry_equiv_pos_as_xyz
  1  'x, y, z'
loop_
 _atom_site_type_symbol
 _atom_site_label
 _atom_site_symmetry_multiplicity
 _atom_site_fract_x
 _atom_site_fract_y
 _atom_site_fract_z
 _atom_site_occupancy
  Ti  Ti0  1  0.000000  0.000000  0.000000  1
  Nb  Nb1  1  0.823038  0.676074  0.000000  1
  Nb  Nb2  1  0.176962  0.323926  0.000000  1
  Nb  Nb3  1  0.323926  0.823038  0.000000  1
  Nb  Nb4  1  0.676074  0.176962  0.000000  1
  Zn  Zn5  1  0.500000  0.500000  0.000000  1
  B  B6  1  0.620485  0.871806  0.000000  1
  B  B7  1  0.379515  0.128194  0.000000  1
  B  B8  1  0.128194  0.620485  0.000000  1
  B  B9  1  0.871806  0.379515  0.000000  1
  Ru  Ru10  1  0.569588  0.715501  0.500000  1
  Ru  Ru11  1  0.430412  0.284499  0.500000  1
  Ru  Ru12  1  0.070481  0.783704  0.500000  1
  Ru  Ru13  1  0.929519  0.216296  0.500000  1
  Ru  Ru14  1  0.284499  0.569588  0.500000  1
  Ru  Ru15  1  0.715501  0.430412  0.500000  1
  Ru  Ru16  1  0.216296  0.070481  0.500000  1
  Ru  Ru17  1  0.783704  0.929519  0.500000  1
  Ru  Ru18  1  0.500000  0.000000  0.500000  1
  Ru  Ru19  1  0.000000  0.500000  0.500000  1
