# generated using pymatgen
data_Zn21Co2CuPd2
_symmetry_space_group_name_H-M   'P 1'
_cell_length_a   7.81818608
_cell_length_b   7.81818667
_cell_length_c   7.85510017
_cell_angle_alpha   109.50110786
_cell_angle_beta   109.50111222
_cell_angle_gamma   109.22007510
_symmetry_Int_Tables_number   1
_chemical_formula_structural   Zn21Co2CuPd2
_chemical_formula_sum   'Zn21 Co2 Cu1 Pd2'
_cell_volume   370.47654932
_cell_formula_units_Z   1
loop_
 _symmetry_equiv_pos_site_id
 _symmetry_equiv_pos_as_xyz
  1  'x, y, z'
loop_
 _atom_site_type_symbol
 _atom_site_label
 _atom_site_symmetry_multiplicity
 _atom_site_fract_x
 _atom_site_fract_y
 _atom_site_fract_z
 _atom_site_occupancy
  Zn  Zn0  1  0.995584  0.638850  0.644312  1
  Zn  Zn1  1  0.351273  0.994539  0.355688  1
  Zn  Zn2  1  0.994539  0.351273  0.355688  1
  Zn  Zn3  1  0.638850  0.995584  0.644312  1
  Zn  Zn4  1  0.638650  0.638650  0.000000  1
  Zn  Zn5  1  0.201285  0.201285  0.204733  1
  Zn  Zn6  1  0.996551  0.996551  0.795267  1
  Zn  Zn7  1  0.991390  0.776311  0.000000  1
  Zn  Zn8  1  0.776311  0.991390  0.000000  1
  Zn  Zn9  1  0.377153  0.726318  0.714929  1
  Zn  Zn10  1  0.662225  0.011390  0.285071  1
  Zn  Zn11  1  0.645293  0.278845  0.000000  1
  Zn  Zn12  1  0.011390  0.662225  0.285071  1
  Zn  Zn13  1  0.726318  0.377153  0.714929  1
  Zn  Zn14  1  0.278845  0.645293  0.000000  1
  Zn  Zn15  1  0.017669  0.259142  0.653105  1
  Zn  Zn16  1  0.259142  0.017669  0.653105  1
  Zn  Zn17  1  0.748371  0.748371  0.392973  1
  Zn  Zn18  1  0.606038  0.364564  0.346895  1
  Zn  Zn19  1  0.364564  0.606038  0.346895  1
  Zn  Zn20  1  0.355398  0.355398  0.607027  1
  Co  Co21  1  0.001296  0.001296  0.339146  1
  Co  Co22  1  0.662149  0.662149  0.660854  1
  Cu  Cu23  1  0.354407  0.354407  0.000000  1
  Pd  Pd24  1  0.350760  0.994550  0.000000  1
  Pd  Pd25  1  0.994550  0.350760  0.000000  1
