# generated using pymatgen
data_Er8Tm4Mn2In3
_symmetry_space_group_name_H-M   'P 1'
_cell_length_a   8.37478561
_cell_length_b   8.37481964
_cell_length_c   8.37478511
_cell_angle_alpha   110.14746690
_cell_angle_beta   110.14063546
_cell_angle_gamma   108.13362402
_symmetry_Int_Tables_number   1
_chemical_formula_structural   Er8Tm4Mn2In3
_chemical_formula_sum   'Er8 Tm4 Mn2 In3'
_cell_volume   451.98575955
_cell_formula_units_Z   1
loop_
 _symmetry_equiv_pos_site_id
 _symmetry_equiv_pos_as_xyz
  1  'x, y, z'
loop_
 _atom_site_type_symbol
 _atom_site_label
 _atom_site_symmetry_multiplicity
 _atom_site_fract_x
 _atom_site_fract_y
 _atom_site_fract_z
 _atom_site_occupancy
  Er  Er0  1  0.457191  0.210507  0.246695  1
  Er  Er1  1  0.542809  0.789493  0.753305  1
  Er  Er2  1  0.963813  0.210507  0.753317  1
  Er  Er3  1  0.210488  0.963778  0.753290  1
  Er  Er4  1  0.036187  0.789493  0.246683  1
  Er  Er5  1  0.789512  0.036222  0.246710  1
  Er  Er6  1  0.210488  0.457198  0.246710  1
  Er  Er7  1  0.789512  0.542802  0.753290  1
  Tm  Tm8  1  0.303648  0.303703  0.607354  1
  Tm  Tm9  1  0.696352  0.696297  0.392646  1
  Tm  Tm10  1  0.303652  0.696297  0.999945  1
  Tm  Tm11  1  0.696348  0.303703  0.000055  1
  Mn  Mn12  1  0.393777  0.393780  0.000003  1
  Mn  Mn13  1  0.606223  0.606220  0.999997  1
  In  In14  1  0.000000  0.000000  0.000000  1
  In  In15  1  0.500000  0.000000  0.500000  1
  In  In16  1  0.000000  0.500000  0.500000  1
