# generated using pymatgen
data_Nd2Y3Lu3(Si3Rh)4
_symmetry_space_group_name_H-M   'P 1'
_cell_length_a   8.16838300
_cell_length_b   8.16838346
_cell_length_c   7.96778900
_cell_angle_alpha   90.00000000
_cell_angle_beta   90.00000000
_cell_angle_gamma   119.99999411
_symmetry_Int_Tables_number   1
_chemical_formula_structural   Nd2Y3Lu3(Si3Rh)4
_chemical_formula_sum   'Nd2 Y3 Lu3 Si12 Rh4'
_cell_volume   460.40570032
_cell_formula_units_Z   1
loop_
 _symmetry_equiv_pos_site_id
 _symmetry_equiv_pos_as_xyz
  1  'x, y, z'
loop_
 _atom_site_type_symbol
 _atom_site_label
 _atom_site_symmetry_multiplicity
 _atom_site_fract_x
 _atom_site_fract_y
 _atom_site_fract_z
 _atom_site_occupancy
  Nd  Nd0  1  0.000000  0.000000  0.250000  1
  Nd  Nd1  1  0.000000  0.000000  0.750000  1
  Y  Y2  1  0.491890  0.508110  0.750000  1
  Y  Y3  1  0.491890  0.983781  0.750000  1
  Y  Y4  1  0.016219  0.508110  0.750000  1
  Lu  Lu5  1  0.508892  0.491108  0.250000  1
  Lu  Lu6  1  0.508892  0.017782  0.250000  1
  Lu  Lu7  1  0.982218  0.491108  0.250000  1
  Si  Si8  1  0.168890  0.831110  0.498590  1
  Si  Si9  1  0.168890  0.337781  0.498590  1
  Si  Si10  1  0.662219  0.831110  0.498590  1
  Si  Si11  1  0.831767  0.168233  0.495218  1
  Si  Si12  1  0.831767  0.663534  0.495218  1
  Si  Si13  1  0.336466  0.168233  0.495218  1
  Si  Si14  1  0.831767  0.168233  0.004782  1
  Si  Si15  1  0.831767  0.663534  0.004782  1
  Si  Si16  1  0.336466  0.168233  0.004782  1
  Si  Si17  1  0.168890  0.831110  0.001410  1
  Si  Si18  1  0.168890  0.337781  0.001410  1
  Si  Si19  1  0.662219  0.831110  0.001410  1
  Rh  Rh20  1  0.333333  0.666667  0.455575  1
  Rh  Rh21  1  0.666667  0.333333  0.524502  1
  Rh  Rh22  1  0.666667  0.333333  0.975498  1
  Rh  Rh23  1  0.333333  0.666667  0.044425  1
