# generated using pymatgen
data_Ba2GdClO3
_symmetry_space_group_name_H-M   'P 1'
_cell_length_a   4.47869900
_cell_length_b   4.47869900
_cell_length_c   15.13104000
_cell_angle_alpha   90.00000000
_cell_angle_beta   90.00000000
_cell_angle_gamma   90.00000000
_symmetry_Int_Tables_number   1
_chemical_formula_structural   Ba2GdClO3
_chemical_formula_sum   'Ba4 Gd2 Cl2 O6'
_cell_volume   303.50966890
_cell_formula_units_Z   2
loop_
 _symmetry_equiv_pos_site_id
 _symmetry_equiv_pos_as_xyz
  1  'x, y, z'
loop_
 _atom_site_type_symbol
 _atom_site_label
 _atom_site_symmetry_multiplicity
 _atom_site_fract_x
 _atom_site_fract_y
 _atom_site_fract_z
 _atom_site_occupancy
  Ba  Ba0  1  0.500000  0.000000  0.094655  1
  Ba  Ba1  1  0.500000  0.000000  0.351946  1
  Ba  Ba2  1  0.000000  0.500000  0.648054  1
  Ba  Ba3  1  0.000000  0.500000  0.905345  1
  Gd  Gd4  1  0.500000  0.000000  0.782894  1
  Gd  Gd5  1  0.000000  0.500000  0.217106  1
  Cl  Cl6  1  0.500000  0.000000  0.576531  1
  Cl  Cl7  1  0.000000  0.500000  0.423469  1
  O  O8  1  0.000000  0.500000  0.072266  1
  O  O9  1  0.000000  0.000000  0.240821  1
  O  O10  1  0.500000  0.500000  0.759179  1
  O  O11  1  0.500000  0.000000  0.927734  1
  O  O12  1  0.000000  0.000000  0.759179  1
  O  O13  1  0.500000  0.500000  0.240821  1
