# generated using pymatgen
data_Ba4CeTcO8
_symmetry_space_group_name_H-M   'P 1'
_cell_length_a   7.42961724
_cell_length_b   7.42961813
_cell_length_c   6.04459200
_cell_angle_alpha   90.00000000
_cell_angle_beta   90.00000000
_cell_angle_gamma   131.97138780
_symmetry_Int_Tables_number   1
_chemical_formula_structural   Ba4CeTcO8
_chemical_formula_sum   'Ba4 Ce1 Tc1 O8'
_cell_volume   248.06675274
_cell_formula_units_Z   1
loop_
 _symmetry_equiv_pos_site_id
 _symmetry_equiv_pos_as_xyz
  1  'x, y, z'
loop_
 _atom_site_type_symbol
 _atom_site_label
 _atom_site_symmetry_multiplicity
 _atom_site_fract_x
 _atom_site_fract_y
 _atom_site_fract_z
 _atom_site_occupancy
  Ba  Ba0  1  0.356437  0.643563  0.000000  1
  Ba  Ba1  1  0.852091  0.147909  0.500000  1
  Ba  Ba2  1  0.147909  0.852091  0.500000  1
  Ba  Ba3  1  0.643563  0.356437  0.000000  1
  Ce  Ce4  1  0.000000  0.000000  0.000000  1
  Tc  Tc5  1  0.500000  0.500000  0.500000  1
  O  O6  1  0.261420  0.261420  0.736634  1
  O  O7  1  0.738580  0.738580  0.263366  1
  O  O8  1  0.738580  0.738580  0.736634  1
  O  O9  1  0.261420  0.261420  0.263366  1
  O  O10  1  0.164740  0.835260  0.000000  1
  O  O11  1  0.653834  0.346166  0.500000  1
  O  O12  1  0.346166  0.653834  0.500000  1
  O  O13  1  0.835260  0.164740  0.000000  1
