# generated using pymatgen
data_NdDyNb2(SnPt)4
_symmetry_space_group_name_H-M   'P 1'
_cell_length_a   6.50472651
_cell_length_b   4.56079000
_cell_length_c   9.18686200
_cell_angle_alpha   90.00000000
_cell_angle_beta   90.10300467
_cell_angle_gamma   90.00000000
_symmetry_Int_Tables_number   1
_chemical_formula_structural   NdDyNb2(SnPt)4
_chemical_formula_sum   'Nd1 Dy1 Nb2 Sn4 Pt4'
_cell_volume   272.54336154
_cell_formula_units_Z   1
loop_
 _symmetry_equiv_pos_site_id
 _symmetry_equiv_pos_as_xyz
  1  'x, y, z'
loop_
 _atom_site_type_symbol
 _atom_site_label
 _atom_site_symmetry_multiplicity
 _atom_site_fract_x
 _atom_site_fract_y
 _atom_site_fract_z
 _atom_site_occupancy
  Nd  Nd0  1  0.003588  0.000000  0.376682  1
  Dy  Dy1  1  0.503928  0.500000  0.623333  1
  Nb  Nb2  1  0.497946  0.500000  0.121163  1
  Nb  Nb3  1  0.996196  0.000000  0.878796  1
  Sn  Sn4  1  0.984042  0.500000  0.121311  1
  Sn  Sn5  1  0.512068  0.000000  0.370588  1
  Sn  Sn6  1  0.010701  0.500000  0.633733  1
  Sn  Sn7  1  0.481300  0.000000  0.874769  1
  Pt  Pt8  1  0.733014  0.000000  0.107740  1
  Pt  Pt9  1  0.276119  0.500000  0.353058  1
  Pt  Pt10  1  0.765299  0.000000  0.649404  1
  Pt  Pt11  1  0.235798  0.500000  0.889416  1
