# generated using pymatgen
data_Y6Er11Tm3(Cd3Ru)2
_symmetry_space_group_name_H-M   'P 1'
_cell_length_a   9.54972201
_cell_length_b   9.55033859
_cell_length_c   9.76763600
_cell_angle_alpha   89.99999693
_cell_angle_beta   89.99864747
_cell_angle_gamma   120.00213387
_symmetry_Int_Tables_number   1
_chemical_formula_structural   Y6Er11Tm3(Cd3Ru)2
_chemical_formula_sum   'Y6 Er11 Tm3 Cd6 Ru2'
_cell_volume   771.47215929
_cell_formula_units_Z   1
loop_
 _symmetry_equiv_pos_site_id
 _symmetry_equiv_pos_as_xyz
  1  'x, y, z'
loop_
 _atom_site_type_symbol
 _atom_site_label
 _atom_site_symmetry_multiplicity
 _atom_site_fract_x
 _atom_site_fract_y
 _atom_site_fract_z
 _atom_site_occupancy
  Y  Y0  1  0.540652  0.459386  0.249977  1
  Y  Y1  1  0.540652  0.081267  0.249977  1
  Y  Y2  1  0.918692  0.459347  0.250003  1
  Y  Y3  1  0.459364  0.540678  0.750028  1
  Y  Y4  1  0.459364  0.918686  0.750028  1
  Y  Y5  1  0.081290  0.540644  0.750000  1
  Er  Er6  1  0.209872  0.790145  0.440103  1
  Er  Er7  1  0.209872  0.419728  0.440103  1
  Er  Er8  1  0.580252  0.790126  0.440081  1
  Er  Er9  1  0.790144  0.209861  0.559889  1
  Er  Er10  1  0.790144  0.580282  0.559889  1
  Er  Er11  1  0.419722  0.209860  0.559880  1
  Er  Er12  1  0.790125  0.209826  0.940130  1
  Er  Er13  1  0.790125  0.580298  0.940130  1
  Er  Er14  1  0.419717  0.209858  0.940120  1
  Er  Er15  1  0.209916  0.790128  0.059902  1
  Er  Er16  1  0.209916  0.419789  0.059902  1
  Tm  Tm17  1  0.999994  0.999997  0.500011  1
  Tm  Tm18  1  0.999961  0.999981  0.000003  1
  Tm  Tm19  1  0.580222  0.790111  0.059905  1
  Cd  Cd20  1  0.885863  0.114118  0.249990  1
  Cd  Cd21  1  0.885863  0.771746  0.249990  1
  Cd  Cd22  1  0.228253  0.114127  0.249998  1
  Cd  Cd23  1  0.114119  0.885873  0.750004  1
  Cd  Cd24  1  0.114119  0.228245  0.750004  1
  Cd  Cd25  1  0.771738  0.885868  0.750014  1
  Ru  Ru26  1  0.333383  0.666692  0.249946  1
  Ru  Ru27  1  0.666666  0.333333  0.749989  1
