# generated using pymatgen
data_YbTiTlSbO7
_symmetry_space_group_name_H-M   'P 1'
_cell_length_a   7.30722000
_cell_length_b   7.30722000
_cell_length_c   10.33321600
_cell_angle_alpha   90.00000000
_cell_angle_beta   90.00000000
_cell_angle_gamma   90.00000000
_symmetry_Int_Tables_number   1
_chemical_formula_structural   YbTiTlSbO7
_chemical_formula_sum   'Yb4 Ti4 Tl4 Sb4 O28'
_cell_volume   551.74686426
_cell_formula_units_Z   4
loop_
 _symmetry_equiv_pos_site_id
 _symmetry_equiv_pos_as_xyz
  1  'x, y, z'
loop_
 _atom_site_type_symbol
 _atom_site_label
 _atom_site_symmetry_multiplicity
 _atom_site_fract_x
 _atom_site_fract_y
 _atom_site_fract_z
 _atom_site_occupancy
  Yb  Yb0  1  0.000000  0.743011  0.000000  1
  Yb  Yb1  1  0.743011  0.000000  0.750000  1
  Yb  Yb2  1  0.000000  0.256989  0.500000  1
  Yb  Yb3  1  0.256989  0.000000  0.250000  1
  Ti  Ti4  1  0.765463  0.000000  0.250000  1
  Ti  Ti5  1  0.000000  0.765463  0.500000  1
  Ti  Ti6  1  0.000000  0.234537  0.000000  1
  Ti  Ti7  1  0.234537  0.000000  0.750000  1
  Tl  Tl8  1  0.500000  0.246587  0.500000  1
  Tl  Tl9  1  0.500000  0.753413  0.000000  1
  Tl  Tl10  1  0.753413  0.500000  0.750000  1
  Tl  Tl11  1  0.246587  0.500000  0.250000  1
  Sb  Sb12  1  0.239618  0.500000  0.750000  1
  Sb  Sb13  1  0.500000  0.760382  0.500000  1
  Sb  Sb14  1  0.500000  0.239618  0.000000  1
  Sb  Sb15  1  0.760382  0.500000  0.250000  1
  O  O16  1  0.263069  0.736931  0.125000  1
  O  O17  1  0.549892  0.956317  0.372079  1
  O  O18  1  0.750898  0.756315  0.574812  1
  O  O19  1  0.736931  0.263069  0.625000  1
  O  O20  1  0.756315  0.750898  0.175188  1
  O  O21  1  0.949089  0.949089  0.375000  1
  O  O22  1  0.050911  0.050911  0.875000  1
  O  O23  1  0.050911  0.949089  0.625000  1
  O  O24  1  0.043683  0.450108  0.877921  1
  O  O25  1  0.249102  0.243685  0.074812  1
  O  O26  1  0.249102  0.756315  0.425188  1
  O  O27  1  0.243685  0.750898  0.824812  1
  O  O28  1  0.243685  0.249102  0.675188  1
  O  O29  1  0.450108  0.043683  0.872079  1
  O  O30  1  0.450108  0.956317  0.627921  1
  O  O31  1  0.447502  0.447502  0.875000  1
  O  O32  1  0.552498  0.552498  0.375000  1
  O  O33  1  0.549892  0.043683  0.127921  1
  O  O34  1  0.552498  0.447502  0.125000  1
  O  O35  1  0.756315  0.249102  0.324812  1
  O  O36  1  0.750898  0.243685  0.925188  1
  O  O37  1  0.949089  0.050911  0.125000  1
  O  O38  1  0.956317  0.549892  0.377921  1
  O  O39  1  0.956317  0.450108  0.122079  1
  O  O40  1  0.043683  0.549892  0.622079  1
  O  O41  1  0.263069  0.263069  0.375000  1
  O  O42  1  0.447502  0.552498  0.625000  1
  O  O43  1  0.736931  0.736931  0.875000  1
