# generated using pymatgen
data_Nb12VZnGa8(FeN2)2
_symmetry_space_group_name_H-M   'P 1'
_cell_length_a   8.27664950
_cell_length_b   8.30612113
_cell_length_c   8.25240800
_cell_angle_alpha   59.78445610
_cell_angle_beta   59.66965820
_cell_angle_gamma   59.88213389
_symmetry_Int_Tables_number   1
_chemical_formula_structural   Nb12VZnGa8(FeN2)2
_chemical_formula_sum   'Nb12 V1 Zn1 Ga8 Fe2 N4'
_cell_volume   399.14293146
_cell_formula_units_Z   1
loop_
 _symmetry_equiv_pos_site_id
 _symmetry_equiv_pos_as_xyz
  1  'x, y, z'
loop_
 _atom_site_type_symbol
 _atom_site_label
 _atom_site_symmetry_multiplicity
 _atom_site_fract_x
 _atom_site_fract_y
 _atom_site_fract_z
 _atom_site_occupancy
  Nb  Nb0  1  0.807506  0.806170  0.191757  1
  Nb  Nb1  1  0.190613  0.199050  0.806230  1
  Nb  Nb2  1  0.809276  0.190559  0.809606  1
  Nb  Nb3  1  0.194852  0.803177  0.198794  1
  Nb  Nb4  1  0.190613  0.804108  0.806230  1
  Nb  Nb5  1  0.807506  0.194567  0.191757  1
  Nb  Nb6  1  0.442494  0.443830  0.058243  1
  Nb  Nb7  1  0.059387  0.050950  0.443770  1
  Nb  Nb8  1  0.440724  0.059441  0.440394  1
  Nb  Nb9  1  0.055148  0.446823  0.051206  1
  Nb  Nb10  1  0.059387  0.445892  0.443770  1
  Nb  Nb11  1  0.442494  0.055433  0.058243  1
  V  V12  1  0.125000  0.625000  0.625000  1
  Zn  Zn13  1  0.625000  0.625000  0.125000  1
  Ga  Ga14  1  0.760276  0.408116  0.423493  1
  Ga  Ga15  1  0.418416  0.756108  0.419572  1
  Ga  Ga16  1  0.422312  0.410570  0.756550  1
  Ga  Ga17  1  0.418416  0.405906  0.419572  1
  Ga  Ga18  1  0.489724  0.841884  0.826507  1
  Ga  Ga19  1  0.831584  0.493892  0.830428  1
  Ga  Ga20  1  0.827688  0.839430  0.493450  1
  Ga  Ga21  1  0.831584  0.844094  0.830428  1
  Fe  Fe22  1  0.625000  0.125000  0.625000  1
  Fe  Fe23  1  0.625000  0.625000  0.625000  1
  N  N24  1  0.625000  0.125000  0.125000  1
  N  N25  1  0.125000  0.625000  0.125000  1
  N  N26  1  0.125000  0.125000  0.625000  1
  N  N27  1  0.125000  0.125000  0.125000  1
