# generated using pymatgen
data_Lu2Mn3Cr(FeP)6
_symmetry_space_group_name_H-M   'P 1'
_cell_length_a   3.62767000
_cell_length_b   10.22777800
_cell_length_c   12.05276000
_cell_angle_alpha   90.00000000
_cell_angle_beta   90.00000000
_cell_angle_gamma   90.00000000
_symmetry_Int_Tables_number   1
_chemical_formula_structural   Lu2Mn3Cr(FeP)6
_chemical_formula_sum   'Lu4 Mn6 Cr2 Fe12 P12'
_cell_volume   447.19359547
_cell_formula_units_Z   2
loop_
 _symmetry_equiv_pos_site_id
 _symmetry_equiv_pos_as_xyz
  1  'x, y, z'
loop_
 _atom_site_type_symbol
 _atom_site_label
 _atom_site_symmetry_multiplicity
 _atom_site_fract_x
 _atom_site_fract_y
 _atom_site_fract_z
 _atom_site_occupancy
  Lu  Lu0  1  0.250000  0.580591  0.710743  1
  Lu  Lu1  1  0.250000  0.919409  0.210743  1
  Lu  Lu2  1  0.750000  0.419314  0.289494  1
  Lu  Lu3  1  0.750000  0.080686  0.789494  1
  Mn  Mn4  1  0.750000  0.293786  0.008475  1
  Mn  Mn5  1  0.750000  0.206214  0.508475  1
  Mn  Mn6  1  0.250000  0.408028  0.490281  1
  Mn  Mn7  1  0.250000  0.091972  0.990281  1
  Mn  Mn8  1  0.750000  0.590370  0.509841  1
  Mn  Mn9  1  0.750000  0.909630  0.009841  1
  Cr  Cr10  1  0.250000  0.705431  0.990604  1
  Cr  Cr11  1  0.250000  0.794569  0.490604  1
  Fe  Fe12  1  0.250000  0.220706  0.173091  1
  Fe  Fe13  1  0.250000  0.279294  0.673091  1
  Fe  Fe14  1  0.750000  0.780789  0.826232  1
  Fe  Fe15  1  0.750000  0.719211  0.326232  1
  Fe  Fe16  1  0.250000  0.876805  0.697165  1
  Fe  Fe17  1  0.250000  0.623195  0.197165  1
  Fe  Fe18  1  0.750000  0.122331  0.303766  1
  Fe  Fe19  1  0.750000  0.377669  0.803766  1
  Fe  Fe20  1  0.250000  0.462317  0.935411  1
  Fe  Fe21  1  0.250000  0.037683  0.435411  1
  Fe  Fe22  1  0.750000  0.535804  0.065181  1
  Fe  Fe23  1  0.750000  0.964196  0.565181  1
  P  P24  1  0.250000  0.423136  0.114335  1
  P  P25  1  0.250000  0.076864  0.614335  1
  P  P26  1  0.750000  0.577846  0.886906  1
  P  P27  1  0.750000  0.922154  0.386906  1
  P  P28  1  0.250000  0.266278  0.861440  1
  P  P29  1  0.250000  0.233722  0.361440  1
  P  P30  1  0.750000  0.733163  0.136012  1
  P  P31  1  0.750000  0.766837  0.636012  1
  P  P32  1  0.250000  0.601172  0.381872  1
  P  P33  1  0.250000  0.898828  0.881872  1
  P  P34  1  0.750000  0.398608  0.619149  1
  P  P35  1  0.750000  0.101392  0.119149  1
