# generated using pymatgen
data_Dy8Er12Pt15Rh
_symmetry_space_group_name_H-M   'P 1'
_cell_length_a   7.39140951
_cell_length_b   7.51489902
_cell_length_c   14.74975400
_cell_angle_alpha   90.00000000
_cell_angle_beta   90.00000000
_cell_angle_gamma   89.68723669
_symmetry_Int_Tables_number   1
_chemical_formula_structural   Dy8Er12Pt15Rh
_chemical_formula_sum   'Dy8 Er12 Pt15 Rh1'
_cell_volume   819.27314569
_cell_formula_units_Z   1
loop_
 _symmetry_equiv_pos_site_id
 _symmetry_equiv_pos_as_xyz
  1  'x, y, z'
loop_
 _atom_site_type_symbol
 _atom_site_label
 _atom_site_symmetry_multiplicity
 _atom_site_fract_x
 _atom_site_fract_y
 _atom_site_fract_z
 _atom_site_occupancy
  Dy  Dy0  1  0.490158  0.674046  0.595005  1
  Dy  Dy1  1  0.989026  0.822761  0.904323  1
  Dy  Dy2  1  0.509730  0.324125  0.094306  1
  Dy  Dy3  1  0.008605  0.178697  0.407401  1
  Dy  Dy4  1  0.509730  0.324125  0.405694  1
  Dy  Dy5  1  0.008605  0.178697  0.092599  1
  Dy  Dy6  1  0.490158  0.674046  0.904995  1
  Dy  Dy7  1  0.989026  0.822761  0.595677  1
  Er  Er8  1  0.641191  0.170656  0.622896  1
  Er  Er9  1  0.150388  0.331649  0.876538  1
  Er  Er10  1  0.354709  0.831249  0.121912  1
  Er  Er11  1  0.853806  0.669877  0.378547  1
  Er  Er12  1  0.354709  0.831249  0.378088  1
  Er  Er13  1  0.853806  0.669877  0.121453  1
  Er  Er14  1  0.641191  0.170656  0.877104  1
  Er  Er15  1  0.150388  0.331649  0.623462  1
  Er  Er16  1  0.807149  0.508595  0.750000  1
  Er  Er17  1  0.308016  0.988321  0.750000  1
  Er  Er18  1  0.191380  0.489553  0.250000  1
  Er  Er19  1  0.692324  0.012707  0.250000  1
  Pt  Pt20  1  0.688993  0.971017  0.458909  1
  Pt  Pt21  1  0.189751  0.531185  0.040734  1
  Pt  Pt22  1  0.308984  0.027844  0.958017  1
  Pt  Pt23  1  0.812305  0.467703  0.541168  1
  Pt  Pt24  1  0.308984  0.027844  0.541983  1
  Pt  Pt25  1  0.812305  0.467703  0.958832  1
  Pt  Pt26  1  0.688993  0.971017  0.041091  1
  Pt  Pt27  1  0.189751  0.531185  0.459266  1
  Pt  Pt28  1  0.939921  0.117508  0.750000  1
  Pt  Pt29  1  0.559035  0.616317  0.250000  1
  Pt  Pt30  1  0.059503  0.884267  0.250000  1
  Pt  Pt31  1  0.670834  0.856560  0.750000  1
  Pt  Pt32  1  0.173379  0.641021  0.750000  1
  Pt  Pt33  1  0.329923  0.142917  0.250000  1
  Pt  Pt34  1  0.831276  0.357812  0.250000  1
  Rh  Rh35  1  0.441967  0.382802  0.750000  1
