# generated using pymatgen
data_ErZnCdAg3
_symmetry_space_group_name_H-M   'P 1'
_cell_length_a   5.58376086
_cell_length_b   5.42673948
_cell_length_c   5.58376100
_cell_angle_alpha   59.03814489
_cell_angle_beta   60.00000509
_cell_angle_gamma   59.03814313
_symmetry_Int_Tables_number   1
_chemical_formula_structural   ErZnCdAg3
_chemical_formula_sum   'Er1 Zn1 Cd1 Ag3'
_cell_volume   117.87134241
_cell_formula_units_Z   1
loop_
 _symmetry_equiv_pos_site_id
 _symmetry_equiv_pos_as_xyz
  1  'x, y, z'
loop_
 _atom_site_type_symbol
 _atom_site_label
 _atom_site_symmetry_multiplicity
 _atom_site_fract_x
 _atom_site_fract_y
 _atom_site_fract_z
 _atom_site_occupancy
  Er  Er0  1  0.750720  0.747841  0.750720  1
  Zn  Zn1  1  0.374134  0.877599  0.374134  1
  Cd  Cd2  1  0.001547  0.995357  0.001547  1
  Ag  Ag3  1  0.374005  0.376401  0.374005  1
  Ag  Ag4  1  0.875589  0.376401  0.374005  1
  Ag  Ag5  1  0.374005  0.376401  0.875589  1
