# generated using pymatgen
data_LiEuH6Rh
_symmetry_space_group_name_H-M   'P 1'
_cell_length_a   5.06237804
_cell_length_b   5.06237754
_cell_length_c   5.06237700
_cell_angle_alpha   59.99999702
_cell_angle_beta   60.00000027
_cell_angle_gamma   60.00000447
_symmetry_Int_Tables_number   1
_chemical_formula_structural   LiEuH6Rh
_chemical_formula_sum   'Li1 Eu1 H6 Rh1'
_cell_volume   91.73785833
_cell_formula_units_Z   1
loop_
 _symmetry_equiv_pos_site_id
 _symmetry_equiv_pos_as_xyz
  1  'x, y, z'
loop_
 _atom_site_type_symbol
 _atom_site_label
 _atom_site_symmetry_multiplicity
 _atom_site_fract_x
 _atom_site_fract_y
 _atom_site_fract_z
 _atom_site_occupancy
  Li  Li0  1  0.250000  0.250000  0.250000  1
  Eu  Eu1  1  0.750000  0.750000  0.750000  1
  H  H2  1  0.765865  0.234135  0.234135  1
  H  H3  1  0.234135  0.765865  0.765865  1
  H  H4  1  0.234135  0.765865  0.234135  1
  H  H5  1  0.765865  0.234135  0.765865  1
  H  H6  1  0.234135  0.234135  0.765865  1
  H  H7  1  0.765865  0.765865  0.234135  1
  Rh  Rh8  1  0.000000  0.000000  0.000000  1
