# generated using pymatgen
data_DyHoU(AlRu)3
_symmetry_space_group_name_H-M   'P 1'
_cell_length_a   6.84243216
_cell_length_b   6.84835250
_cell_length_c   4.05446600
_cell_angle_alpha   90.00000000
_cell_angle_beta   90.00000000
_cell_angle_gamma   116.39751848
_symmetry_Int_Tables_number   1
_chemical_formula_structural   DyHoU(AlRu)3
_chemical_formula_sum   'Dy1 Ho1 U1 Al3 Ru3'
_cell_volume   170.17975033
_cell_formula_units_Z   1
loop_
 _symmetry_equiv_pos_site_id
 _symmetry_equiv_pos_as_xyz
  1  'x, y, z'
loop_
 _atom_site_type_symbol
 _atom_site_label
 _atom_site_symmetry_multiplicity
 _atom_site_fract_x
 _atom_site_fract_y
 _atom_site_fract_z
 _atom_site_occupancy
  Dy  Dy0  1  0.008275  0.419142  0.500000  1
  Ho  Ho1  1  0.418822  0.008374  0.500000  1
  U  U2  1  0.606174  0.606258  0.500000  1
  Al  Al3  1  0.753208  0.022964  0.000000  1
  Al  Al4  1  0.023281  0.753806  0.000000  1
  Al  Al5  1  0.210050  0.209646  0.000000  1
  Ru  Ru6  1  0.379318  0.638268  0.000000  1
  Ru  Ru7  1  0.638176  0.379077  0.000000  1
  Ru  Ru8  1  0.962698  0.962466  0.500000  1
