# generated using pymatgen
data_Lu2OsRu3
_symmetry_space_group_name_H-M   'P 1'
_cell_length_a   5.25904994
_cell_length_b   5.15889054
_cell_length_c   8.88635000
_cell_angle_alpha   90.00000000
_cell_angle_beta   90.00000000
_cell_angle_gamma   119.37194604
_symmetry_Int_Tables_number   1
_chemical_formula_structural   Lu2OsRu3
_chemical_formula_sum   'Lu4 Os2 Ru6'
_cell_volume   210.10264750
_cell_formula_units_Z   2
loop_
 _symmetry_equiv_pos_site_id
 _symmetry_equiv_pos_as_xyz
  1  'x, y, z'
loop_
 _atom_site_type_symbol
 _atom_site_label
 _atom_site_symmetry_multiplicity
 _atom_site_fract_x
 _atom_site_fract_y
 _atom_site_fract_z
 _atom_site_occupancy
  Lu  Lu0  1  0.333142  0.666571  0.432563  1
  Lu  Lu1  1  0.670107  0.335053  0.566479  1
  Lu  Lu2  1  0.670107  0.335053  0.933521  1
  Lu  Lu3  1  0.333142  0.666571  0.067437  1
  Os  Os4  1  0.163999  0.336345  0.750000  1
  Os  Os5  1  0.163999  0.827654  0.750000  1
  Ru  Ru6  1  0.338327  0.169163  0.250000  1
  Ru  Ru7  1  0.825424  0.657125  0.250000  1
  Ru  Ru8  1  0.648069  0.824035  0.750000  1
  Ru  Ru9  1  0.014131  0.007066  0.000375  1
  Ru  Ru10  1  0.825424  0.168298  0.250000  1
  Ru  Ru11  1  0.014131  0.007066  0.499625  1
