# generated using pymatgen
data_Ho8Ta4Ti8Si15Ge
_symmetry_space_group_name_H-M   'P 1'
_cell_length_a   7.05030156
_cell_length_b   7.04008394
_cell_length_c   12.96120031
_cell_angle_alpha   89.98862365
_cell_angle_beta   89.98768979
_cell_angle_gamma   89.97623159
_symmetry_Int_Tables_number   1
_chemical_formula_structural   Ho8Ta4Ti8Si15Ge
_chemical_formula_sum   'Ho8 Ta4 Ti8 Si15 Ge1'
_cell_volume   643.32539767
_cell_formula_units_Z   1
loop_
 _symmetry_equiv_pos_site_id
 _symmetry_equiv_pos_as_xyz
  1  'x, y, z'
loop_
 _atom_site_type_symbol
 _atom_site_label
 _atom_site_symmetry_multiplicity
 _atom_site_fract_x
 _atom_site_fract_y
 _atom_site_fract_z
 _atom_site_occupancy
  Ho  Ho0  1  0.341470  0.001524  0.466027  1
  Ho  Ho1  1  0.498983  0.840157  0.717457  1
  Ho  Ho2  1  0.502027  0.159220  0.216979  1
  Ho  Ho3  1  0.840799  0.497748  0.282746  1
  Ho  Ho4  1  0.159206  0.502638  0.783513  1
  Ho  Ho5  1  0.659701  0.997097  0.967769  1
  Ho  Ho6  1  0.000106  0.342291  0.531814  1
  Ho  Ho7  1  0.998240  0.659382  0.033050  1
  Ta  Ta8  1  0.326077  0.326260  0.000216  1
  Ta  Ta9  1  0.173821  0.826312  0.249945  1
  Ta  Ta10  1  0.822953  0.174442  0.750581  1
  Ta  Ta11  1  0.673744  0.673806  0.499993  1
  Ti  Ti12  1  0.153238  0.009421  0.876609  1
  Ti  Ti13  1  0.491164  0.652614  0.125412  1
  Ti  Ti14  1  0.510371  0.348317  0.625535  1
  Ti  Ti15  1  0.653376  0.491923  0.875172  1
  Ti  Ti16  1  0.346888  0.508877  0.374573  1
  Ti  Ti17  1  0.846911  0.991285  0.375344  1
  Ti  Ti18  1  0.009119  0.152732  0.124573  1
  Ti  Ti19  1  0.988408  0.844047  0.623508  1
  Si  Si20  1  0.369704  0.702502  0.934333  1
  Si  Si21  1  0.629601  0.297893  0.433968  1
  Si  Si22  1  0.702464  0.369774  0.066179  1
  Si  Si23  1  0.297613  0.630243  0.565893  1
  Si  Si24  1  0.797962  0.869765  0.184090  1
  Si  Si25  1  0.130230  0.202115  0.315794  1
  Si  Si26  1  0.870269  0.798616  0.815963  1
  Si  Si27  1  0.292885  0.953300  0.064522  1
  Si  Si28  1  0.547078  0.792198  0.313854  1
  Si  Si29  1  0.456020  0.207624  0.816083  1
  Si  Si30  1  0.793176  0.546380  0.686132  1
  Si  Si31  1  0.207362  0.453261  0.185847  1
  Si  Si32  1  0.707080  0.046971  0.564172  1
  Si  Si33  1  0.953452  0.292646  0.935892  1
  Si  Si34  1  0.046857  0.707803  0.435365  1
  Ge  Ge35  1  0.201640  0.128816  0.681097  1
