# generated using pymatgen
data_Tb4Zn10SiPb
_symmetry_space_group_name_H-M   'P 1'
_cell_length_a   8.32848081
_cell_length_b   8.32848049
_cell_length_c   8.92235600
_cell_angle_alpha   90.00000000
_cell_angle_beta   90.00000000
_cell_angle_gamma   149.70642473
_symmetry_Int_Tables_number   1
_chemical_formula_structural   Tb4Zn10SiPb
_chemical_formula_sum   'Tb4 Zn10 Si1 Pb1'
_cell_volume   312.18548814
_cell_formula_units_Z   1
loop_
 _symmetry_equiv_pos_site_id
 _symmetry_equiv_pos_as_xyz
  1  'x, y, z'
loop_
 _atom_site_type_symbol
 _atom_site_label
 _atom_site_symmetry_multiplicity
 _atom_site_fract_x
 _atom_site_fract_y
 _atom_site_fract_z
 _atom_site_occupancy
  Tb  Tb0  1  0.199271  0.800729  0.250000  1
  Tb  Tb1  1  0.796449  0.203551  0.750000  1
  Tb  Tb2  1  0.000903  0.999097  0.477776  1
  Tb  Tb3  1  0.000903  0.999097  0.022224  1
  Zn  Zn4  1  0.812773  0.187227  0.390190  1
  Zn  Zn5  1  0.186030  0.813970  0.605887  1
  Zn  Zn6  1  0.812773  0.187227  0.109810  1
  Zn  Zn7  1  0.186030  0.813970  0.894113  1
  Zn  Zn8  1  0.649157  0.350843  0.472465  1
  Zn  Zn9  1  0.342882  0.657118  0.514232  1
  Zn  Zn10  1  0.649157  0.350843  0.027535  1
  Zn  Zn11  1  0.342882  0.657118  0.985768  1
  Zn  Zn12  1  0.403272  0.596728  0.250000  1
  Zn  Zn13  1  0.612030  0.387970  0.750000  1
  Si  Si14  1  0.556174  0.443826  0.250000  1
  Pb  Pb15  1  0.449317  0.550683  0.750000  1
