# generated using pymatgen
data_Ac3Dy(ZnSn)4
_symmetry_space_group_name_H-M   'P 1'
_cell_length_a   4.64960600
_cell_length_b   4.64960521
_cell_length_c   17.58484000
_cell_angle_alpha   90.00000000
_cell_angle_beta   90.00000000
_cell_angle_gamma   120.00000563
_symmetry_Int_Tables_number   1
_chemical_formula_structural   Ac3Dy(ZnSn)4
_chemical_formula_sum   'Ac3 Dy1 Zn4 Sn4'
_cell_volume   329.23140881
_cell_formula_units_Z   1
loop_
 _symmetry_equiv_pos_site_id
 _symmetry_equiv_pos_as_xyz
  1  'x, y, z'
loop_
 _atom_site_type_symbol
 _atom_site_label
 _atom_site_symmetry_multiplicity
 _atom_site_fract_x
 _atom_site_fract_y
 _atom_site_fract_z
 _atom_site_occupancy
  Ac  Ac0  1  0.000000  0.000000  0.250000  1
  Ac  Ac1  1  0.000000  0.000000  0.990165  1
  Ac  Ac2  1  0.000000  0.000000  0.509835  1
  Dy  Dy3  1  0.000000  0.000000  0.750000  1
  Zn  Zn4  1  0.333333  0.666667  0.148262  1
  Zn  Zn5  1  0.666667  0.333333  0.827770  1
  Zn  Zn6  1  0.666667  0.333333  0.672230  1
  Zn  Zn7  1  0.333333  0.666667  0.351738  1
  Sn  Sn8  1  0.333333  0.666667  0.629299  1
  Sn  Sn9  1  0.666667  0.333333  0.387264  1
  Sn  Sn10  1  0.666667  0.333333  0.112736  1
  Sn  Sn11  1  0.333333  0.666667  0.870701  1
