# generated using pymatgen
data_NdEr4(CoO6)2
_symmetry_space_group_name_H-M   'P 1'
_cell_length_a   6.75438393
_cell_length_b   6.75438482
_cell_length_c   7.18207014
_cell_angle_alpha   74.66970565
_cell_angle_beta   74.66970596
_cell_angle_gamma   50.12312746
_symmetry_Int_Tables_number   1
_chemical_formula_structural   NdEr4(CoO6)2
_chemical_formula_sum   'Nd1 Er4 Co2 O12'
_cell_volume   240.50480077
_cell_formula_units_Z   1
loop_
 _symmetry_equiv_pos_site_id
 _symmetry_equiv_pos_as_xyz
  1  'x, y, z'
loop_
 _atom_site_type_symbol
 _atom_site_label
 _atom_site_symmetry_multiplicity
 _atom_site_fract_x
 _atom_site_fract_y
 _atom_site_fract_z
 _atom_site_occupancy
  Nd  Nd0  1  0.000000  0.000000  0.500000  1
  Er  Er1  1  0.306719  0.306719  0.355659  1
  Er  Er2  1  0.693281  0.693281  0.644341  1
  Er  Er3  1  0.305527  0.305527  0.837739  1
  Er  Er4  1  0.694473  0.694473  0.162261  1
  Co  Co5  1  0.754613  0.245387  0.000000  1
  Co  Co6  1  0.245387  0.754613  0.000000  1
  O  O7  1  0.899299  0.417720  0.923243  1
  O  O8  1  0.417720  0.899299  0.923243  1
  O  O9  1  0.100701  0.582280  0.076757  1
  O  O10  1  0.582280  0.100701  0.076757  1
  O  O11  1  0.095232  0.586588  0.582094  1
  O  O12  1  0.586588  0.095232  0.582094  1
  O  O13  1  0.904768  0.413412  0.417906  1
  O  O14  1  0.413412  0.904768  0.417906  1
  O  O15  1  0.001516  0.001516  0.831956  1
  O  O16  1  0.998484  0.998484  0.168044  1
  O  O17  1  0.499859  0.499859  0.822132  1
  O  O18  1  0.500141  0.500141  0.177868  1
