# generated using pymatgen
data_SmBi3O7
_symmetry_space_group_name_H-M   'P 1'
_cell_length_a   6.70824554
_cell_length_b   6.93026512
_cell_length_c   7.92278620
_cell_angle_alpha   106.57691103
_cell_angle_beta   89.31911559
_cell_angle_gamma   99.36653057
_symmetry_Int_Tables_number   1
_chemical_formula_structural   SmBi3O7
_chemical_formula_sum   'Sm2 Bi6 O14'
_cell_volume   348.08181114
_cell_formula_units_Z   2
loop_
 _symmetry_equiv_pos_site_id
 _symmetry_equiv_pos_as_xyz
  1  'x, y, z'
loop_
 _atom_site_type_symbol
 _atom_site_label
 _atom_site_symmetry_multiplicity
 _atom_site_fract_x
 _atom_site_fract_y
 _atom_site_fract_z
 _atom_site_occupancy
  Sm  Sm0  1  0.459535  0.000326  0.248423  1
  Sm  Sm1  1  0.540465  0.999674  0.751577  1
  Bi  Bi2  1  0.000000  0.000000  0.500000  1
  Bi  Bi3  1  0.000000  0.000000  0.000000  1
  Bi  Bi4  1  0.259711  0.509610  0.875738  1
  Bi  Bi5  1  0.740289  0.490390  0.124262  1
  Bi  Bi6  1  0.721331  0.469608  0.608333  1
  Bi  Bi7  1  0.278669  0.530392  0.391667  1
  O  O8  1  0.465018  0.649988  0.184581  1
  O  O9  1  0.534982  0.350012  0.815419  1
  O  O10  1  0.299713  0.940691  0.954611  1
  O  O11  1  0.700287  0.059309  0.045389  1
  O  O12  1  0.291865  0.913014  0.508543  1
  O  O13  1  0.708135  0.086986  0.491457  1
  O  O14  1  0.531532  0.352283  0.356254  1
  O  O15  1  0.468468  0.647717  0.643746  1
  O  O16  1  0.910160  0.680254  0.967274  1
  O  O17  1  0.089840  0.319746  0.032726  1
  O  O18  1  0.104330  0.321771  0.622448  1
  O  O19  1  0.895670  0.678229  0.377552  1
  O  O20  1  0.883971  0.926883  0.731390  1
  O  O21  1  0.116029  0.073117  0.268610  1
