# generated using pymatgen
data_Ce7(LuTc2)3
_symmetry_space_group_name_H-M   'P 1'
_cell_length_a   7.92414000
_cell_length_b   7.92414040
_cell_length_c   6.69008700
_cell_angle_alpha   90.00000000
_cell_angle_beta   90.00000000
_cell_angle_gamma   119.99999835
_symmetry_Int_Tables_number   1
_chemical_formula_structural   Ce7(LuTc2)3
_chemical_formula_sum   'Ce7 Lu3 Tc6'
_cell_volume   363.80336002
_cell_formula_units_Z   1
loop_
 _symmetry_equiv_pos_site_id
 _symmetry_equiv_pos_as_xyz
  1  'x, y, z'
loop_
 _atom_site_type_symbol
 _atom_site_label
 _atom_site_symmetry_multiplicity
 _atom_site_fract_x
 _atom_site_fract_y
 _atom_site_fract_z
 _atom_site_occupancy
  Ce  Ce0  1  0.666667  0.333333  0.500000  1
  Ce  Ce1  1  0.758927  0.761442  0.750403  1
  Ce  Ce2  1  0.238558  0.997485  0.750403  1
  Ce  Ce3  1  0.002515  0.241073  0.750403  1
  Ce  Ce4  1  0.238558  0.241073  0.249597  1
  Ce  Ce5  1  0.758927  0.997485  0.249597  1
  Ce  Ce6  1  0.002515  0.761442  0.249597  1
  Lu  Lu7  1  0.666667  0.333333  0.000000  1
  Lu  Lu8  1  0.333333  0.666667  0.000000  1
  Lu  Lu9  1  0.333333  0.666667  0.500000  1
  Tc  Tc10  1  0.367981  0.365689  0.748742  1
  Tc  Tc11  1  0.634311  0.002292  0.748742  1
  Tc  Tc12  1  0.997708  0.632019  0.748742  1
  Tc  Tc13  1  0.634311  0.632019  0.251258  1
  Tc  Tc14  1  0.367981  0.002292  0.251258  1
  Tc  Tc15  1  0.997708  0.365689  0.251258  1
