# generated using pymatgen
data_Yb2SnIr4PbO14
_symmetry_space_group_name_H-M   'P 1'
_cell_length_a   7.27144030
_cell_length_b   7.22555428
_cell_length_c   7.21732814
_cell_angle_alpha   59.60459663
_cell_angle_beta   59.75168114
_cell_angle_gamma   59.78970774
_symmetry_Int_Tables_number   1
_chemical_formula_structural   Yb2SnIr4PbO14
_chemical_formula_sum   'Yb2 Sn1 Ir4 Pb1 O14'
_cell_volume   266.39949214
_cell_formula_units_Z   1
loop_
 _symmetry_equiv_pos_site_id
 _symmetry_equiv_pos_as_xyz
  1  'x, y, z'
loop_
 _atom_site_type_symbol
 _atom_site_label
 _atom_site_symmetry_multiplicity
 _atom_site_fract_x
 _atom_site_fract_y
 _atom_site_fract_z
 _atom_site_occupancy
  Yb  Yb0  1  0.625000  0.125000  0.125000  1
  Yb  Yb1  1  0.125000  0.125000  0.125000  1
  Sn  Sn2  1  0.125000  0.125000  0.625000  1
  Ir  Ir3  1  0.125000  0.625000  0.625000  1
  Ir  Ir4  1  0.625000  0.125000  0.625000  1
  Ir  Ir5  1  0.625000  0.625000  0.125000  1
  Ir  Ir6  1  0.625000  0.625000  0.625000  1
  Pb  Pb7  1  0.125000  0.625000  0.125000  1
  O  O8  1  0.709214  0.702989  0.295277  1
  O  O9  1  0.294325  0.295213  0.685665  1
  O  O10  1  0.724797  0.295213  0.685665  1
  O  O11  1  0.292519  0.702989  0.295277  1
  O  O12  1  0.290639  0.719865  0.698858  1
  O  O13  1  0.708750  0.289519  0.292981  1
  O  O14  1  0.540786  0.547011  0.954723  1
  O  O15  1  0.955675  0.954787  0.564335  1
  O  O16  1  0.525203  0.954787  0.564335  1
  O  O17  1  0.957481  0.547011  0.954723  1
  O  O18  1  0.959361  0.530135  0.551142  1
  O  O19  1  0.541250  0.960481  0.957019  1
  O  O20  1  0.244861  0.230583  0.279696  1
  O  O21  1  0.005139  0.019417  0.970304  1
