# generated using pymatgen
data_Tm4MnV2FeB16
_symmetry_space_group_name_H-M   'P 1'
_cell_length_a   3.39455800
_cell_length_b   5.91064567
_cell_length_c   11.42948101
_cell_angle_alpha   90.06136324
_cell_angle_beta   90.00000000
_cell_angle_gamma   90.00000000
_symmetry_Int_Tables_number   1
_chemical_formula_structural   Tm4MnV2FeB16
_chemical_formula_sum   'Tm4 Mn1 V2 Fe1 B16'
_cell_volume   229.32131335
_cell_formula_units_Z   1
loop_
 _symmetry_equiv_pos_site_id
 _symmetry_equiv_pos_as_xyz
  1  'x, y, z'
loop_
 _atom_site_type_symbol
 _atom_site_label
 _atom_site_symmetry_multiplicity
 _atom_site_fract_x
 _atom_site_fract_y
 _atom_site_fract_z
 _atom_site_occupancy
  Tm  Tm0  1  0.500000  0.376273  0.152200  1
  Tm  Tm1  1  0.500000  0.625944  0.848721  1
  Tm  Tm2  1  0.500000  0.125696  0.649419  1
  Tm  Tm3  1  0.500000  0.875905  0.349174  1
  Mn  Mn4  1  0.500000  0.374901  0.416556  1
  V  V5  1  0.500000  0.625063  0.579790  1
  V  V6  1  0.500000  0.128172  0.919125  1
  Fe  Fe7  1  0.500000  0.873316  0.084789  1
  B  B8  1  0.000000  0.110436  0.050659  1
  B  B9  1  0.000000  0.882499  0.955795  1
  B  B10  1  0.000000  0.382623  0.543916  1
  B  B11  1  0.000000  0.610686  0.450043  1
  B  B12  1  0.000000  0.136968  0.465460  1
  B  B13  1  0.000000  0.865741  0.530358  1
  B  B14  1  0.000000  0.366523  0.970333  1
  B  B15  1  0.000000  0.637366  0.034075  1
  B  B16  1  0.000000  0.023375  0.192899  1
  B  B17  1  0.000000  0.973693  0.808091  1
  B  B18  1  0.000000  0.473994  0.691712  1
  B  B19  1  0.000000  0.523648  0.307104  1
  B  B20  1  0.000000  0.218268  0.315745  1
  B  B21  1  0.000000  0.785125  0.685228  1
  B  B22  1  0.000000  0.284766  0.814493  1
  B  B23  1  0.000000  0.719018  0.184315  1
