# generated using pymatgen
data_SmHo5PtRh17
_symmetry_space_group_name_H-M   'P 1'
_cell_length_a   5.27233700
_cell_length_b   5.27233694
_cell_length_c   17.57434700
_cell_angle_alpha   90.00000000
_cell_angle_beta   90.00000000
_cell_angle_gamma   119.99999410
_symmetry_Int_Tables_number   1
_chemical_formula_structural   SmHo5PtRh17
_chemical_formula_sum   'Sm1 Ho5 Pt1 Rh17'
_cell_volume   423.07384133
_cell_formula_units_Z   1
loop_
 _symmetry_equiv_pos_site_id
 _symmetry_equiv_pos_as_xyz
  1  'x, y, z'
loop_
 _atom_site_type_symbol
 _atom_site_label
 _atom_site_symmetry_multiplicity
 _atom_site_fract_x
 _atom_site_fract_y
 _atom_site_fract_z
 _atom_site_occupancy
  Sm  Sm0  1  0.666667  0.333333  0.250000  1
  Ho  Ho1  1  0.333333  0.666667  0.957447  1
  Ho  Ho2  1  0.666667  0.333333  0.041055  1
  Ho  Ho3  1  0.666667  0.333333  0.458945  1
  Ho  Ho4  1  0.333333  0.666667  0.542553  1
  Ho  Ho5  1  0.333333  0.666667  0.750000  1
  Pt  Pt6  1  0.333333  0.666667  0.250000  1
  Rh  Rh7  1  0.167263  0.832737  0.375856  1
  Rh  Rh8  1  0.167263  0.334525  0.375856  1
  Rh  Rh9  1  0.665475  0.832737  0.375856  1
  Rh  Rh10  1  0.832765  0.167235  0.625708  1
  Rh  Rh11  1  0.832765  0.665528  0.625708  1
  Rh  Rh12  1  0.334472  0.167235  0.625708  1
  Rh  Rh13  1  0.832765  0.167235  0.874292  1
  Rh  Rh14  1  0.832765  0.665528  0.874292  1
  Rh  Rh15  1  0.334472  0.167235  0.874292  1
  Rh  Rh16  1  0.167263  0.832737  0.124144  1
  Rh  Rh17  1  0.167263  0.334525  0.124144  1
  Rh  Rh18  1  0.665475  0.832737  0.124144  1
  Rh  Rh19  1  0.666667  0.333333  0.750000  1
  Rh  Rh20  1  0.000000  0.000000  0.250000  1
  Rh  Rh21  1  0.000000  0.000000  0.750000  1
  Rh  Rh22  1  0.000000  0.000000  0.499878  1
  Rh  Rh23  1  0.000000  0.000000  0.000122  1
