# generated using pymatgen
data_Zr3BeP2Ir2Ru
_symmetry_space_group_name_H-M   'P 1'
_cell_length_a   6.41793242
_cell_length_b   6.43696866
_cell_length_c   3.84503000
_cell_angle_alpha   90.00000000
_cell_angle_beta   90.00000000
_cell_angle_gamma   120.09817317
_symmetry_Int_Tables_number   1
_chemical_formula_structural   Zr3BeP2Ir2Ru
_chemical_formula_sum   'Zr3 Be1 P2 Ir2 Ru1'
_cell_volume   137.42837746
_cell_formula_units_Z   1
loop_
 _symmetry_equiv_pos_site_id
 _symmetry_equiv_pos_as_xyz
  1  'x, y, z'
loop_
 _atom_site_type_symbol
 _atom_site_label
 _atom_site_symmetry_multiplicity
 _atom_site_fract_x
 _atom_site_fract_y
 _atom_site_fract_z
 _atom_site_occupancy
  Zr  Zr0  1  0.408293  0.411432  0.500000  1
  Zr  Zr1  1  0.591707  0.003138  0.500000  1
  Zr  Zr2  1  0.000000  0.585597  0.500000  1
  Be  Be3  1  0.000000  0.997741  0.500000  1
  P  P4  1  0.667223  0.333499  0.000000  1
  P  P5  1  0.332777  0.666277  0.000000  1
  Ir  Ir6  1  0.756969  0.758077  0.000000  1
  Ir  Ir7  1  0.243031  0.001108  0.000000  1
  Ru  Ru8  1  0.000000  0.243132  0.000000  1
