# generated using pymatgen
data_La16Cd4TcIr2Pt
_symmetry_space_group_name_H-M   'P 1'
_cell_length_a   10.18759506
_cell_length_b   10.18759632
_cell_length_c   10.15755060
_cell_angle_alpha   59.50153212
_cell_angle_beta   59.50153100
_cell_angle_gamma   59.55166861
_symmetry_Int_Tables_number   1
_chemical_formula_structural   La16Cd4TcIr2Pt
_chemical_formula_sum   'La16 Cd4 Tc1 Ir2 Pt1'
_cell_volume   737.28115203
_cell_formula_units_Z   1
loop_
 _symmetry_equiv_pos_site_id
 _symmetry_equiv_pos_as_xyz
  1  'x, y, z'
loop_
 _atom_site_type_symbol
 _atom_site_label
 _atom_site_symmetry_multiplicity
 _atom_site_fract_x
 _atom_site_fract_y
 _atom_site_fract_z
 _atom_site_occupancy
  La  La0  1  0.599392  0.599392  0.594649  1
  La  La1  1  0.596013  0.596013  0.210023  1
  La  La2  1  0.598070  0.207435  0.594124  1
  La  La3  1  0.207435  0.598070  0.594124  1
  La  La4  1  0.064486  0.438606  0.439032  1
  La  La5  1  0.442386  0.054720  0.062374  1
  La  La6  1  0.438606  0.064486  0.439032  1
  La  La7  1  0.054720  0.442386  0.062374  1
  La  La8  1  0.439505  0.439505  0.067560  1
  La  La9  1  0.059667  0.059667  0.441374  1
  La  La10  1  0.189003  0.811766  0.809911  1
  La  La11  1  0.806216  0.191469  0.190612  1
  La  La12  1  0.811766  0.189003  0.809911  1
  La  La13  1  0.191469  0.806216  0.190612  1
  La  La14  1  0.810037  0.810037  0.189344  1
  La  La15  1  0.190742  0.190742  0.805784  1
  Cd  Cd16  1  0.829903  0.829903  0.829810  1
  Cd  Cd17  1  0.829592  0.829592  0.510590  1
  Cd  Cd18  1  0.829652  0.510435  0.829514  1
  Cd  Cd19  1  0.510435  0.829652  0.829514  1
  Tc  Tc20  1  0.387683  0.387683  0.388072  1
  Ir  Ir21  1  0.391913  0.828715  0.392301  1
  Ir  Ir22  1  0.828715  0.391913  0.392301  1
  Pt  Pt23  1  0.392593  0.392593  0.827058  1
