# generated using pymatgen
data_Mg3V(ZnPd5)2
_symmetry_space_group_name_H-M   'P 1'
_cell_length_a   4.08704300
_cell_length_b   5.50159440
_cell_length_c   10.82800299
_cell_angle_alpha   89.58489485
_cell_angle_beta   90.00000000
_cell_angle_gamma   90.00000000
_symmetry_Int_Tables_number   1
_chemical_formula_structural   Mg3V(ZnPd5)2
_chemical_formula_sum   'Mg3 V1 Zn2 Pd10'
_cell_volume   243.46399572
_cell_formula_units_Z   1
loop_
 _symmetry_equiv_pos_site_id
 _symmetry_equiv_pos_as_xyz
  1  'x, y, z'
loop_
 _atom_site_type_symbol
 _atom_site_label
 _atom_site_symmetry_multiplicity
 _atom_site_fract_x
 _atom_site_fract_y
 _atom_site_fract_z
 _atom_site_occupancy
  Mg  Mg0  1  0.500000  0.811101  0.861821  1
  Mg  Mg1  1  0.500000  0.311223  0.637211  1
  Mg  Mg2  1  0.500000  0.684345  0.366698  1
  V  V3  1  0.500000  0.186088  0.137302  1
  Zn  Zn4  1  0.000000  0.999854  0.499656  1
  Zn  Zn5  1  0.000000  0.509462  0.999822  1
  Pd  Pd6  1  0.500000  0.190694  0.379464  1
  Pd  Pd7  1  0.500000  0.805103  0.610911  1
  Pd  Pd8  1  0.500000  0.301786  0.897620  1
  Pd  Pd9  1  0.500000  0.701200  0.113017  1
  Pd  Pd10  1  0.000000  0.425113  0.237191  1
  Pd  Pd11  1  0.000000  0.562923  0.757451  1
  Pd  Pd12  1  0.000000  0.065476  0.744640  1
  Pd  Pd13  1  0.000000  0.935847  0.252805  1
  Pd  Pd14  1  0.000000  0.014171  0.005835  1
  Pd  Pd15  1  0.000000  0.495613  0.498558  1
