# generated using pymatgen
data_Er2Ge4Mo3
_symmetry_space_group_name_H-M   'P 1'
_cell_length_a   7.04515300
_cell_length_b   6.88371022
_cell_length_c   6.98388950
_cell_angle_alpha   70.50562498
_cell_angle_beta   90.00000000
_cell_angle_gamma   90.00000000
_symmetry_Int_Tables_number   1
_chemical_formula_structural   Er2Ge4Mo3
_chemical_formula_sum   'Er4 Ge8 Mo6'
_cell_volume   319.28022161
_cell_formula_units_Z   2
loop_
 _symmetry_equiv_pos_site_id
 _symmetry_equiv_pos_as_xyz
  1  'x, y, z'
loop_
 _atom_site_type_symbol
 _atom_site_label
 _atom_site_symmetry_multiplicity
 _atom_site_fract_x
 _atom_site_fract_y
 _atom_site_fract_z
 _atom_site_occupancy
  Er  Er0  1  0.328471  0.555951  0.809437  1
  Er  Er1  1  0.828471  0.944049  0.190563  1
  Er  Er2  1  0.671529  0.444049  0.190563  1
  Er  Er3  1  0.171529  0.055951  0.809437  1
  Ge  Ge4  1  0.545890  0.857159  0.908632  1
  Ge  Ge5  1  0.045890  0.642841  0.091368  1
  Ge  Ge6  1  0.454110  0.142841  0.091368  1
  Ge  Ge7  1  0.954110  0.357159  0.908632  1
  Ge  Ge8  1  0.136949  0.867395  0.496045  1
  Ge  Ge9  1  0.636949  0.632605  0.503955  1
  Ge  Ge10  1  0.863051  0.132605  0.503955  1
  Ge  Ge11  1  0.363051  0.367395  0.496045  1
  Mo  Mo12  1  0.500000  0.000000  0.500000  1
  Mo  Mo13  1  0.000000  0.500000  0.500000  1
  Mo  Mo14  1  0.842409  0.747318  0.752045  1
  Mo  Mo15  1  0.342409  0.752682  0.247955  1
  Mo  Mo16  1  0.157591  0.252682  0.247955  1
  Mo  Mo17  1  0.657591  0.247318  0.752045  1
