# generated using pymatgen
data_Eu(BrO3)2
_symmetry_space_group_name_H-M   'P 1'
_cell_length_a   7.12983641
_cell_length_b   7.12983576
_cell_length_c   7.42002165
_cell_angle_alpha   74.46552980
_cell_angle_beta   74.46553468
_cell_angle_gamma   115.09459303
_symmetry_Int_Tables_number   1
_chemical_formula_structural   Eu(BrO3)2
_chemical_formula_sum   'Eu2 Br4 O12'
_cell_volume   296.00297405
_cell_formula_units_Z   2
loop_
 _symmetry_equiv_pos_site_id
 _symmetry_equiv_pos_as_xyz
  1  'x, y, z'
loop_
 _atom_site_type_symbol
 _atom_site_label
 _atom_site_symmetry_multiplicity
 _atom_site_fract_x
 _atom_site_fract_y
 _atom_site_fract_z
 _atom_site_occupancy
  Eu  Eu0  1  0.625825  0.382562  0.993491  1
  Eu  Eu1  1  0.382562  0.625825  0.493491  1
  Br  Br2  1  0.404922  0.777708  0.955063  1
  Br  Br3  1  0.777708  0.404922  0.455063  1
  Br  Br4  1  0.973443  0.105544  0.027681  1
  Br  Br5  1  0.105544  0.973443  0.527681  1
  O  O6  1  0.473947  0.628915  0.120970  1
  O  O7  1  0.628915  0.473947  0.620970  1
  O  O8  1  0.763336  0.530254  0.235401  1
  O  O9  1  0.530254  0.763336  0.735401  1
  O  O10  1  0.581688  0.053753  0.905710  1
  O  O11  1  0.053753  0.581688  0.405710  1
  O  O12  1  0.025837  0.371913  0.892010  1
  O  O13  1  0.371913  0.025837  0.392010  1
  O  O14  1  0.012676  0.764257  0.763095  1
  O  O15  1  0.764257  0.012676  0.263095  1
  O  O16  1  0.206210  0.159811  0.072881  1
  O  O17  1  0.159811  0.206210  0.572881  1
