# generated using pymatgen
data_Lu2CdCuNi
_symmetry_space_group_name_H-M   'P 1'
_cell_length_a   7.31355935
_cell_length_b   7.31355883
_cell_length_c   3.59839500
_cell_angle_alpha   90.00000000
_cell_angle_beta   90.00000000
_cell_angle_gamma   90.54155152
_symmetry_Int_Tables_number   1
_chemical_formula_structural   Lu2CdCuNi
_chemical_formula_sum   'Lu4 Cd2 Cu2 Ni2'
_cell_volume   192.46288185
_cell_formula_units_Z   2
loop_
 _symmetry_equiv_pos_site_id
 _symmetry_equiv_pos_as_xyz
  1  'x, y, z'
loop_
 _atom_site_type_symbol
 _atom_site_label
 _atom_site_symmetry_multiplicity
 _atom_site_fract_x
 _atom_site_fract_y
 _atom_site_fract_z
 _atom_site_occupancy
  Lu  Lu0  1  0.684142  0.184142  0.500000  1
  Lu  Lu1  1  0.315858  0.815858  0.500000  1
  Lu  Lu2  1  0.166256  0.333744  0.500000  1
  Lu  Lu3  1  0.833744  0.666256  0.500000  1
  Cd  Cd4  1  0.000000  0.000000  0.000000  1
  Cd  Cd5  1  0.500000  0.500000  0.000000  1
  Cu  Cu6  1  0.619810  0.880190  0.000000  1
  Cu  Cu7  1  0.380190  0.119810  0.000000  1
  Ni  Ni8  1  0.119972  0.619972  0.000000  1
  Ni  Ni9  1  0.880028  0.380028  0.000000  1
