# generated using pymatgen
data_Er16Cd4Ir2RuRh
_symmetry_space_group_name_H-M   'P 1'
_cell_length_a   9.59935871
_cell_length_b   9.59698929
_cell_length_c   9.57940878
_cell_angle_alpha   59.35193614
_cell_angle_beta   59.33248943
_cell_angle_gamma   59.41048671
_symmetry_Int_Tables_number   1
_chemical_formula_structural   Er16Cd4Ir2RuRh
_chemical_formula_sum   'Er16 Cd4 Ir2 Ru1 Rh1'
_cell_volume   615.00319946
_cell_formula_units_Z   1
loop_
 _symmetry_equiv_pos_site_id
 _symmetry_equiv_pos_as_xyz
  1  'x, y, z'
loop_
 _atom_site_type_symbol
 _atom_site_label
 _atom_site_symmetry_multiplicity
 _atom_site_fract_x
 _atom_site_fract_y
 _atom_site_fract_z
 _atom_site_occupancy
  Er  Er0  1  0.599480  0.599311  0.600490  1
  Er  Er1  1  0.598596  0.598612  0.207046  1
  Er  Er2  1  0.598983  0.206174  0.598499  1
  Er  Er3  1  0.206167  0.599037  0.598335  1
  Er  Er4  1  0.062425  0.438734  0.438299  1
  Er  Er5  1  0.437872  0.059557  0.060436  1
  Er  Er6  1  0.438809  0.062406  0.438296  1
  Er  Er7  1  0.059674  0.437754  0.060422  1
  Er  Er8  1  0.438503  0.438453  0.062024  1
  Er  Er9  1  0.059937  0.059847  0.437195  1
  Er  Er10  1  0.187573  0.814054  0.811456  1
  Er  Er11  1  0.809643  0.187963  0.187396  1
  Er  Er12  1  0.814329  0.187383  0.811476  1
  Er  Er13  1  0.188001  0.809675  0.187233  1
  Er  Er14  1  0.811575  0.811603  0.188818  1
  Er  Er15  1  0.187494  0.187596  0.809860  1
  Cd  Cd16  1  0.829637  0.829834  0.828936  1
  Cd  Cd17  1  0.830274  0.831024  0.505681  1
  Cd  Cd18  1  0.830317  0.505773  0.830494  1
  Cd  Cd19  1  0.506049  0.830218  0.830560  1
  Ir  Ir20  1  0.393834  0.825831  0.394675  1
  Ir  Ir21  1  0.825842  0.393661  0.394681  1
  Ru  Ru22  1  0.392222  0.392036  0.391130  1
  Rh  Rh23  1  0.392763  0.393464  0.826561  1
