# generated using pymatgen
data_YbTa5FeB4Ru9
_symmetry_space_group_name_H-M   'P 1'
_cell_length_a   9.41428446
_cell_length_b   9.41428457
_cell_length_c   3.05378100
_cell_angle_alpha   90.00000000
_cell_angle_beta   90.00000000
_cell_angle_gamma   90.02078396
_symmetry_Int_Tables_number   1
_chemical_formula_structural   YbTa5FeB4Ru9
_chemical_formula_sum   'Yb1 Ta5 Fe1 B4 Ru9'
_cell_volume   270.65278390
_cell_formula_units_Z   1
loop_
 _symmetry_equiv_pos_site_id
 _symmetry_equiv_pos_as_xyz
  1  'x, y, z'
loop_
 _atom_site_type_symbol
 _atom_site_label
 _atom_site_symmetry_multiplicity
 _atom_site_fract_x
 _atom_site_fract_y
 _atom_site_fract_z
 _atom_site_occupancy
  Yb  Yb0  1  0.823007  0.676993  0.000000  1
  Ta  Ta1  1  0.178548  0.321452  0.000000  1
  Ta  Ta2  1  0.329521  0.830044  0.000000  1
  Ta  Ta3  1  0.669956  0.170479  0.000000  1
  Ta  Ta4  1  0.503452  0.501389  0.000000  1
  Ta  Ta5  1  0.998611  0.996548  0.000000  1
  Fe  Fe6  1  0.495019  0.004981  0.500000  1
  B  B7  1  0.610186  0.889814  0.000000  1
  B  B8  1  0.386377  0.113623  0.000000  1
  B  B9  1  0.123618  0.619554  0.000000  1
  B  B10  1  0.880446  0.376382  0.000000  1
  Ru  Ru11  1  0.552619  0.731903  0.500000  1
  Ru  Ru12  1  0.429564  0.278545  0.500000  1
  Ru  Ru13  1  0.085675  0.783816  0.500000  1
  Ru  Ru14  1  0.931747  0.213838  0.500000  1
  Ru  Ru15  1  0.286162  0.568253  0.500000  1
  Ru  Ru16  1  0.716184  0.414325  0.500000  1
  Ru  Ru17  1  0.221455  0.070436  0.500000  1
  Ru  Ru18  1  0.768097  0.947381  0.500000  1
  Ru  Ru19  1  0.009755  0.490245  0.500000  1
