# generated using pymatgen
data_La6Pr13NdIr12
_symmetry_space_group_name_H-M   'P 1'
_cell_length_a   11.37754005
_cell_length_b   11.36544905
_cell_length_c   6.66449900
_cell_angle_alpha   90.00000000
_cell_angle_beta   90.00000000
_cell_angle_gamma   90.12759112
_symmetry_Int_Tables_number   1
_chemical_formula_structural   La6Pr13NdIr12
_chemical_formula_sum   'La6 Pr13 Nd1 Ir12'
_cell_volume   861.78990521
_cell_formula_units_Z   1
loop_
 _symmetry_equiv_pos_site_id
 _symmetry_equiv_pos_as_xyz
  1  'x, y, z'
loop_
 _atom_site_type_symbol
 _atom_site_label
 _atom_site_symmetry_multiplicity
 _atom_site_fract_x
 _atom_site_fract_y
 _atom_site_fract_z
 _atom_site_occupancy
  La  La0  1  0.091415  0.290803  0.114905  1
  La  La1  1  0.791226  0.408702  0.114588  1
  La  La2  1  0.208774  0.591298  0.114588  1
  La  La3  1  0.908585  0.709197  0.114905  1
  La  La4  1  0.409491  0.792459  0.385781  1
  La  La5  1  0.590509  0.207541  0.385781  1
  Pr  Pr6  1  0.290982  0.090593  0.384671  1
  Pr  Pr7  1  0.709018  0.909407  0.384671  1
  Pr  Pr8  1  0.409384  0.207717  0.883840  1
  Pr  Pr9  1  0.708330  0.089175  0.883692  1
  Pr  Pr10  1  0.291670  0.910825  0.883692  1
  Pr  Pr11  1  0.590616  0.792283  0.883840  1
  Pr  Pr12  1  0.089637  0.708366  0.615909  1
  Pr  Pr13  1  0.910363  0.291634  0.615909  1
  Pr  Pr14  1  0.208201  0.409454  0.615638  1
  Pr  Pr15  1  0.791799  0.590546  0.615638  1
  Pr  Pr16  1  0.000000  0.000000  0.999828  1
  Pr  Pr17  1  0.500000  0.500000  0.998271  1
  Pr  Pr18  1  0.500000  0.500000  0.500934  1
  Nd  Nd19  1  0.000000  0.000000  0.500793  1
  Ir  Ir20  1  0.153566  0.846600  0.251359  1
  Ir  Ir21  1  0.345803  0.346366  0.249835  1
  Ir  Ir22  1  0.654197  0.653634  0.249835  1
  Ir  Ir23  1  0.846434  0.153400  0.251359  1
  Ir  Ir24  1  0.346080  0.654151  0.750012  1
  Ir  Ir25  1  0.152194  0.153903  0.750481  1
  Ir  Ir26  1  0.847806  0.846097  0.750481  1
  Ir  Ir27  1  0.653920  0.345849  0.750012  1
  Ir  Ir28  1  0.000000  0.500000  0.376637  1
  Ir  Ir29  1  0.500000  0.000000  0.121397  1
  Ir  Ir30  1  0.500000  0.000000  0.617332  1
  Ir  Ir31  1  0.000000  0.500000  0.883385  1
