# generated using pymatgen
data_HfBe8Re2Mo
_symmetry_space_group_name_H-M   'P 1'
_cell_length_a   4.46979900
_cell_length_b   4.46979883
_cell_length_c   7.40591200
_cell_angle_alpha   90.00000000
_cell_angle_beta   90.00000000
_cell_angle_gamma   120.00000865
_symmetry_Int_Tables_number   1
_chemical_formula_structural   HfBe8Re2Mo
_chemical_formula_sum   'Hf1 Be8 Re2 Mo1'
_cell_volume   128.14011598
_cell_formula_units_Z   1
loop_
 _symmetry_equiv_pos_site_id
 _symmetry_equiv_pos_as_xyz
  1  'x, y, z'
loop_
 _atom_site_type_symbol
 _atom_site_label
 _atom_site_symmetry_multiplicity
 _atom_site_fract_x
 _atom_site_fract_y
 _atom_site_fract_z
 _atom_site_occupancy
  Hf  Hf0  1  0.333333  0.666667  0.063742  1
  Be  Be1  1  0.000000  0.000000  0.996432  1
  Be  Be2  1  0.000000  0.000000  0.499822  1
  Be  Be3  1  0.830940  0.661880  0.257437  1
  Be  Be4  1  0.168377  0.831623  0.746384  1
  Be  Be5  1  0.663245  0.831623  0.746384  1
  Be  Be6  1  0.338120  0.169060  0.257437  1
  Be  Be7  1  0.830940  0.169060  0.257437  1
  Be  Be8  1  0.168377  0.336755  0.746384  1
  Re  Re9  1  0.666667  0.333333  0.921584  1
  Re  Re10  1  0.333333  0.666667  0.442595  1
  Mo  Mo11  1  0.666667  0.333333  0.564360  1
