# generated using pymatgen
data_Hf2Ti2Ge4W
_symmetry_space_group_name_H-M   'P 1'
_cell_length_a   6.73150600
_cell_length_b   6.84005000
_cell_length_c   13.11617500
_cell_angle_alpha   90.00000000
_cell_angle_beta   90.00000000
_cell_angle_gamma   90.00000000
_symmetry_Int_Tables_number   1
_chemical_formula_structural   Hf2Ti2Ge4W
_chemical_formula_sum   'Hf8 Ti8 Ge16 W4'
_cell_volume   603.91903183
_cell_formula_units_Z   4
loop_
 _symmetry_equiv_pos_site_id
 _symmetry_equiv_pos_as_xyz
  1  'x, y, z'
loop_
 _atom_site_type_symbol
 _atom_site_label
 _atom_site_symmetry_multiplicity
 _atom_site_fract_x
 _atom_site_fract_y
 _atom_site_fract_z
 _atom_site_occupancy
  Hf  Hf0  1  0.487452  0.675033  0.590957  1
  Hf  Hf1  1  0.987452  0.824967  0.909043  1
  Hf  Hf2  1  0.512548  0.324967  0.090957  1
  Hf  Hf3  1  0.012548  0.175033  0.409043  1
  Hf  Hf4  1  0.512548  0.324967  0.409043  1
  Hf  Hf5  1  0.012548  0.175033  0.090957  1
  Hf  Hf6  1  0.487452  0.675033  0.909043  1
  Hf  Hf7  1  0.987452  0.824967  0.590957  1
  Ti  Ti8  1  0.659115  0.164886  0.624972  1
  Ti  Ti9  1  0.159115  0.335114  0.875028  1
  Ti  Ti10  1  0.340885  0.835114  0.124972  1
  Ti  Ti11  1  0.840885  0.664886  0.375028  1
  Ti  Ti12  1  0.340885  0.835114  0.375028  1
  Ti  Ti13  1  0.840885  0.664886  0.124972  1
  Ti  Ti14  1  0.659115  0.164886  0.875028  1
  Ti  Ti15  1  0.159115  0.335114  0.624972  1
  Ge  Ge16  1  0.683105  0.958796  0.459749  1
  Ge  Ge17  1  0.183105  0.541204  0.040251  1
  Ge  Ge18  1  0.316895  0.041204  0.959749  1
  Ge  Ge19  1  0.816895  0.458796  0.540251  1
  Ge  Ge20  1  0.316895  0.041204  0.540251  1
  Ge  Ge21  1  0.816895  0.458796  0.959749  1
  Ge  Ge22  1  0.683105  0.958796  0.040251  1
  Ge  Ge23  1  0.183105  0.541204  0.459749  1
  Ge  Ge24  1  0.461993  0.382142  0.750000  1
  Ge  Ge25  1  0.961993  0.117858  0.750000  1
  Ge  Ge26  1  0.538007  0.617858  0.250000  1
  Ge  Ge27  1  0.038007  0.882142  0.250000  1
  Ge  Ge28  1  0.691131  0.851764  0.750000  1
  Ge  Ge29  1  0.191131  0.648236  0.750000  1
  Ge  Ge30  1  0.308869  0.148236  0.250000  1
  Ge  Ge31  1  0.808869  0.351764  0.250000  1
  W  W32  1  0.833625  0.492562  0.750000  1
  W  W33  1  0.333625  0.007438  0.750000  1
  W  W34  1  0.166375  0.507438  0.250000  1
  W  W35  1  0.666375  0.992562  0.250000  1
