# generated using pymatgen
data_Li3La3CdSiAs
_symmetry_space_group_name_H-M   'P 1'
_cell_length_a   7.55928700
_cell_length_b   7.55928935
_cell_length_c   4.33795600
_cell_angle_alpha   90.00000000
_cell_angle_beta   90.00000000
_cell_angle_gamma   119.99999410
_symmetry_Int_Tables_number   1
_chemical_formula_structural   Li3La3CdSiAs
_chemical_formula_sum   'Li3 La3 Cd1 Si1 As1'
_cell_volume   214.67308811
_cell_formula_units_Z   1
loop_
 _symmetry_equiv_pos_site_id
 _symmetry_equiv_pos_as_xyz
  1  'x, y, z'
loop_
 _atom_site_type_symbol
 _atom_site_label
 _atom_site_symmetry_multiplicity
 _atom_site_fract_x
 _atom_site_fract_y
 _atom_site_fract_z
 _atom_site_occupancy
  Li  Li0  1  0.252140  0.999564  0.500000  1
  Li  Li1  1  0.747423  0.747860  0.500000  1
  Li  Li2  1  0.000436  0.252577  0.500000  1
  La  La3  1  0.995051  0.567561  0.000000  1
  La  La4  1  0.572510  0.004949  0.000000  1
  La  La5  1  0.432439  0.427490  0.000000  1
  Cd  Cd6  1  0.000000  0.000000  0.000000  1
  Si  Si7  1  0.666667  0.333333  0.500000  1
  As  As8  1  0.333333  0.666667  0.500000  1
