# generated using pymatgen
data_Ho20OsPt11
_symmetry_space_group_name_H-M   'P 1'
_cell_length_a   10.99812600
_cell_length_b   10.99812600
_cell_length_c   6.40688500
_cell_angle_alpha   90.00000000
_cell_angle_beta   90.00000000
_cell_angle_gamma   90.00000000
_symmetry_Int_Tables_number   1
_chemical_formula_structural   Ho20OsPt11
_chemical_formula_sum   'Ho20 Os1 Pt11'
_cell_volume   774.96896445
_cell_formula_units_Z   1
loop_
 _symmetry_equiv_pos_site_id
 _symmetry_equiv_pos_as_xyz
  1  'x, y, z'
loop_
 _atom_site_type_symbol
 _atom_site_label
 _atom_site_symmetry_multiplicity
 _atom_site_fract_x
 _atom_site_fract_y
 _atom_site_fract_z
 _atom_site_occupancy
  Ho  Ho0  1  0.293618  0.087473  0.371598  1
  Ho  Ho1  1  0.294335  0.912586  0.881137  1
  Ho  Ho2  1  0.705665  0.087414  0.881137  1
  Ho  Ho3  1  0.706382  0.912527  0.371598  1
  Ho  Ho4  1  0.587414  0.794335  0.881137  1
  Ho  Ho5  1  0.587473  0.206382  0.371598  1
  Ho  Ho6  1  0.412527  0.793618  0.371598  1
  Ho  Ho7  1  0.412586  0.205665  0.881137  1
  Ho  Ho8  1  0.207623  0.411686  0.623100  1
  Ho  Ho9  1  0.207476  0.587716  0.122474  1
  Ho  Ho10  1  0.792524  0.412284  0.122474  1
  Ho  Ho11  1  0.792377  0.588314  0.623100  1
  Ho  Ho12  1  0.912284  0.707476  0.122474  1
  Ho  Ho13  1  0.911686  0.292377  0.623100  1
  Ho  Ho14  1  0.088314  0.707623  0.623100  1
  Ho  Ho15  1  0.087716  0.292524  0.122474  1
  Ho  Ho16  1  0.000000  0.000000  0.499691  1
  Ho  Ho17  1  0.000000  0.000000  0.999181  1
  Ho  Ho18  1  0.500000  0.500000  0.999181  1
  Ho  Ho19  1  0.500000  0.500000  0.499691  1
  Os  Os20  1  0.500000  0.000000  0.123337  1
  Pt  Pt21  1  0.847409  0.154580  0.250315  1
  Pt  Pt22  1  0.847092  0.845885  0.749807  1
  Pt  Pt23  1  0.152908  0.154115  0.749807  1
  Pt  Pt24  1  0.152591  0.845420  0.250315  1
  Pt  Pt25  1  0.654115  0.347092  0.749807  1
  Pt  Pt26  1  0.654580  0.652591  0.250315  1
  Pt  Pt27  1  0.345420  0.347409  0.250315  1
  Pt  Pt28  1  0.345885  0.652908  0.749807  1
  Pt  Pt29  1  0.500000  0.000000  0.621190  1
  Pt  Pt30  1  0.000000  0.500000  0.881878  1
  Pt  Pt31  1  0.000000  0.500000  0.382128  1
