# generated using pymatgen
data_KRb3F12
_symmetry_space_group_name_H-M   'P 1'
_cell_length_a   7.18416528
_cell_length_b   4.76450340
_cell_length_c   9.19190768
_cell_angle_alpha   90.10639166
_cell_angle_beta   90.39159252
_cell_angle_gamma   89.78725147
_symmetry_Int_Tables_number   1
_chemical_formula_structural   KRb3F12
_chemical_formula_sum   'K1 Rb3 F12'
_cell_volume   314.61957809
_cell_formula_units_Z   1
loop_
 _symmetry_equiv_pos_site_id
 _symmetry_equiv_pos_as_xyz
  1  'x, y, z'
loop_
 _atom_site_type_symbol
 _atom_site_label
 _atom_site_symmetry_multiplicity
 _atom_site_fract_x
 _atom_site_fract_y
 _atom_site_fract_z
 _atom_site_occupancy
  K  K0  1  0.247136  0.170674  0.373057  1
  Rb  Rb1  1  0.264161  0.359607  0.873151  1
  Rb  Rb2  1  0.740916  0.848178  0.622528  1
  Rb  Rb3  1  0.766385  0.649845  0.128841  1
  F  F4  1  0.052059  0.067276  0.101326  1
  F  F5  1  0.450180  0.447941  0.584159  1
  F  F6  1  0.542561  0.938430  0.910338  1
  F  F7  1  0.955072  0.523497  0.412841  1
  F  F8  1  0.614574  0.025147  0.339696  1
  F  F9  1  0.867741  0.460243  0.842049  1
  F  F10  1  0.132193  0.987547  0.644118  1
  F  F11  1  0.371784  0.530387  0.165758  1
  F  F12  1  0.211139  0.796114  0.132250  1
  F  F13  1  0.291998  0.720027  0.612104  1
  F  F14  1  0.703695  0.202804  0.879718  1
  F  F15  1  0.785981  0.272283  0.378065  1
