# generated using pymatgen
data_La3Ce(PaOs3)2
_symmetry_space_group_name_H-M   'P 1'
_cell_length_a   5.89558400
_cell_length_b   5.89558269
_cell_length_c   8.42813800
_cell_angle_alpha   90.00000000
_cell_angle_beta   90.00000000
_cell_angle_gamma   120.00000736
_symmetry_Int_Tables_number   1
_chemical_formula_structural   La3Ce(PaOs3)2
_chemical_formula_sum   'La3 Ce1 Pa2 Os6'
_cell_volume   253.69727593
_cell_formula_units_Z   1
loop_
 _symmetry_equiv_pos_site_id
 _symmetry_equiv_pos_as_xyz
  1  'x, y, z'
loop_
 _atom_site_type_symbol
 _atom_site_label
 _atom_site_symmetry_multiplicity
 _atom_site_fract_x
 _atom_site_fract_y
 _atom_site_fract_z
 _atom_site_occupancy
  La  La0  1  0.333333  0.666667  0.428589  1
  La  La1  1  0.666667  0.333333  0.566502  1
  La  La2  1  0.666667  0.333333  0.934247  1
  Ce  Ce3  1  0.333333  0.666667  0.064060  1
  Pa  Pa4  1  0.000000  0.000000  0.999869  1
  Pa  Pa5  1  0.000000  0.000000  0.501117  1
  Os  Os6  1  0.168366  0.336730  0.753623  1
  Os  Os7  1  0.168366  0.831634  0.753623  1
  Os  Os8  1  0.334049  0.167026  0.248249  1
  Os  Os9  1  0.832974  0.665951  0.248249  1
  Os  Os10  1  0.663270  0.831634  0.753623  1
  Os  Os11  1  0.832974  0.167026  0.248249  1
