# generated using pymatgen
data_Ba8Li(Si4Hg)3
_symmetry_space_group_name_H-M   'P 1'
_cell_length_a   12.59090348
_cell_length_b   10.93439697
_cell_length_c   8.76611435
_cell_angle_alpha   78.60512755
_cell_angle_beta   58.33706711
_cell_angle_gamma   43.03951328
_symmetry_Int_Tables_number   1
_chemical_formula_structural   Ba8Li(Si4Hg)3
_chemical_formula_sum   'Ba8 Li1 Si12 Hg3'
_cell_volume   664.13947170
_cell_formula_units_Z   1
loop_
 _symmetry_equiv_pos_site_id
 _symmetry_equiv_pos_as_xyz
  1  'x, y, z'
loop_
 _atom_site_type_symbol
 _atom_site_label
 _atom_site_symmetry_multiplicity
 _atom_site_fract_x
 _atom_site_fract_y
 _atom_site_fract_z
 _atom_site_occupancy
  Ba  Ba0  1  0.874336  0.874708  0.126523  1
  Ba  Ba1  1  0.126523  0.124433  0.874336  1
  Ba  Ba2  1  0.371568  0.373095  0.128661  1
  Ba  Ba3  1  0.128661  0.126676  0.371568  1
  Ba  Ba4  1  0.623790  0.623487  0.375845  1
  Ba  Ba5  1  0.375845  0.376878  0.623790  1
  Ba  Ba6  1  0.627879  0.627357  0.871861  1
  Ba  Ba7  1  0.871861  0.872903  0.627879  1
  Li  Li8  1  0.417778  0.082222  0.417778  1
  Si  Si9  1  0.653856  0.337357  0.188159  1
  Si  Si10  1  0.821254  0.188820  0.336657  1
  Si  Si11  1  0.188159  0.820627  0.653856  1
  Si  Si12  1  0.336657  0.653270  0.821254  1
  Si  Si13  1  0.588542  0.911458  0.588542  1
  Si  Si14  1  0.905869  0.594131  0.905869  1
  Si  Si15  1  0.658925  0.341075  0.658925  1
  Si  Si16  1  0.340992  0.659008  0.340992  1
  Si  Si17  1  0.908572  0.597589  0.436125  1
  Si  Si18  1  0.068749  0.425565  0.591949  1
  Si  Si19  1  0.436125  0.057715  0.908572  1
  Si  Si20  1  0.591949  0.913738  0.068749  1
  Hg  Hg21  1  0.167784  0.832216  0.167784  1
  Hg  Hg22  1  0.832413  0.167587  0.832413  1
  Hg  Hg23  1  0.081913  0.418087  0.081913  1
