# generated using pymatgen
data_Ho11LuIn2FeTc2
_symmetry_space_group_name_H-M   'P 1'
_cell_length_a   8.38053708
_cell_length_b   8.37250245
_cell_length_c   8.37250166
_cell_angle_alpha   108.77782645
_cell_angle_beta   108.78940827
_cell_angle_gamma   110.81549366
_symmetry_Int_Tables_number   1
_chemical_formula_structural   Ho11LuIn2FeTc2
_chemical_formula_sum   'Ho11 Lu1 In2 Fe1 Tc2'
_cell_volume   452.26067071
_cell_formula_units_Z   1
loop_
 _symmetry_equiv_pos_site_id
 _symmetry_equiv_pos_as_xyz
  1  'x, y, z'
loop_
 _atom_site_type_symbol
 _atom_site_label
 _atom_site_symmetry_multiplicity
 _atom_site_fract_x
 _atom_site_fract_y
 _atom_site_fract_z
 _atom_site_occupancy
  Ho  Ho0  1  0.304875  0.305370  0.611578  1
  Ho  Ho1  1  0.692933  0.693467  0.389252  1
  Ho  Ho2  1  0.692933  0.303681  0.999465  1
  Ho  Ho3  1  0.304875  0.693297  0.999505  1
  Ho  Ho4  1  0.190972  0.432165  0.241744  1
  Ho  Ho5  1  0.806326  0.569792  0.762194  1
  Ho  Ho6  1  0.190972  0.949228  0.758808  1
  Ho  Ho7  1  0.949026  0.189789  0.759238  1
  Ho  Ho8  1  0.806326  0.044133  0.236535  1
  Ho  Ho9  1  0.044824  0.807095  0.237728  1
  Ho  Ho10  1  0.431694  0.190550  0.241143  1
  Lu  Lu11  1  0.570832  0.807628  0.763203  1
  In  In12  1  0.998159  0.498165  0.499994  1
  In  In13  1  0.497996  0.997282  0.500715  1
  Fe  Fe14  1  0.629980  0.630556  0.999424  1
  Tc  Tc15  1  0.387612  0.387656  0.999956  1
  Tc  Tc16  1  0.999666  0.000148  0.999518  1
