# generated using pymatgen
data_Gd3Dy5(NiB14)2
_symmetry_space_group_name_H-M   'P 1'
_cell_length_a   7.23498630
_cell_length_b   7.23327630
_cell_length_c   7.50187700
_cell_angle_alpha   90.00000000
_cell_angle_beta   90.00000000
_cell_angle_gamma   90.03293220
_symmetry_Int_Tables_number   1
_chemical_formula_structural   Gd3Dy5(NiB14)2
_chemical_formula_sum   'Gd3 Dy5 Ni2 B28'
_cell_volume   392.59307542
_cell_formula_units_Z   1
loop_
 _symmetry_equiv_pos_site_id
 _symmetry_equiv_pos_as_xyz
  1  'x, y, z'
loop_
 _atom_site_type_symbol
 _atom_site_label
 _atom_site_symmetry_multiplicity
 _atom_site_fract_x
 _atom_site_fract_y
 _atom_site_fract_z
 _atom_site_occupancy
  Gd  Gd0  1  0.194150  0.332029  0.000000  1
  Gd  Gd1  1  0.666877  0.194821  0.000000  1
  Gd  Gd2  1  0.332146  0.805643  0.000000  1
  Dy  Dy3  1  0.693501  0.168472  0.500000  1
  Dy  Dy4  1  0.306433  0.831579  0.500000  1
  Dy  Dy5  1  0.806320  0.667584  0.000000  1
  Dy  Dy6  1  0.831580  0.693524  0.500000  1
  Dy  Dy7  1  0.168567  0.306367  0.500000  1
  Ni  Ni8  1  0.000779  0.999952  0.000000  1
  Ni  Ni9  1  0.499795  0.499952  0.500000  1
  B  B10  1  0.174709  0.039758  0.232676  1
  B  B11  1  0.961073  0.174927  0.232666  1
  B  B12  1  0.039301  0.825053  0.232619  1
  B  B13  1  0.674636  0.460885  0.267728  1
  B  B14  1  0.325289  0.539138  0.267682  1
  B  B15  1  0.825369  0.960296  0.232734  1
  B  B16  1  0.539408  0.674440  0.267839  1
  B  B17  1  0.460232  0.325569  0.267816  1
  B  B18  1  0.825369  0.960296  0.767266  1
  B  B19  1  0.039301  0.825053  0.767381  1
  B  B20  1  0.961073  0.174927  0.767334  1
  B  B21  1  0.325289  0.539138  0.732318  1
  B  B22  1  0.674636  0.460885  0.732272  1
  B  B23  1  0.174709  0.039758  0.767324  1
  B  B24  1  0.460232  0.325569  0.732184  1
  B  B25  1  0.539408  0.674440  0.732161  1
  B  B26  1  0.089410  0.589138  0.250093  1
  B  B27  1  0.410435  0.089474  0.250301  1
  B  B28  1  0.589186  0.910468  0.250336  1
  B  B29  1  0.910884  0.410876  0.250098  1
  B  B30  1  0.910884  0.410876  0.749902  1
  B  B31  1  0.589186  0.910468  0.749664  1
  B  B32  1  0.410435  0.089474  0.749699  1
  B  B33  1  0.089410  0.589138  0.749907  1
  B  B34  1  0.000166  0.000059  0.388767  1
  B  B35  1  0.499831  0.499957  0.111653  1
  B  B36  1  0.000166  0.000059  0.611233  1
  B  B37  1  0.499831  0.499957  0.888347  1
