# generated using pymatgen
data_HfPa2(GaFe)3
_symmetry_space_group_name_H-M   'P 1'
_cell_length_a   6.98969808
_cell_length_b   6.98969868
_cell_length_c   3.60810300
_cell_angle_alpha   90.00000000
_cell_angle_beta   90.00000000
_cell_angle_gamma   121.39952931
_symmetry_Int_Tables_number   1
_chemical_formula_structural   HfPa2(GaFe)3
_chemical_formula_sum   'Hf1 Pa2 Ga3 Fe3'
_cell_volume   150.46217919
_cell_formula_units_Z   1
loop_
 _symmetry_equiv_pos_site_id
 _symmetry_equiv_pos_as_xyz
  1  'x, y, z'
loop_
 _atom_site_type_symbol
 _atom_site_label
 _atom_site_symmetry_multiplicity
 _atom_site_fract_x
 _atom_site_fract_y
 _atom_site_fract_z
 _atom_site_occupancy
  Hf  Hf0  1  0.592567  0.592567  0.500000  1
  Pa  Pa1  1  0.418201  0.001000  0.500000  1
  Pa  Pa2  1  0.001000  0.418201  0.500000  1
  Ga  Ga3  1  0.747380  0.980145  0.000000  1
  Ga  Ga4  1  0.980145  0.747380  0.000000  1
  Ga  Ga5  1  0.270375  0.270375  0.000000  1
  Fe  Fe6  1  0.312672  0.668578  0.000000  1
  Fe  Fe7  1  0.668578  0.312672  0.000000  1
  Fe  Fe8  1  0.009083  0.009083  0.500000  1
