# generated using pymatgen
data_LiScNi3Ir
_symmetry_space_group_name_H-M   'P 1'
_cell_length_a   4.97327550
_cell_length_b   4.97327600
_cell_length_c   4.97327573
_cell_angle_alpha   57.66280359
_cell_angle_beta   57.66279095
_cell_angle_gamma   57.66280659
_symmetry_Int_Tables_number   1
_chemical_formula_structural   LiScNi3Ir
_chemical_formula_sum   'Li1 Sc1 Ni3 Ir1'
_cell_volume   82.30711988
_cell_formula_units_Z   1
loop_
 _symmetry_equiv_pos_site_id
 _symmetry_equiv_pos_as_xyz
  1  'x, y, z'
loop_
 _atom_site_type_symbol
 _atom_site_label
 _atom_site_symmetry_multiplicity
 _atom_site_fract_x
 _atom_site_fract_y
 _atom_site_fract_z
 _atom_site_occupancy
  Li  Li0  1  0.002822  0.002822  0.002822  1
  Sc  Sc1  1  0.251816  0.251816  0.251816  1
  Ni  Ni2  1  0.624025  0.624025  0.122971  1
  Ni  Ni3  1  0.624025  0.122971  0.624025  1
  Ni  Ni4  1  0.122971  0.624025  0.624025  1
  Ir  Ir5  1  0.624341  0.624341  0.624341  1
