# generated using pymatgen
data_ScBe9Re2
_symmetry_space_group_name_H-M   'P 1'
_cell_length_a   7.53500824
_cell_length_b   7.53500780
_cell_length_c   7.53500904
_cell_angle_alpha   33.97964517
_cell_angle_beta   33.97963954
_cell_angle_gamma   33.97963772
_symmetry_Int_Tables_number   1
_chemical_formula_structural   ScBe9Re2
_chemical_formula_sum   'Sc1 Be9 Re2'
_cell_volume   119.11406714
_cell_formula_units_Z   1
loop_
 _symmetry_equiv_pos_site_id
 _symmetry_equiv_pos_as_xyz
  1  'x, y, z'
loop_
 _atom_site_type_symbol
 _atom_site_label
 _atom_site_symmetry_multiplicity
 _atom_site_fract_x
 _atom_site_fract_y
 _atom_site_fract_z
 _atom_site_occupancy
  Sc  Sc0  1  0.000000  0.000000  0.000000  1
  Be  Be1  1  0.500000  0.500000  0.500000  1
  Be  Be2  1  0.333456  0.333456  0.333457  1
  Be  Be3  1  0.666544  0.666544  0.666543  1
  Be  Be4  1  0.079474  0.586699  0.586699  1
  Be  Be5  1  0.586699  0.586699  0.079474  1
  Be  Be6  1  0.586699  0.079474  0.586699  1
  Be  Be7  1  0.413301  0.920526  0.413301  1
  Be  Be8  1  0.920526  0.413301  0.413301  1
  Be  Be9  1  0.413301  0.413301  0.920526  1
  Re  Re10  1  0.146455  0.146455  0.146455  1
  Re  Re11  1  0.853545  0.853545  0.853545  1
