# generated using pymatgen
data_Nd3BTeO9
_symmetry_space_group_name_H-M   'P 1'
_cell_length_a   8.84824100
_cell_length_b   8.84824023
_cell_length_c   5.62281300
_cell_angle_alpha   90.00000000
_cell_angle_beta   90.00000000
_cell_angle_gamma   120.00003652
_symmetry_Int_Tables_number   1
_chemical_formula_structural   Nd3BTeO9
_chemical_formula_sum   'Nd6 B2 Te2 O18'
_cell_volume   381.23956075
_cell_formula_units_Z   2
loop_
 _symmetry_equiv_pos_site_id
 _symmetry_equiv_pos_as_xyz
  1  'x, y, z'
loop_
 _atom_site_type_symbol
 _atom_site_label
 _atom_site_symmetry_multiplicity
 _atom_site_fract_x
 _atom_site_fract_y
 _atom_site_fract_z
 _atom_site_occupancy
  Nd  Nd0  1  0.351800  0.072868  0.204851  1
  Nd  Nd1  1  0.927133  0.278934  0.204851  1
  Nd  Nd2  1  0.721067  0.648200  0.204851  1
  Nd  Nd3  1  0.278934  0.351801  0.704850  1
  Nd  Nd4  1  0.072867  0.721067  0.704850  1
  Nd  Nd5  1  0.648200  0.927133  0.704850  1
  B  B6  1  0.000000  0.000000  0.373877  1
  B  B7  1  0.000000  0.000000  0.873876  1
  Te  Te8  1  0.333334  0.666667  0.246297  1
  Te  Te9  1  0.666666  0.333334  0.746298  1
  O  O10  1  0.537430  0.753814  0.045933  1
  O  O11  1  0.246186  0.783615  0.045933  1
  O  O12  1  0.216386  0.462571  0.045935  1
  O  O13  1  0.129442  0.173277  0.365463  1
  O  O14  1  0.043835  0.870558  0.365463  1
  O  O15  1  0.826722  0.956164  0.365463  1
  O  O16  1  0.132779  0.527094  0.461794  1
  O  O17  1  0.472906  0.605685  0.461794  1
  O  O18  1  0.394315  0.867220  0.461794  1
  O  O19  1  0.753814  0.216385  0.545934  1
  O  O20  1  0.462570  0.246185  0.545934  1
  O  O21  1  0.783614  0.537430  0.545934  1
  O  O22  1  0.173277  0.043835  0.865464  1
  O  O23  1  0.956164  0.129442  0.865464  1
  O  O24  1  0.870558  0.826722  0.865464  1
  O  O25  1  0.605684  0.132779  0.961792  1
  O  O26  1  0.867220  0.472905  0.961792  1
  O  O27  1  0.527094  0.394314  0.961794  1
