# generated using pymatgen
data_YTm3Mn4F28
_symmetry_space_group_name_H-M   'P 1'
_cell_length_a   5.39764350
_cell_length_b   8.64768100
_cell_length_c   11.62955049
_cell_angle_alpha   62.51259564
_cell_angle_beta   90.04648946
_cell_angle_gamma   90.00739215
_symmetry_Int_Tables_number   1
_chemical_formula_structural   YTm3Mn4F28
_chemical_formula_sum   'Y1 Tm3 Mn4 F28'
_cell_volume   481.55426923
_cell_formula_units_Z   1
loop_
 _symmetry_equiv_pos_site_id
 _symmetry_equiv_pos_as_xyz
  1  'x, y, z'
loop_
 _atom_site_type_symbol
 _atom_site_label
 _atom_site_symmetry_multiplicity
 _atom_site_fract_x
 _atom_site_fract_y
 _atom_site_fract_z
 _atom_site_occupancy
  Y  Y0  1  0.238208  0.812589  0.764103  1
  Tm  Tm1  1  0.262375  0.812557  0.263852  1
  Tm  Tm2  1  0.736979  0.190254  0.735927  1
  Tm  Tm3  1  0.762525  0.187876  0.236298  1
  Mn  Mn4  1  0.759471  0.725191  0.045287  1
  Mn  Mn5  1  0.240257  0.272347  0.957676  1
  Mn  Mn6  1  0.260442  0.275700  0.455717  1
  Mn  Mn7  1  0.741070  0.725354  0.541484  1
  F  F8  1  0.933208  0.705122  0.419296  1
  F  F9  1  0.066453  0.295276  0.577659  1
  F  F10  1  0.434083  0.293944  0.078877  1
  F  F11  1  0.568776  0.704513  0.922817  1
  F  F12  1  0.479934  0.728389  0.134991  1
  F  F13  1  0.519557  0.271601  0.866674  1
  F  F14  1  0.981396  0.272367  0.364765  1
  F  F15  1  0.021347  0.726841  0.630988  1
  F  F16  1  0.950553  0.742645  0.171734  1
  F  F17  1  0.047906  0.255832  0.830866  1
  F  F18  1  0.452592  0.258149  0.329447  1
  F  F19  1  0.553867  0.740949  0.669251  1
  F  F20  1  0.772031  0.485201  0.140031  1
  F  F21  1  0.225501  0.511408  0.862249  1
  F  F22  1  0.273513  0.515214  0.360648  1
  F  F23  1  0.727228  0.485518  0.637227  1
  F  F24  1  0.953363  0.279439  0.042906  1
  F  F25  1  0.046833  0.717572  0.961578  1
  F  F26  1  0.452557  0.719451  0.457208  1
  F  F27  1  0.546672  0.281346  0.541437  1
  F  F28  1  0.741138  0.964024  0.451366  1
  F  F29  1  0.259770  0.037387  0.545991  1
  F  F30  1  0.240968  0.034154  0.048576  1
  F  F31  1  0.759704  0.963475  0.953111  1
  F  F32  1  0.590176  0.971017  0.228798  1
  F  F33  1  0.407641  0.035454  0.772106  1
  F  F34  1  0.090342  0.029427  0.271418  1
  F  F35  1  0.901564  0.972416  0.727641  1
