# generated using pymatgen
data_TbEr4Zr3(Co4As3)4
_symmetry_space_group_name_H-M   'P 1'
_cell_length_a   12.74272600
_cell_length_b   12.74272613
_cell_length_c   3.83220500
_cell_angle_alpha   90.00000000
_cell_angle_beta   90.00000000
_cell_angle_gamma   120.00000486
_symmetry_Int_Tables_number   1
_chemical_formula_structural   TbEr4Zr3(Co4As3)4
_chemical_formula_sum   'Tb1 Er4 Zr3 Co16 As12'
_cell_volume   538.89485539
_cell_formula_units_Z   1
loop_
 _symmetry_equiv_pos_site_id
 _symmetry_equiv_pos_as_xyz
  1  'x, y, z'
loop_
 _atom_site_type_symbol
 _atom_site_label
 _atom_site_symmetry_multiplicity
 _atom_site_fract_x
 _atom_site_fract_y
 _atom_site_fract_z
 _atom_site_occupancy
  Tb  Tb0  1  0.333333  0.666667  0.000000  1
  Er  Er1  1  0.182568  0.182557  0.500000  1
  Er  Er2  1  0.817443  0.000011  0.500000  1
  Er  Er3  1  0.999989  0.817432  0.500000  1
  Er  Er4  1  0.666667  0.333333  0.000000  1
  Zr  Zr5  1  0.561012  0.560809  0.000000  1
  Zr  Zr6  1  0.439191  0.000203  0.000000  1
  Zr  Zr7  1  0.999797  0.438988  0.000000  1
  Co  Co8  1  0.720504  0.720378  0.500000  1
  Co  Co9  1  0.279622  0.000126  0.500000  1
  Co  Co10  1  0.999874  0.279496  0.500000  1
  Co  Co11  1  0.177660  0.373021  0.000000  1
  Co  Co12  1  0.626979  0.804639  0.000000  1
  Co  Co13  1  0.195361  0.822340  0.000000  1
  Co  Co14  1  0.804530  0.626662  0.000000  1
  Co  Co15  1  0.822132  0.195470  0.000000  1
  Co  Co16  1  0.373338  0.177868  0.000000  1
  Co  Co17  1  0.357344  0.479508  0.500000  1
  Co  Co18  1  0.520492  0.877837  0.500000  1
  Co  Co19  1  0.122163  0.642656  0.500000  1
  Co  Co20  1  0.877202  0.519869  0.500000  1
  Co  Co21  1  0.642668  0.122798  0.500000  1
  Co  Co22  1  0.480131  0.357332  0.500000  1
  Co  Co23  1  0.000000  0.000000  0.000000  1
  As  As24  1  0.823282  0.823228  0.000000  1
  As  As25  1  0.176772  0.000054  0.000000  1
  As  As26  1  0.999946  0.176718  0.000000  1
  As  As27  1  0.173204  0.481250  0.500000  1
  As  As28  1  0.518750  0.691953  0.500000  1
  As  As29  1  0.308047  0.826796  0.500000  1
  As  As30  1  0.691784  0.517788  0.500000  1
  As  As31  1  0.826004  0.308216  0.500000  1
  As  As32  1  0.482212  0.173996  0.500000  1
  As  As33  1  0.351278  0.351335  0.000000  1
  As  As34  1  0.648665  0.999944  0.000000  1
  As  As35  1  0.000056  0.648722  0.000000  1
