# generated using pymatgen
data_Er7Tm13(Tl2Ir)4
_symmetry_space_group_name_H-M   'P 1'
_cell_length_a   7.89532401
_cell_length_b   8.96834100
_cell_length_c   12.43975400
_cell_angle_alpha   90.00000000
_cell_angle_beta   89.99733671
_cell_angle_gamma   90.00000000
_symmetry_Int_Tables_number   1
_chemical_formula_structural   Er7Tm13(Tl2Ir)4
_chemical_formula_sum   'Er7 Tm13 Tl8 Ir4'
_cell_volume   880.83357798
_cell_formula_units_Z   1
loop_
 _symmetry_equiv_pos_site_id
 _symmetry_equiv_pos_as_xyz
  1  'x, y, z'
loop_
 _atom_site_type_symbol
 _atom_site_label
 _atom_site_symmetry_multiplicity
 _atom_site_fract_x
 _atom_site_fract_y
 _atom_site_fract_z
 _atom_site_occupancy
  Er  Er0  1  0.887078  0.250000  0.190404  1
  Er  Er1  1  0.612777  0.250000  0.690625  1
  Er  Er2  1  0.386953  0.750000  0.309500  1
  Er  Er3  1  0.547579  0.750000  0.998965  1
  Er  Er4  1  0.452121  0.250000  0.000885  1
  Er  Er5  1  0.048205  0.250000  0.501001  1
  Er  Er6  1  0.952153  0.750000  0.498972  1
  Tm  Tm7  1  0.654718  0.750000  0.719195  1
  Tm  Tm8  1  0.345660  0.250000  0.280634  1
  Tm  Tm9  1  0.154217  0.250000  0.780814  1
  Tm  Tm10  1  0.845446  0.750000  0.219391  1
  Tm  Tm11  1  0.112375  0.750000  0.810205  1
  Tm  Tm12  1  0.827462  0.461963  0.925123  1
  Tm  Tm13  1  0.172420  0.538186  0.074420  1
  Tm  Tm14  1  0.327585  0.538152  0.574870  1
  Tm  Tm15  1  0.172420  0.961814  0.074420  1
  Tm  Tm16  1  0.672489  0.461906  0.425254  1
  Tm  Tm17  1  0.827462  0.038037  0.925123  1
  Tm  Tm18  1  0.672489  0.038094  0.425254  1
  Tm  Tm19  1  0.327585  0.961848  0.574870  1
  Tl  Tl20  1  0.921231  0.006783  0.667639  1
  Tl  Tl21  1  0.079542  0.993045  0.332280  1
  Tl  Tl22  1  0.419959  0.992661  0.832484  1
  Tl  Tl23  1  0.079542  0.506955  0.332280  1
  Tl  Tl24  1  0.579504  0.007027  0.167607  1
  Tl  Tl25  1  0.921231  0.493217  0.667639  1
  Tl  Tl26  1  0.579504  0.492973  0.167607  1
  Tl  Tl27  1  0.419959  0.507339  0.832484  1
  Ir  Ir28  1  0.923379  0.750000  0.998913  1
  Ir  Ir29  1  0.076552  0.250000  0.001088  1
  Ir  Ir30  1  0.423803  0.250000  0.501110  1
  Ir  Ir31  1  0.576594  0.750000  0.498945  1
