# generated using pymatgen
data_Lu12GaNi4Sn
_symmetry_space_group_name_H-M   'P 1'
_cell_length_a   8.18584020
_cell_length_b   8.18584117
_cell_length_c   8.18584153
_cell_angle_alpha   112.22818867
_cell_angle_beta   110.31467427
_cell_angle_gamma   105.93388031
_symmetry_Int_Tables_number   1
_chemical_formula_structural   Lu12GaNi4Sn
_chemical_formula_sum   'Lu12 Ga1 Ni4 Sn1'
_cell_volume   420.92538892
_cell_formula_units_Z   1
loop_
 _symmetry_equiv_pos_site_id
 _symmetry_equiv_pos_as_xyz
  1  'x, y, z'
loop_
 _atom_site_type_symbol
 _atom_site_label
 _atom_site_symmetry_multiplicity
 _atom_site_fract_x
 _atom_site_fract_y
 _atom_site_fract_z
 _atom_site_occupancy
  Lu  Lu0  1  0.675400  0.867130  0.191730  1
  Lu  Lu1  1  0.324600  0.516331  0.191730  1
  Lu  Lu2  1  0.819898  0.785272  0.605170  1
  Lu  Lu3  1  0.180102  0.785272  0.965374  1
  Lu  Lu4  1  0.819898  0.214728  0.034626  1
  Lu  Lu5  1  0.180102  0.214728  0.394830  1
  Lu  Lu6  1  0.675400  0.483669  0.808270  1
  Lu  Lu7  1  0.324600  0.132870  0.808270  1
  Lu  Lu8  1  0.568752  0.268555  0.300196  1
  Lu  Lu9  1  0.431248  0.731445  0.699804  1
  Lu  Lu10  1  0.031642  0.731445  0.300196  1
  Lu  Lu11  1  0.968358  0.268555  0.699804  1
  Ga  Ga12  1  0.000000  0.500000  0.500000  1
  Ni  Ni13  1  0.349044  0.500000  0.849044  1
  Ni  Ni14  1  0.650956  0.500000  0.150956  1
  Ni  Ni15  1  0.876484  0.876484  0.000000  1
  Ni  Ni16  1  0.123516  0.123516  0.000000  1
  Sn  Sn17  1  0.500000  0.000000  0.500000  1
