# generated using pymatgen
data_Tm2HfSnIr2
_symmetry_space_group_name_H-M   'P 1'
_cell_length_a   4.35343900
_cell_length_b   7.03648100
_cell_length_c   8.37778800
_cell_angle_alpha   90.00000000
_cell_angle_beta   90.00000000
_cell_angle_gamma   90.00000000
_symmetry_Int_Tables_number   1
_chemical_formula_structural   Tm2HfSnIr2
_chemical_formula_sum   'Tm4 Hf2 Sn2 Ir4'
_cell_volume   256.63586502
_cell_formula_units_Z   2
loop_
 _symmetry_equiv_pos_site_id
 _symmetry_equiv_pos_as_xyz
  1  'x, y, z'
loop_
 _atom_site_type_symbol
 _atom_site_label
 _atom_site_symmetry_multiplicity
 _atom_site_fract_x
 _atom_site_fract_y
 _atom_site_fract_z
 _atom_site_occupancy
  Tm  Tm0  1  0.250000  0.029997  0.331246  1
  Tm  Tm1  1  0.250000  0.529997  0.168754  1
  Tm  Tm2  1  0.750000  0.971138  0.678574  1
  Tm  Tm3  1  0.750000  0.471138  0.821426  1
  Hf  Hf4  1  0.250000  0.133356  0.938272  1
  Hf  Hf5  1  0.250000  0.633356  0.561728  1
  Sn  Sn6  1  0.750000  0.852835  0.072205  1
  Sn  Sn7  1  0.750000  0.352835  0.427795  1
  Ir  Ir8  1  0.250000  0.263426  0.634936  1
  Ir  Ir9  1  0.250000  0.763426  0.865064  1
  Ir  Ir10  1  0.750000  0.749246  0.396277  1
  Ir  Ir11  1  0.750000  0.249246  0.103723  1
