# generated using pymatgen
data_NdEr2(AlIr2)3
_symmetry_space_group_name_H-M   'P 1'
_cell_length_a   5.56275000
_cell_length_b   5.56265006
_cell_length_c   15.78752100
_cell_angle_alpha   90.00000000
_cell_angle_beta   90.00000000
_cell_angle_gamma   119.99911955
_symmetry_Int_Tables_number   1
_chemical_formula_structural   NdEr2(AlIr2)3
_chemical_formula_sum   'Nd2 Er4 Al6 Ir12'
_cell_volume   423.07728415
_cell_formula_units_Z   2
loop_
 _symmetry_equiv_pos_site_id
 _symmetry_equiv_pos_as_xyz
  1  'x, y, z'
loop_
 _atom_site_type_symbol
 _atom_site_label
 _atom_site_symmetry_multiplicity
 _atom_site_fract_x
 _atom_site_fract_y
 _atom_site_fract_z
 _atom_site_occupancy
  Nd  Nd0  1  0.333309  0.666641  0.750000  1
  Nd  Nd1  1  0.666691  0.333359  0.250000  1
  Er  Er2  1  0.333338  0.666662  0.539435  1
  Er  Er3  1  0.666662  0.333338  0.460565  1
  Er  Er4  1  0.666662  0.333338  0.039435  1
  Er  Er5  1  0.333338  0.666662  0.960565  1
  Al  Al6  1  0.000010  0.999995  0.250000  1
  Al  Al7  1  0.999990  0.000005  0.750000  1
  Al  Al8  1  0.333334  0.666669  0.250000  1
  Al  Al9  1  0.666666  0.333331  0.750000  1
  Al  Al10  1  0.000000  0.000000  0.000000  1
  Al  Al11  1  0.000000  0.000000  0.500000  1
  Ir  Ir12  1  0.169053  0.338114  0.124952  1
  Ir  Ir13  1  0.830947  0.661886  0.875048  1
  Ir  Ir14  1  0.661886  0.830946  0.124950  1
  Ir  Ir15  1  0.830947  0.661886  0.624952  1
  Ir  Ir16  1  0.338114  0.169054  0.875050  1
  Ir  Ir17  1  0.169053  0.338114  0.375048  1
  Ir  Ir18  1  0.169058  0.830945  0.124951  1
  Ir  Ir19  1  0.338114  0.169054  0.624950  1
  Ir  Ir20  1  0.830942  0.169055  0.875049  1
  Ir  Ir21  1  0.661886  0.830946  0.375050  1
  Ir  Ir22  1  0.830942  0.169055  0.624951  1
  Ir  Ir23  1  0.169058  0.830945  0.375049  1
