# generated using pymatgen
data_La8Ti(Pd7Pt)3
_symmetry_space_group_name_H-M   'P 1'
_cell_length_a   8.51865500
_cell_length_b   8.52123300
_cell_length_c   8.52565900
_cell_angle_alpha   90.00000000
_cell_angle_beta   90.00000000
_cell_angle_gamma   90.00000000
_symmetry_Int_Tables_number   1
_chemical_formula_structural   La8Ti(Pd7Pt)3
_chemical_formula_sum   'La8 Ti1 Pd21 Pt3'
_cell_volume   618.87284741
_cell_formula_units_Z   1
loop_
 _symmetry_equiv_pos_site_id
 _symmetry_equiv_pos_as_xyz
  1  'x, y, z'
loop_
 _atom_site_type_symbol
 _atom_site_label
 _atom_site_symmetry_multiplicity
 _atom_site_fract_x
 _atom_site_fract_y
 _atom_site_fract_z
 _atom_site_occupancy
  La  La0  1  0.251346  0.251566  0.251428  1
  La  La1  1  0.747705  0.747865  0.747552  1
  La  La2  1  0.747705  0.747865  0.252448  1
  La  La3  1  0.748654  0.251566  0.748572  1
  La  La4  1  0.251346  0.251566  0.748572  1
  La  La5  1  0.252295  0.747865  0.252448  1
  La  La6  1  0.252295  0.747865  0.747552  1
  La  La7  1  0.748654  0.251566  0.251428  1
  Ti  Ti8  1  0.000000  0.007241  0.000000  1
  Pd  Pd9  1  0.263958  0.500180  0.000000  1
  Pd  Pd10  1  0.736042  0.500180  0.000000  1
  Pd  Pd11  1  0.000000  0.263339  0.500000  1
  Pd  Pd12  1  0.500000  0.262390  0.000000  1
  Pd  Pd13  1  0.000000  0.735142  0.500000  1
  Pd  Pd14  1  0.500000  0.735530  0.000000  1
  Pd  Pd15  1  0.500000  0.999981  0.263461  1
  Pd  Pd16  1  0.264085  0.000039  0.500000  1
  Pd  Pd17  1  0.500000  0.999981  0.736539  1
  Pd  Pd18  1  0.735915  0.000039  0.500000  1
  Pd  Pd19  1  0.000000  0.500282  0.263921  1
  Pd  Pd20  1  0.000000  0.500282  0.736079  1
  Pd  Pd21  1  0.254673  0.499694  0.500000  1
  Pd  Pd22  1  0.745327  0.499694  0.500000  1
  Pd  Pd23  1  0.500000  0.254682  0.500000  1
  Pd  Pd24  1  0.500000  0.745362  0.500000  1
  Pd  Pd25  1  0.500000  0.499677  0.254631  1
  Pd  Pd26  1  0.500000  0.499677  0.745369  1
  Pd  Pd27  1  0.000000  0.703859  0.000000  1
  Pd  Pd28  1  0.000000  0.998592  0.300861  1
  Pd  Pd29  1  0.000000  0.998592  0.699139  1
  Pt  Pt30  1  0.296135  0.998111  0.000000  1
  Pt  Pt31  1  0.703865  0.998111  0.000000  1
  Pt  Pt32  1  0.000000  0.301614  0.000000  1
