# generated using pymatgen
data_Yb2Co3P4Ru3
_symmetry_space_group_name_H-M   'P 1'
_cell_length_a   3.83970000
_cell_length_b   10.67708005
_cell_length_c   12.52011100
_cell_angle_alpha   89.81600740
_cell_angle_beta   90.00000000
_cell_angle_gamma   90.00000000
_symmetry_Int_Tables_number   1
_chemical_formula_structural   Yb2Co3P4Ru3
_chemical_formula_sum   'Yb6 Co9 P12 Ru9'
_cell_volume   513.28164323
_cell_formula_units_Z   3
loop_
 _symmetry_equiv_pos_site_id
 _symmetry_equiv_pos_as_xyz
  1  'x, y, z'
loop_
 _atom_site_type_symbol
 _atom_site_label
 _atom_site_symmetry_multiplicity
 _atom_site_fract_x
 _atom_site_fract_y
 _atom_site_fract_z
 _atom_site_occupancy
  Yb  Yb0  1  0.000000  0.500624  0.526365  1
  Yb  Yb1  1  0.500000  0.001117  0.471373  1
  Yb  Yb2  1  0.500000  0.820960  0.201767  1
  Yb  Yb3  1  0.500000  0.180260  0.201882  1
  Yb  Yb4  1  0.000000  0.678003  0.799213  1
  Yb  Yb5  1  0.000000  0.321731  0.797792  1
  Co  Co6  1  0.000000  0.498335  0.985392  1
  Co  Co7  1  0.500000  0.000092  0.017567  1
  Co  Co8  1  0.000000  0.375470  0.279704  1
  Co  Co9  1  0.500000  0.329985  0.989991  1
  Co  Co10  1  0.500000  0.666900  0.992022  1
  Co  Co11  1  0.000000  0.169294  0.012423  1
  Co  Co12  1  0.000000  0.830925  0.011263  1
  Co  Co13  1  0.500000  0.499969  0.703516  1
  Co  Co14  1  0.000000  0.001501  0.296844  1
  P  P15  1  0.500000  0.314451  0.615133  1
  P  P16  1  0.500000  0.687590  0.618113  1
  P  P17  1  0.000000  0.192051  0.377089  1
  P  P18  1  0.000000  0.811579  0.380786  1
  P  P19  1  0.500000  0.499057  0.883687  1
  P  P20  1  0.000000  0.000034  0.118315  1
  P  P21  1  0.500000  0.845704  0.902712  1
  P  P22  1  0.500000  0.153422  0.900896  1
  P  P23  1  0.000000  0.652266  0.099850  1
  P  P24  1  0.000000  0.345962  0.103221  1
  P  P25  1  0.500000  0.499672  0.333754  1
  P  P26  1  0.000000  0.001245  0.667258  1
  Ru  Ru27  1  0.500000  0.303537  0.422594  1
  Ru  Ru28  1  0.500000  0.700539  0.428247  1
  Ru  Ru29  1  0.000000  0.203283  0.567438  1
  Ru  Ru30  1  0.000000  0.800749  0.571207  1
  Ru  Ru31  1  0.500000  0.875125  0.719701  1
  Ru  Ru32  1  0.500000  0.126111  0.716883  1
  Ru  Ru33  1  0.000000  0.618554  0.282284  1
  Ru  Ru34  1  0.500000  0.492029  0.147531  1
  Ru  Ru35  1  0.000000  0.001872  0.856186  1
