# generated using pymatgen
data_Yb4USiIr6
_symmetry_space_group_name_H-M   'P 1'
_cell_length_a   5.63585400
_cell_length_b   5.63585423
_cell_length_c   7.86157700
_cell_angle_alpha   90.00000000
_cell_angle_beta   90.00000000
_cell_angle_gamma   119.99999866
_symmetry_Int_Tables_number   1
_chemical_formula_structural   Yb4USiIr6
_chemical_formula_sum   'Yb4 U1 Si1 Ir6'
_cell_volume   216.25183210
_cell_formula_units_Z   1
loop_
 _symmetry_equiv_pos_site_id
 _symmetry_equiv_pos_as_xyz
  1  'x, y, z'
loop_
 _atom_site_type_symbol
 _atom_site_label
 _atom_site_symmetry_multiplicity
 _atom_site_fract_x
 _atom_site_fract_y
 _atom_site_fract_z
 _atom_site_occupancy
  Yb  Yb0  1  0.333333  0.666667  0.575126  1
  Yb  Yb1  1  0.666667  0.333333  0.424874  1
  Yb  Yb2  1  0.666667  0.333333  0.066232  1
  Yb  Yb3  1  0.333333  0.666667  0.933768  1
  U  U4  1  0.000000  0.000000  0.500000  1
  Si  Si5  1  0.000000  0.000000  0.000000  1
  Ir  Ir6  1  0.829423  0.170577  0.757243  1
  Ir  Ir7  1  0.658848  0.829423  0.242757  1
  Ir  Ir8  1  0.170577  0.829423  0.242757  1
  Ir  Ir9  1  0.829423  0.658848  0.757243  1
  Ir  Ir10  1  0.170577  0.341152  0.242757  1
  Ir  Ir11  1  0.341152  0.170577  0.757243  1
