# generated using pymatgen
data_Ti4GaSbRh10
_symmetry_space_group_name_H-M   'P 1'
_cell_length_a   4.01575500
_cell_length_b   5.46590763
_cell_length_c   10.78285025
_cell_angle_alpha   90.42947261
_cell_angle_beta   90.00000000
_cell_angle_gamma   90.00000000
_symmetry_Int_Tables_number   1
_chemical_formula_structural   Ti4GaSbRh10
_chemical_formula_sum   'Ti4 Ga1 Sb1 Rh10'
_cell_volume   236.67417410
_cell_formula_units_Z   1
loop_
 _symmetry_equiv_pos_site_id
 _symmetry_equiv_pos_as_xyz
  1  'x, y, z'
loop_
 _atom_site_type_symbol
 _atom_site_label
 _atom_site_symmetry_multiplicity
 _atom_site_fract_x
 _atom_site_fract_y
 _atom_site_fract_z
 _atom_site_occupancy
  Ti  Ti0  1  0.500000  0.324813  0.147904  1
  Ti  Ti1  1  0.500000  0.675187  0.852096  1
  Ti  Ti2  1  0.500000  0.817582  0.364273  1
  Ti  Ti3  1  0.500000  0.182418  0.635727  1
  Ga  Ga4  1  0.000000  0.500000  0.500000  1
  Sb  Sb5  1  0.000000  0.000000  0.000000  1
  Rh  Rh6  1  0.000000  0.000000  0.500000  1
  Rh  Rh7  1  0.000000  0.500000  0.000000  1
  Rh  Rh8  1  0.000000  0.064782  0.249446  1
  Rh  Rh9  1  0.000000  0.935218  0.750554  1
  Rh  Rh10  1  0.000000  0.561640  0.256435  1
  Rh  Rh11  1  0.000000  0.438360  0.743565  1
  Rh  Rh12  1  0.500000  0.301776  0.388990  1
  Rh  Rh13  1  0.500000  0.698224  0.611010  1
  Rh  Rh14  1  0.500000  0.793274  0.118952  1
  Rh  Rh15  1  0.500000  0.206726  0.881048  1
