# generated using pymatgen
data_La4GaSn7Pt4
_symmetry_space_group_name_H-M   'P 1'
_cell_length_a   10.25692572
_cell_length_b   10.30529968
_cell_length_c   10.30529900
_cell_angle_alpha   154.10672798
_cell_angle_beta   124.82684338
_cell_angle_gamma   61.95053252
_symmetry_Int_Tables_number   1
_chemical_formula_structural   La4GaSn7Pt4
_chemical_formula_sum   'La4 Ga1 Sn7 Pt4'
_cell_volume   387.58986202
_cell_formula_units_Z   1
loop_
 _symmetry_equiv_pos_site_id
 _symmetry_equiv_pos_as_xyz
  1  'x, y, z'
loop_
 _atom_site_type_symbol
 _atom_site_label
 _atom_site_symmetry_multiplicity
 _atom_site_fract_x
 _atom_site_fract_y
 _atom_site_fract_z
 _atom_site_occupancy
  La  La0  1  0.763967  0.998435  0.765531  1
  La  La1  1  0.230072  0.999454  0.230618  1
  La  La2  1  0.213332  0.207521  0.005812  1
  La  La3  1  0.794193  0.796093  0.998101  1
  Ga  Ga4  1  0.464445  0.801923  0.662523  1
  Sn  Sn5  1  0.418737  0.417147  0.001589  1
  Sn  Sn6  1  0.577591  0.579714  0.997877  1
  Sn  Sn7  1  0.916921  0.422015  0.494906  1
  Sn  Sn8  1  0.076891  0.578664  0.498227  1
  Sn  Sn9  1  0.858318  0.199819  0.658499  1
  Sn  Sn10  1  0.156136  0.803011  0.353124  1
  Sn  Sn11  1  0.542360  0.198578  0.343782  1
  Pt  Pt12  1  0.098389  0.353646  0.744744  1
  Pt  Pt13  1  0.898762  0.647436  0.251324  1
  Pt  Pt14  1  0.595417  0.347779  0.247639  1
  Pt  Pt15  1  0.394469  0.648765  0.745704  1
