# generated using pymatgen
data_Nd6Tm10Cd4OsPt3
_symmetry_space_group_name_H-M   'P 1'
_cell_length_a   9.71148571
_cell_length_b   9.71148629
_cell_length_c   9.71148675
_cell_angle_alpha   59.86453185
_cell_angle_beta   59.86453581
_cell_angle_gamma   59.86453723
_symmetry_Int_Tables_number   1
_chemical_formula_structural   Nd6Tm10Cd4OsPt3
_chemical_formula_sum   'Nd6 Tm10 Cd4 Os1 Pt3'
_cell_volume   645.66173809
_cell_formula_units_Z   1
loop_
 _symmetry_equiv_pos_site_id
 _symmetry_equiv_pos_as_xyz
  1  'x, y, z'
loop_
 _atom_site_type_symbol
 _atom_site_label
 _atom_site_symmetry_multiplicity
 _atom_site_fract_x
 _atom_site_fract_y
 _atom_site_fract_z
 _atom_site_occupancy
  Nd  Nd0  1  0.938969  0.561135  0.561135  1
  Nd  Nd1  1  0.555160  0.941584  0.941584  1
  Nd  Nd2  1  0.561135  0.938969  0.561135  1
  Nd  Nd3  1  0.941584  0.555160  0.941584  1
  Nd  Nd4  1  0.561135  0.561135  0.938969  1
  Nd  Nd5  1  0.941584  0.941584  0.555160  1
  Tm  Tm6  1  0.351061  0.351061  0.351061  1
  Tm  Tm7  1  0.347313  0.347313  0.955423  1
  Tm  Tm8  1  0.347313  0.955423  0.347313  1
  Tm  Tm9  1  0.955423  0.347313  0.347313  1
  Tm  Tm10  1  0.817316  0.186230  0.186230  1
  Tm  Tm11  1  0.183106  0.812339  0.812339  1
  Tm  Tm12  1  0.186230  0.817316  0.186230  1
  Tm  Tm13  1  0.812339  0.183106  0.812339  1
  Tm  Tm14  1  0.186230  0.186230  0.817316  1
  Tm  Tm15  1  0.812339  0.812339  0.183106  1
  Cd  Cd16  1  0.578656  0.578656  0.578656  1
  Cd  Cd17  1  0.579758  0.579758  0.259910  1
  Cd  Cd18  1  0.579758  0.259910  0.579758  1
  Cd  Cd19  1  0.259910  0.579758  0.579758  1
  Os  Os20  1  0.142633  0.142633  0.142633  1
  Pt  Pt21  1  0.143249  0.143249  0.574551  1
  Pt  Pt22  1  0.143249  0.574551  0.143249  1
  Pt  Pt23  1  0.574551  0.143249  0.143249  1
