# generated using pymatgen
data_CaAc11Ni12
_symmetry_space_group_name_H-M   'P 1'
_cell_length_a   4.20082600
_cell_length_b   12.16230401
_cell_length_c   12.08420490
_cell_angle_alpha   89.96560175
_cell_angle_beta   90.00000000
_cell_angle_gamma   90.00000000
_symmetry_Int_Tables_number   1
_chemical_formula_structural   CaAc11Ni12
_chemical_formula_sum   'Ca1 Ac11 Ni12'
_cell_volume   617.40273698
_cell_formula_units_Z   1
loop_
 _symmetry_equiv_pos_site_id
 _symmetry_equiv_pos_as_xyz
  1  'x, y, z'
loop_
 _atom_site_type_symbol
 _atom_site_label
 _atom_site_symmetry_multiplicity
 _atom_site_fract_x
 _atom_site_fract_y
 _atom_site_fract_z
 _atom_site_occupancy
  Ca  Ca0  1  0.750000  0.500099  0.633744  1
  Ac  Ac1  1  0.250000  0.663845  0.859638  1
  Ac  Ac2  1  0.250000  0.831272  0.366282  1
  Ac  Ac3  1  0.750000  0.335241  0.134441  1
  Ac  Ac4  1  0.750000  0.166080  0.635097  1
  Ac  Ac5  1  0.250000  0.335618  0.860872  1
  Ac  Ac6  1  0.250000  0.169052  0.366952  1
  Ac  Ac7  1  0.750000  0.665239  0.133374  1
  Ac  Ac8  1  0.750000  0.834057  0.634398  1
  Ac  Ac9  1  0.250000  0.000291  0.865083  1
  Ac  Ac10  1  0.250000  0.499823  0.376427  1
  Ac  Ac11  1  0.750000  0.999556  0.133806  1
  Ni  Ni12  1  0.250000  0.329983  0.561542  1
  Ni  Ni13  1  0.250000  0.167497  0.057499  1
  Ni  Ni14  1  0.750000  0.668576  0.446411  1
  Ni  Ni15  1  0.750000  0.831770  0.938662  1
  Ni  Ni16  1  0.250000  0.670263  0.559472  1
  Ni  Ni17  1  0.250000  0.832065  0.053826  1
  Ni  Ni18  1  0.750000  0.331456  0.448443  1
  Ni  Ni19  1  0.750000  0.167974  0.942245  1
  Ni  Ni20  1  0.250000  0.000188  0.556812  1
  Ni  Ni21  1  0.250000  0.500094  0.055400  1
  Ni  Ni22  1  0.750000  0.000081  0.440293  1
  Ni  Ni23  1  0.750000  0.499882  0.939281  1
