# generated using pymatgen
data_Ca6Al11Si13Os8
_symmetry_space_group_name_H-M   'P 1'
_cell_length_a   8.64780500
_cell_length_b   8.69548936
_cell_length_c   9.33860805
_cell_angle_alpha   90.01046530
_cell_angle_beta   90.00042069
_cell_angle_gamma   119.81730072
_symmetry_Int_Tables_number   1
_chemical_formula_structural   Ca6Al11Si13Os8
_chemical_formula_sum   'Ca6 Al11 Si13 Os8'
_cell_volume   609.26928020
_cell_formula_units_Z   1
loop_
 _symmetry_equiv_pos_site_id
 _symmetry_equiv_pos_as_xyz
  1  'x, y, z'
loop_
 _atom_site_type_symbol
 _atom_site_label
 _atom_site_symmetry_multiplicity
 _atom_site_fract_x
 _atom_site_fract_y
 _atom_site_fract_z
 _atom_site_occupancy
  Ca  Ca0  1  0.190893  0.381814  0.251243  1
  Ca  Ca1  1  0.805431  0.610832  0.750038  1
  Ca  Ca2  1  0.617272  0.807778  0.249375  1
  Ca  Ca3  1  0.378811  0.192847  0.748631  1
  Ca  Ca4  1  0.190508  0.807753  0.249362  1
  Ca  Ca5  1  0.814044  0.192867  0.748642  1
  Al  Al6  1  0.833292  0.666639  0.422410  1
  Al  Al7  1  0.667472  0.833315  0.578863  1
  Al  Al8  1  0.833078  0.666214  0.077825  1
  Al  Al9  1  0.336440  0.167397  0.420620  1
  Al  Al10  1  0.167037  0.334045  0.925437  1
  Al  Al11  1  0.165947  0.833279  0.578856  1
  Al  Al12  1  0.334487  0.167597  0.077196  1
  Al  Al13  1  0.830874  0.167346  0.420633  1
  Al  Al14  1  0.666126  0.831966  0.921531  1
  Al  Al15  1  0.833046  0.167621  0.077196  1
  Al  Al16  1  0.165896  0.831960  0.921531  1
  Si  Si17  1  0.333154  0.666254  0.044735  1
  Si  Si18  1  0.665838  0.331718  0.954958  1
  Si  Si19  1  0.666153  0.332344  0.545602  1
  Si  Si20  1  0.334654  0.669259  0.455029  1
  Si  Si21  1  0.168758  0.337596  0.572364  1
  Si  Si22  1  0.561356  0.122776  0.249106  1
  Si  Si23  1  0.440366  0.880609  0.750003  1
  Si  Si24  1  0.875741  0.437039  0.250059  1
  Si  Si25  1  0.127538  0.563972  0.750958  1
  Si  Si26  1  0.561243  0.436997  0.250062  1
  Si  Si27  1  0.436432  0.563962  0.750953  1
  Si  Si28  1  0.999462  0.998897  0.251290  1
  Si  Si29  1  0.993530  0.987068  0.751778  1
  Os  Os30  1  0.499776  0.999556  0.999377  1
  Os  Os31  1  0.999832  0.499595  0.999587  1
  Os  Os32  1  0.499791  0.999573  0.499939  1
  Os  Os33  1  0.499759  0.499586  0.999585  1
  Os  Os34  1  0.004248  0.498207  0.501076  1
  Os  Os35  1  0.493953  0.498211  0.501081  1
  Os  Os36  1  0.000823  0.001650  0.000464  1
  Os  Os37  1  0.006937  0.013862  0.502602  1
