# generated using pymatgen
data_Y4Ho2Al24Ru5Pt2Rh
_symmetry_space_group_name_H-M   'P 1'
_cell_length_a   8.85169457
_cell_length_b   8.84089159
_cell_length_c   9.51765700
_cell_angle_alpha   90.21310115
_cell_angle_beta   90.02061606
_cell_angle_gamma   119.83599619
_symmetry_Int_Tables_number   1
_chemical_formula_structural   Y4Ho2Al24Ru5Pt2Rh
_chemical_formula_sum   'Y4 Ho2 Al24 Ru5 Pt2 Rh1'
_cell_volume   646.09161297
_cell_formula_units_Z   1
loop_
 _symmetry_equiv_pos_site_id
 _symmetry_equiv_pos_as_xyz
  1  'x, y, z'
loop_
 _atom_site_type_symbol
 _atom_site_label
 _atom_site_symmetry_multiplicity
 _atom_site_fract_x
 _atom_site_fract_y
 _atom_site_fract_z
 _atom_site_occupancy
  Y  Y0  1  0.189591  0.385864  0.251547  1
  Y  Y1  1  0.810409  0.614136  0.748453  1
  Y  Y2  1  0.615657  0.809735  0.250750  1
  Y  Y3  1  0.384343  0.190265  0.749250  1
  Ho  Ho4  1  0.192610  0.805645  0.249915  1
  Ho  Ho5  1  0.807390  0.194355  0.750085  1
  Al  Al6  1  0.329137  0.662778  0.027168  1
  Al  Al7  1  0.670863  0.337222  0.972832  1
  Al  Al8  1  0.669781  0.329776  0.525787  1
  Al  Al9  1  0.330219  0.670224  0.474213  1
  Al  Al10  1  0.158641  0.325908  0.577463  1
  Al  Al11  1  0.841359  0.674092  0.422537  1
  Al  Al12  1  0.675020  0.842054  0.576809  1
  Al  Al13  1  0.838237  0.674184  0.077331  1
  Al  Al14  1  0.324980  0.157946  0.423191  1
  Al  Al15  1  0.161763  0.325816  0.922669  1
  Al  Al16  1  0.164170  0.836372  0.577001  1
  Al  Al17  1  0.324588  0.166351  0.077797  1
  Al  Al18  1  0.835830  0.163628  0.422999  1
  Al  Al19  1  0.675412  0.833649  0.922203  1
  Al  Al20  1  0.841011  0.168296  0.077286  1
  Al  Al21  1  0.158989  0.831704  0.922714  1
  Al  Al22  1  0.561882  0.125325  0.253356  1
  Al  Al23  1  0.438118  0.874675  0.746644  1
  Al  Al24  1  0.877725  0.440244  0.249751  1
  Al  Al25  1  0.122275  0.559756  0.750249  1
  Al  Al26  1  0.563521  0.437642  0.246821  1
  Al  Al27  1  0.436479  0.562358  0.753179  1
  Al  Al28  1  0.998043  0.999644  0.250006  1
  Al  Al29  1  0.001957  0.000356  0.749994  1
  Ru  Ru30  1  0.000000  0.500000  0.000000  1
  Ru  Ru31  1  0.500000  0.000000  0.500000  1
  Ru  Ru32  1  0.000000  0.500000  0.500000  1
  Ru  Ru33  1  0.000000  0.000000  0.000000  1
  Ru  Ru34  1  0.000000  0.000000  0.500000  1
  Pt  Pt35  1  0.500000  0.000000  0.000000  1
  Pt  Pt36  1  0.500000  0.500000  0.500000  1
  Rh  Rh37  1  0.500000  0.500000  0.000000  1
