# generated using pymatgen
data_Tb3ErRe5Os3
_symmetry_space_group_name_H-M   'P 1'
_cell_length_a   5.38162176
_cell_length_b   5.25654228
_cell_length_c   9.04590712
_cell_angle_alpha   90.00000001
_cell_angle_beta   90.01623112
_cell_angle_gamma   119.23410804
_symmetry_Int_Tables_number   1
_chemical_formula_structural   Tb3ErRe5Os3
_chemical_formula_sum   'Tb3 Er1 Re5 Os3'
_cell_volume   223.30390614
_cell_formula_units_Z   1
loop_
 _symmetry_equiv_pos_site_id
 _symmetry_equiv_pos_as_xyz
  1  'x, y, z'
loop_
 _atom_site_type_symbol
 _atom_site_label
 _atom_site_symmetry_multiplicity
 _atom_site_fract_x
 _atom_site_fract_y
 _atom_site_fract_z
 _atom_site_occupancy
  Tb  Tb0  1  0.332621  0.666311  0.437655  1
  Tb  Tb1  1  0.670329  0.335165  0.563730  1
  Tb  Tb2  1  0.670363  0.335182  0.936498  1
  Er  Er3  1  0.331961  0.665980  0.062610  1
  Re  Re4  1  0.829718  0.169510  0.249181  1
  Re  Re5  1  0.829718  0.660208  0.249181  1
  Re  Re6  1  0.344616  0.172308  0.249077  1
  Re  Re7  1  0.163117  0.829185  0.750667  1
  Re  Re8  1  0.163117  0.333932  0.750667  1
  Os  Os9  1  0.010352  0.005176  0.500472  1
  Os  Os10  1  0.010616  0.005308  0.999491  1
  Os  Os11  1  0.643472  0.821736  0.750772  1
