# generated using pymatgen
data_CePrSm4(SiPt5)2
_symmetry_space_group_name_H-M   'P 1'
_cell_length_a   8.34685146
_cell_length_b   8.32370282
_cell_length_c   8.32370240
_cell_angle_alpha   127.02099508
_cell_angle_beta   126.11456310
_cell_angle_gamma   78.89469878
_symmetry_Int_Tables_number   1
_chemical_formula_structural   CePrSm4(SiPt5)2
_chemical_formula_sum   'Ce1 Pr1 Sm4 Si2 Pt10'
_cell_volume   361.00333642
_cell_formula_units_Z   1
loop_
 _symmetry_equiv_pos_site_id
 _symmetry_equiv_pos_as_xyz
  1  'x, y, z'
loop_
 _atom_site_type_symbol
 _atom_site_label
 _atom_site_symmetry_multiplicity
 _atom_site_fract_x
 _atom_site_fract_y
 _atom_site_fract_z
 _atom_site_occupancy
  Ce  Ce0  1  0.776158  0.050575  0.725582  1
  Pr  Pr1  1  0.229255  0.948515  0.280740  1
  Sm  Sm2  1  0.829709  0.550209  0.279499  1
  Sm  Sm3  1  0.611482  0.250697  0.360785  1
  Sm  Sm4  1  0.171488  0.450199  0.721289  1
  Sm  Sm5  1  0.389638  0.749149  0.640490  1
  Si  Si6  1  0.216401  0.251170  0.965231  1
  Si  Si7  1  0.786967  0.749770  0.037197  1
  Pt  Pt8  1  0.169820  0.902672  0.857666  1
  Pt  Pt9  1  0.827207  0.095795  0.135494  1
  Pt  Pt10  1  0.458055  0.191336  0.862185  1
  Pt  Pt11  1  0.545512  0.403882  0.735276  1
  Pt  Pt12  1  0.827207  0.691713  0.731413  1
  Pt  Pt13  1  0.458055  0.595872  0.266720  1
  Pt  Pt14  1  0.545512  0.810236  0.141630  1
  Pt  Pt15  1  0.169820  0.312155  0.267148  1
  Pt  Pt16  1  0.993856  0.003683  0.501484  1
  Pt  Pt17  1  0.993856  0.492372  0.990173  1
