# generated using pymatgen
data_NpMn4CrP3
_symmetry_space_group_name_H-M   'P 1'
_cell_length_a   3.52707500
_cell_length_b   10.40851200
_cell_length_c   11.90767200
_cell_angle_alpha   90.00000000
_cell_angle_beta   90.00000000
_cell_angle_gamma   90.00000000
_symmetry_Int_Tables_number   1
_chemical_formula_structural   NpMn4CrP3
_chemical_formula_sum   'Np4 Mn16 Cr4 P12'
_cell_volume   437.14972072
_cell_formula_units_Z   4
loop_
 _symmetry_equiv_pos_site_id
 _symmetry_equiv_pos_as_xyz
  1  'x, y, z'
loop_
 _atom_site_type_symbol
 _atom_site_label
 _atom_site_symmetry_multiplicity
 _atom_site_fract_x
 _atom_site_fract_y
 _atom_site_fract_z
 _atom_site_occupancy
  Np  Np0  1  0.250000  0.586374  0.706287  1
  Np  Np1  1  0.250000  0.913626  0.206287  1
  Np  Np2  1  0.750000  0.413626  0.293713  1
  Np  Np3  1  0.750000  0.086374  0.793713  1
  Mn  Mn4  1  0.250000  0.407671  0.488245  1
  Mn  Mn5  1  0.250000  0.092329  0.988245  1
  Mn  Mn6  1  0.750000  0.592329  0.511755  1
  Mn  Mn7  1  0.750000  0.907671  0.011755  1
  Mn  Mn8  1  0.250000  0.212885  0.179944  1
  Mn  Mn9  1  0.250000  0.287115  0.679944  1
  Mn  Mn10  1  0.750000  0.787115  0.820056  1
  Mn  Mn11  1  0.750000  0.712885  0.320056  1
  Mn  Mn12  1  0.250000  0.887132  0.696625  1
  Mn  Mn13  1  0.250000  0.612868  0.196625  1
  Mn  Mn14  1  0.750000  0.112868  0.303375  1
  Mn  Mn15  1  0.750000  0.387132  0.803375  1
  Mn  Mn16  1  0.250000  0.467864  0.934549  1
  Mn  Mn17  1  0.250000  0.032136  0.434549  1
  Mn  Mn18  1  0.750000  0.532136  0.065451  1
  Mn  Mn19  1  0.750000  0.967864  0.565451  1
  Cr  Cr20  1  0.250000  0.707751  0.985489  1
  Cr  Cr21  1  0.250000  0.792249  0.485489  1
  Cr  Cr22  1  0.750000  0.292249  0.014511  1
  Cr  Cr23  1  0.750000  0.207751  0.514511  1
  P  P24  1  0.250000  0.409215  0.114393  1
  P  P25  1  0.250000  0.090785  0.614393  1
  P  P26  1  0.750000  0.590785  0.885607  1
  P  P27  1  0.750000  0.909215  0.385607  1
  P  P28  1  0.250000  0.267694  0.873717  1
  P  P29  1  0.250000  0.232306  0.373717  1
  P  P30  1  0.750000  0.732306  0.126283  1
  P  P31  1  0.750000  0.767694  0.626283  1
  P  P32  1  0.250000  0.595225  0.388055  1
  P  P33  1  0.250000  0.904775  0.888055  1
  P  P34  1  0.750000  0.404775  0.611945  1
  P  P35  1  0.750000  0.095225  0.111945  1
