# generated using pymatgen
data_ErLu6P12Rh17
_symmetry_space_group_name_H-M   'P 1'
_cell_length_a   3.92831300
_cell_length_b   11.22503600
_cell_length_c   12.80264700
_cell_angle_alpha   90.00000000
_cell_angle_beta   90.00000000
_cell_angle_gamma   90.00000000
_symmetry_Int_Tables_number   1
_chemical_formula_structural   ErLu6P12Rh17
_chemical_formula_sum   'Er1 Lu6 P12 Rh17'
_cell_volume   564.53854268
_cell_formula_units_Z   1
loop_
 _symmetry_equiv_pos_site_id
 _symmetry_equiv_pos_as_xyz
  1  'x, y, z'
loop_
 _atom_site_type_symbol
 _atom_site_label
 _atom_site_symmetry_multiplicity
 _atom_site_fract_x
 _atom_site_fract_y
 _atom_site_fract_z
 _atom_site_occupancy
  Er  Er0  1  0.500000  0.500000  0.157762  1
  Lu  Lu1  1  0.000000  0.500000  0.524275  1
  Lu  Lu2  1  0.500000  0.000000  0.476317  1
  Lu  Lu3  1  0.500000  0.818255  0.207273  1
  Lu  Lu4  1  0.500000  0.181745  0.207273  1
  Lu  Lu5  1  0.000000  0.682580  0.795741  1
  Lu  Lu6  1  0.000000  0.317420  0.795741  1
  P  P7  1  0.500000  0.500000  0.875388  1
  P  P8  1  0.000000  0.000000  0.123377  1
  P  P9  1  0.500000  0.500000  0.368644  1
  P  P10  1  0.000000  0.000000  0.645266  1
  P  P11  1  0.500000  0.314778  0.620853  1
  P  P12  1  0.500000  0.685222  0.620853  1
  P  P13  1  0.000000  0.183578  0.384520  1
  P  P14  1  0.000000  0.816422  0.384520  1
  P  P15  1  0.500000  0.852322  0.887695  1
  P  P16  1  0.500000  0.147678  0.887695  1
  P  P17  1  0.000000  0.665775  0.105573  1
  P  P18  1  0.000000  0.334225  0.105573  1
  Rh  Rh19  1  0.000000  0.000000  0.827591  1
  Rh  Rh20  1  0.500000  0.500000  0.699368  1
  Rh  Rh21  1  0.000000  0.000000  0.300254  1
  Rh  Rh22  1  0.000000  0.500000  0.978786  1
  Rh  Rh23  1  0.500000  0.000000  0.025138  1
  Rh  Rh24  1  0.500000  0.327357  0.981750  1
  Rh  Rh25  1  0.500000  0.672643  0.981750  1
  Rh  Rh26  1  0.000000  0.162024  0.003672  1
  Rh  Rh27  1  0.000000  0.837976  0.003672  1
  Rh  Rh28  1  0.500000  0.286963  0.436398  1
  Rh  Rh29  1  0.500000  0.713037  0.436398  1
  Rh  Rh30  1  0.000000  0.201723  0.572179  1
  Rh  Rh31  1  0.000000  0.798277  0.572179  1
  Rh  Rh32  1  0.500000  0.874539  0.709113  1
  Rh  Rh33  1  0.500000  0.125461  0.709113  1
  Rh  Rh34  1  0.000000  0.630305  0.294151  1
  Rh  Rh35  1  0.000000  0.369695  0.294151  1
