# generated using pymatgen
data_Ho2Er10Os3Ru
_symmetry_space_group_name_H-M   'P 1'
_cell_length_a   6.28519200
_cell_length_b   7.34017580
_cell_length_c   8.99677200
_cell_angle_alpha   90.00000000
_cell_angle_beta   90.00000000
_cell_angle_gamma   89.93337656
_symmetry_Int_Tables_number   1
_chemical_formula_structural   Ho2Er10Os3Ru
_chemical_formula_sum   'Ho2 Er10 Os3 Ru1'
_cell_volume   415.06052558
_cell_formula_units_Z   1
loop_
 _symmetry_equiv_pos_site_id
 _symmetry_equiv_pos_as_xyz
  1  'x, y, z'
loop_
 _atom_site_type_symbol
 _atom_site_label
 _atom_site_symmetry_multiplicity
 _atom_site_fract_x
 _atom_site_fract_y
 _atom_site_fract_z
 _atom_site_occupancy
  Ho  Ho0  1  0.133190  0.459918  0.750000  1
  Ho  Ho1  1  0.368760  0.958498  0.750000  1
  Er  Er2  1  0.330256  0.675687  0.064449  1
  Er  Er3  1  0.168825  0.175168  0.437051  1
  Er  Er4  1  0.667801  0.324579  0.562780  1
  Er  Er5  1  0.832876  0.825571  0.937855  1
  Er  Er6  1  0.667801  0.324579  0.937220  1
  Er  Er7  1  0.832876  0.825571  0.562145  1
  Er  Er8  1  0.330256  0.675687  0.435551  1
  Er  Er9  1  0.168825  0.175168  0.062949  1
  Er  Er10  1  0.868443  0.539371  0.250000  1
  Er  Er11  1  0.631153  0.039810  0.250000  1
  Os  Os12  1  0.038438  0.883445  0.250000  1
  Os  Os13  1  0.461438  0.383696  0.250000  1
  Os  Os14  1  0.960935  0.116781  0.750000  1
  Ru  Ru15  1  0.538122  0.616472  0.750000  1
