# generated using pymatgen
data_Tb3Dy(AuBr6)4
_symmetry_space_group_name_H-M   'P 1'
_cell_length_a   8.31579014
_cell_length_b   10.45427284
_cell_length_c   14.88139578
_cell_angle_alpha   103.33420367
_cell_angle_beta   96.45016796
_cell_angle_gamma   112.71360828
_symmetry_Int_Tables_number   1
_chemical_formula_structural   Tb3Dy(AuBr6)4
_chemical_formula_sum   'Tb3 Dy1 Au4 Br24'
_cell_volume   1131.61037037
_cell_formula_units_Z   1
loop_
 _symmetry_equiv_pos_site_id
 _symmetry_equiv_pos_as_xyz
  1  'x, y, z'
loop_
 _atom_site_type_symbol
 _atom_site_label
 _atom_site_symmetry_multiplicity
 _atom_site_fract_x
 _atom_site_fract_y
 _atom_site_fract_z
 _atom_site_occupancy
  Tb  Tb0  1  0.420106  0.075783  0.378038  1
  Tb  Tb1  1  0.975557  0.313062  0.870979  1
  Tb  Tb2  1  0.024454  0.686930  0.129005  1
  Dy  Dy3  1  0.580088  0.924651  0.621937  1
  Au  Au4  1  0.295120  0.631903  0.762626  1
  Au  Au5  1  0.704950  0.368161  0.237369  1
  Au  Au6  1  0.500008  0.500071  0.500006  1
  Au  Au7  1  0.000000  0.999999  0.999999  1
  Br  Br8  1  0.610087  0.737647  0.748022  1
  Br  Br9  1  0.389800  0.262637  0.251766  1
  Br  Br10  1  0.279006  0.849678  0.732414  1
  Br  Br11  1  0.721391  0.150353  0.267449  1
  Br  Br12  1  0.977417  0.529514  0.772602  1
  Br  Br13  1  0.022571  0.470490  0.227407  1
  Br  Br14  1  0.309681  0.410482  0.788535  1
  Br  Br15  1  0.690322  0.589500  0.211468  1
  Br  Br16  1  0.686476  0.364126  0.506390  1
  Br  Br17  1  0.314204  0.636505  0.493905  1
  Br  Br18  1  0.763590  0.733083  0.527684  1
  Br  Br19  1  0.236156  0.267076  0.472413  1
  Br  Br20  1  0.790765  0.112552  0.976950  1
  Br  Br21  1  0.209241  0.887454  0.023051  1
  Br  Br22  1  0.768766  0.792023  0.032945  1
  Br  Br23  1  0.231218  0.207973  0.967034  1
  Br  Br24  1  0.620325  0.191827  0.745791  1
  Br  Br25  1  0.379513  0.807376  0.253833  1
  Br  Br26  1  0.944615  0.056861  0.727133  1
  Br  Br27  1  0.054400  0.942759  0.272584  1
  Br  Br28  1  0.721526  0.046633  0.481592  1
  Br  Br29  1  0.278670  0.952923  0.519101  1
  Br  Br30  1  0.767149  0.437100  0.976601  1
  Br  Br31  1  0.232828  0.562867  0.023370  1
