# generated using pymatgen
data_Zr3Sc2Re13Tc11
_symmetry_space_group_name_H-M   'P 1'
_cell_length_a   8.45277689
_cell_length_b   8.45733956
_cell_length_c   8.45785567
_cell_angle_alpha   109.60272146
_cell_angle_beta   109.45560999
_cell_angle_gamma   109.37071023
_symmetry_Int_Tables_number   1
_chemical_formula_structural   Zr3Sc2Re13Tc11
_chemical_formula_sum   'Zr3 Sc2 Re13 Tc11'
_cell_volume   465.35857978
_cell_formula_units_Z   1
loop_
 _symmetry_equiv_pos_site_id
 _symmetry_equiv_pos_as_xyz
  1  'x, y, z'
loop_
 _atom_site_type_symbol
 _atom_site_label
 _atom_site_symmetry_multiplicity
 _atom_site_fract_x
 _atom_site_fract_y
 _atom_site_fract_z
 _atom_site_occupancy
  Zr  Zr0  1  0.370792  0.372610  0.369970  1
  Zr  Zr1  1  0.001775  0.629393  0.000938  1
  Zr  Zr2  1  0.630336  0.000964  0.001713  1
  Sc  Sc3  1  0.998199  0.998430  0.627151  1
  Sc  Sc4  1  0.000145  0.999707  0.997359  1
  Re  Re5  1  0.377845  0.000706  0.195110  1
  Re  Re6  1  0.000032  0.377565  0.194980  1
  Re  Re7  1  0.815956  0.623930  0.623215  1
  Re  Re8  1  0.184266  0.807853  0.807656  1
  Re  Re9  1  0.806920  0.182299  0.807428  1
  Re  Re10  1  0.192937  0.000904  0.376927  1
  Re  Re11  1  0.000150  0.193483  0.377778  1
  Re  Re12  1  0.624425  0.624064  0.819951  1
  Re  Re13  1  0.394981  0.999256  0.675193  1
  Re  Re14  1  0.604555  0.278562  0.602137  1
  Re  Re15  1  0.673239  0.394084  0.999063  1
  Re  Re16  1  0.393784  0.672548  0.998407  1
  Re  Re17  1  0.325139  0.325879  0.721336  1
  Tc  Tc18  1  0.999359  0.395746  0.676764  1
  Tc  Tc19  1  0.279951  0.604527  0.602379  1
  Tc  Tc20  1  0.719967  0.324956  0.322344  1
  Tc  Tc21  1  0.325793  0.720522  0.324131  1
  Tc  Tc22  1  0.676544  0.000612  0.396971  1
  Tc  Tc23  1  0.000639  0.677061  0.397972  1
  Tc  Tc24  1  0.605839  0.605895  0.280134  1
  Tc  Tc25  1  0.805960  0.805618  0.182122  1
  Tc  Tc26  1  0.372926  0.192283  0.998043  1
  Tc  Tc27  1  0.192210  0.372826  0.998370  1
  Tc  Tc28  1  0.625336  0.817720  0.624460  1
