# generated using pymatgen
data_Dy4Tc5Ge8Mo
_symmetry_space_group_name_H-M   'P 1'
_cell_length_a   6.95781308
_cell_length_b   6.96333274
_cell_length_c   6.94542412
_cell_angle_alpha   69.62263322
_cell_angle_beta   90.03438155
_cell_angle_gamma   90.26327366
_symmetry_Int_Tables_number   1
_chemical_formula_structural   Dy4Tc5Ge8Mo
_chemical_formula_sum   'Dy4 Tc5 Ge8 Mo1'
_cell_volume   315.44081015
_cell_formula_units_Z   1
loop_
 _symmetry_equiv_pos_site_id
 _symmetry_equiv_pos_as_xyz
  1  'x, y, z'
loop_
 _atom_site_type_symbol
 _atom_site_label
 _atom_site_symmetry_multiplicity
 _atom_site_fract_x
 _atom_site_fract_y
 _atom_site_fract_z
 _atom_site_occupancy
  Dy  Dy0  1  0.830056  0.053416  0.807404  1
  Dy  Dy1  1  0.329676  0.446382  0.193128  1
  Dy  Dy2  1  0.169944  0.946584  0.192596  1
  Dy  Dy3  1  0.670324  0.553618  0.806872  1
  Tc  Tc4  1  0.000000  0.500000  0.500000  1
  Tc  Tc5  1  0.353035  0.254343  0.756132  1
  Tc  Tc6  1  0.852542  0.242682  0.237652  1
  Tc  Tc7  1  0.646965  0.745657  0.243868  1
  Tc  Tc8  1  0.147458  0.757318  0.762348  1
  Ge  Ge9  1  0.054769  0.369378  0.896116  1
  Ge  Ge10  1  0.550549  0.134604  0.097701  1
  Ge  Ge11  1  0.945231  0.630622  0.103884  1
  Ge  Ge12  1  0.449451  0.865396  0.902299  1
  Ge  Ge13  1  0.647493  0.366595  0.484112  1
  Ge  Ge14  1  0.142781  0.135945  0.510623  1
  Ge  Ge15  1  0.352507  0.633405  0.515888  1
  Ge  Ge16  1  0.857219  0.864055  0.489377  1
  Mo  Mo17  1  0.500000  0.000000  0.500000  1
