# generated using pymatgen
data_PrThCBr
_symmetry_space_group_name_H-M   'P 1'
_cell_length_a   3.77918600
_cell_length_b   3.77918593
_cell_length_c   15.31977800
_cell_angle_alpha   90.00000000
_cell_angle_beta   90.00000000
_cell_angle_gamma   120.00000062
_symmetry_Int_Tables_number   1
_chemical_formula_structural   PrThCBr
_chemical_formula_sum   'Pr2 Th2 C2 Br2'
_cell_volume   189.48709032
_cell_formula_units_Z   2
loop_
 _symmetry_equiv_pos_site_id
 _symmetry_equiv_pos_as_xyz
  1  'x, y, z'
loop_
 _atom_site_type_symbol
 _atom_site_label
 _atom_site_symmetry_multiplicity
 _atom_site_fract_x
 _atom_site_fract_y
 _atom_site_fract_z
 _atom_site_occupancy
  Pr  Pr0  1  0.666667  0.333333  0.906648  1
  Pr  Pr1  1  0.333333  0.666667  0.406648  1
  Th  Th2  1  0.333333  0.666667  0.088869  1
  Th  Th3  1  0.666667  0.333333  0.588869  1
  C  C4  1  0.000000  0.000000  0.004387  1
  C  C5  1  0.000000  0.000000  0.504387  1
  Br  Br6  1  0.666667  0.333333  0.250096  1
  Br  Br7  1  0.333333  0.666667  0.750096  1
