# generated using pymatgen
data_Zr5Si12Ir19
_symmetry_space_group_name_H-M   'P 1'
_cell_length_a   12.75044700
_cell_length_b   12.75044724
_cell_length_c   3.91957400
_cell_angle_alpha   90.00000000
_cell_angle_beta   90.00000000
_cell_angle_gamma   120.00000197
_symmetry_Int_Tables_number   1
_chemical_formula_structural   Zr5Si12Ir19
_chemical_formula_sum   'Zr5 Si12 Ir19'
_cell_volume   551.84907651
_cell_formula_units_Z   1
loop_
 _symmetry_equiv_pos_site_id
 _symmetry_equiv_pos_as_xyz
  1  'x, y, z'
loop_
 _atom_site_type_symbol
 _atom_site_label
 _atom_site_symmetry_multiplicity
 _atom_site_fract_x
 _atom_site_fract_y
 _atom_site_fract_z
 _atom_site_occupancy
  Zr  Zr0  1  0.000000  0.814189  0.500000  1
  Zr  Zr1  1  0.185811  0.185811  0.500000  1
  Zr  Zr2  1  0.814189  0.000000  0.500000  1
  Zr  Zr3  1  0.333333  0.666667  0.000000  1
  Zr  Zr4  1  0.666667  0.333333  0.000000  1
  Si  Si5  1  0.000000  0.177562  0.000000  1
  Si  Si6  1  0.822438  0.822438  0.000000  1
  Si  Si7  1  0.177562  0.000000  0.000000  1
  Si  Si8  1  0.517987  0.687608  0.500000  1
  Si  Si9  1  0.312392  0.830379  0.500000  1
  Si  Si10  1  0.169621  0.482013  0.500000  1
  Si  Si11  1  0.482013  0.169621  0.500000  1
  Si  Si12  1  0.687608  0.517987  0.500000  1
  Si  Si13  1  0.830379  0.312392  0.500000  1
  Si  Si14  1  0.000000  0.636004  0.000000  1
  Si  Si15  1  0.363996  0.363996  0.000000  1
  Si  Si16  1  0.636004  0.000000  0.000000  1
  Ir  Ir17  1  0.000000  0.280551  0.500000  1
  Ir  Ir18  1  0.719449  0.719449  0.500000  1
  Ir  Ir19  1  0.280551  0.000000  0.500000  1
  Ir  Ir20  1  0.625272  0.807236  0.000000  1
  Ir  Ir21  1  0.192764  0.818037  0.000000  1
  Ir  Ir22  1  0.181963  0.374728  0.000000  1
  Ir  Ir23  1  0.374728  0.181963  0.000000  1
  Ir  Ir24  1  0.807236  0.625272  0.000000  1
  Ir  Ir25  1  0.818037  0.192764  0.000000  1
  Ir  Ir26  1  0.510403  0.871627  0.500000  1
  Ir  Ir27  1  0.128373  0.638774  0.500000  1
  Ir  Ir28  1  0.361226  0.489597  0.500000  1
  Ir  Ir29  1  0.489597  0.361226  0.500000  1
  Ir  Ir30  1  0.871627  0.510403  0.500000  1
  Ir  Ir31  1  0.638774  0.128373  0.500000  1
  Ir  Ir32  1  0.000000  0.000000  0.000000  1
  Ir  Ir33  1  0.000000  0.448435  0.000000  1
  Ir  Ir34  1  0.551565  0.551565  0.000000  1
  Ir  Ir35  1  0.448435  0.000000  0.000000  1
