# generated using pymatgen
data_Pa5V3(Ni4P3)4
_symmetry_space_group_name_H-M   'P 1'
_cell_length_a   12.19745900
_cell_length_b   12.19745794
_cell_length_c   3.72854800
_cell_angle_alpha   90.00000000
_cell_angle_beta   90.00000000
_cell_angle_gamma   119.99999473
_symmetry_Int_Tables_number   1
_chemical_formula_structural   Pa5V3(Ni4P3)4
_chemical_formula_sum   'Pa5 V3 Ni16 P12'
_cell_volume   480.40673734
_cell_formula_units_Z   1
loop_
 _symmetry_equiv_pos_site_id
 _symmetry_equiv_pos_as_xyz
  1  'x, y, z'
loop_
 _atom_site_type_symbol
 _atom_site_label
 _atom_site_symmetry_multiplicity
 _atom_site_fract_x
 _atom_site_fract_y
 _atom_site_fract_z
 _atom_site_occupancy
  Pa  Pa0  1  0.814977  0.000000  0.500000  1
  Pa  Pa1  1  0.000000  0.814977  0.500000  1
  Pa  Pa2  1  0.185023  0.185023  0.500000  1
  Pa  Pa3  1  0.333333  0.666667  0.000000  1
  Pa  Pa4  1  0.666667  0.333333  0.000000  1
  V  V5  1  0.440458  0.000000  0.000000  1
  V  V6  1  0.000000  0.440458  0.000000  1
  V  V7  1  0.559542  0.559542  0.000000  1
  Ni  Ni8  1  0.281517  0.000000  0.500000  1
  Ni  Ni9  1  0.000000  0.281517  0.500000  1
  Ni  Ni10  1  0.718483  0.718483  0.500000  1
  Ni  Ni11  1  0.622506  0.806428  0.000000  1
  Ni  Ni12  1  0.193572  0.816078  0.000000  1
  Ni  Ni13  1  0.183922  0.377494  0.000000  1
  Ni  Ni14  1  0.377494  0.183922  0.000000  1
  Ni  Ni15  1  0.806428  0.622506  0.000000  1
  Ni  Ni16  1  0.816078  0.193572  0.000000  1
  Ni  Ni17  1  0.519951  0.877642  0.500000  1
  Ni  Ni18  1  0.122358  0.642308  0.500000  1
  Ni  Ni19  1  0.357692  0.480049  0.500000  1
  Ni  Ni20  1  0.480049  0.357692  0.500000  1
  Ni  Ni21  1  0.877642  0.519951  0.500000  1
  Ni  Ni22  1  0.642308  0.122358  0.500000  1
  Ni  Ni23  1  0.000000  0.000000  0.000000  1
  P  P24  1  0.180322  0.000000  0.000000  1
  P  P25  1  0.000000  0.180322  0.000000  1
  P  P26  1  0.819678  0.819678  0.000000  1
  P  P27  1  0.518681  0.682462  0.500000  1
  P  P28  1  0.317538  0.836219  0.500000  1
  P  P29  1  0.163781  0.481319  0.500000  1
  P  P30  1  0.481319  0.163781  0.500000  1
  P  P31  1  0.682462  0.518681  0.500000  1
  P  P32  1  0.836219  0.317538  0.500000  1
  P  P33  1  0.629776  0.000000  0.000000  1
  P  P34  1  0.000000  0.629776  0.000000  1
  P  P35  1  0.370224  0.370224  0.000000  1
