# generated using pymatgen
data_DyErAl20Fe3Ir
_symmetry_space_group_name_H-M   'P 1'
_cell_length_a   6.77160356
_cell_length_b   6.78056689
_cell_length_c   9.01388801
_cell_angle_alpha   89.92248532
_cell_angle_beta   90.11861109
_cell_angle_gamma   96.91377797
_symmetry_Int_Tables_number   1
_chemical_formula_structural   DyErAl20Fe3Ir
_chemical_formula_sum   'Dy1 Er1 Al20 Fe3 Ir1'
_cell_volume   410.86480870
_cell_formula_units_Z   1
loop_
 _symmetry_equiv_pos_site_id
 _symmetry_equiv_pos_as_xyz
  1  'x, y, z'
loop_
 _atom_site_type_symbol
 _atom_site_label
 _atom_site_symmetry_multiplicity
 _atom_site_fract_x
 _atom_site_fract_y
 _atom_site_fract_z
 _atom_site_occupancy
  Dy  Dy0  1  0.871587  0.126723  0.751279  1
  Er  Er1  1  0.128571  0.873116  0.248737  1
  Al  Al2  1  0.618820  0.372440  0.550981  1
  Al  Al3  1  0.381092  0.627648  0.448970  1
  Al  Al4  1  0.375662  0.625817  0.048955  1
  Al  Al5  1  0.624242  0.374281  0.951098  1
  Al  Al6  1  0.230470  0.220368  0.496176  1
  Al  Al7  1  0.769559  0.779568  0.503706  1
  Al  Al8  1  0.773096  0.774789  0.001622  1
  Al  Al9  1  0.226958  0.225164  0.998503  1
  Al  Al10  1  0.843080  0.157404  0.097068  1
  Al  Al11  1  0.157012  0.842513  0.903039  1
  Al  Al12  1  0.161827  0.847692  0.600626  1
  Al  Al13  1  0.838265  0.152210  0.399280  1
  Al  Al14  1  0.860765  0.587030  0.755748  1
  Al  Al15  1  0.139275  0.413143  0.244248  1
  Al  Al16  1  0.415837  0.136771  0.750890  1
  Al  Al17  1  0.583973  0.863198  0.249106  1
  Al  Al18  1  0.222027  0.479251  0.755606  1
  Al  Al19  1  0.778090  0.520922  0.244389  1
  Al  Al20  1  0.519932  0.780776  0.751383  1
  Al  Al21  1  0.479895  0.219110  0.248610  1
  Fe  Fe22  1  0.000005  0.500029  0.000090  1
  Fe  Fe23  1  0.499971  0.000000  0.000096  1
  Fe  Fe24  1  0.499970  0.999993  0.499905  1
  Ir  Ir25  1  0.000019  0.500043  0.499891  1
