# generated using pymatgen
data_Dy12ZnIn(FeSi)2
_symmetry_space_group_name_H-M   'P 1'
_cell_length_a   8.42678555
_cell_length_b   8.42679026
_cell_length_c   8.42678500
_cell_angle_alpha   113.62758733
_cell_angle_beta   110.46943204
_cell_angle_gamma   104.44803934
_symmetry_Int_Tables_number   1
_chemical_formula_structural   Dy12ZnIn(FeSi)2
_chemical_formula_sum   'Dy12 Zn1 In1 Fe2 Si2'
_cell_volume   457.63541371
_cell_formula_units_Z   1
loop_
 _symmetry_equiv_pos_site_id
 _symmetry_equiv_pos_as_xyz
  1  'x, y, z'
loop_
 _atom_site_type_symbol
 _atom_site_label
 _atom_site_symmetry_multiplicity
 _atom_site_fract_x
 _atom_site_fract_y
 _atom_site_fract_z
 _atom_site_occupancy
  Dy  Dy0  1  0.431886  0.234427  0.197476  1
  Dy  Dy1  1  0.568114  0.765573  0.802524  1
  Dy  Dy2  1  0.036950  0.234427  0.802540  1
  Dy  Dy3  1  0.963050  0.765573  0.197460  1
  Dy  Dy4  1  0.185992  0.285963  0.471822  1
  Dy  Dy5  1  0.814008  0.714037  0.528178  1
  Dy  Dy6  1  0.185859  0.714037  0.900028  1
  Dy  Dy7  1  0.814141  0.285963  0.099972  1
  Dy  Dy8  1  0.304141  0.614435  0.310294  1
  Dy  Dy9  1  0.695859  0.385565  0.689706  1
  Dy  Dy10  1  0.303994  0.993655  0.689661  1
  Dy  Dy11  1  0.696006  0.006345  0.310339  1
  Zn  Zn12  1  0.000000  0.000000  0.000000  1
  In  In13  1  0.500000  0.500000  0.000000  1
  Fe  Fe14  1  0.103904  0.603964  0.500060  1
  Fe  Fe15  1  0.896096  0.396036  0.499940  1
  Si  Si16  1  0.364105  0.000000  0.364105  1
  Si  Si17  1  0.635895  0.000000  0.635895  1
