# generated using pymatgen
data_Y16Sc4IrRh11
_symmetry_space_group_name_H-M   'P 1'
_cell_length_a   10.85127102
_cell_length_b   10.85127102
_cell_length_c   6.27786801
_cell_angle_alpha   90.00548758
_cell_angle_beta   90.00548758
_cell_angle_gamma   89.99598699
_symmetry_Int_Tables_number   1
_chemical_formula_structural   Y16Sc4IrRh11
_chemical_formula_sum   'Y16 Sc4 Ir1 Rh11'
_cell_volume   739.21946947
_cell_formula_units_Z   1
loop_
 _symmetry_equiv_pos_site_id
 _symmetry_equiv_pos_as_xyz
  1  'x, y, z'
loop_
 _atom_site_type_symbol
 _atom_site_label
 _atom_site_symmetry_multiplicity
 _atom_site_fract_x
 _atom_site_fract_y
 _atom_site_fract_z
 _atom_site_occupancy
  Y  Y0  1  0.287226  0.086618  0.378403  1
  Y  Y1  1  0.287437  0.912233  0.878219  1
  Y  Y2  1  0.712787  0.086493  0.878442  1
  Y  Y3  1  0.712797  0.913391  0.378405  1
  Y  Y4  1  0.585528  0.786695  0.878187  1
  Y  Y5  1  0.586580  0.212788  0.378711  1
  Y  Y6  1  0.413203  0.786642  0.379001  1
  Y  Y7  1  0.413353  0.212644  0.878392  1
  Y  Y8  1  0.213305  0.414472  0.621813  1
  Y  Y9  1  0.213358  0.586797  0.120999  1
  Y  Y10  1  0.787212  0.413420  0.121289  1
  Y  Y11  1  0.787356  0.586647  0.621608  1
  Y  Y12  1  0.913382  0.712774  0.121597  1
  Y  Y13  1  0.913507  0.287213  0.621558  1
  Y  Y14  1  0.087767  0.712563  0.621781  1
  Y  Y15  1  0.086609  0.287203  0.121595  1
  Sc  Sc16  1  0.999953  0.999971  0.499979  1
  Sc  Sc17  1  0.000029  0.000047  0.000021  1
  Sc  Sc18  1  0.499513  0.500442  0.999344  1
  Sc  Sc19  1  0.499558  0.500487  0.500656  1
  Ir  Ir20  1  0.353244  0.646756  0.750000  1
  Rh  Rh21  1  0.853498  0.146502  0.250000  1
  Rh  Rh22  1  0.853516  0.853571  0.749996  1
  Rh  Rh23  1  0.146429  0.146484  0.750004  1
  Rh  Rh24  1  0.146055  0.853945  0.250000  1
  Rh  Rh25  1  0.646767  0.353233  0.750000  1
  Rh  Rh26  1  0.647185  0.646592  0.250024  1
  Rh  Rh27  1  0.353408  0.352815  0.249976  1
  Rh  Rh28  1  0.500101  0.000355  0.124805  1
  Rh  Rh29  1  0.500173  0.000478  0.624404  1
  Rh  Rh30  1  0.999522  0.499827  0.875596  1
  Rh  Rh31  1  0.999645  0.499899  0.375195  1
