# generated using pymatgen
data_Ca3La16TbSn16
_symmetry_space_group_name_H-M   'P 1'
_cell_length_a   8.38576446
_cell_length_b   8.56286054
_cell_length_c   16.39598100
_cell_angle_alpha   90.00000000
_cell_angle_beta   90.00000000
_cell_angle_gamma   89.86946812
_symmetry_Int_Tables_number   1
_chemical_formula_structural   Ca3La16TbSn16
_chemical_formula_sum   'Ca3 La16 Tb1 Sn16'
_cell_volume   1177.32891334
_cell_formula_units_Z   1
loop_
 _symmetry_equiv_pos_site_id
 _symmetry_equiv_pos_as_xyz
  1  'x, y, z'
loop_
 _atom_site_type_symbol
 _atom_site_label
 _atom_site_symmetry_multiplicity
 _atom_site_fract_x
 _atom_site_fract_y
 _atom_site_fract_z
 _atom_site_occupancy
  Ca  Ca0  1  0.199298  0.502590  0.750000  1
  Ca  Ca1  1  0.699218  0.999157  0.750000  1
  Ca  Ca2  1  0.799156  0.498212  0.250000  1
  La  La3  1  0.369981  0.839760  0.881988  1
  La  La4  1  0.870430  0.664165  0.619955  1
  La  La5  1  0.632162  0.162528  0.379767  1
  La  La6  1  0.129899  0.337881  0.120326  1
  La  La7  1  0.632162  0.162528  0.120233  1
  La  La8  1  0.129899  0.337881  0.379674  1
  La  La9  1  0.369981  0.839760  0.618012  1
  La  La10  1  0.870430  0.664165  0.880045  1
  La  La11  1  0.514981  0.316284  0.903075  1
  La  La12  1  0.014919  0.185319  0.596135  1
  La  La13  1  0.484288  0.680586  0.402453  1
  La  La14  1  0.982337  0.814650  0.098503  1
  La  La15  1  0.484288  0.680586  0.097547  1
  La  La16  1  0.982337  0.814650  0.401497  1
  La  La17  1  0.514981  0.316284  0.596925  1
  La  La18  1  0.014919  0.185319  0.903865  1
  Tb  Tb19  1  0.302148  0.999760  0.250000  1
  Sn  Sn20  1  0.290649  0.032902  0.046610  1
  Sn  Sn21  1  0.791031  0.462478  0.459987  1
  Sn  Sn22  1  0.710504  0.965676  0.541501  1
  Sn  Sn23  1  0.208805  0.537126  0.958899  1
  Sn  Sn24  1  0.710504  0.965676  0.958499  1
  Sn  Sn25  1  0.208805  0.537126  0.541101  1
  Sn  Sn26  1  0.290649  0.032902  0.453390  1
  Sn  Sn27  1  0.791031  0.462478  0.040013  1
  Sn  Sn28  1  0.567549  0.607563  0.750000  1
  Sn  Sn29  1  0.069096  0.893693  0.750000  1
  Sn  Sn30  1  0.431126  0.385669  0.250000  1
  Sn  Sn31  1  0.937481  0.105488  0.250000  1
  Sn  Sn32  1  0.318690  0.140825  0.750000  1
  Sn  Sn33  1  0.817824  0.361292  0.750000  1
  Sn  Sn34  1  0.673406  0.860176  0.250000  1
  Sn  Sn35  1  0.185036  0.646865  0.250000  1
