# generated using pymatgen
data_Tb9Gd3(Si2Ni)4
_symmetry_space_group_name_H-M   'P 1'
_cell_length_a   4.14893800
_cell_length_b   11.27497819
_cell_length_c   11.35250520
_cell_angle_alpha   89.97872002
_cell_angle_beta   90.00000000
_cell_angle_gamma   90.00000000
_symmetry_Int_Tables_number   1
_chemical_formula_structural   Tb9Gd3(Si2Ni)4
_chemical_formula_sum   'Tb9 Gd3 Si8 Ni4'
_cell_volume   531.06090959
_cell_formula_units_Z   1
loop_
 _symmetry_equiv_pos_site_id
 _symmetry_equiv_pos_as_xyz
  1  'x, y, z'
loop_
 _atom_site_type_symbol
 _atom_site_label
 _atom_site_symmetry_multiplicity
 _atom_site_fract_x
 _atom_site_fract_y
 _atom_site_fract_z
 _atom_site_occupancy
  Tb  Tb0  1  0.750000  0.559531  0.618149  1
  Tb  Tb1  1  0.250000  0.124873  0.558022  1
  Tb  Tb2  1  0.250000  0.375189  0.057966  1
  Tb  Tb3  1  0.750000  0.875160  0.442279  1
  Tb  Tb4  1  0.750000  0.624644  0.941954  1
  Tb  Tb5  1  0.250000  0.803487  0.714227  1
  Tb  Tb6  1  0.250000  0.696569  0.214132  1
  Tb  Tb7  1  0.750000  0.196480  0.285958  1
  Tb  Tb8  1  0.750000  0.303357  0.785932  1
  Gd  Gd9  1  0.250000  0.060169  0.881692  1
  Gd  Gd10  1  0.250000  0.439615  0.381700  1
  Gd  Gd11  1  0.750000  0.940189  0.118166  1
  Si  Si12  1  0.250000  0.813230  0.974114  1
  Si  Si13  1  0.250000  0.686437  0.474462  1
  Si  Si14  1  0.750000  0.186828  0.025947  1
  Si  Si15  1  0.750000  0.313546  0.526231  1
  Si  Si16  1  0.250000  0.494798  0.803304  1
  Si  Si17  1  0.250000  0.005448  0.303699  1
  Si  Si18  1  0.750000  0.506056  0.196146  1
  Si  Si19  1  0.750000  0.994279  0.696330  1
  Ni  Ni20  1  0.250000  0.366662  0.629228  1
  Ni  Ni21  1  0.250000  0.133287  0.129076  1
  Ni  Ni22  1  0.750000  0.633616  0.370553  1
  Ni  Ni23  1  0.750000  0.866550  0.870733  1
