# generated using pymatgen
data_Sm4Ga10Pd5Pt
_symmetry_space_group_name_H-M   'P 1'
_cell_length_a   8.70387603
_cell_length_b   8.70096341
_cell_length_c   8.70096293
_cell_angle_alpha   140.64616865
_cell_angle_beta   107.89222301
_cell_angle_gamma   85.37992814
_symmetry_Int_Tables_number   1
_chemical_formula_structural   Sm4Ga10Pd5Pt
_chemical_formula_sum   'Sm4 Ga10 Pd5 Pt1'
_cell_volume   383.93559963
_cell_formula_units_Z   1
loop_
 _symmetry_equiv_pos_site_id
 _symmetry_equiv_pos_as_xyz
  1  'x, y, z'
loop_
 _atom_site_type_symbol
 _atom_site_label
 _atom_site_symmetry_multiplicity
 _atom_site_fract_x
 _atom_site_fract_y
 _atom_site_fract_z
 _atom_site_occupancy
  Sm  Sm0  1  0.635463  0.861230  0.774233  1
  Sm  Sm1  1  0.363177  0.138222  0.224956  1
  Sm  Sm2  1  0.087139  0.361529  0.725610  1
  Sm  Sm3  1  0.913152  0.638265  0.274887  1
  Ga  Ga4  1  0.289943  0.041924  0.751416  1
  Ga  Ga5  1  0.710336  0.960175  0.250599  1
  Ga  Ga6  1  0.710336  0.459737  0.750162  1
  Ga  Ga7  1  0.289943  0.538527  0.248019  1
  Ga  Ga8  1  0.431193  0.596520  0.834673  1
  Ga  Ga9  1  0.569927  0.403917  0.166010  1
  Ga  Ga10  1  0.762220  0.096581  0.665640  1
  Ga  Ga11  1  0.237182  0.903289  0.333893  1
  Ga  Ga12  1  0.999858  0.749908  0.749967  1
  Ga  Ga13  1  0.999858  0.249891  0.249950  1
  Pd  Pd14  1  0.758980  0.355581  0.403398  1
  Pd  Pd15  1  0.046944  0.144398  0.902546  1
  Pd  Pd16  1  0.952178  0.855721  0.096457  1
  Pd  Pd17  1  0.499740  0.750025  0.249980  1
  Pd  Pd18  1  0.499740  0.249759  0.749715  1
  Pt  Pt19  1  0.242690  0.644801  0.597890  1
