# generated using pymatgen
data_Ho3Er7Si5Sn
_symmetry_space_group_name_H-M   'P 1'
_cell_length_a   8.44422600
_cell_length_b   8.47155009
_cell_length_c   6.32665800
_cell_angle_alpha   90.00000000
_cell_angle_beta   90.00000000
_cell_angle_gamma   119.89335426
_symmetry_Int_Tables_number   1
_chemical_formula_structural   Ho3Er7Si5Sn
_chemical_formula_sum   'Ho3 Er7 Si5 Sn1'
_cell_volume   392.36786020
_cell_formula_units_Z   1
loop_
 _symmetry_equiv_pos_site_id
 _symmetry_equiv_pos_as_xyz
  1  'x, y, z'
loop_
 _atom_site_type_symbol
 _atom_site_label
 _atom_site_symmetry_multiplicity
 _atom_site_fract_x
 _atom_site_fract_y
 _atom_site_fract_z
 _atom_site_occupancy
  Ho  Ho0  1  0.998296  0.242093  0.250000  1
  Ho  Ho1  1  0.756204  0.757907  0.250000  1
  Ho  Ho2  1  0.241012  0.000000  0.250000  1
  Er  Er3  1  0.989678  0.749309  0.750000  1
  Er  Er4  1  0.765937  0.000000  0.750000  1
  Er  Er5  1  0.240369  0.250691  0.750000  1
  Er  Er6  1  0.331296  0.657460  0.497058  1
  Er  Er7  1  0.673837  0.342540  0.002942  1
  Er  Er8  1  0.673837  0.342540  0.497058  1
  Er  Er9  1  0.331296  0.657460  0.002942  1
  Si  Si10  1  0.393420  0.391986  0.250000  1
  Si  Si11  1  0.001434  0.608014  0.250000  1
  Si  Si12  1  0.998604  0.394204  0.750000  1
  Si  Si13  1  0.604400  0.605796  0.750000  1
  Si  Si14  1  0.604976  0.000000  0.250000  1
  Sn  Sn15  1  0.395405  0.000000  0.750000  1
