# generated using pymatgen
data_Ac2Re2Si2C
_symmetry_space_group_name_H-M   'P 1'
_cell_length_a   4.25208687
_cell_length_b   6.23553325
_cell_length_c   6.43560347
_cell_angle_alpha   73.02171368
_cell_angle_beta   70.70957389
_cell_angle_gamma   70.06485850
_symmetry_Int_Tables_number   1
_chemical_formula_structural   Ac2Re2Si2C
_chemical_formula_sum   'Ac2 Re2 Si2 C1'
_cell_volume   148.27732697
_cell_formula_units_Z   1
loop_
 _symmetry_equiv_pos_site_id
 _symmetry_equiv_pos_as_xyz
  1  'x, y, z'
loop_
 _atom_site_type_symbol
 _atom_site_label
 _atom_site_symmetry_multiplicity
 _atom_site_fract_x
 _atom_site_fract_y
 _atom_site_fract_z
 _atom_site_occupancy
  Ac  Ac0  1  0.437016  0.819818  0.306151  1
  Ac  Ac1  1  0.562984  0.180182  0.693849  1
  Re  Re2  1  0.805547  0.304423  0.084483  1
  Re  Re3  1  0.194453  0.695577  0.915517  1
  Si  Si4  1  0.817800  0.616809  0.747591  1
  Si  Si5  1  0.182200  0.383191  0.252409  1
  C  C6  1  0.000000  0.000000  0.000000  1
