# generated using pymatgen
data_Ca(HfSe2)8
_symmetry_space_group_name_H-M   'P 1'
_cell_length_a   7.52343000
_cell_length_b   7.52342856
_cell_length_c   14.23225000
_cell_angle_alpha   90.00000000
_cell_angle_beta   90.00000000
_cell_angle_gamma   119.99998873
_symmetry_Int_Tables_number   1
_chemical_formula_structural   Ca(HfSe2)8
_chemical_formula_sum   'Ca1 Hf8 Se16'
_cell_volume   697.64732130
_cell_formula_units_Z   1
loop_
 _symmetry_equiv_pos_site_id
 _symmetry_equiv_pos_as_xyz
  1  'x, y, z'
loop_
 _atom_site_type_symbol
 _atom_site_label
 _atom_site_symmetry_multiplicity
 _atom_site_fract_x
 _atom_site_fract_y
 _atom_site_fract_z
 _atom_site_occupancy
  Ca  Ca0  1  0.000000  0.000000  0.000000  1
  Hf  Hf1  1  0.502692  0.497308  0.744625  1
  Hf  Hf2  1  0.497308  0.502692  0.255375  1
  Hf  Hf3  1  0.502692  0.005382  0.744625  1
  Hf  Hf4  1  0.497308  0.994618  0.255375  1
  Hf  Hf5  1  0.994618  0.497308  0.744625  1
  Hf  Hf6  1  0.005382  0.502692  0.255375  1
  Hf  Hf7  1  0.000000  0.000000  0.738740  1
  Hf  Hf8  1  0.000000  0.000000  0.261260  1
  Se  Se9  1  0.833727  0.667455  0.142718  1
  Se  Se10  1  0.832292  0.664584  0.632333  1
  Se  Se11  1  0.833727  0.166273  0.142718  1
  Se  Se12  1  0.832292  0.167708  0.632333  1
  Se  Se13  1  0.333333  0.666667  0.141555  1
  Se  Se14  1  0.333333  0.666667  0.637425  1
  Se  Se15  1  0.332545  0.166273  0.142718  1
  Se  Se16  1  0.335416  0.167708  0.632333  1
  Se  Se17  1  0.667455  0.833727  0.857282  1
  Se  Se18  1  0.664584  0.832292  0.367667  1
  Se  Se19  1  0.666667  0.333333  0.858445  1
  Se  Se20  1  0.666667  0.333333  0.362575  1
  Se  Se21  1  0.166273  0.833727  0.857282  1
  Se  Se22  1  0.167708  0.832292  0.367667  1
  Se  Se23  1  0.166273  0.332545  0.857282  1
  Se  Se24  1  0.167708  0.335416  0.367667  1
