# generated using pymatgen
data_Sb4IrRh3S4
_symmetry_space_group_name_H-M   'P 1'
_cell_length_a   6.09985842
_cell_length_b   6.09985842
_cell_length_c   6.09985842
_cell_angle_alpha   90.02995809
_cell_angle_beta   90.02995809
_cell_angle_gamma   89.97004191
_symmetry_Int_Tables_number   1
_chemical_formula_structural   Sb4IrRh3S4
_chemical_formula_sum   'Sb4 Ir1 Rh3 S4'
_cell_volume   226.96510239
_cell_formula_units_Z   1
loop_
 _symmetry_equiv_pos_site_id
 _symmetry_equiv_pos_as_xyz
  1  'x, y, z'
loop_
 _atom_site_type_symbol
 _atom_site_label
 _atom_site_symmetry_multiplicity
 _atom_site_fract_x
 _atom_site_fract_y
 _atom_site_fract_z
 _atom_site_occupancy
  Sb  Sb0  1  0.878535  0.378535  0.121465  1
  Sb  Sb1  1  0.378112  0.122407  0.879197  1
  Sb  Sb2  1  0.120803  0.878112  0.377593  1
  Sb  Sb3  1  0.622407  0.620803  0.621888  1
  Ir  Ir4  1  0.512610  0.012610  0.487390  1
  Rh  Rh5  1  0.012930  0.486791  0.512499  1
  Rh  Rh6  1  0.487501  0.512930  0.013209  1
  Rh  Rh7  1  0.986791  0.987501  0.987070  1
  S  S8  1  0.117646  0.617646  0.882354  1
  S  S9  1  0.617660  0.884422  0.119418  1
  S  S10  1  0.880582  0.117660  0.615578  1
  S  S11  1  0.384422  0.380582  0.382340  1
