# generated using pymatgen
data_La16Cd3HgIr4
_symmetry_space_group_name_H-M   'P 1'
_cell_length_a   10.13034419
_cell_length_b   10.13034403
_cell_length_c   10.13034412
_cell_angle_alpha   60.01437989
_cell_angle_beta   60.01437901
_cell_angle_gamma   60.01437919
_symmetry_Int_Tables_number   1
_chemical_formula_structural   La16Cd3HgIr4
_chemical_formula_sum   'La16 Cd3 Hg1 Ir4'
_cell_volume   735.35855117
_cell_formula_units_Z   1
loop_
 _symmetry_equiv_pos_site_id
 _symmetry_equiv_pos_as_xyz
  1  'x, y, z'
loop_
 _atom_site_type_symbol
 _atom_site_label
 _atom_site_symmetry_multiplicity
 _atom_site_fract_x
 _atom_site_fract_y
 _atom_site_fract_z
 _atom_site_occupancy
  La  La0  1  0.597231  0.597231  0.597231  1
  La  La1  1  0.597657  0.597657  0.206928  1
  La  La2  1  0.597657  0.206928  0.597657  1
  La  La3  1  0.206928  0.597657  0.597657  1
  La  La4  1  0.060427  0.439594  0.439594  1
  La  La5  1  0.439861  0.059906  0.059906  1
  La  La6  1  0.439594  0.060427  0.439594  1
  La  La7  1  0.059906  0.439861  0.059906  1
  La  La8  1  0.439594  0.439594  0.060427  1
  La  La9  1  0.059906  0.059906  0.439861  1
  La  La10  1  0.188931  0.810889  0.810889  1
  La  La11  1  0.810577  0.189329  0.189329  1
  La  La12  1  0.810889  0.188931  0.810889  1
  La  La13  1  0.189329  0.810577  0.189329  1
  La  La14  1  0.810889  0.810889  0.188931  1
  La  La15  1  0.189329  0.189329  0.810577  1
  Cd  Cd16  1  0.830346  0.830346  0.508765  1
  Cd  Cd17  1  0.830346  0.508765  0.830346  1
  Cd  Cd18  1  0.508765  0.830346  0.830346  1
  Hg  Hg19  1  0.831281  0.831281  0.831281  1
  Ir  Ir20  1  0.391321  0.391321  0.391321  1
  Ir  Ir21  1  0.391495  0.391495  0.826243  1
  Ir  Ir22  1  0.391495  0.826243  0.391495  1
  Ir  Ir23  1  0.826243  0.391495  0.391495  1
