# generated using pymatgen
data_Ca3Pr(Bi2O7)2
_symmetry_space_group_name_H-M   'P 1'
_cell_length_a   7.87252111
_cell_length_b   7.87252150
_cell_length_c   7.87252100
_cell_angle_alpha   59.77415587
_cell_angle_beta   59.77414579
_cell_angle_gamma   59.77415014
_symmetry_Int_Tables_number   1
_chemical_formula_structural   Ca3Pr(Bi2O7)2
_chemical_formula_sum   'Ca3 Pr1 Bi4 O14'
_cell_volume   343.23677771
_cell_formula_units_Z   1
loop_
 _symmetry_equiv_pos_site_id
 _symmetry_equiv_pos_as_xyz
  1  'x, y, z'
loop_
 _atom_site_type_symbol
 _atom_site_label
 _atom_site_symmetry_multiplicity
 _atom_site_fract_x
 _atom_site_fract_y
 _atom_site_fract_z
 _atom_site_occupancy
  Ca  Ca0  1  0.125000  0.625000  0.125000  1
  Ca  Ca1  1  0.625000  0.125000  0.125000  1
  Ca  Ca2  1  0.125000  0.125000  0.625000  1
  Pr  Pr3  1  0.125000  0.125000  0.125000  1
  Bi  Bi4  1  0.625000  0.625000  0.625000  1
  Bi  Bi5  1  0.625000  0.625000  0.125000  1
  Bi  Bi6  1  0.125000  0.625000  0.625000  1
  Bi  Bi7  1  0.625000  0.125000  0.625000  1
  O  O8  1  0.247900  0.247900  0.247900  1
  O  O9  1  0.291538  0.711322  0.291538  1
  O  O10  1  0.958462  0.958462  0.538678  1
  O  O11  1  0.543858  0.957183  0.543858  1
  O  O12  1  0.706142  0.706142  0.292817  1
  O  O13  1  0.957183  0.543858  0.543858  1
  O  O14  1  0.706142  0.292817  0.706142  1
  O  O15  1  0.291538  0.291538  0.711322  1
  O  O16  1  0.711322  0.291538  0.291538  1
  O  O17  1  0.292817  0.706142  0.706142  1
  O  O18  1  0.958462  0.538678  0.958462  1
  O  O19  1  0.543858  0.543858  0.957183  1
  O  O20  1  0.002100  0.002100  0.002100  1
  O  O21  1  0.538678  0.958462  0.958462  1
