# generated using pymatgen
data_Yb3(DyGe2)2
_symmetry_space_group_name_H-M   'P 1'
_cell_length_a   7.43561200
_cell_length_b   15.18067800
_cell_length_c   7.87267000
_cell_angle_alpha   90.00000000
_cell_angle_beta   90.00000000
_cell_angle_gamma   90.00000000
_symmetry_Int_Tables_number   1
_chemical_formula_structural   Yb3(DyGe2)2
_chemical_formula_sum   'Yb12 Dy8 Ge16'
_cell_volume   888.64834322
_cell_formula_units_Z   4
loop_
 _symmetry_equiv_pos_site_id
 _symmetry_equiv_pos_as_xyz
  1  'x, y, z'
loop_
 _atom_site_type_symbol
 _atom_site_label
 _atom_site_symmetry_multiplicity
 _atom_site_fract_x
 _atom_site_fract_y
 _atom_site_fract_z
 _atom_site_occupancy
  Yb  Yb0  1  0.019130  0.404751  0.185614  1
  Yb  Yb1  1  0.480869  0.595249  0.685615  1
  Yb  Yb2  1  0.519131  0.095249  0.314384  1
  Yb  Yb3  1  0.980870  0.904752  0.814385  1
  Yb  Yb4  1  0.980870  0.595249  0.814385  1
  Yb  Yb5  1  0.519131  0.404751  0.314384  1
  Yb  Yb6  1  0.480869  0.904752  0.685615  1
  Yb  Yb7  1  0.019130  0.095249  0.185614  1
  Yb  Yb8  1  0.654625  0.750000  0.981127  1
  Yb  Yb9  1  0.845376  0.250000  0.481127  1
  Yb  Yb10  1  0.154626  0.750000  0.518873  1
  Yb  Yb11  1  0.345375  0.250000  0.018873  1
  Dy  Dy12  1  0.319534  0.621355  0.172475  1
  Dy  Dy13  1  0.180466  0.378645  0.672475  1
  Dy  Dy14  1  0.819533  0.878645  0.327525  1
  Dy  Dy15  1  0.680467  0.121355  0.827524  1
  Dy  Dy16  1  0.680467  0.378645  0.827524  1
  Dy  Dy17  1  0.819533  0.621355  0.327525  1
  Dy  Dy18  1  0.180466  0.121355  0.672475  1
  Dy  Dy19  1  0.319534  0.878645  0.172475  1
  Ge  Ge20  1  0.766297  0.750000  0.615982  1
  Ge  Ge21  1  0.733703  0.250000  0.115983  1
  Ge  Ge22  1  0.023726  0.750000  0.116603  1
  Ge  Ge23  1  0.476273  0.250000  0.616602  1
  Ge  Ge24  1  0.523727  0.750000  0.383398  1
  Ge  Ge25  1  0.976272  0.250000  0.883399  1
  Ge  Ge26  1  0.154357  0.539917  0.466075  1
  Ge  Ge27  1  0.345642  0.460084  0.966074  1
  Ge  Ge28  1  0.654358  0.960084  0.033925  1
  Ge  Ge29  1  0.845643  0.039917  0.533925  1
  Ge  Ge30  1  0.845643  0.460084  0.533925  1
  Ge  Ge31  1  0.654358  0.539917  0.033925  1
  Ge  Ge32  1  0.345642  0.039917  0.966074  1
  Ge  Ge33  1  0.154357  0.960084  0.466075  1
  Ge  Ge34  1  0.266298  0.750000  0.884018  1
  Ge  Ge35  1  0.233702  0.250000  0.384018  1
