# generated using pymatgen
data_Th3ScZn2Os3
_symmetry_space_group_name_H-M   'P 1'
_cell_length_a   7.43824600
_cell_length_b   7.43824595
_cell_length_c   4.03945800
_cell_angle_alpha   90.00000000
_cell_angle_beta   90.00000000
_cell_angle_gamma   121.89813728
_symmetry_Int_Tables_number   1
_chemical_formula_structural   Th3ScZn2Os3
_chemical_formula_sum   'Th3 Sc1 Zn2 Os3'
_cell_volume   189.74317523
_cell_formula_units_Z   1
loop_
 _symmetry_equiv_pos_site_id
 _symmetry_equiv_pos_as_xyz
  1  'x, y, z'
loop_
 _atom_site_type_symbol
 _atom_site_label
 _atom_site_symmetry_multiplicity
 _atom_site_fract_x
 _atom_site_fract_y
 _atom_site_fract_z
 _atom_site_occupancy
  Th  Th0  1  0.422921  0.988076  0.500000  1
  Th  Th1  1  0.988076  0.422921  0.500000  1
  Th  Th2  1  0.606968  0.606968  0.500000  1
  Sc  Sc3  1  0.229423  0.229423  0.000000  1
  Zn  Zn4  1  0.764046  0.010201  0.000000  1
  Zn  Zn5  1  0.010201  0.764046  0.000000  1
  Os  Os6  1  0.329021  0.657707  0.000000  1
  Os  Os7  1  0.657707  0.329021  0.000000  1
  Os  Os8  1  0.991638  0.991638  0.500000  1
