# generated using pymatgen
data_BaSrEr2(Ge4N7)2
_symmetry_space_group_name_H-M   'P 1'
_cell_length_a   6.30818100
_cell_length_b   6.30812339
_cell_length_c   10.30846300
_cell_angle_alpha   90.00014281
_cell_angle_beta   90.00106947
_cell_angle_gamma   119.99930253
_symmetry_Int_Tables_number   1
_chemical_formula_structural   BaSrEr2(Ge4N7)2
_chemical_formula_sum   'Ba1 Sr1 Er2 Ge8 N14'
_cell_volume   355.24823269
_cell_formula_units_Z   1
loop_
 _symmetry_equiv_pos_site_id
 _symmetry_equiv_pos_as_xyz
  1  'x, y, z'
loop_
 _atom_site_type_symbol
 _atom_site_label
 _atom_site_symmetry_multiplicity
 _atom_site_fract_x
 _atom_site_fract_y
 _atom_site_fract_z
 _atom_site_occupancy
  Ba  Ba0  1  0.666662  0.333333  0.579014  1
  Sr  Sr1  1  0.333335  0.666668  0.082931  1
  Er  Er2  1  0.666665  0.333334  0.951257  1
  Er  Er3  1  0.333323  0.666664  0.449875  1
  Ge  Ge4  1  0.173878  0.347756  0.761518  1
  Ge  Ge5  1  0.826625  0.173372  0.259623  1
  Ge  Ge6  1  0.346767  0.173382  0.259624  1
  Ge  Ge7  1  0.652252  0.826129  0.761519  1
  Ge  Ge8  1  0.173883  0.826122  0.761524  1
  Ge  Ge9  1  0.826625  0.653249  0.259622  1
  Ge  Ge10  1  0.999990  0.999993  0.025041  1
  Ge  Ge11  1  0.999994  0.999998  0.526225  1
  N  N12  1  0.000001  0.000000  0.833440  1
  N  N13  1  0.000006  0.000002  0.333539  1
  N  N14  1  0.840712  0.681420  0.081345  1
  N  N15  1  0.159776  0.840224  0.582307  1
  N  N16  1  0.680438  0.840223  0.582306  1
  N  N17  1  0.318572  0.159284  0.081343  1
  N  N18  1  0.840712  0.159287  0.081343  1
  N  N19  1  0.159774  0.319552  0.582306  1
  N  N20  1  0.494210  0.505795  0.820424  1
  N  N21  1  0.991545  0.495772  0.316222  1
  N  N22  1  0.504228  0.008450  0.316222  1
  N  N23  1  0.494214  0.988420  0.820427  1
  N  N24  1  0.504226  0.495779  0.316222  1
  N  N25  1  0.011589  0.505792  0.820422  1
