# generated using pymatgen
data_Tb5Y4Er11Pb16
_symmetry_space_group_name_H-M   'P 1'
_cell_length_a   8.18885904
_cell_length_b   8.26647288
_cell_length_c   15.59930507
_cell_angle_alpha   90.00839633
_cell_angle_beta   89.99992244
_cell_angle_gamma   90.06349673
_symmetry_Int_Tables_number   1
_chemical_formula_structural   Tb5Y4Er11Pb16
_chemical_formula_sum   'Tb5 Y4 Er11 Pb16'
_cell_volume   1055.96280404
_cell_formula_units_Z   1
loop_
 _symmetry_equiv_pos_site_id
 _symmetry_equiv_pos_as_xyz
  1  'x, y, z'
loop_
 _atom_site_type_symbol
 _atom_site_label
 _atom_site_symmetry_multiplicity
 _atom_site_fract_x
 _atom_site_fract_y
 _atom_site_fract_z
 _atom_site_occupancy
  Tb  Tb0  1  0.965380  0.823409  0.100307  1
  Tb  Tb1  1  0.465740  0.676764  0.099863  1
  Tb  Tb2  1  0.965458  0.823055  0.400147  1
  Tb  Tb3  1  0.534344  0.322939  0.599730  1
  Tb  Tb4  1  0.034529  0.176779  0.900090  1
  Y  Y5  1  0.876576  0.659270  0.879400  1
  Y  Y6  1  0.534504  0.322846  0.900193  1
  Y  Y7  1  0.034702  0.176814  0.599732  1
  Y  Y8  1  0.465384  0.676864  0.400109  1
  Er  Er9  1  0.376354  0.840848  0.878915  1
  Er  Er10  1  0.876375  0.658975  0.620902  1
  Er  Er11  1  0.623694  0.158970  0.379017  1
  Er  Er12  1  0.123557  0.341105  0.120884  1
  Er  Er13  1  0.623424  0.158907  0.121358  1
  Er  Er14  1  0.123659  0.340956  0.378998  1
  Er  Er15  1  0.376496  0.841119  0.620844  1
  Er  Er16  1  0.208282  0.504463  0.749812  1
  Er  Er17  1  0.707874  0.995636  0.749735  1
  Er  Er18  1  0.791886  0.495272  0.250174  1
  Er  Er19  1  0.291855  0.004584  0.249959  1
  Pb  Pb20  1  0.282547  0.034225  0.042748  1
  Pb  Pb21  1  0.782666  0.465799  0.457219  1
  Pb  Pb22  1  0.717357  0.965794  0.542713  1
  Pb  Pb23  1  0.218900  0.533678  0.957366  1
  Pb  Pb24  1  0.716466  0.967293  0.957434  1
  Pb  Pb25  1  0.217278  0.534305  0.542656  1
  Pb  Pb26  1  0.282560  0.034316  0.457256  1
  Pb  Pb27  1  0.782241  0.464994  0.043487  1
  Pb  Pb28  1  0.570806  0.627409  0.749606  1
  Pb  Pb29  1  0.071808  0.873280  0.749494  1
  Pb  Pb30  1  0.428589  0.372606  0.250037  1
  Pb  Pb31  1  0.928836  0.127385  0.250023  1
  Pb  Pb32  1  0.345623  0.152241  0.750003  1
  Pb  Pb33  1  0.845598  0.347172  0.749665  1
  Pb  Pb34  1  0.654276  0.847616  0.250079  1
  Pb  Pb35  1  0.154373  0.652313  0.250046  1
