# generated using pymatgen
data_Nd3ThReOs7
_symmetry_space_group_name_H-M   'P 1'
_cell_length_a   5.32467719
_cell_length_b   5.49472947
_cell_length_c   9.21050890
_cell_angle_alpha   90.00000105
_cell_angle_beta   90.17803671
_cell_angle_gamma   121.06220560
_symmetry_Int_Tables_number   1
_chemical_formula_structural   Nd3ThReOs7
_chemical_formula_sum   'Nd3 Th1 Re1 Os7'
_cell_volume   230.83534198
_cell_formula_units_Z   1
loop_
 _symmetry_equiv_pos_site_id
 _symmetry_equiv_pos_as_xyz
  1  'x, y, z'
loop_
 _atom_site_type_symbol
 _atom_site_label
 _atom_site_symmetry_multiplicity
 _atom_site_fract_x
 _atom_site_fract_y
 _atom_site_fract_z
 _atom_site_occupancy
  Nd  Nd0  1  0.659022  0.329511  0.565542  1
  Nd  Nd1  1  0.659846  0.329923  0.937585  1
  Nd  Nd2  1  0.326626  0.663314  0.062762  1
  Th  Th3  1  0.325535  0.662768  0.432873  1
  Re  Re4  1  0.686366  0.843183  0.751383  1
  Os  Os5  1  0.971187  0.985593  0.500105  1
  Os  Os6  1  0.978546  0.989273  0.000125  1
  Os  Os7  1  0.837912  0.166362  0.250010  1
  Os  Os8  1  0.837912  0.671550  0.250010  1
  Os  Os9  1  0.357264  0.178632  0.250022  1
  Os  Os10  1  0.179892  0.828482  0.749792  1
  Os  Os11  1  0.179892  0.351410  0.749792  1
