# generated using pymatgen
data_Pr4Ga23Pd2Au
_symmetry_space_group_name_H-M   'P 1'
_cell_length_a   6.16233600
_cell_length_b   6.16233600
_cell_length_c   15.66302600
_cell_angle_alpha   90.00000000
_cell_angle_beta   90.00000000
_cell_angle_gamma   90.00000000
_symmetry_Int_Tables_number   1
_chemical_formula_structural   Pr4Ga23Pd2Au
_chemical_formula_sum   'Pr4 Ga23 Pd2 Au1'
_cell_volume   594.79377923
_cell_formula_units_Z   1
loop_
 _symmetry_equiv_pos_site_id
 _symmetry_equiv_pos_as_xyz
  1  'x, y, z'
loop_
 _atom_site_type_symbol
 _atom_site_label
 _atom_site_symmetry_multiplicity
 _atom_site_fract_x
 _atom_site_fract_y
 _atom_site_fract_z
 _atom_site_occupancy
  Pr  Pr0  1  0.750000  0.250000  0.246269  1
  Pr  Pr1  1  0.250000  0.750000  0.246269  1
  Pr  Pr2  1  0.250000  0.750000  0.755051  1
  Pr  Pr3  1  0.750000  0.250000  0.755051  1
  Ga  Ga4  1  0.750000  0.750000  0.185110  1
  Ga  Ga5  1  0.750000  0.750000  0.813342  1
  Ga  Ga6  1  0.250000  0.250000  0.813375  1
  Ga  Ga7  1  0.250000  0.250000  0.344947  1
  Ga  Ga8  1  0.750000  0.750000  0.343786  1
  Ga  Ga9  1  0.750000  0.750000  0.656320  1
  Ga  Ga10  1  0.250000  0.250000  0.654374  1
  Ga  Ga11  1  0.502505  0.997333  0.911376  1
  Ga  Ga12  1  0.997333  0.997495  0.911376  1
  Ga  Ga13  1  0.502667  0.502505  0.911376  1
  Ga  Ga14  1  0.997495  0.502667  0.911376  1
  Ga  Ga15  1  0.501397  0.998963  0.088421  1
  Ga  Ga16  1  0.998963  0.998603  0.088421  1
  Ga  Ga17  1  0.501037  0.501397  0.088421  1
  Ga  Ga18  1  0.998603  0.501037  0.088421  1
  Ga  Ga19  1  0.578028  0.078176  0.431912  1
  Ga  Ga20  1  0.078176  0.921972  0.431912  1
  Ga  Ga21  1  0.421824  0.578028  0.431912  1
  Ga  Ga22  1  0.921972  0.421824  0.431912  1
  Ga  Ga23  1  0.420301  0.915827  0.569557  1
  Ga  Ga24  1  0.915827  0.079699  0.569557  1
  Ga  Ga25  1  0.584173  0.420301  0.569557  1
  Ga  Ga26  1  0.079699  0.584173  0.569557  1
  Pd  Pd27  1  0.750000  0.250000  0.998425  1
  Pd  Pd28  1  0.250000  0.750000  0.998425  1
  Au  Au29  1  0.250000  0.250000  0.184193  1
