# generated using pymatgen
data_Zn2GaPd5
_symmetry_space_group_name_H-M   'P 1'
_cell_length_a   4.11678000
_cell_length_b   5.46988200
_cell_length_c   10.61855200
_cell_angle_alpha   90.00000000
_cell_angle_beta   90.00000000
_cell_angle_gamma   90.00000000
_symmetry_Int_Tables_number   1
_chemical_formula_structural   Zn2GaPd5
_chemical_formula_sum   'Zn4 Ga2 Pd10'
_cell_volume   239.11174821
_cell_formula_units_Z   2
loop_
 _symmetry_equiv_pos_site_id
 _symmetry_equiv_pos_as_xyz
  1  'x, y, z'
loop_
 _atom_site_type_symbol
 _atom_site_label
 _atom_site_symmetry_multiplicity
 _atom_site_fract_x
 _atom_site_fract_y
 _atom_site_fract_z
 _atom_site_occupancy
  Zn  Zn0  1  0.000000  0.835531  0.642082  1
  Zn  Zn1  1  0.000000  0.335531  0.857918  1
  Zn  Zn2  1  0.000000  0.164469  0.357918  1
  Zn  Zn3  1  0.000000  0.664469  0.142082  1
  Ga  Ga4  1  0.500000  0.500000  0.500000  1
  Ga  Ga5  1  0.500000  0.000000  0.000000  1
  Pd  Pd6  1  0.000000  0.813819  0.893923  1
  Pd  Pd7  1  0.000000  0.686181  0.393923  1
  Pd  Pd8  1  0.000000  0.313819  0.606077  1
  Pd  Pd9  1  0.500000  0.910126  0.235857  1
  Pd  Pd10  1  0.500000  0.410126  0.264143  1
  Pd  Pd11  1  0.500000  0.589874  0.735857  1
  Pd  Pd12  1  0.500000  0.089874  0.764143  1
  Pd  Pd13  1  0.500000  0.500000  0.000000  1
  Pd  Pd14  1  0.500000  0.000000  0.500000  1
  Pd  Pd15  1  0.000000  0.186181  0.106077  1
