# generated using pymatgen
data_Lu12IrOsPd2
_symmetry_space_group_name_H-M   'P 1'
_cell_length_a   7.11246077
_cell_length_b   8.94634300
_cell_length_c   6.35184900
_cell_angle_alpha   90.00000000
_cell_angle_beta   89.59490819
_cell_angle_gamma   90.00000000
_symmetry_Int_Tables_number   1
_chemical_formula_structural   Lu12IrOsPd2
_chemical_formula_sum   'Lu12 Ir1 Os1 Pd2'
_cell_volume   404.16131240
_cell_formula_units_Z   1
loop_
 _symmetry_equiv_pos_site_id
 _symmetry_equiv_pos_as_xyz
  1  'x, y, z'
loop_
 _atom_site_type_symbol
 _atom_site_label
 _atom_site_symmetry_multiplicity
 _atom_site_fract_x
 _atom_site_fract_y
 _atom_site_fract_z
 _atom_site_occupancy
  Lu  Lu0  1  0.677531  0.055876  0.332462  1
  Lu  Lu1  1  0.186152  0.439542  0.180698  1
  Lu  Lu2  1  0.322894  0.559283  0.670184  1
  Lu  Lu3  1  0.813655  0.938322  0.817198  1
  Lu  Lu4  1  0.322894  0.940717  0.670184  1
  Lu  Lu5  1  0.813655  0.561678  0.817198  1
  Lu  Lu6  1  0.677531  0.444124  0.332462  1
  Lu  Lu7  1  0.186152  0.060458  0.180698  1
  Lu  Lu8  1  0.525494  0.250000  0.875709  1
  Lu  Lu9  1  0.034093  0.250000  0.621357  1
  Lu  Lu10  1  0.474900  0.750000  0.120731  1
  Lu  Lu11  1  0.965552  0.750000  0.381953  1
  Ir  Ir12  1  0.387690  0.250000  0.462640  1
  Os  Os13  1  0.611606  0.750000  0.532687  1
  Pd  Pd14  1  0.892693  0.250000  0.045486  1
  Pd  Pd15  1  0.107507  0.750000  0.958348  1
