# generated using pymatgen
data_Ta4TcB4W
_symmetry_space_group_name_H-M   'P 1'
_cell_length_a   6.08159500
_cell_length_b   6.08159500
_cell_length_c   3.29715000
_cell_angle_alpha   90.00000000
_cell_angle_beta   90.00000000
_cell_angle_gamma   90.00000000
_symmetry_Int_Tables_number   1
_chemical_formula_structural   Ta4TcB4W
_chemical_formula_sum   'Ta4 Tc1 B4 W1'
_cell_volume   121.94772303
_cell_formula_units_Z   1
loop_
 _symmetry_equiv_pos_site_id
 _symmetry_equiv_pos_as_xyz
  1  'x, y, z'
loop_
 _atom_site_type_symbol
 _atom_site_label
 _atom_site_symmetry_multiplicity
 _atom_site_fract_x
 _atom_site_fract_y
 _atom_site_fract_z
 _atom_site_occupancy
  Ta  Ta0  1  0.822929  0.676008  0.500000  1
  Ta  Ta1  1  0.323992  0.822929  0.500000  1
  Ta  Ta2  1  0.177071  0.323992  0.500000  1
  Ta  Ta3  1  0.676008  0.177071  0.500000  1
  Tc  Tc4  1  0.500000  0.500000  0.000000  1
  B  B5  1  0.110478  0.611288  0.000000  1
  B  B6  1  0.611288  0.889522  0.000000  1
  B  B7  1  0.388712  0.110478  0.000000  1
  B  B8  1  0.889522  0.388712  0.000000  1
  W  W9  1  0.000000  0.000000  0.000000  1
