# generated using pymatgen
data_DyErCo12SiP6
_symmetry_space_group_name_H-M   'P 1'
_cell_length_a   9.01446000
_cell_length_b   9.01446005
_cell_length_c   3.58969800
_cell_angle_alpha   90.00000000
_cell_angle_beta   90.00000000
_cell_angle_gamma   119.99999247
_symmetry_Int_Tables_number   1
_chemical_formula_structural   DyErCo12SiP6
_chemical_formula_sum   'Dy1 Er1 Co12 Si1 P6'
_cell_volume   252.62016370
_cell_formula_units_Z   1
loop_
 _symmetry_equiv_pos_site_id
 _symmetry_equiv_pos_as_xyz
  1  'x, y, z'
loop_
 _atom_site_type_symbol
 _atom_site_label
 _atom_site_symmetry_multiplicity
 _atom_site_fract_x
 _atom_site_fract_y
 _atom_site_fract_z
 _atom_site_occupancy
  Dy  Dy0  1  0.666667  0.333333  0.500000  1
  Er  Er1  1  0.333333  0.666667  0.000000  1
  Co  Co2  1  0.122246  0.840399  0.000000  1
  Co  Co3  1  0.385782  0.436238  0.500000  1
  Co  Co4  1  0.718152  0.877754  0.000000  1
  Co  Co5  1  0.563762  0.949544  0.500000  1
  Co  Co6  1  0.229003  0.099390  0.500000  1
  Co  Co7  1  0.870387  0.770997  0.500000  1
  Co  Co8  1  0.900610  0.129613  0.500000  1
  Co  Co9  1  0.940408  0.373459  0.000000  1
  Co  Co10  1  0.626541  0.566949  0.000000  1
  Co  Co11  1  0.433051  0.059592  0.000000  1
  Co  Co12  1  0.050456  0.614218  0.500000  1
  Co  Co13  1  0.159601  0.281848  0.000000  1
  Si  Si14  1  0.000000  0.000000  0.000000  1
  P  P15  1  0.597524  0.710273  0.500000  1
  P  P16  1  0.706134  0.112551  0.000000  1
  P  P17  1  0.887449  0.593584  0.000000  1
  P  P18  1  0.406416  0.293866  0.000000  1
  P  P19  1  0.289727  0.887251  0.500000  1
  P  P20  1  0.112749  0.402476  0.500000  1
