# generated using pymatgen
data_Ho4TmFe3(Co4P3)4
_symmetry_space_group_name_H-M   'P 1'
_cell_length_a   11.96748301
_cell_length_b   11.96748528
_cell_length_c   3.66505900
_cell_angle_alpha   90.00000000
_cell_angle_beta   90.00000000
_cell_angle_gamma   119.99529147
_symmetry_Int_Tables_number   1
_chemical_formula_structural   Ho4TmFe3(Co4P3)4
_chemical_formula_sum   'Ho4 Tm1 Fe3 Co16 P12'
_cell_volume   454.60889304
_cell_formula_units_Z   1
loop_
 _symmetry_equiv_pos_site_id
 _symmetry_equiv_pos_as_xyz
  1  'x, y, z'
loop_
 _atom_site_type_symbol
 _atom_site_label
 _atom_site_symmetry_multiplicity
 _atom_site_fract_x
 _atom_site_fract_y
 _atom_site_fract_z
 _atom_site_occupancy
  Ho  Ho0  1  0.666597  0.333252  0.000000  1
  Ho  Ho1  1  0.333252  0.666597  0.000000  1
  Ho  Ho2  1  0.187241  0.999965  0.500000  1
  Ho  Ho3  1  0.999965  0.187241  0.500000  1
  Tm  Tm4  1  0.812639  0.812639  0.500000  1
  Fe  Fe5  1  0.446908  0.446908  0.000000  1
  Fe  Fe6  1  0.553348  0.999975  0.000000  1
  Fe  Fe7  1  0.999975  0.553348  0.000000  1
  Co  Co8  1  0.873924  0.357163  0.500000  1
  Co  Co9  1  0.643029  0.516995  0.500000  1
  Co  Co10  1  0.483267  0.126133  0.500000  1
  Co  Co11  1  0.357163  0.873924  0.500000  1
  Co  Co12  1  0.516995  0.643029  0.500000  1
  Co  Co13  1  0.126133  0.483267  0.500000  1
  Co  Co14  1  0.800064  0.177496  0.000000  1
  Co  Co15  1  0.822262  0.622924  0.000000  1
  Co  Co16  1  0.377623  0.199865  0.000000  1
  Co  Co17  1  0.177496  0.800064  0.000000  1
  Co  Co18  1  0.622924  0.822262  0.000000  1
  Co  Co19  1  0.199865  0.377623  0.000000  1
  Co  Co20  1  0.283496  0.283496  0.500000  1
  Co  Co21  1  0.716644  0.999773  0.500000  1
  Co  Co22  1  0.999773  0.716644  0.500000  1
  Co  Co23  1  0.999525  0.999525  0.000000  1
  P  P24  1  0.684581  0.164660  0.500000  1
  P  P25  1  0.835267  0.519797  0.500000  1
  P  P26  1  0.480319  0.315519  0.500000  1
  P  P27  1  0.164660  0.684581  0.500000  1
  P  P28  1  0.519797  0.835267  0.500000  1
  P  P29  1  0.315519  0.480319  0.500000  1
  P  P30  1  0.180310  0.180310  0.000000  1
  P  P31  1  0.819396  0.999381  0.000000  1
  P  P32  1  0.999381  0.819396  0.000000  1
  P  P33  1  0.632484  0.632484  0.000000  1
  P  P34  1  0.368151  0.000026  0.000000  1
  P  P35  1  0.000026  0.368151  0.000000  1
