# generated using pymatgen
data_Gd6AlCoNi
_symmetry_space_group_name_H-M   'P 1'
_cell_length_a   8.36083875
_cell_length_b   8.36083897
_cell_length_c   8.36083900
_cell_angle_alpha   112.67795999
_cell_angle_beta   109.52145242
_cell_angle_gamma   106.27745621
_symmetry_Int_Tables_number   1
_chemical_formula_structural   Gd6AlCoNi
_chemical_formula_sum   'Gd12 Al2 Co2 Ni2'
_cell_volume   448.50935810
_cell_formula_units_Z   2
loop_
 _symmetry_equiv_pos_site_id
 _symmetry_equiv_pos_as_xyz
  1  'x, y, z'
loop_
 _atom_site_type_symbol
 _atom_site_label
 _atom_site_symmetry_multiplicity
 _atom_site_fract_x
 _atom_site_fract_y
 _atom_site_fract_z
 _atom_site_occupancy
  Gd  Gd0  1  0.039567  0.736247  0.303320  1
  Gd  Gd1  1  0.960433  0.263753  0.696680  1
  Gd  Gd2  1  0.567076  0.263753  0.303320  1
  Gd  Gd3  1  0.432924  0.736247  0.696680  1
  Gd  Gd4  1  0.670544  0.859912  0.189366  1
  Gd  Gd5  1  0.329456  0.518822  0.189366  1
  Gd  Gd6  1  0.329456  0.140088  0.810634  1
  Gd  Gd7  1  0.670544  0.481178  0.810634  1
  Gd  Gd8  1  0.181587  0.216695  0.398283  1
  Gd  Gd9  1  0.818413  0.216695  0.035109  1
  Gd  Gd10  1  0.181587  0.783305  0.964891  1
  Gd  Gd11  1  0.818413  0.783305  0.601717  1
  Al  Al12  1  0.000000  0.500000  0.500000  1
  Al  Al13  1  0.500000  0.000000  0.500000  1
  Co  Co14  1  0.667605  0.500000  0.167605  1
  Co  Co15  1  0.332395  0.500000  0.832395  1
  Ni  Ni16  1  0.879887  0.879887  0.000000  1
  Ni  Ni17  1  0.120113  0.120113  0.000000  1
