# generated using pymatgen
data_Li2Lu3Pa(ZnPt2)2
_symmetry_space_group_name_H-M   'P 1'
_cell_length_a   3.92646800
_cell_length_b   6.97573445
_cell_length_c   8.38598264
_cell_angle_alpha   90.40872212
_cell_angle_beta   90.00000000
_cell_angle_gamma   90.00000000
_symmetry_Int_Tables_number   1
_chemical_formula_structural   Li2Lu3Pa(ZnPt2)2
_chemical_formula_sum   'Li2 Lu3 Pa1 Zn2 Pt4'
_cell_volume   229.68620420
_cell_formula_units_Z   1
loop_
 _symmetry_equiv_pos_site_id
 _symmetry_equiv_pos_as_xyz
  1  'x, y, z'
loop_
 _atom_site_type_symbol
 _atom_site_label
 _atom_site_symmetry_multiplicity
 _atom_site_fract_x
 _atom_site_fract_y
 _atom_site_fract_z
 _atom_site_occupancy
  Li  Li0  1  0.250000  0.621127  0.559196  1
  Li  Li1  1  0.250000  0.127163  0.939676  1
  Lu  Lu2  1  0.750000  0.445817  0.808352  1
  Lu  Lu3  1  0.750000  0.944774  0.686792  1
  Lu  Lu4  1  0.250000  0.053904  0.321946  1
  Pa  Pa5  1  0.250000  0.551802  0.181929  1
  Zn  Zn6  1  0.750000  0.371538  0.443490  1
  Zn  Zn7  1  0.750000  0.886075  0.060041  1
  Pt  Pt8  1  0.250000  0.739965  0.879218  1
  Pt  Pt9  1  0.750000  0.268174  0.126923  1
  Pt  Pt10  1  0.750000  0.755199  0.367243  1
  Pt  Pt11  1  0.250000  0.234464  0.625192  1
