# generated using pymatgen
data_Pr7ThCu2(Si6Pd)2
_symmetry_space_group_name_H-M   'P 1'
_cell_length_a   8.19817244
_cell_length_b   8.19817269
_cell_length_c   8.60312300
_cell_angle_alpha   89.99768627
_cell_angle_beta   90.00231220
_cell_angle_gamma   119.90140733
_symmetry_Int_Tables_number   1
_chemical_formula_structural   Pr7ThCu2(Si6Pd)2
_chemical_formula_sum   'Pr7 Th1 Cu2 Si12 Pd2'
_cell_volume   501.24664961
_cell_formula_units_Z   1
loop_
 _symmetry_equiv_pos_site_id
 _symmetry_equiv_pos_as_xyz
  1  'x, y, z'
loop_
 _atom_site_type_symbol
 _atom_site_label
 _atom_site_symmetry_multiplicity
 _atom_site_fract_x
 _atom_site_fract_y
 _atom_site_fract_z
 _atom_site_occupancy
  Pr  Pr0  1  0.500192  0.499808  0.249039  1
  Pr  Pr1  1  0.000413  0.500239  0.751309  1
  Pr  Pr2  1  0.999595  0.499778  0.249132  1
  Pr  Pr3  1  0.499761  0.999587  0.751309  1
  Pr  Pr4  1  0.500222  0.000405  0.249132  1
  Pr  Pr5  1  0.000006  0.999994  0.750278  1
  Pr  Pr6  1  0.999978  0.000022  0.249985  1
  Th  Th7  1  0.499894  0.500106  0.750319  1
  Cu  Cu8  1  0.665928  0.334072  0.996251  1
  Cu  Cu9  1  0.334094  0.665906  0.998142  1
  Si  Si10  1  0.830518  0.169482  0.000197  1
  Si  Si11  1  0.169480  0.830520  0.000225  1
  Si  Si12  1  0.337930  0.168988  0.998774  1
  Si  Si13  1  0.166600  0.833400  0.499940  1
  Si  Si14  1  0.662051  0.831009  0.998626  1
  Si  Si15  1  0.833384  0.166616  0.500002  1
  Si  Si16  1  0.831012  0.662070  0.998774  1
  Si  Si17  1  0.668895  0.834969  0.501198  1
  Si  Si18  1  0.168991  0.337949  0.998626  1
  Si  Si19  1  0.331069  0.165020  0.501097  1
  Si  Si20  1  0.165031  0.331105  0.501198  1
  Si  Si21  1  0.834980  0.668931  0.501097  1
  Pd  Pd22  1  0.334704  0.665296  0.501848  1
  Pd  Pd23  1  0.665272  0.334728  0.503501  1
