# generated using pymatgen
data_LaPu2Th(NiB10)2
_symmetry_space_group_name_H-M   'P 1'
_cell_length_a   4.16684600
_cell_length_b   5.61063514
_cell_length_c   11.16229726
_cell_angle_alpha   90.22734618
_cell_angle_beta   90.00000000
_cell_angle_gamma   90.00000000
_symmetry_Int_Tables_number   1
_chemical_formula_structural   LaPu2Th(NiB10)2
_chemical_formula_sum   'La1 Pu2 Th1 Ni2 B20'
_cell_volume   260.95741547
_cell_formula_units_Z   1
loop_
 _symmetry_equiv_pos_site_id
 _symmetry_equiv_pos_as_xyz
  1  'x, y, z'
loop_
 _atom_site_type_symbol
 _atom_site_label
 _atom_site_symmetry_multiplicity
 _atom_site_fract_x
 _atom_site_fract_y
 _atom_site_fract_z
 _atom_site_occupancy
  La  La0  1  0.500000  0.809306  0.638813  1
  Pu  Pu1  1  0.500000  0.314765  0.862706  1
  Pu  Pu2  1  0.500000  0.684651  0.137464  1
  Th  Th3  1  0.500000  0.190292  0.361299  1
  Ni  Ni4  1  0.000000  0.498488  0.498790  1
  Ni  Ni5  1  0.000000  0.000412  0.000463  1
  B  B6  1  0.000000  0.126930  0.540850  1
  B  B7  1  0.000000  0.875122  0.457215  1
  B  B8  1  0.000000  0.625680  0.961125  1
  B  B9  1  0.000000  0.374034  0.039767  1
  B  B10  1  0.000000  0.156572  0.699382  1
  B  B11  1  0.000000  0.844078  0.299899  1
  B  B12  1  0.301691  0.201241  0.112412  1
  B  B13  1  0.301215  0.798868  0.888931  1
  B  B14  1  0.698937  0.701969  0.383713  1
  B  B15  1  0.699203  0.298184  0.615072  1
  B  B16  1  0.698785  0.798868  0.888931  1
  B  B17  1  0.698309  0.201241  0.112412  1
  B  B18  1  0.300797  0.298184  0.615072  1
  B  B19  1  0.301063  0.701969  0.383713  1
  B  B20  1  0.000000  0.032554  0.186398  1
  B  B21  1  0.000000  0.967796  0.814294  1
  B  B22  1  0.000000  0.533509  0.310692  1
  B  B23  1  0.000000  0.465478  0.689561  1
  B  B24  1  0.000000  0.343874  0.196230  1
  B  B25  1  0.000000  0.655934  0.804797  1
