# generated using pymatgen
data_Sc2(Se2O5)3
_symmetry_space_group_name_H-M   'P 1'
_cell_length_a   11.38723700
_cell_length_b   11.59170734
_cell_length_c   11.93601100
_cell_angle_alpha   102.86025306
_cell_angle_beta   90.00000000
_cell_angle_gamma   90.00000000
_symmetry_Int_Tables_number   1
_chemical_formula_structural   Sc2(Se2O5)3
_chemical_formula_sum   'Sc8 Se24 O60'
_cell_volume   1536.00313001
_cell_formula_units_Z   4
loop_
 _symmetry_equiv_pos_site_id
 _symmetry_equiv_pos_as_xyz
  1  'x, y, z'
loop_
 _atom_site_type_symbol
 _atom_site_label
 _atom_site_symmetry_multiplicity
 _atom_site_fract_x
 _atom_site_fract_y
 _atom_site_fract_z
 _atom_site_occupancy
  Sc  Sc0  1  0.263754  0.760772  0.773350  1
  Sc  Sc1  1  0.242969  0.758927  0.276242  1
  Sc  Sc2  1  0.236246  0.260772  0.273350  1
  Sc  Sc3  1  0.257031  0.258927  0.776242  1
  Sc  Sc4  1  0.757031  0.241073  0.723758  1
  Sc  Sc5  1  0.736246  0.239228  0.226650  1
  Sc  Sc6  1  0.742969  0.741073  0.223758  1
  Sc  Sc7  1  0.763754  0.739228  0.726650  1
  Se  Se8  1  0.478760  0.100913  0.203401  1
  Se  Se9  1  0.837793  0.868253  0.003387  1
  Se  Se10  1  0.983281  0.670696  0.341367  1
  Se  Se11  1  0.662207  0.368253  0.503387  1
  Se  Se12  1  0.673765  0.522321  0.882308  1
  Se  Se13  1  0.162207  0.131747  0.996613  1
  Se  Se14  1  0.516719  0.170696  0.841367  1
  Se  Se15  1  0.088849  0.752048  0.014759  1
  Se  Se16  1  0.016719  0.329304  0.658633  1
  Se  Se17  1  0.173765  0.977679  0.617692  1
  Se  Se18  1  0.978760  0.399087  0.296599  1
  Se  Se19  1  0.326235  0.477679  0.117692  1
  Se  Se20  1  0.590857  0.486762  0.204623  1
  Se  Se21  1  0.826235  0.022321  0.382308  1
  Se  Se22  1  0.911151  0.247952  0.985241  1
  Se  Se23  1  0.521240  0.899087  0.796599  1
  Se  Se24  1  0.021240  0.600913  0.703401  1
  Se  Se25  1  0.909143  0.986762  0.704623  1
  Se  Se26  1  0.411151  0.252048  0.514759  1
  Se  Se27  1  0.090857  0.013238  0.295377  1
  Se  Se28  1  0.409143  0.513238  0.795377  1
  Se  Se29  1  0.337793  0.631747  0.496613  1
  Se  Se30  1  0.588849  0.747952  0.485241  1
  Se  Se31  1  0.483281  0.829304  0.158633  1
  O  O32  1  0.219636  0.917052  0.726327  1
  O  O33  1  0.307368  0.299286  0.614754  1
  O  O34  1  0.302721  0.612682  0.846173  1
  O  O35  1  0.138373  0.801606  0.900939  1
  O  O36  1  0.361627  0.301606  0.400939  1
  O  O37  1  0.115744  0.368230  0.767457  1
  O  O38  1  0.143697  0.658172  0.655811  1
  O  O39  1  0.884256  0.631770  0.232543  1
  O  O40  1  0.367948  0.397571  0.852664  1
  O  O41  1  0.643697  0.841828  0.844189  1
  O  O42  1  0.622033  0.298717  0.367849  1
  O  O43  1  0.877967  0.798717  0.867849  1
  O  O44  1  0.852056  0.880077  0.309966  1
  O  O45  1  0.197279  0.112682  0.346173  1
  O  O46  1  0.587708  0.162334  0.140868  1
  O  O47  1  0.977244  0.076494  0.403831  1
  O  O48  1  0.384256  0.868230  0.267457  1
  O  O49  1  0.632052  0.602429  0.147336  1
  O  O50  1  0.107788  0.636932  0.261199  1
  O  O51  1  0.484405  0.624441  0.430971  1
  O  O52  1  0.892212  0.363068  0.738801  1
  O  O53  1  0.867948  0.102429  0.647336  1
  O  O54  1  0.015595  0.124441  0.930971  1
  O  O55  1  0.522756  0.576494  0.903831  1
  O  O56  1  0.122033  0.201283  0.132151  1
  O  O57  1  0.221767  0.244294  0.945881  1
  O  O58  1  0.392212  0.136932  0.761199  1
  O  O59  1  0.192632  0.799286  0.114754  1
  O  O60  1  0.022756  0.923506  0.596169  1
  O  O61  1  0.412292  0.837666  0.859132  1
  O  O62  1  0.356303  0.158172  0.155811  1
  O  O63  1  0.778233  0.755706  0.054119  1
  O  O64  1  0.615744  0.131770  0.732543  1
  O  O65  1  0.692632  0.700714  0.385246  1
  O  O66  1  0.607788  0.863068  0.238801  1
  O  O67  1  0.974426  0.541718  0.401930  1
  O  O68  1  0.132052  0.897571  0.352664  1
  O  O69  1  0.515595  0.375559  0.569029  1
  O  O70  1  0.856303  0.341828  0.344189  1
  O  O71  1  0.280364  0.417052  0.226327  1
  O  O72  1  0.477244  0.423506  0.096169  1
  O  O73  1  0.780364  0.082948  0.273673  1
  O  O74  1  0.638373  0.698394  0.599061  1
  O  O75  1  0.912292  0.662334  0.640868  1
  O  O76  1  0.377967  0.701283  0.632151  1
  O  O77  1  0.802721  0.887318  0.653827  1
  O  O78  1  0.721767  0.255706  0.554119  1
  O  O79  1  0.352056  0.619923  0.190034  1
  O  O80  1  0.147944  0.119923  0.690034  1
  O  O81  1  0.087708  0.337666  0.359132  1
  O  O82  1  0.525574  0.041718  0.901930  1
  O  O83  1  0.719636  0.582948  0.773673  1
  O  O84  1  0.807368  0.200713  0.885246  1
  O  O85  1  0.697279  0.387318  0.153827  1
  O  O86  1  0.278233  0.744294  0.445881  1
  O  O87  1  0.647944  0.380077  0.809966  1
  O  O88  1  0.025574  0.458282  0.598070  1
  O  O89  1  0.474426  0.958282  0.098070  1
  O  O90  1  0.984405  0.875559  0.069029  1
  O  O91  1  0.861627  0.198394  0.099061  1
