# generated using pymatgen
data_NbI3Br8
_symmetry_space_group_name_H-M   'P 1'
_cell_length_a   7.78025444
_cell_length_b   8.15987748
_cell_length_c   8.52431185
_cell_angle_alpha   95.93634836
_cell_angle_beta   90.68167922
_cell_angle_gamma   104.29844208
_symmetry_Int_Tables_number   1
_chemical_formula_structural   NbI3Br8
_chemical_formula_sum   'Nb1 I3 Br8'
_cell_volume   521.20368761
_cell_formula_units_Z   1
loop_
 _symmetry_equiv_pos_site_id
 _symmetry_equiv_pos_as_xyz
  1  'x, y, z'
loop_
 _atom_site_type_symbol
 _atom_site_label
 _atom_site_symmetry_multiplicity
 _atom_site_fract_x
 _atom_site_fract_y
 _atom_site_fract_z
 _atom_site_occupancy
  Nb  Nb0  1  0.000000  0.500000  0.500000  1
  I  I1  1  0.000000  0.000000  0.000000  1
  I  I2  1  0.678148  0.764586  0.849906  1
  I  I3  1  0.321852  0.235414  0.150094  1
  Br  Br4  1  0.710514  0.300900  0.563173  1
  Br  Br5  1  0.289486  0.699100  0.436827  1
  Br  Br6  1  0.498550  0.750918  0.101606  1
  Br  Br7  1  0.501450  0.249082  0.898394  1
  Br  Br8  1  0.860107  0.762094  0.545157  1
  Br  Br9  1  0.139893  0.237906  0.454843  1
  Br  Br10  1  0.899120  0.461822  0.216551  1
  Br  Br11  1  0.100880  0.538178  0.783449  1
