# generated using pymatgen
data_Er4TaCo4
_symmetry_space_group_name_H-M   'P 1'
_cell_length_a   5.59781449
_cell_length_b   5.59781387
_cell_length_c   8.93181835
_cell_angle_alpha   72.19642491
_cell_angle_beta   72.19642664
_cell_angle_gamma   40.92147021
_symmetry_Int_Tables_number   1
_chemical_formula_structural   Er4TaCo4
_chemical_formula_sum   'Er4 Ta1 Co4'
_cell_volume   173.29314627
_cell_formula_units_Z   1
loop_
 _symmetry_equiv_pos_site_id
 _symmetry_equiv_pos_as_xyz
  1  'x, y, z'
loop_
 _atom_site_type_symbol
 _atom_site_label
 _atom_site_symmetry_multiplicity
 _atom_site_fract_x
 _atom_site_fract_y
 _atom_site_fract_z
 _atom_site_occupancy
  Er  Er0  1  0.740163  0.740163  0.665679  1
  Er  Er1  1  0.259837  0.259837  0.334321  1
  Er  Er2  1  0.389954  0.389954  0.890769  1
  Er  Er3  1  0.610046  0.610046  0.109231  1
  Ta  Ta4  1  0.500000  0.500000  0.500000  1
  Co  Co5  1  0.030894  0.030894  0.650417  1
  Co  Co6  1  0.969106  0.969106  0.349583  1
  Co  Co7  1  0.087225  0.087225  0.880751  1
  Co  Co8  1  0.912775  0.912775  0.119249  1
