# generated using pymatgen
data_Hf8Pt3W
_symmetry_space_group_name_H-M   'P 1'
_cell_length_a   8.86308870
_cell_length_b   8.86309027
_cell_length_c   8.81020400
_cell_angle_alpha   60.21851121
_cell_angle_beta   60.21851288
_cell_angle_gamma   60.20069691
_symmetry_Int_Tables_number   1
_chemical_formula_structural   Hf8Pt3W
_chemical_formula_sum   'Hf16 Pt6 W2'
_cell_volume   491.72975132
_cell_formula_units_Z   2
loop_
 _symmetry_equiv_pos_site_id
 _symmetry_equiv_pos_as_xyz
  1  'x, y, z'
loop_
 _atom_site_type_symbol
 _atom_site_label
 _atom_site_symmetry_multiplicity
 _atom_site_fract_x
 _atom_site_fract_y
 _atom_site_fract_z
 _atom_site_occupancy
  Hf  Hf0  1  0.086993  0.637865  0.637759  1
  Hf  Hf1  1  0.637865  0.086993  0.637759  1
  Hf  Hf2  1  0.640382  0.640382  0.078058  1
  Hf  Hf3  1  0.640132  0.640132  0.641288  1
  Hf  Hf4  1  0.785817  0.785817  0.214389  1
  Hf  Hf5  1  0.207992  0.207992  0.791875  1
  Hf  Hf6  1  0.799406  0.205736  0.789681  1
  Hf  Hf7  1  0.205290  0.799311  0.205381  1
  Hf  Hf8  1  0.205736  0.799406  0.789681  1
  Hf  Hf9  1  0.799311  0.205290  0.205381  1
  Hf  Hf10  1  0.431656  0.431656  0.068306  1
  Hf  Hf11  1  0.065485  0.065485  0.434486  1
  Hf  Hf12  1  0.431643  0.058816  0.432608  1
  Hf  Hf13  1  0.058719  0.431773  0.076826  1
  Hf  Hf14  1  0.058816  0.431643  0.432608  1
  Hf  Hf15  1  0.431773  0.058719  0.076826  1
  Pt  Pt16  1  0.857004  0.857004  0.853438  1
  Pt  Pt17  1  0.418399  0.418399  0.753269  1
  Pt  Pt18  1  0.418253  0.418253  0.409665  1
  Pt  Pt19  1  0.428812  0.862570  0.854432  1
  Pt  Pt20  1  0.862570  0.428812  0.854432  1
  Pt  Pt21  1  0.856809  0.856809  0.433299  1
  W  W22  1  0.754002  0.417131  0.414276  1
  W  W23  1  0.417131  0.754002  0.414276  1
