# generated using pymatgen
data_Hf18Co2Re5Mo3
_symmetry_space_group_name_H-M   'P 1'
_cell_length_a   8.62525951
_cell_length_b   8.62525873
_cell_length_c   8.44792000
_cell_angle_alpha   90.00000000
_cell_angle_beta   90.00000000
_cell_angle_gamma   120.03942799
_symmetry_Int_Tables_number   1
_chemical_formula_structural   Hf18Co2Re5Mo3
_chemical_formula_sum   'Hf18 Co2 Re5 Mo3'
_cell_volume   544.06657121
_cell_formula_units_Z   1
loop_
 _symmetry_equiv_pos_site_id
 _symmetry_equiv_pos_as_xyz
  1  'x, y, z'
loop_
 _atom_site_type_symbol
 _atom_site_label
 _atom_site_symmetry_multiplicity
 _atom_site_fract_x
 _atom_site_fract_y
 _atom_site_fract_z
 _atom_site_occupancy
  Hf  Hf0  1  0.200366  0.799634  0.441086  1
  Hf  Hf1  1  0.201176  0.401530  0.442124  1
  Hf  Hf2  1  0.598470  0.798824  0.442124  1
  Hf  Hf3  1  0.799385  0.200615  0.559622  1
  Hf  Hf4  1  0.799593  0.599212  0.559067  1
  Hf  Hf5  1  0.400788  0.200407  0.559067  1
  Hf  Hf6  1  0.799385  0.200615  0.940378  1
  Hf  Hf7  1  0.799593  0.599212  0.940933  1
  Hf  Hf8  1  0.400788  0.200407  0.940933  1
  Hf  Hf9  1  0.200366  0.799634  0.058914  1
  Hf  Hf10  1  0.201176  0.401530  0.057876  1
  Hf  Hf11  1  0.598470  0.798824  0.057876  1
  Hf  Hf12  1  0.541454  0.458546  0.250000  1
  Hf  Hf13  1  0.540248  0.083035  0.250000  1
  Hf  Hf14  1  0.916965  0.459752  0.250000  1
  Hf  Hf15  1  0.458441  0.541559  0.750000  1
  Hf  Hf16  1  0.457934  0.916624  0.750000  1
  Hf  Hf17  1  0.083376  0.542066  0.750000  1
  Co  Co18  1  0.333464  0.666536  0.250000  1
  Co  Co19  1  0.666320  0.333680  0.750000  1
  Re  Re20  1  0.888426  0.775579  0.250000  1
  Re  Re21  1  0.224421  0.111574  0.250000  1
  Re  Re22  1  0.111345  0.888655  0.750000  1
  Re  Re23  1  0.111887  0.223273  0.750000  1
  Re  Re24  1  0.776727  0.888113  0.750000  1
  Mo  Mo25  1  0.888940  0.111060  0.250000  1
  Mo  Mo26  1  0.000247  0.999753  0.499402  1
  Mo  Mo27  1  0.000247  0.999753  0.000598  1
