# generated using pymatgen
data_Y3HoSn10(PdRh2)2
_symmetry_space_group_name_H-M   'P 1'
_cell_length_a   13.48458126
_cell_length_b   13.48458068
_cell_length_c   7.39425611
_cell_angle_alpha   89.98069697
_cell_angle_beta   90.01930415
_cell_angle_gamma   161.17300218
_symmetry_Int_Tables_number   1
_chemical_formula_structural   Y3HoSn10(PdRh2)2
_chemical_formula_sum   'Y3 Ho1 Sn10 Pd2 Rh4'
_cell_volume   433.89446923
_cell_formula_units_Z   1
loop_
 _symmetry_equiv_pos_site_id
 _symmetry_equiv_pos_as_xyz
  1  'x, y, z'
loop_
 _atom_site_type_symbol
 _atom_site_label
 _atom_site_symmetry_multiplicity
 _atom_site_fract_x
 _atom_site_fract_y
 _atom_site_fract_z
 _atom_site_occupancy
  Y  Y0  1  0.174455  0.825545  0.745024  1
  Y  Y1  1  0.825557  0.174443  0.245010  1
  Y  Y2  1  0.475630  0.524370  0.763506  1
  Ho  Ho3  1  0.524527  0.475473  0.263673  1
  Sn  Sn4  1  0.879352  0.120648  0.774810  1
  Sn  Sn5  1  0.120618  0.879382  0.274748  1
  Sn  Sn6  1  0.704441  0.295559  0.450538  1
  Sn  Sn7  1  0.295555  0.704445  0.950558  1
  Sn  Sn8  1  0.598247  0.401753  0.881667  1
  Sn  Sn9  1  0.401776  0.598224  0.381581  1
  Sn  Sn10  1  0.951650  0.048350  0.100990  1
  Sn  Sn11  1  0.048392  0.951608  0.600734  1
  Sn  Sn12  1  0.290378  0.709622  0.521905  1
  Sn  Sn13  1  0.709632  0.290368  0.021915  1
  Pd  Pd14  1  0.049884  0.950116  0.985204  1
  Pd  Pd15  1  0.950125  0.049875  0.484326  1
  Rh  Rh16  1  0.776579  0.223421  0.732020  1
  Rh  Rh17  1  0.223407  0.776593  0.232029  1
  Rh  Rh18  1  0.394459  0.605541  0.017186  1
  Rh  Rh19  1  0.605336  0.394664  0.516570  1
