# generated using pymatgen
data_YbSmZnIr2
_symmetry_space_group_name_H-M   'P 1'
_cell_length_a   5.49769469
_cell_length_b   5.49769359
_cell_length_c   5.49769600
_cell_angle_alpha   135.53304221
_cell_angle_beta   116.63454317
_cell_angle_gamma   80.67975053
_symmetry_Int_Tables_number   1
_chemical_formula_structural   YbSmZnIr2
_chemical_formula_sum   'Yb1 Sm1 Zn1 Ir2'
_cell_volume   100.68121944
_cell_formula_units_Z   1
loop_
 _symmetry_equiv_pos_site_id
 _symmetry_equiv_pos_as_xyz
  1  'x, y, z'
loop_
 _atom_site_type_symbol
 _atom_site_label
 _atom_site_symmetry_multiplicity
 _atom_site_fract_x
 _atom_site_fract_y
 _atom_site_fract_z
 _atom_site_occupancy
  Yb  Yb0  1  0.293863  0.793864  0.500001  1
  Sm  Sm1  1  0.702815  0.202815  0.500000  1
  Zn  Zn2  1  0.004418  0.004418  0.000000  1
  Ir  Ir3  1  0.726231  0.499452  0.226781  1
  Ir  Ir4  1  0.272671  0.499453  0.773219  1
