# generated using pymatgen
data_Nd4Al18HgRh5
_symmetry_space_group_name_H-M   'P 1'
_cell_length_a   7.68637069
_cell_length_b   7.68637118
_cell_length_c   9.63618626
_cell_angle_alpha   89.85075457
_cell_angle_beta   89.85075551
_cell_angle_gamma   119.26561031
_symmetry_Int_Tables_number   1
_chemical_formula_structural   Nd4Al18HgRh5
_chemical_formula_sum   'Nd4 Al18 Hg1 Rh5'
_cell_volume   496.63721678
_cell_formula_units_Z   1
loop_
 _symmetry_equiv_pos_site_id
 _symmetry_equiv_pos_as_xyz
  1  'x, y, z'
loop_
 _atom_site_type_symbol
 _atom_site_label
 _atom_site_symmetry_multiplicity
 _atom_site_fract_x
 _atom_site_fract_y
 _atom_site_fract_z
 _atom_site_occupancy
  Nd  Nd0  1  0.996286  0.678239  0.749441  1
  Nd  Nd1  1  0.003714  0.321761  0.250559  1
  Nd  Nd2  1  0.678239  0.996286  0.749441  1
  Nd  Nd3  1  0.321761  0.003714  0.250559  1
  Al  Al4  1  0.144400  0.144400  0.764403  1
  Al  Al5  1  0.855600  0.855600  0.235597  1
  Al  Al6  1  0.005441  0.352469  0.579658  1
  Al  Al7  1  0.994559  0.647531  0.420342  1
  Al  Al8  1  0.999808  0.662280  0.070320  1
  Al  Al9  1  0.337720  0.000192  0.929680  1
  Al  Al10  1  0.000192  0.337720  0.929680  1
  Al  Al11  1  0.662280  0.999808  0.070320  1
  Al  Al12  1  0.647531  0.994559  0.420342  1
  Al  Al13  1  0.352469  0.005441  0.579658  1
  Al  Al14  1  0.334113  0.334113  0.046572  1
  Al  Al15  1  0.665887  0.665887  0.953428  1
  Al  Al16  1  0.649730  0.649730  0.560178  1
  Al  Al17  1  0.350270  0.350270  0.439822  1
  Al  Al18  1  0.339155  0.552124  0.752877  1
  Al  Al19  1  0.660845  0.447876  0.247123  1
  Al  Al20  1  0.552124  0.339155  0.752877  1
  Al  Al21  1  0.447876  0.660845  0.247123  1
  Hg  Hg22  1  0.000000  0.000000  0.500000  1
  Rh  Rh23  1  0.670805  0.329195  0.500000  1
  Rh  Rh24  1  0.329195  0.670805  0.500000  1
  Rh  Rh25  1  0.328948  0.671052  0.000000  1
  Rh  Rh26  1  0.671052  0.328948  0.000000  1
  Rh  Rh27  1  0.000000  0.000000  0.000000  1
