# generated using pymatgen
data_LuTa8MoS16
_symmetry_space_group_name_H-M   'P 1'
_cell_length_a   6.66496600
_cell_length_b   6.66496525
_cell_length_c   12.95726100
_cell_angle_alpha   90.00000000
_cell_angle_beta   90.00000000
_cell_angle_gamma   120.00000375
_symmetry_Int_Tables_number   1
_chemical_formula_structural   LuTa8MoS16
_chemical_formula_sum   'Lu1 Ta8 Mo1 S16'
_cell_volume   498.47071602
_cell_formula_units_Z   1
loop_
 _symmetry_equiv_pos_site_id
 _symmetry_equiv_pos_as_xyz
  1  'x, y, z'
loop_
 _atom_site_type_symbol
 _atom_site_label
 _atom_site_symmetry_multiplicity
 _atom_site_fract_x
 _atom_site_fract_y
 _atom_site_fract_z
 _atom_site_occupancy
  Lu  Lu0  1  0.000000  0.000000  0.000000  1
  Ta  Ta1  1  0.505234  0.494766  0.738607  1
  Ta  Ta2  1  0.010468  0.505234  0.261393  1
  Ta  Ta3  1  0.494766  0.989532  0.261393  1
  Ta  Ta4  1  0.505234  0.010468  0.738607  1
  Ta  Ta5  1  0.989532  0.494766  0.738607  1
  Ta  Ta6  1  0.494766  0.505234  0.261393  1
  Ta  Ta7  1  0.000000  0.000000  0.739578  1
  Ta  Ta8  1  0.000000  0.000000  0.260422  1
  Mo  Mo9  1  0.000000  0.000000  0.500000  1
  S  S10  1  0.832954  0.167046  0.381778  1
  S  S11  1  0.832954  0.665908  0.381778  1
  S  S12  1  0.334092  0.167046  0.381778  1
  S  S13  1  0.661848  0.830925  0.861042  1
  S  S14  1  0.167046  0.334092  0.618222  1
  S  S15  1  0.169075  0.830925  0.861042  1
  S  S16  1  0.169075  0.338152  0.861042  1
  S  S17  1  0.830925  0.169075  0.138958  1
  S  S18  1  0.338152  0.169075  0.138958  1
  S  S19  1  0.665908  0.832954  0.618222  1
  S  S20  1  0.333333  0.666667  0.136492  1
  S  S21  1  0.666667  0.333333  0.615169  1
  S  S22  1  0.666667  0.333333  0.863508  1
  S  S23  1  0.333333  0.666667  0.384831  1
  S  S24  1  0.830925  0.661848  0.138958  1
  S  S25  1  0.167046  0.832954  0.618222  1
