# generated using pymatgen
data_Y(AlB14)2
_symmetry_space_group_name_H-M   'P 1'
_cell_length_a   7.22425389
_cell_length_b   7.22425484
_cell_length_c   5.83047700
_cell_angle_alpha   66.43885959
_cell_angle_beta   66.43887665
_cell_angle_gamma   92.31848209
_symmetry_Int_Tables_number   1
_chemical_formula_structural   Y(AlB14)2
_chemical_formula_sum   'Y1 Al2 B28'
_cell_volume   248.30502603
_cell_formula_units_Z   1
loop_
 _symmetry_equiv_pos_site_id
 _symmetry_equiv_pos_as_xyz
  1  'x, y, z'
loop_
 _atom_site_type_symbol
 _atom_site_label
 _atom_site_symmetry_multiplicity
 _atom_site_fract_x
 _atom_site_fract_y
 _atom_site_fract_z
 _atom_site_occupancy
  Y  Y0  1  0.891239  0.891239  0.357310  1
  Al  Al1  1  0.498806  0.498806  0.504053  1
  Al  Al2  1  0.158475  0.158475  0.495064  1
  B  B3  1  0.417027  0.736555  0.171632  1
  B  B4  1  0.583988  0.258317  0.834340  1
  B  B5  1  0.258317  0.583987  0.834340  1
  B  B6  1  0.736555  0.417028  0.171632  1
  B  B7  1  0.694364  0.860662  0.973191  1
  B  B8  1  0.305536  0.135038  0.035159  1
  B  B9  1  0.135039  0.305536  0.035158  1
  B  B10  1  0.860662  0.694364  0.973191  1
  B  B11  1  0.533931  0.872378  0.299438  1
  B  B12  1  0.470127  0.124075  0.205149  1
  B  B13  1  0.124075  0.470127  0.205149  1
  B  B14  1  0.872378  0.533931  0.299438  1
  B  B15  1  0.462353  0.121613  0.711970  1
  B  B16  1  0.531838  0.870395  0.801255  1
  B  B17  1  0.870395  0.531837  0.801254  1
  B  B18  1  0.121613  0.462353  0.711970  1
  B  B19  1  0.723229  0.100116  0.999661  1
  B  B20  1  0.279712  0.893309  0.325820  1
  B  B21  1  0.893309  0.279713  0.325819  1
  B  B22  1  0.100116  0.723229  0.999661  1
  B  B23  1  0.276910  0.895789  0.008514  1
  B  B24  1  0.720076  0.100879  0.685135  1
  B  B25  1  0.100879  0.720076  0.685135  1
  B  B26  1  0.895789  0.276910  0.008515  1
  B  B27  1  0.271179  0.473221  0.380181  1
  B  B28  1  0.717043  0.521820  0.640341  1
  B  B29  1  0.521819  0.717043  0.640341  1
  B  B30  1  0.473221  0.271179  0.380181  1
