# generated using pymatgen
data_La4Co4HgCl
_symmetry_space_group_name_H-M   'P 1'
_cell_length_a   3.97640600
_cell_length_b   3.97640584
_cell_length_c   17.14036700
_cell_angle_alpha   90.00000000
_cell_angle_beta   90.00000000
_cell_angle_gamma   119.99998472
_symmetry_Int_Tables_number   1
_chemical_formula_structural   La4Co4HgCl
_chemical_formula_sum   'La4 Co4 Hg1 Cl1'
_cell_volume   234.71034839
_cell_formula_units_Z   1
loop_
 _symmetry_equiv_pos_site_id
 _symmetry_equiv_pos_as_xyz
  1  'x, y, z'
loop_
 _atom_site_type_symbol
 _atom_site_label
 _atom_site_symmetry_multiplicity
 _atom_site_fract_x
 _atom_site_fract_y
 _atom_site_fract_z
 _atom_site_occupancy
  La  La0  1  0.000000  0.000000  0.107598  1
  La  La1  1  0.000000  0.000000  0.885166  1
  La  La2  1  0.000000  0.000000  0.614834  1
  La  La3  1  0.000000  0.000000  0.392402  1
  Co  Co4  1  0.333333  0.666667  0.507139  1
  Co  Co5  1  0.666667  0.333333  0.505997  1
  Co  Co6  1  0.666667  0.333333  0.994003  1
  Co  Co7  1  0.333333  0.666667  0.992861  1
  Hg  Hg8  1  0.333333  0.666667  0.250000  1
  Cl  Cl9  1  0.666667  0.333333  0.750000  1
