# generated using pymatgen
data_NdY2Lu17Sb12
_symmetry_space_group_name_H-M   'P 1'
_cell_length_a   8.05435325
_cell_length_b   9.12243300
_cell_length_c   11.67944400
_cell_angle_alpha   90.00000000
_cell_angle_beta   90.14904518
_cell_angle_gamma   90.00000000
_symmetry_Int_Tables_number   1
_chemical_formula_structural   NdY2Lu17Sb12
_chemical_formula_sum   'Nd1 Y2 Lu17 Sb12'
_cell_volume   858.14772364
_cell_formula_units_Z   1
loop_
 _symmetry_equiv_pos_site_id
 _symmetry_equiv_pos_as_xyz
  1  'x, y, z'
loop_
 _atom_site_type_symbol
 _atom_site_label
 _atom_site_symmetry_multiplicity
 _atom_site_fract_x
 _atom_site_fract_y
 _atom_site_fract_z
 _atom_site_occupancy
  Nd  Nd0  1  0.824596  0.750000  0.771846  1
  Y  Y1  1  0.657476  0.250000  0.291206  1
  Y  Y2  1  0.175034  0.250000  0.228292  1
  Lu  Lu3  1  0.676190  0.750000  0.271042  1
  Lu  Lu4  1  0.309086  0.561144  0.433436  1
  Lu  Lu5  1  0.841092  0.250000  0.790095  1
  Lu  Lu6  1  0.190005  0.937802  0.934191  1
  Lu  Lu7  1  0.309086  0.938856  0.433436  1
  Lu  Lu8  1  0.691316  0.438073  0.566166  1
  Lu  Lu9  1  0.809026  0.438376  0.064867  1
  Lu  Lu10  1  0.976008  0.750000  0.494781  1
  Lu  Lu11  1  0.160548  0.750000  0.210735  1
  Lu  Lu12  1  0.323793  0.250000  0.728316  1
  Lu  Lu13  1  0.473805  0.250000  0.004830  1
  Lu  Lu14  1  0.809026  0.061624  0.064867  1
  Lu  Lu15  1  0.190005  0.562198  0.934191  1
  Lu  Lu16  1  0.025181  0.250000  0.504572  1
  Lu  Lu17  1  0.339842  0.750000  0.708459  1
  Lu  Lu18  1  0.691316  0.061927  0.566166  1
  Lu  Lu19  1  0.524666  0.750000  0.995197  1
  Sb  Sb20  1  0.096925  0.250000  0.972631  1
  Sb  Sb21  1  0.935511  0.492520  0.326700  1
  Sb  Sb22  1  0.436811  0.989132  0.173826  1
  Sb  Sb23  1  0.070350  0.994085  0.672103  1
  Sb  Sb24  1  0.436811  0.510868  0.173826  1
  Sb  Sb25  1  0.596156  0.750000  0.523860  1
  Sb  Sb26  1  0.401817  0.250000  0.476971  1
  Sb  Sb27  1  0.559558  0.487906  0.826289  1
  Sb  Sb28  1  0.070350  0.505915  0.672103  1
  Sb  Sb29  1  0.903536  0.750000  0.032014  1
  Sb  Sb30  1  0.559558  0.012094  0.826289  1
  Sb  Sb31  1  0.935511  0.007480  0.326700  1
