# generated using pymatgen
data_Gd2Se5O13
_symmetry_space_group_name_H-M   'P 1'
_cell_length_a   10.48036600
_cell_length_b   10.35826426
_cell_length_c   13.11416800
_cell_angle_alpha   68.10085857
_cell_angle_beta   90.00000000
_cell_angle_gamma   90.00000000
_symmetry_Int_Tables_number   1
_chemical_formula_structural   Gd2Se5O13
_chemical_formula_sum   'Gd8 Se20 O52'
_cell_volume   1320.92491859
_cell_formula_units_Z   4
loop_
 _symmetry_equiv_pos_site_id
 _symmetry_equiv_pos_as_xyz
  1  'x, y, z'
loop_
 _atom_site_type_symbol
 _atom_site_label
 _atom_site_symmetry_multiplicity
 _atom_site_fract_x
 _atom_site_fract_y
 _atom_site_fract_z
 _atom_site_occupancy
  Gd  Gd0  1  0.253016  0.174054  0.091576  1
  Gd  Gd1  1  0.819188  0.063501  0.087348  1
  Gd  Gd2  1  0.180812  0.936499  0.912652  1
  Gd  Gd3  1  0.746984  0.825946  0.908424  1
  Gd  Gd4  1  0.680812  0.063501  0.587348  1
  Gd  Gd5  1  0.753016  0.825946  0.408424  1
  Gd  Gd6  1  0.246984  0.174054  0.591576  1
  Gd  Gd7  1  0.319188  0.936499  0.412652  1
  Se  Se8  1  0.922791  0.097121  0.774616  1
  Se  Se9  1  0.426452  0.650237  0.035104  1
  Se  Se10  1  0.573548  0.349763  0.964896  1
  Se  Se11  1  0.268292  0.336660  0.307804  1
  Se  Se12  1  0.768292  0.663340  0.192196  1
  Se  Se13  1  0.926452  0.349763  0.464896  1
  Se  Se14  1  0.422791  0.902879  0.725384  1
  Se  Se15  1  0.427428  0.850709  0.178416  1
  Se  Se16  1  0.516125  0.401432  0.404826  1
  Se  Se17  1  0.231708  0.336660  0.807804  1
  Se  Se18  1  0.927428  0.149291  0.321584  1
  Se  Se19  1  0.016125  0.598568  0.095174  1
  Se  Se20  1  0.983875  0.401432  0.904826  1
  Se  Se21  1  0.577209  0.097121  0.274616  1
  Se  Se22  1  0.731708  0.663340  0.692196  1
  Se  Se23  1  0.077209  0.902879  0.225384  1
  Se  Se24  1  0.073548  0.650237  0.535104  1
  Se  Se25  1  0.483875  0.598568  0.595174  1
  Se  Se26  1  0.572572  0.149291  0.821584  1
  Se  Se27  1  0.072572  0.850709  0.678416  1
  O  O28  1  0.267055  0.322807  0.687850  1
  O  O29  1  0.234059  0.168731  0.905528  1
  O  O30  1  0.366421  0.798285  0.940913  1
  O  O31  1  0.422302  0.082892  0.230864  1
  O  O32  1  0.333195  0.020955  0.763447  1
  O  O33  1  0.833195  0.979045  0.736553  1
  O  O34  1  0.553023  0.977673  0.408870  1
  O  O35  1  0.666805  0.979045  0.236553  1
  O  O36  1  0.946977  0.977673  0.908870  1
  O  O37  1  0.446977  0.022327  0.591130  1
  O  O38  1  0.890938  0.640891  0.006912  1
  O  O39  1  0.390938  0.359109  0.493088  1
  O  O40  1  0.609062  0.640891  0.506912  1
  O  O41  1  0.765941  0.831269  0.094472  1
  O  O42  1  0.265941  0.168731  0.405528  1
  O  O43  1  0.689859  0.051353  0.909794  1
  O  O44  1  0.577698  0.917108  0.769136  1
  O  O45  1  0.922302  0.917108  0.269136  1
  O  O46  1  0.585514  0.671919  0.010604  1
  O  O47  1  0.365219  0.795909  0.305904  1
  O  O48  1  0.904885  0.321595  0.335144  1
  O  O49  1  0.133579  0.798285  0.440913  1
  O  O50  1  0.865219  0.204091  0.194096  1
  O  O51  1  0.310141  0.948647  0.090206  1
  O  O52  1  0.557625  0.640157  0.711152  1
  O  O53  1  0.942375  0.640157  0.211152  1
  O  O54  1  0.232945  0.322807  0.187850  1
  O  O55  1  0.379330  0.730815  0.552933  1
  O  O56  1  0.053023  0.022327  0.091130  1
  O  O57  1  0.879330  0.269185  0.947067  1
  O  O58  1  0.057625  0.359843  0.788848  1
  O  O59  1  0.077698  0.082892  0.730864  1
  O  O60  1  0.633579  0.201715  0.059087  1
  O  O61  1  0.109062  0.359109  0.993088  1
  O  O62  1  0.767055  0.677193  0.812150  1
  O  O63  1  0.734059  0.831269  0.594472  1
  O  O64  1  0.732945  0.677193  0.312150  1
  O  O65  1  0.404885  0.678405  0.164856  1
  O  O66  1  0.442375  0.359843  0.288848  1
  O  O67  1  0.595115  0.321595  0.835144  1
  O  O68  1  0.866421  0.201715  0.559087  1
  O  O69  1  0.189859  0.948647  0.590206  1
  O  O70  1  0.634781  0.204091  0.694096  1
  O  O71  1  0.166805  0.020955  0.263447  1
  O  O72  1  0.620670  0.269185  0.447067  1
  O  O73  1  0.914486  0.671919  0.510604  1
  O  O74  1  0.095115  0.678405  0.664856  1
  O  O75  1  0.085514  0.328081  0.489396  1
  O  O76  1  0.120670  0.730815  0.052933  1
  O  O77  1  0.414486  0.328081  0.989396  1
  O  O78  1  0.810141  0.051353  0.409794  1
  O  O79  1  0.134781  0.795909  0.805904  1
