# generated using pymatgen
data_Zr6CuRhO2
_symmetry_space_group_name_H-M   'P 1'
_cell_length_a   5.83153591
_cell_length_b   5.83153579
_cell_length_c   8.94368600
_cell_angle_alpha   90.00000000
_cell_angle_beta   90.00000000
_cell_angle_gamma   146.32187839
_symmetry_Int_Tables_number   1
_chemical_formula_structural   Zr6CuRhO2
_chemical_formula_sum   'Zr6 Cu1 Rh1 O2'
_cell_volume   168.65720883
_cell_formula_units_Z   1
loop_
 _symmetry_equiv_pos_site_id
 _symmetry_equiv_pos_as_xyz
  1  'x, y, z'
loop_
 _atom_site_type_symbol
 _atom_site_label
 _atom_site_symmetry_multiplicity
 _atom_site_fract_x
 _atom_site_fract_y
 _atom_site_fract_z
 _atom_site_occupancy
  Zr  Zr0  1  0.135512  0.864491  0.052067  1
  Zr  Zr1  1  0.442008  0.557995  0.250000  1
  Zr  Zr2  1  0.135512  0.864491  0.447933  1
  Zr  Zr3  1  0.868816  0.131187  0.557215  1
  Zr  Zr4  1  0.556997  0.443006  0.750000  1
  Zr  Zr5  1  0.868816  0.131187  0.942785  1
  Cu  Cu6  1  0.250968  0.749035  0.750000  1
  Rh  Rh7  1  0.745118  0.254885  0.250000  1
  O  O8  1  0.498133  0.501869  0.998314  1
  O  O9  1  0.498133  0.501869  0.501685  1
