# generated using pymatgen
data_Lu15Th(NiHg)4
_symmetry_space_group_name_H-M   'P 1'
_cell_length_a   9.35852763
_cell_length_b   9.35852876
_cell_length_c   9.35852875
_cell_angle_alpha   60.06651897
_cell_angle_beta   60.06651455
_cell_angle_gamma   60.06652372
_symmetry_Int_Tables_number   1
_chemical_formula_structural   Lu15Th(NiHg)4
_chemical_formula_sum   'Lu15 Th1 Ni4 Hg4'
_cell_volume   580.44610623
_cell_formula_units_Z   1
loop_
 _symmetry_equiv_pos_site_id
 _symmetry_equiv_pos_as_xyz
  1  'x, y, z'
loop_
 _atom_site_type_symbol
 _atom_site_label
 _atom_site_symmetry_multiplicity
 _atom_site_fract_x
 _atom_site_fract_y
 _atom_site_fract_z
 _atom_site_occupancy
  Lu  Lu0  1  0.351609  0.351609  0.944210  1
  Lu  Lu1  1  0.351609  0.944210  0.351609  1
  Lu  Lu2  1  0.944210  0.351609  0.351609  1
  Lu  Lu3  1  0.814279  0.186590  0.186590  1
  Lu  Lu4  1  0.189501  0.811561  0.811561  1
  Lu  Lu5  1  0.186590  0.814279  0.186590  1
  Lu  Lu6  1  0.811561  0.189501  0.811561  1
  Lu  Lu7  1  0.186590  0.186590  0.814279  1
  Lu  Lu8  1  0.811561  0.811561  0.189501  1
  Lu  Lu9  1  0.935622  0.564896  0.564896  1
  Lu  Lu10  1  0.563579  0.937098  0.937098  1
  Lu  Lu11  1  0.564896  0.935622  0.564896  1
  Lu  Lu12  1  0.937098  0.563579  0.937098  1
  Lu  Lu13  1  0.564896  0.564896  0.935622  1
  Lu  Lu14  1  0.937098  0.937098  0.563579  1
  Th  Th15  1  0.347661  0.347661  0.347661  1
  Ni  Ni16  1  0.144219  0.144219  0.144219  1
  Ni  Ni17  1  0.142166  0.142166  0.571233  1
  Ni  Ni18  1  0.142166  0.571233  0.142166  1
  Ni  Ni19  1  0.571233  0.142166  0.142166  1
  Hg  Hg20  1  0.586083  0.586083  0.586083  1
  Hg  Hg21  1  0.587933  0.587933  0.239910  1
  Hg  Hg22  1  0.587933  0.239910  0.587933  1
  Hg  Hg23  1  0.239910  0.587933  0.587933  1
