# generated using pymatgen
data_Dy3YHf4F28
_symmetry_space_group_name_H-M   'P 1'
_cell_length_a   5.68973302
_cell_length_b   9.05070470
_cell_length_c   12.18451559
_cell_angle_alpha   62.31393024
_cell_angle_beta   90.00392459
_cell_angle_gamma   90.00287172
_symmetry_Int_Tables_number   1
_chemical_formula_structural   Dy3YHf4F28
_chemical_formula_sum   'Dy3 Y1 Hf4 F28'
_cell_volume   555.61551071
_cell_formula_units_Z   1
loop_
 _symmetry_equiv_pos_site_id
 _symmetry_equiv_pos_as_xyz
  1  'x, y, z'
loop_
 _atom_site_type_symbol
 _atom_site_label
 _atom_site_symmetry_multiplicity
 _atom_site_fract_x
 _atom_site_fract_y
 _atom_site_fract_z
 _atom_site_occupancy
  Dy  Dy0  1  0.256977  0.185060  0.734553  1
  Dy  Dy1  1  0.243118  0.184984  0.234555  1
  Dy  Dy2  1  0.743132  0.815248  0.265451  1
  Y  Y3  1  0.756883  0.815183  0.765431  1
  Hf  Hf4  1  0.756469  0.273715  0.956145  1
  Hf  Hf5  1  0.256458  0.725964  0.543714  1
  Hf  Hf6  1  0.243432  0.726007  0.044271  1
  Hf  Hf7  1  0.743520  0.274279  0.455862  1
  F  F8  1  0.458438  0.709804  0.920166  1
  F  F9  1  0.959458  0.289750  0.580000  1
  F  F10  1  0.540528  0.289743  0.080022  1
  F  F11  1  0.040694  0.710127  0.419697  1
  F  F12  1  0.450983  0.276267  0.549004  1
  F  F13  1  0.950419  0.723487  0.951715  1
  F  F14  1  0.549412  0.723700  0.450928  1
  F  F15  1  0.049032  0.276228  0.049104  1
  F  F16  1  0.774578  0.523179  0.860816  1
  F  F17  1  0.274411  0.476410  0.639120  1
  F  F18  1  0.225894  0.476446  0.139505  1
  F  F19  1  0.725730  0.523801  0.360584  1
  F  F20  1  0.759590  0.025112  0.058010  1
  F  F21  1  0.259533  0.974599  0.441979  1
  F  F22  1  0.240399  0.974585  0.942061  1
  F  F23  1  0.740414  0.025629  0.557348  1
  F  F24  1  0.983078  0.732283  0.645416  1
  F  F25  1  0.483155  0.267267  0.854304  1
  F  F26  1  0.016500  0.267311  0.354047  1
  F  F27  1  0.516723  0.732989  0.145907  1
  F  F28  1  0.036819  0.746202  0.172002  1
  F  F29  1  0.536490  0.254230  0.328172  1
  F  F30  1  0.963249  0.253793  0.828332  1
  F  F31  1  0.462471  0.745788  0.671748  1
  F  F32  1  0.423934  0.972396  0.232854  1
  F  F33  1  0.923869  0.027771  0.267166  1
  F  F34  1  0.576672  0.028441  0.767387  1
  F  F35  1  0.077535  0.972222  0.732627  1
