# generated using pymatgen
data_Nd3Sm(Tm3Pt4)2
_symmetry_space_group_name_H-M   'P 1'
_cell_length_a   7.58988100
_cell_length_b   7.66446907
_cell_length_c   14.64637800
_cell_angle_alpha   90.00761006
_cell_angle_beta   90.00000000
_cell_angle_gamma   90.00000000
_symmetry_Int_Tables_number   1
_chemical_formula_structural   Nd3Sm(Tm3Pt4)2
_chemical_formula_sum   'Nd6 Sm2 Tm12 Pt16'
_cell_volume   852.01507144
_cell_formula_units_Z   2
loop_
 _symmetry_equiv_pos_site_id
 _symmetry_equiv_pos_as_xyz
  1  'x, y, z'
loop_
 _atom_site_type_symbol
 _atom_site_label
 _atom_site_symmetry_multiplicity
 _atom_site_fract_x
 _atom_site_fract_y
 _atom_site_fract_z
 _atom_site_occupancy
  Nd  Nd0  1  0.501471  0.678412  0.594444  1
  Nd  Nd1  1  0.001471  0.821588  0.905556  1
  Nd  Nd2  1  0.498858  0.325583  0.093752  1
  Nd  Nd3  1  0.998858  0.174417  0.406248  1
  Nd  Nd4  1  0.498223  0.323081  0.405026  1
  Nd  Nd5  1  0.998223  0.176919  0.094974  1
  Sm  Sm6  1  0.501564  0.677963  0.903035  1
  Sm  Sm7  1  0.001564  0.822037  0.596965  1
  Tm  Tm8  1  0.658570  0.166321  0.623270  1
  Tm  Tm9  1  0.158570  0.333679  0.876730  1
  Tm  Tm10  1  0.344643  0.831927  0.121857  1
  Tm  Tm11  1  0.844643  0.668073  0.378143  1
  Tm  Tm12  1  0.342222  0.834610  0.376857  1
  Tm  Tm13  1  0.842222  0.665390  0.123143  1
  Tm  Tm14  1  0.657861  0.166621  0.876024  1
  Tm  Tm15  1  0.157861  0.333379  0.623976  1
  Tm  Tm16  1  0.820032  0.507159  0.749946  1
  Tm  Tm17  1  0.320032  0.992841  0.750054  1
  Tm  Tm18  1  0.179038  0.493085  0.250284  1
  Tm  Tm19  1  0.679038  0.006915  0.249716  1
  Pt  Pt20  1  0.677261  0.961946  0.457846  1
  Pt  Pt21  1  0.177261  0.538054  0.042154  1
  Pt  Pt22  1  0.325594  0.033624  0.953917  1
  Pt  Pt23  1  0.825594  0.466376  0.546083  1
  Pt  Pt24  1  0.318017  0.034279  0.545067  1
  Pt  Pt25  1  0.818017  0.465721  0.954933  1
  Pt  Pt26  1  0.676936  0.959829  0.042202  1
  Pt  Pt27  1  0.176936  0.540171  0.457798  1
  Pt  Pt28  1  0.454233  0.377129  0.750338  1
  Pt  Pt29  1  0.954233  0.122871  0.749662  1
  Pt  Pt30  1  0.546671  0.626950  0.250697  1
  Pt  Pt31  1  0.046671  0.873050  0.249303  1
  Pt  Pt32  1  0.686221  0.862178  0.750447  1
  Pt  Pt33  1  0.186221  0.637822  0.749553  1
  Pt  Pt34  1  0.312586  0.136837  0.249518  1
  Pt  Pt35  1  0.812586  0.363163  0.250482  1
