# generated using pymatgen
data_LaPr4(RuO6)2
_symmetry_space_group_name_H-M   'P 1'
_cell_length_a   7.13118807
_cell_length_b   7.13118835
_cell_length_c   7.76690802
_cell_angle_alpha   74.18858992
_cell_angle_beta   74.18858905
_cell_angle_gamma   50.00267360
_symmetry_Int_Tables_number   1
_chemical_formula_structural   LaPr4(RuO6)2
_chemical_formula_sum   'La1 Pr4 Ru2 O12'
_cell_volume   288.58349449
_cell_formula_units_Z   1
loop_
 _symmetry_equiv_pos_site_id
 _symmetry_equiv_pos_as_xyz
  1  'x, y, z'
loop_
 _atom_site_type_symbol
 _atom_site_label
 _atom_site_symmetry_multiplicity
 _atom_site_fract_x
 _atom_site_fract_y
 _atom_site_fract_z
 _atom_site_occupancy
  La  La0  1  0.000000  0.000000  0.500000  1
  Pr  Pr1  1  0.306686  0.306686  0.357285  1
  Pr  Pr2  1  0.693314  0.693314  0.642715  1
  Pr  Pr3  1  0.690723  0.690723  0.167251  1
  Pr  Pr4  1  0.309277  0.309277  0.832749  1
  Ru  Ru5  1  0.764719  0.235281  0.000000  1
  Ru  Ru6  1  0.235281  0.764719  0.000000  1
  O  O7  1  0.095191  0.593991  0.578150  1
  O  O8  1  0.999128  0.999128  0.183634  1
  O  O9  1  0.406009  0.904809  0.421850  1
  O  O10  1  0.499917  0.499917  0.170961  1
  O  O11  1  0.096254  0.586065  0.078394  1
  O  O12  1  0.904809  0.406009  0.421850  1
  O  O13  1  0.000872  0.000872  0.816366  1
  O  O14  1  0.593991  0.095190  0.578150  1
  O  O15  1  0.500083  0.500083  0.829039  1
  O  O16  1  0.586065  0.096254  0.078394  1
  O  O17  1  0.413935  0.903746  0.921606  1
  O  O18  1  0.903746  0.413935  0.921606  1
