# generated using pymatgen
data_Dy5MgTiP12Ir17
_symmetry_space_group_name_H-M   'P 1'
_cell_length_a   12.62446874
_cell_length_b   12.78836421
_cell_length_c   3.97860600
_cell_angle_alpha   90.00000000
_cell_angle_beta   90.00000000
_cell_angle_gamma   119.22450148
_symmetry_Int_Tables_number   1
_chemical_formula_structural   Dy5MgTiP12Ir17
_chemical_formula_sum   'Dy5 Mg1 Ti1 P12 Ir17'
_cell_volume   560.57105884
_cell_formula_units_Z   1
loop_
 _symmetry_equiv_pos_site_id
 _symmetry_equiv_pos_as_xyz
  1  'x, y, z'
loop_
 _atom_site_type_symbol
 _atom_site_label
 _atom_site_symmetry_multiplicity
 _atom_site_fract_x
 _atom_site_fract_y
 _atom_site_fract_z
 _atom_site_occupancy
  Dy  Dy0  1  0.333335  0.662169  0.500000  1
  Dy  Dy1  1  0.667269  0.338464  0.500000  1
  Dy  Dy2  1  0.999814  0.813159  0.000000  1
  Dy  Dy3  1  0.190153  0.187267  0.000000  1
  Dy  Dy4  1  0.809973  0.996216  0.000000  1
  Mg  Mg5  1  0.995672  0.444901  0.500000  1
  Ti  Ti6  1  0.553940  0.553971  0.500000  1
  P  P7  1  0.004250  0.647689  0.500000  1
  P  P8  1  0.363340  0.362305  0.500000  1
  P  P9  1  0.643635  0.999742  0.500000  1
  P  P10  1  0.515047  0.682379  0.000000  1
  P  P11  1  0.307568  0.822184  0.000000  1
  P  P12  1  0.167819  0.481946  0.000000  1
  P  P13  1  0.484787  0.175773  0.000000  1
  P  P14  1  0.683017  0.520218  0.000000  1
  P  P15  1  0.825756  0.312235  0.000000  1
  P  P16  1  0.999662  0.176619  0.500000  1
  P  P17  1  0.825207  0.825905  0.500000  1
  P  P18  1  0.181365  0.000995  0.500000  1
  Ir  Ir19  1  0.503704  0.862888  0.000000  1
  Ir  Ir20  1  0.124001  0.639307  0.000000  1
  Ir  Ir21  1  0.357213  0.491463  0.000000  1
  Ir  Ir22  1  0.487628  0.360294  0.000000  1
  Ir  Ir23  1  0.859177  0.503471  0.000000  1
  Ir  Ir24  1  0.638736  0.132100  0.000000  1
  Ir  Ir25  1  0.462914  0.999365  0.500000  1
  Ir  Ir26  1  0.996612  0.279280  0.000000  1
  Ir  Ir27  1  0.714682  0.718351  0.000000  1
  Ir  Ir28  1  0.290141  0.001048  0.000000  1
  Ir  Ir29  1  0.623893  0.806730  0.500000  1
  Ir  Ir30  1  0.204429  0.825018  0.500000  1
  Ir  Ir31  1  0.176980  0.370004  0.500000  1
  Ir  Ir32  1  0.377916  0.177173  0.500000  1
  Ir  Ir33  1  0.810885  0.634171  0.500000  1
  Ir  Ir34  1  0.815827  0.192619  0.500000  1
  Ir  Ir35  1  0.003654  0.002582  0.500000  1
