# generated using pymatgen
data_K3Tl(BrO3)6
_symmetry_space_group_name_H-M   'P 1'
_cell_length_a   7.29254516
_cell_length_b   7.23810858
_cell_length_c   10.72512700
_cell_angle_alpha   98.01331750
_cell_angle_beta   109.71340801
_cell_angle_gamma   105.43019772
_symmetry_Int_Tables_number   1
_chemical_formula_structural   K3Tl(BrO3)6
_chemical_formula_sum   'K3 Tl1 Br6 O18'
_cell_volume   497.07981072
_cell_formula_units_Z   1
loop_
 _symmetry_equiv_pos_site_id
 _symmetry_equiv_pos_as_xyz
  1  'x, y, z'
loop_
 _atom_site_type_symbol
 _atom_site_label
 _atom_site_symmetry_multiplicity
 _atom_site_fract_x
 _atom_site_fract_y
 _atom_site_fract_z
 _atom_site_occupancy
  K  K0  1  0.369814  0.550367  0.281102  1
  K  K1  1  0.630186  0.449633  0.718898  1
  K  K2  1  0.000000  0.500000  0.500000  1
  Tl  Tl3  1  0.000000  0.000000  0.000000  1
  Br  Br4  1  0.527154  0.046746  0.196023  1
  Br  Br5  1  0.472846  0.953254  0.803977  1
  Br  Br6  1  0.786423  0.560985  0.113240  1
  Br  Br7  1  0.213577  0.439015  0.886760  1
  Br  Br8  1  0.120011  0.099299  0.374879  1
  Br  Br9  1  0.879989  0.900701  0.625121  1
  O  O10  1  0.625371  0.674004  0.138044  1
  O  O11  1  0.374629  0.325996  0.861956  1
  O  O12  1  0.004500  0.359266  0.739400  1
  O  O13  1  0.995500  0.640734  0.260600  1
  O  O14  1  0.587939  0.292812  0.243384  1
  O  O15  1  0.412061  0.707188  0.756616  1
  O  O16  1  0.072313  0.161608  0.219150  1
  O  O17  1  0.927687  0.838392  0.780850  1
  O  O18  1  0.310846  0.963403  0.039708  1
  O  O19  1  0.689154  0.036597  0.960292  1
  O  O20  1  0.296133  0.314853  0.477805  1
  O  O21  1  0.703867  0.685147  0.522195  1
  O  O22  1  0.903676  0.095440  0.398236  1
  O  O23  1  0.096324  0.904560  0.601764  1
  O  O24  1  0.563802  0.042393  0.693626  1
  O  O25  1  0.436198  0.957607  0.306374  1
  O  O26  1  0.128512  0.334611  0.002009  1
  O  O27  1  0.871488  0.665389  0.997991  1
