# generated using pymatgen
data_Nd4In20AgPt10
_symmetry_space_group_name_H-M   'P 1'
_cell_length_a   4.55364000
_cell_length_b   11.97245248
_cell_length_c   14.62774500
_cell_angle_alpha   81.19491353
_cell_angle_beta   81.04546658
_cell_angle_gamma   79.03720195
_symmetry_Int_Tables_number   1
_chemical_formula_structural   Nd4In20AgPt10
_chemical_formula_sum   'Nd4 In20 Ag1 Pt10'
_cell_volume   767.08938039
_cell_formula_units_Z   1
loop_
 _symmetry_equiv_pos_site_id
 _symmetry_equiv_pos_as_xyz
  1  'x, y, z'
loop_
 _atom_site_type_symbol
 _atom_site_label
 _atom_site_symmetry_multiplicity
 _atom_site_fract_x
 _atom_site_fract_y
 _atom_site_fract_z
 _atom_site_occupancy
  Nd  Nd0  1  0.121264  0.089769  0.667702  1
  Nd  Nd1  1  0.878736  0.910231  0.332298  1
  Nd  Nd2  1  0.772562  0.630788  0.824085  1
  Nd  Nd3  1  0.227438  0.369212  0.175915  1
  In  In4  1  0.011509  0.069989  0.906993  1
  In  In5  1  0.988491  0.930011  0.093007  1
  In  In6  1  0.063544  0.673170  0.199743  1
  In  In7  1  0.936456  0.326830  0.800257  1
  In  In8  1  0.109388  0.330294  0.450930  1
  In  In9  1  0.890612  0.669706  0.549070  1
  In  In10  1  0.202131  0.602521  0.993218  1
  In  In11  1  0.797869  0.397479  0.006782  1
  In  In12  1  0.255234  0.787076  0.702456  1
  In  In13  1  0.744766  0.212924  0.297544  1
  In  In14  1  0.300149  0.901562  0.498142  1
  In  In15  1  0.699851  0.098438  0.501858  1
  In  In16  1  0.386861  0.523990  0.702286  1
  In  In17  1  0.613139  0.476010  0.297714  1
  In  In18  1  0.398251  0.205817  0.997682  1
  In  In19  1  0.601749  0.794183  0.002318  1
  In  In20  1  0.542006  0.286036  0.629953  1
  In  In21  1  0.457994  0.713964  0.370047  1
  In  In22  1  0.633928  0.935620  0.796526  1
  In  In23  1  0.366072  0.064380  0.203474  1
  Ag  Ag24  1  0.500000  0.500000  0.500000  1
  Pt  Pt25  1  0.025817  0.567145  0.381221  1
  Pt  Pt26  1  0.974183  0.432855  0.618779  1
  Pt  Pt27  1  0.140075  0.831050  0.888801  1
  Pt  Pt28  1  0.859925  0.168950  0.111199  1
  Pt  Pt29  1  0.246542  0.118711  0.388205  1
  Pt  Pt30  1  0.753458  0.881289  0.611795  1
  Pt  Pt31  1  0.344663  0.422410  0.888266  1
  Pt  Pt32  1  0.655337  0.577590  0.111734  1
  Pt  Pt33  1  0.508471  0.171334  0.811726  1
  Pt  Pt34  1  0.491529  0.828666  0.188274  1
