# generated using pymatgen
data_Zr5CuBiPb2
_symmetry_space_group_name_H-M   'P 1'
_cell_length_a   8.79331095
_cell_length_b   8.82014652
_cell_length_c   5.95320700
_cell_angle_alpha   90.00000000
_cell_angle_beta   90.00000000
_cell_angle_gamma   120.10100697
_symmetry_Int_Tables_number   1
_chemical_formula_structural   Zr5CuBiPb2
_chemical_formula_sum   'Zr10 Cu2 Bi2 Pb4'
_cell_volume   399.45412971
_cell_formula_units_Z   2
loop_
 _symmetry_equiv_pos_site_id
 _symmetry_equiv_pos_as_xyz
  1  'x, y, z'
loop_
 _atom_site_type_symbol
 _atom_site_label
 _atom_site_symmetry_multiplicity
 _atom_site_fract_x
 _atom_site_fract_y
 _atom_site_fract_z
 _atom_site_occupancy
  Zr  Zr0  1  0.667026  0.333678  0.501814  1
  Zr  Zr1  1  0.332974  0.666653  0.501814  1
  Zr  Zr2  1  0.332974  0.666653  0.998186  1
  Zr  Zr3  1  0.667026  0.333678  0.998186  1
  Zr  Zr4  1  0.745595  0.744083  0.250000  1
  Zr  Zr5  1  0.254405  0.998489  0.250000  1
  Zr  Zr6  1  0.000000  0.255403  0.250000  1
  Zr  Zr7  1  0.260488  0.260725  0.750000  1
  Zr  Zr8  1  0.739512  0.000237  0.750000  1
  Zr  Zr9  1  0.000000  0.739714  0.750000  1
  Cu  Cu10  1  0.000000  0.999940  0.507627  1
  Cu  Cu11  1  0.000000  0.999940  0.992373  1
  Bi  Bi12  1  0.388271  0.387879  0.250000  1
  Bi  Bi13  1  0.611729  0.999608  0.250000  1
  Pb  Pb14  1  0.000000  0.611853  0.250000  1
  Pb  Pb15  1  0.615005  0.615287  0.750000  1
  Pb  Pb16  1  0.384995  0.000281  0.750000  1
  Pb  Pb17  1  0.000000  0.385897  0.750000  1
