# generated using pymatgen
data_Nd6MgCdAu10
_symmetry_space_group_name_H-M   'P 1'
_cell_length_a   8.11599782
_cell_length_b   8.11599799
_cell_length_c   8.11599867
_cell_angle_alpha   65.87803062
_cell_angle_beta   65.87802668
_cell_angle_gamma   65.87802100
_symmetry_Int_Tables_number   1
_chemical_formula_structural   Nd6MgCdAu10
_chemical_formula_sum   'Nd6 Mg1 Cd1 Au10'
_cell_volume   426.15600639
_cell_formula_units_Z   1
loop_
 _symmetry_equiv_pos_site_id
 _symmetry_equiv_pos_as_xyz
  1  'x, y, z'
loop_
 _atom_site_type_symbol
 _atom_site_label
 _atom_site_symmetry_multiplicity
 _atom_site_fract_x
 _atom_site_fract_y
 _atom_site_fract_z
 _atom_site_occupancy
  Nd  Nd0  1  0.888208  0.200659  0.619302  1
  Nd  Nd1  1  0.619302  0.888208  0.200659  1
  Nd  Nd2  1  0.200659  0.619302  0.888208  1
  Nd  Nd3  1  0.102363  0.808519  0.383930  1
  Nd  Nd4  1  0.383930  0.102363  0.808519  1
  Nd  Nd5  1  0.808519  0.383930  0.102363  1
  Mg  Mg6  1  0.344713  0.344713  0.344713  1
  Cd  Cd7  1  0.651986  0.651986  0.651986  1
  Au  Au8  1  0.000278  0.000278  0.000278  1
  Au  Au9  1  0.493445  0.493445  0.493445  1
  Au  Au10  1  0.802420  0.802420  0.802420  1
  Au  Au11  1  0.198638  0.198638  0.198638  1
  Au  Au12  1  0.950197  0.550822  0.307665  1
  Au  Au13  1  0.307665  0.950197  0.550822  1
  Au  Au14  1  0.550822  0.307665  0.950197  1
  Au  Au15  1  0.066565  0.446548  0.683741  1
  Au  Au16  1  0.683741  0.066565  0.446548  1
  Au  Au17  1  0.446548  0.683741  0.066565  1
