# generated using pymatgen
data_RbNa5(BeH3)6
_symmetry_space_group_name_H-M   'P 1'
_cell_length_a   6.78182148
_cell_length_b   6.78182131
_cell_length_c   9.32330489
_cell_angle_alpha   89.14108710
_cell_angle_beta   89.14108405
_cell_angle_gamma   121.99948048
_symmetry_Int_Tables_number   1
_chemical_formula_structural   RbNa5(BeH3)6
_chemical_formula_sum   'Rb1 Na5 Be6 H18'
_cell_volume   363.47774717
_cell_formula_units_Z   1
loop_
 _symmetry_equiv_pos_site_id
 _symmetry_equiv_pos_as_xyz
  1  'x, y, z'
loop_
 _atom_site_type_symbol
 _atom_site_label
 _atom_site_symmetry_multiplicity
 _atom_site_fract_x
 _atom_site_fract_y
 _atom_site_fract_z
 _atom_site_occupancy
  Rb  Rb0  1  0.815104  0.184896  0.000000  1
  Na  Na1  1  0.502888  0.497112  0.500000  1
  Na  Na2  1  0.179063  0.820937  0.500000  1
  Na  Na3  1  0.829506  0.170494  0.500000  1
  Na  Na4  1  0.494433  0.505567  0.000000  1
  Na  Na5  1  0.158281  0.841719  0.000000  1
  Be  Be6  1  0.065480  0.058553  0.735571  1
  Be  Be7  1  0.830840  0.618008  0.743916  1
  Be  Be8  1  0.603603  0.819647  0.736678  1
  Be  Be9  1  0.941447  0.934520  0.264429  1
  Be  Be10  1  0.381992  0.169160  0.256084  1
  Be  Be11  1  0.180353  0.396397  0.263322  1
  H  H12  1  0.172593  0.174258  0.603322  1
  H  H13  1  0.831614  0.485336  0.626669  1
  H  H14  1  0.504908  0.832241  0.605492  1
  H  H15  1  0.614292  0.612366  0.729994  1
  H  H16  1  0.051738  0.837777  0.728372  1
  H  H17  1  0.835329  0.033247  0.739886  1
  H  H18  1  0.825707  0.542982  0.886860  1
  H  H19  1  0.477503  0.796874  0.867030  1
  H  H20  1  0.177995  0.159586  0.866713  1
  H  H21  1  0.840414  0.822005  0.133287  1
  H  H22  1  0.457018  0.174293  0.113140  1
  H  H23  1  0.203126  0.522497  0.132970  1
  H  H24  1  0.387634  0.385708  0.270006  1
  H  H25  1  0.162223  0.948262  0.271628  1
  H  H26  1  0.966753  0.164671  0.260114  1
  H  H27  1  0.514664  0.168386  0.373331  1
  H  H28  1  0.167759  0.495092  0.394508  1
  H  H29  1  0.825742  0.827407  0.396678  1
