# generated using pymatgen
data_Y14Tm2MgCo4Ag3
_symmetry_space_group_name_H-M   'P 1'
_cell_length_a   9.47593623
_cell_length_b   9.50587918
_cell_length_c   9.49757800
_cell_angle_alpha   60.02888328
_cell_angle_beta   59.92442152
_cell_angle_gamma   59.93403222
_symmetry_Int_Tables_number   1
_chemical_formula_structural   Y14Tm2MgCo4Ag3
_chemical_formula_sum   'Y14 Tm2 Mg1 Co4 Ag3'
_cell_volume   604.42355678
_cell_formula_units_Z   1
loop_
 _symmetry_equiv_pos_site_id
 _symmetry_equiv_pos_as_xyz
  1  'x, y, z'
loop_
 _atom_site_type_symbol
 _atom_site_label
 _atom_site_symmetry_multiplicity
 _atom_site_fract_x
 _atom_site_fract_y
 _atom_site_fract_z
 _atom_site_occupancy
  Y  Y0  1  0.346497  0.964269  0.344617  1
  Y  Y1  1  0.951723  0.350495  0.348891  1
  Y  Y2  1  0.807847  0.188979  0.190535  1
  Y  Y3  1  0.185746  0.812017  0.814626  1
  Y  Y4  1  0.185746  0.812017  0.187611  1
  Y  Y5  1  0.807847  0.188979  0.812639  1
  Y  Y6  1  0.186371  0.187250  0.813190  1
  Y  Y7  1  0.809341  0.811344  0.189657  1
  Y  Y8  1  0.936774  0.561535  0.562597  1
  Y  Y9  1  0.561835  0.938105  0.937176  1
  Y  Y10  1  0.561835  0.938105  0.562883  1
  Y  Y11  1  0.936774  0.561535  0.939094  1
  Y  Y12  1  0.560602  0.561416  0.938991  1
  Y  Y13  1  0.935956  0.937398  0.563323  1
  Tm  Tm14  1  0.345102  0.345056  0.342824  1
  Tm  Tm15  1  0.345102  0.345056  0.967018  1
  Mg  Mg16  1  0.290777  0.568483  0.570370  1
  Co  Co17  1  0.140399  0.145255  0.138881  1
  Co  Co18  1  0.140399  0.145255  0.575466  1
  Co  Co19  1  0.142755  0.573768  0.141738  1
  Co  Co20  1  0.574032  0.145659  0.140155  1
  Ag  Ag21  1  0.582190  0.582525  0.583137  1
  Ag  Ag22  1  0.582190  0.582525  0.252148  1
  Ag  Ag23  1  0.582157  0.252975  0.582434  1
