# generated using pymatgen
data_TbEr3Al14Ga3GeIr6
_symmetry_space_group_name_H-M   'P 1'
_cell_length_a   7.53054500
_cell_length_b   7.52901848
_cell_length_c   9.51772100
_cell_angle_alpha   90.00000000
_cell_angle_beta   90.00000000
_cell_angle_gamma   119.54278170
_symmetry_Int_Tables_number   1
_chemical_formula_structural   TbEr3Al14Ga3GeIr6
_chemical_formula_sum   'Tb1 Er3 Al14 Ga3 Ge1 Ir6'
_cell_volume   469.47328992
_cell_formula_units_Z   1
loop_
 _symmetry_equiv_pos_site_id
 _symmetry_equiv_pos_as_xyz
  1  'x, y, z'
loop_
 _atom_site_type_symbol
 _atom_site_label
 _atom_site_symmetry_multiplicity
 _atom_site_fract_x
 _atom_site_fract_y
 _atom_site_fract_z
 _atom_site_occupancy
  Tb  Tb0  1  0.328383  0.005665  0.750000  1
  Er  Er1  1  0.997927  0.674051  0.250000  1
  Er  Er2  1  0.001735  0.324851  0.750000  1
  Er  Er3  1  0.670381  0.994034  0.250000  1
  Al  Al4  1  0.001102  0.335116  0.074595  1
  Al  Al5  1  0.999689  0.662965  0.927286  1
  Al  Al6  1  0.999689  0.662965  0.572714  1
  Al  Al7  1  0.335775  0.001979  0.424798  1
  Al  Al8  1  0.001102  0.335116  0.425405  1
  Al  Al9  1  0.663291  0.999455  0.572677  1
  Al  Al10  1  0.663291  0.999455  0.927323  1
  Al  Al11  1  0.335775  0.001979  0.075202  1
  Al  Al12  1  0.334344  0.335410  0.554894  1
  Al  Al13  1  0.666304  0.665976  0.441294  1
  Al  Al14  1  0.666304  0.665976  0.058706  1
  Al  Al15  1  0.334344  0.335410  0.945106  1
  Al  Al16  1  0.551099  0.339360  0.250000  1
  Al  Al17  1  0.447173  0.661456  0.750000  1
  Ga  Ga18  1  0.128824  0.129863  0.250000  1
  Ga  Ga19  1  0.338435  0.547023  0.250000  1
  Ga  Ga20  1  0.662774  0.448977  0.750000  1
  Ge  Ge21  1  0.869066  0.869216  0.750000  1
  Ir  Ir22  1  0.672170  0.329619  0.002226  1
  Ir  Ir23  1  0.330088  0.672687  0.997432  1
  Ir  Ir24  1  0.330088  0.672687  0.502568  1
  Ir  Ir25  1  0.672170  0.329619  0.497774  1
  Ir  Ir26  1  0.999338  0.999545  0.997582  1
  Ir  Ir27  1  0.999338  0.999545  0.502418  1
