# generated using pymatgen
data_Li3Er3Si2Sn
_symmetry_space_group_name_H-M   'P 1'
_cell_length_a   7.03915500
_cell_length_b   7.03915334
_cell_length_c   4.29399500
_cell_angle_alpha   90.00000000
_cell_angle_beta   90.00000000
_cell_angle_gamma   119.99999370
_symmetry_Int_Tables_number   1
_chemical_formula_structural   Li3Er3Si2Sn
_chemical_formula_sum   'Li3 Er3 Si2 Sn1'
_cell_volume   184.26088294
_cell_formula_units_Z   1
loop_
 _symmetry_equiv_pos_site_id
 _symmetry_equiv_pos_as_xyz
  1  'x, y, z'
loop_
 _atom_site_type_symbol
 _atom_site_label
 _atom_site_symmetry_multiplicity
 _atom_site_fract_x
 _atom_site_fract_y
 _atom_site_fract_z
 _atom_site_occupancy
  Li  Li0  1  0.241670  0.000000  0.500000  1
  Li  Li1  1  0.758330  0.758330  0.500000  1
  Li  Li2  1  0.000000  0.241670  0.500000  1
  Er  Er3  1  0.000000  0.552797  0.000000  1
  Er  Er4  1  0.552797  0.000000  0.000000  1
  Er  Er5  1  0.447203  0.447203  0.000000  1
  Si  Si6  1  0.333333  0.666667  0.500000  1
  Si  Si7  1  0.666667  0.333333  0.500000  1
  Sn  Sn8  1  0.000000  0.000000  0.000000  1
