# generated using pymatgen
data_Y6AlTe2
_symmetry_space_group_name_H-M   'P 1'
_cell_length_a   4.18229000
_cell_length_b   11.55312600
_cell_length_c   21.50350800
_cell_angle_alpha   90.00000000
_cell_angle_beta   90.00000000
_cell_angle_gamma   90.00000000
_symmetry_Int_Tables_number   1
_chemical_formula_structural   Y6AlTe2
_chemical_formula_sum   'Y24 Al4 Te8'
_cell_volume   1039.01775316
_cell_formula_units_Z   4
loop_
 _symmetry_equiv_pos_site_id
 _symmetry_equiv_pos_as_xyz
  1  'x, y, z'
loop_
 _atom_site_type_symbol
 _atom_site_label
 _atom_site_symmetry_multiplicity
 _atom_site_fract_x
 _atom_site_fract_y
 _atom_site_fract_z
 _atom_site_occupancy
  Y  Y0  1  0.750000  0.577766  0.854716  1
  Y  Y1  1  0.250000  0.166070  0.390159  1
  Y  Y2  1  0.250000  0.888292  0.490200  1
  Y  Y3  1  0.750000  0.833930  0.609841  1
  Y  Y4  1  0.750000  0.877538  0.972314  1
  Y  Y5  1  0.750000  0.622462  0.472314  1
  Y  Y6  1  0.750000  0.388292  0.009800  1
  Y  Y7  1  0.250000  0.422234  0.145284  1
  Y  Y8  1  0.250000  0.077766  0.645284  1
  Y  Y9  1  0.250000  0.745450  0.232205  1
  Y  Y10  1  0.250000  0.036710  0.842490  1
  Y  Y11  1  0.250000  0.754550  0.732205  1
  Y  Y12  1  0.750000  0.254550  0.767795  1
  Y  Y13  1  0.750000  0.666070  0.109841  1
  Y  Y14  1  0.250000  0.122462  0.027686  1
  Y  Y15  1  0.750000  0.245450  0.267795  1
  Y  Y16  1  0.750000  0.536710  0.657510  1
  Y  Y17  1  0.250000  0.463290  0.342490  1
  Y  Y18  1  0.750000  0.963290  0.157510  1
  Y  Y19  1  0.750000  0.111708  0.509800  1
  Y  Y20  1  0.250000  0.333930  0.890159  1
  Y  Y21  1  0.750000  0.922234  0.354716  1
  Y  Y22  1  0.250000  0.611708  0.990200  1
  Y  Y23  1  0.250000  0.377538  0.527686  1
  Al  Al24  1  0.750000  0.144529  0.925168  1
  Al  Al25  1  0.250000  0.855471  0.074832  1
  Al  Al26  1  0.250000  0.644529  0.574832  1
  Al  Al27  1  0.750000  0.355471  0.425168  1
  Te  Te28  1  0.750000  0.968691  0.739152  1
  Te  Te29  1  0.750000  0.278167  0.624640  1
  Te  Te30  1  0.250000  0.778167  0.875360  1
  Te  Te31  1  0.250000  0.031309  0.260848  1
  Te  Te32  1  0.250000  0.721833  0.375360  1
  Te  Te33  1  0.250000  0.468691  0.760848  1
  Te  Te34  1  0.750000  0.221833  0.124640  1
  Te  Te35  1  0.750000  0.531309  0.239152  1
