# generated using pymatgen
data_Lu2Co3Si4Rh3
_symmetry_space_group_name_H-M   'P 1'
_cell_length_a   6.40628668
_cell_length_b   6.47527769
_cell_length_c   6.40628517
_cell_angle_alpha   131.42691863
_cell_angle_beta   113.78840874
_cell_angle_gamma   85.90667491
_symmetry_Int_Tables_number   1
_chemical_formula_structural   Lu2Co3Si4Rh3
_chemical_formula_sum   'Lu2 Co3 Si4 Rh3'
_cell_volume   174.77038796
_cell_formula_units_Z   1
loop_
 _symmetry_equiv_pos_site_id
 _symmetry_equiv_pos_as_xyz
  1  'x, y, z'
loop_
 _atom_site_type_symbol
 _atom_site_label
 _atom_site_symmetry_multiplicity
 _atom_site_fract_x
 _atom_site_fract_y
 _atom_site_fract_z
 _atom_site_occupancy
  Lu  Lu0  1  0.753199  0.038314  0.287746  1
  Lu  Lu1  1  0.249431  0.961686  0.714884  1
  Co  Co2  1  0.217128  0.500000  0.717128  1
  Co  Co3  1  0.780589  0.500000  0.280589  1
  Co  Co4  1  0.717754  0.000000  0.717754  1
  Si  Si5  1  0.577377  0.379269  0.810839  1
  Si  Si6  1  0.923093  0.724248  0.789465  1
  Si  Si7  1  0.431571  0.620731  0.198109  1
  Si  Si8  1  0.065217  0.275752  0.198844  1
  Rh  Rh9  1  0.501763  0.511467  0.510715  1
  Rh  Rh10  1  0.999249  0.488533  0.990297  1
  Rh  Rh11  1  0.283630  0.000000  0.283630  1
