# generated using pymatgen
data_CuF17
_symmetry_space_group_name_H-M   'P 1'
_cell_length_a   8.64097167
_cell_length_b   8.21746850
_cell_length_c   9.82410854
_cell_angle_alpha   82.91492519
_cell_angle_beta   87.08797822
_cell_angle_gamma   65.70184130
_symmetry_Int_Tables_number   1
_chemical_formula_structural   CuF17
_chemical_formula_sum   'Cu2 F34'
_cell_volume   630.93077755
_cell_formula_units_Z   2
loop_
 _symmetry_equiv_pos_site_id
 _symmetry_equiv_pos_as_xyz
  1  'x, y, z'
loop_
 _atom_site_type_symbol
 _atom_site_label
 _atom_site_symmetry_multiplicity
 _atom_site_fract_x
 _atom_site_fract_y
 _atom_site_fract_z
 _atom_site_occupancy
  Cu  Cu0  1  0.861890  0.252730  0.758643  1
  Cu  Cu1  1  0.138110  0.747270  0.241357  1
  F  F2  1  0.615252  0.207841  0.494878  1
  F  F3  1  0.384748  0.792159  0.505122  1
  F  F4  1  0.839281  0.678048  0.699119  1
  F  F5  1  0.160719  0.321952  0.300881  1
  F  F6  1  0.090127  0.762743  0.866978  1
  F  F7  1  0.909873  0.237257  0.133022  1
  F  F8  1  0.557343  0.156387  0.380014  1
  F  F9  1  0.442657  0.843613  0.619986  1
  F  F10  1  0.649611  0.323588  0.695805  1
  F  F11  1  0.350389  0.676412  0.304195  1
  F  F12  1  0.936026  0.067143  0.657747  1
  F  F13  1  0.063974  0.932857  0.342253  1
  F  F14  1  0.908190  0.380554  0.613459  1
  F  F15  1  0.091810  0.619446  0.386541  1
  F  F16  1  0.845346  0.832858  0.620400  1
  F  F17  1  0.154654  0.167142  0.379600  1
  F  F18  1  0.793249  0.444051  0.852728  1
  F  F19  1  0.206751  0.555949  0.147272  1
  F  F20  1  0.223637  0.683253  0.774061  1
  F  F21  1  0.776363  0.316747  0.225939  1
  F  F22  1  0.928700  0.818003  0.174432  1
  F  F23  1  0.071300  0.181997  0.825568  1
  F  F24  1  0.814972  0.120247  0.899190  1
  F  F25  1  0.185028  0.879753  0.100810  1
  F  F26  1  0.500649  0.586331  0.987727  1
  F  F27  1  0.499351  0.413669  0.012273  1
  F  F28  1  0.455570  0.082609  0.863485  1
  F  F29  1  0.544430  0.917391  0.136515  1
  F  F30  1  0.288966  0.240908  0.605182  1
  F  F31  1  0.711034  0.759092  0.394818  1
  F  F32  1  0.256866  0.397232  0.669496  1
  F  F33  1  0.743134  0.602768  0.330504  1
  F  F34  1  0.558608  0.901845  0.841048  1
  F  F35  1  0.441392  0.098155  0.158952  1
