# generated using pymatgen
data_DyTh(HgRh)2
_symmetry_space_group_name_H-M   'P 1'
_cell_length_a   3.91387200
_cell_length_b   7.44225068
_cell_length_c   9.13332035
_cell_angle_alpha   92.93144681
_cell_angle_beta   90.00000000
_cell_angle_gamma   90.00000000
_symmetry_Int_Tables_number   1
_chemical_formula_structural   DyTh(HgRh)2
_chemical_formula_sum   'Dy2 Th2 Hg4 Rh4'
_cell_volume   265.68738264
_cell_formula_units_Z   2
loop_
 _symmetry_equiv_pos_site_id
 _symmetry_equiv_pos_as_xyz
  1  'x, y, z'
loop_
 _atom_site_type_symbol
 _atom_site_label
 _atom_site_symmetry_multiplicity
 _atom_site_fract_x
 _atom_site_fract_y
 _atom_site_fract_z
 _atom_site_occupancy
  Dy  Dy0  1  0.250000  0.050164  0.314031  1
  Dy  Dy1  1  0.750000  0.949836  0.685969  1
  Th  Th2  1  0.250000  0.546728  0.193795  1
  Th  Th3  1  0.750000  0.453272  0.806205  1
  Hg  Hg4  1  0.250000  0.130090  0.937435  1
  Hg  Hg5  1  0.750000  0.869910  0.062565  1
  Hg  Hg6  1  0.250000  0.651248  0.556903  1
  Hg  Hg7  1  0.750000  0.348752  0.443097  1
  Rh  Rh8  1  0.750000  0.764161  0.350841  1
  Rh  Rh9  1  0.250000  0.235839  0.649159  1
  Rh  Rh10  1  0.750000  0.285043  0.137450  1
  Rh  Rh11  1  0.250000  0.714957  0.862550  1
