# generated using pymatgen
data_Mg2Ta3NbRu6
_symmetry_space_group_name_H-M   'P 1'
_cell_length_a   4.46657600
_cell_length_b   6.28029700
_cell_length_c   13.38454200
_cell_angle_alpha   89.99971277
_cell_angle_beta   89.99969196
_cell_angle_gamma   90.00002195
_symmetry_Int_Tables_number   1
_chemical_formula_structural   Mg2Ta3NbRu6
_chemical_formula_sum   'Mg4 Ta6 Nb2 Ru12'
_cell_volume   375.45546072
_cell_formula_units_Z   2
loop_
 _symmetry_equiv_pos_site_id
 _symmetry_equiv_pos_as_xyz
  1  'x, y, z'
loop_
 _atom_site_type_symbol
 _atom_site_label
 _atom_site_symmetry_multiplicity
 _atom_site_fract_x
 _atom_site_fract_y
 _atom_site_fract_z
 _atom_site_occupancy
  Mg  Mg0  1  0.999989  0.500001  0.335448  1
  Mg  Mg1  1  0.500000  0.999999  0.501226  1
  Mg  Mg2  1  0.000010  0.500001  0.665441  1
  Mg  Mg3  1  0.500010  0.000001  0.831224  1
  Ta  Ta4  1  0.999998  0.000001  0.993819  1
  Ta  Ta5  1  0.499988  0.500000  0.172833  1
  Ta  Ta6  1  0.999991  0.000001  0.343255  1
  Ta  Ta7  1  0.499999  0.500000  0.503211  1
  Ta  Ta8  1  0.000006  0.000001  0.663454  1
  Ta  Ta9  1  0.500010  0.500001  0.823420  1
  Nb  Nb10  1  0.999998  0.500000  0.996744  1
  Nb  Nb11  1  0.499992  0.000002  0.169928  1
  Ru  Ru12  1  0.499999  0.252056  0.002890  1
  Ru  Ru13  1  0.499998  0.747944  0.002890  1
  Ru  Ru14  1  0.999995  0.247862  0.163795  1
  Ru  Ru15  1  0.999996  0.752138  0.163796  1
  Ru  Ru16  1  0.499993  0.247864  0.329964  1
  Ru  Ru17  1  0.499991  0.752135  0.329965  1
  Ru  Ru18  1  0.999998  0.249964  0.499469  1
  Ru  Ru19  1  0.999999  0.750035  0.499469  1
  Ru  Ru20  1  0.500005  0.250059  0.667202  1
  Ru  Ru21  1  0.500005  0.749941  0.667202  1
  Ru  Ru22  1  0.000012  0.252172  0.836678  1
  Ru  Ru23  1  0.000013  0.747829  0.836678  1
