# generated using pymatgen
data_Tb15Er4ThIr12
_symmetry_space_group_name_H-M   'P 1'
_cell_length_a   10.98104383
_cell_length_b   10.95367671
_cell_length_c   6.36793994
_cell_angle_alpha   90.06230630
_cell_angle_beta   89.78768217
_cell_angle_gamma   90.07103350
_symmetry_Int_Tables_number   1
_chemical_formula_structural   Tb15Er4ThIr12
_chemical_formula_sum   'Tb15 Er4 Th1 Ir12'
_cell_volume   765.94737564
_cell_formula_units_Z   1
loop_
 _symmetry_equiv_pos_site_id
 _symmetry_equiv_pos_as_xyz
  1  'x, y, z'
loop_
 _atom_site_type_symbol
 _atom_site_label
 _atom_site_symmetry_multiplicity
 _atom_site_fract_x
 _atom_site_fract_y
 _atom_site_fract_z
 _atom_site_occupancy
  Tb  Tb0  1  0.290586  0.910180  0.877195  1
  Tb  Tb1  1  0.709087  0.087944  0.878768  1
  Tb  Tb2  1  0.709630  0.911496  0.378055  1
  Tb  Tb3  1  0.588049  0.790511  0.878245  1
  Tb  Tb4  1  0.591612  0.210570  0.377769  1
  Tb  Tb5  1  0.413510  0.787501  0.378222  1
  Tb  Tb6  1  0.413961  0.210689  0.877669  1
  Tb  Tb7  1  0.209382  0.412810  0.622120  1
  Tb  Tb8  1  0.209037  0.587824  0.121894  1
  Tb  Tb9  1  0.790648  0.412794  0.121589  1
  Tb  Tb10  1  0.790957  0.587851  0.621683  1
  Tb  Tb11  1  0.911887  0.709217  0.122149  1
  Tb  Tb12  1  0.911575  0.290942  0.621016  1
  Tb  Tb13  1  0.087346  0.709051  0.621808  1
  Tb  Tb14  1  0.085369  0.291625  0.119986  1
  Er  Er15  1  0.996559  0.998924  0.500967  1
  Er  Er16  1  0.999809  0.999802  0.000246  1
  Er  Er17  1  0.500158  0.500155  0.000953  1
  Er  Er18  1  0.501024  0.499852  0.501262  1
  Th  Th19  1  0.290073  0.089101  0.378879  1
  Ir  Ir20  1  0.847855  0.152360  0.249302  1
  Ir  Ir21  1  0.847616  0.847760  0.750807  1
  Ir  Ir22  1  0.153530  0.151621  0.743719  1
  Ir  Ir23  1  0.154359  0.850612  0.252501  1
  Ir  Ir24  1  0.652477  0.348433  0.750616  1
  Ir  Ir25  1  0.652192  0.651973  0.249351  1
  Ir  Ir26  1  0.347482  0.345273  0.252483  1
  Ir  Ir27  1  0.348028  0.651620  0.750942  1
  Ir  Ir28  1  0.497533  0.000835  0.124657  1
  Ir  Ir29  1  0.498981  0.000099  0.619725  1
  Ir  Ir30  1  0.999802  0.500056  0.877873  1
  Ir  Ir31  1  0.999886  0.500519  0.377548  1
