# generated using pymatgen
data_Zr6BBr14
_symmetry_space_group_name_H-M   'P 1'
_cell_length_a   10.22463800
_cell_length_b   10.22463813
_cell_length_c   12.30808300
_cell_angle_alpha   90.00000000
_cell_angle_beta   90.00000000
_cell_angle_gamma   96.23393760
_symmetry_Int_Tables_number   1
_chemical_formula_structural   Zr6BBr14
_chemical_formula_sum   'Zr12 B2 Br28'
_cell_volume   1279.11802570
_cell_formula_units_Z   2
loop_
 _symmetry_equiv_pos_site_id
 _symmetry_equiv_pos_as_xyz
  1  'x, y, z'
loop_
 _atom_site_type_symbol
 _atom_site_label
 _atom_site_symmetry_multiplicity
 _atom_site_fract_x
 _atom_site_fract_y
 _atom_site_fract_z
 _atom_site_occupancy
  Zr  Zr0  1  0.641963  0.641963  0.103900  1
  Zr  Zr1  1  0.858037  0.858037  0.603900  1
  Zr  Zr2  1  0.141963  0.141963  0.396100  1
  Zr  Zr3  1  0.358037  0.358037  0.896100  1
  Zr  Zr4  1  0.454909  0.681034  0.885989  1
  Zr  Zr5  1  0.045091  0.818966  0.385989  1
  Zr  Zr6  1  0.181034  0.954909  0.614011  1
  Zr  Zr7  1  0.318966  0.545091  0.114011  1
  Zr  Zr8  1  0.545091  0.318966  0.114011  1
  Zr  Zr9  1  0.954909  0.181034  0.614011  1
  Zr  Zr10  1  0.818966  0.045091  0.385989  1
  Zr  Zr11  1  0.681034  0.454909  0.885989  1
  B  B12  1  0.500000  0.500000  0.000000  1
  B  B13  1  0.000000  0.000000  0.500000  1
  Br  Br14  1  0.249351  0.750649  0.500000  1
  Br  Br15  1  0.250649  0.749351  0.000000  1
  Br  Br16  1  0.750649  0.249351  0.500000  1
  Br  Br17  1  0.749351  0.250649  0.000000  1
  Br  Br18  1  0.843100  0.843100  0.240976  1
  Br  Br19  1  0.656900  0.656900  0.740976  1
  Br  Br20  1  0.343100  0.343100  0.259024  1
  Br  Br21  1  0.156900  0.156900  0.759024  1
  Br  Br22  1  0.602311  0.102311  0.250000  1
  Br  Br23  1  0.897689  0.397689  0.750000  1
  Br  Br24  1  0.965070  0.208197  0.251246  1
  Br  Br25  1  0.534930  0.291803  0.751246  1
  Br  Br26  1  0.708197  0.465070  0.248754  1
  Br  Br27  1  0.791803  0.034930  0.748754  1
  Br  Br28  1  0.034930  0.791803  0.748754  1
  Br  Br29  1  0.465070  0.708197  0.248754  1
  Br  Br30  1  0.291803  0.534930  0.751246  1
  Br  Br31  1  0.208197  0.965070  0.251246  1
  Br  Br32  1  0.136440  0.382364  0.007865  1
  Br  Br33  1  0.363560  0.117636  0.507865  1
  Br  Br34  1  0.882364  0.636440  0.492135  1
  Br  Br35  1  0.617636  0.863560  0.992135  1
  Br  Br36  1  0.863560  0.617636  0.992135  1
  Br  Br37  1  0.636440  0.882364  0.492135  1
  Br  Br38  1  0.117636  0.363560  0.507865  1
  Br  Br39  1  0.382364  0.136440  0.007865  1
  Br  Br40  1  0.102311  0.602311  0.250000  1
  Br  Br41  1  0.397689  0.897689  0.750000  1
