# generated using pymatgen
data_Ac4EuSi4
_symmetry_space_group_name_H-M   'P 1'
_cell_length_a   8.22637500
_cell_length_b   8.22637500
_cell_length_c   16.16064900
_cell_angle_alpha   90.00000000
_cell_angle_beta   90.00000000
_cell_angle_gamma   90.00000000
_symmetry_Int_Tables_number   1
_chemical_formula_structural   Ac4EuSi4
_chemical_formula_sum   'Ac16 Eu4 Si16'
_cell_volume   1093.64356949
_cell_formula_units_Z   4
loop_
 _symmetry_equiv_pos_site_id
 _symmetry_equiv_pos_as_xyz
  1  'x, y, z'
loop_
 _atom_site_type_symbol
 _atom_site_label
 _atom_site_symmetry_multiplicity
 _atom_site_fract_x
 _atom_site_fract_y
 _atom_site_fract_z
 _atom_site_occupancy
  Ac  Ac0  1  0.381470  0.012269  0.445514  1
  Ac  Ac1  1  0.487731  0.881470  0.695514  1
  Ac  Ac2  1  0.512269  0.118530  0.195514  1
  Ac  Ac3  1  0.881470  0.487731  0.304486  1
  Ac  Ac4  1  0.118530  0.512269  0.804486  1
  Ac  Ac5  1  0.618530  0.987731  0.945514  1
  Ac  Ac6  1  0.012269  0.381470  0.554486  1
  Ac  Ac7  1  0.987731  0.618530  0.054486  1
  Ac  Ac8  1  0.121511  0.976486  0.878418  1
  Ac  Ac9  1  0.523514  0.621511  0.128418  1
  Ac  Ac10  1  0.476486  0.378489  0.628418  1
  Ac  Ac11  1  0.621511  0.523514  0.871582  1
  Ac  Ac12  1  0.378489  0.476486  0.371582  1
  Ac  Ac13  1  0.878489  0.023514  0.378418  1
  Ac  Ac14  1  0.976486  0.121511  0.121582  1
  Ac  Ac15  1  0.023514  0.878489  0.621582  1
  Eu  Eu16  1  0.310058  0.310058  0.000000  1
  Eu  Eu17  1  0.189942  0.810058  0.250000  1
  Eu  Eu18  1  0.810058  0.189942  0.750000  1
  Eu  Eu19  1  0.689942  0.689942  0.500000  1
  Si  Si20  1  0.195675  0.171657  0.710715  1
  Si  Si21  1  0.328343  0.695675  0.960715  1
  Si  Si22  1  0.671657  0.304325  0.460715  1
  Si  Si23  1  0.695675  0.328343  0.039285  1
  Si  Si24  1  0.304325  0.671657  0.539285  1
  Si  Si25  1  0.804325  0.828343  0.210715  1
  Si  Si26  1  0.171657  0.195675  0.289285  1
  Si  Si27  1  0.828343  0.804325  0.789285  1
  Si  Si28  1  0.288778  0.915948  0.061779  1
  Si  Si29  1  0.584052  0.788778  0.311779  1
  Si  Si30  1  0.415948  0.211222  0.811779  1
  Si  Si31  1  0.788778  0.584052  0.688221  1
  Si  Si32  1  0.211222  0.415948  0.188221  1
  Si  Si33  1  0.711222  0.084052  0.561779  1
  Si  Si34  1  0.915948  0.288778  0.938221  1
  Si  Si35  1  0.084052  0.711222  0.438221  1
