# generated using pymatgen
data_La5Pr(OsI3)2
_symmetry_space_group_name_H-M   'P 1'
_cell_length_a   4.41808000
_cell_length_b   9.55907661
_cell_length_c   12.72598243
_cell_angle_alpha   87.06907665
_cell_angle_beta   90.00000000
_cell_angle_gamma   90.00000000
_symmetry_Int_Tables_number   1
_chemical_formula_structural   La5Pr(OsI3)2
_chemical_formula_sum   'La5 Pr1 Os2 I6'
_cell_volume   536.75038786
_cell_formula_units_Z   1
loop_
 _symmetry_equiv_pos_site_id
 _symmetry_equiv_pos_as_xyz
  1  'x, y, z'
loop_
 _atom_site_type_symbol
 _atom_site_label
 _atom_site_symmetry_multiplicity
 _atom_site_fract_x
 _atom_site_fract_y
 _atom_site_fract_z
 _atom_site_occupancy
  La  La0  1  0.750000  0.689084  0.118896  1
  La  La1  1  0.250000  0.884741  0.329573  1
  La  La2  1  0.250000  0.310885  0.881925  1
  La  La3  1  0.250000  0.904101  0.894879  1
  La  La4  1  0.750000  0.116040  0.669574  1
  Pr  Pr5  1  0.750000  0.095816  0.106358  1
  Os  Os6  1  0.250000  0.886873  0.124163  1
  Os  Os7  1  0.750000  0.112230  0.874709  1
  I  I8  1  0.250000  0.394945  0.134220  1
  I  I9  1  0.750000  0.131924  0.380656  1
  I  I10  1  0.750000  0.604196  0.866025  1
  I  I11  1  0.250000  0.365443  0.623613  1
  I  I12  1  0.750000  0.634986  0.376764  1
  I  I13  1  0.250000  0.868738  0.618644  1
