# generated using pymatgen
data_CoRuBr18
_symmetry_space_group_name_H-M   'P 1'
_cell_length_a   8.96579082
_cell_length_b   8.96579177
_cell_length_c   8.96579115
_cell_angle_alpha   91.23781028
_cell_angle_beta   91.23779437
_cell_angle_gamma   91.23780995
_symmetry_Int_Tables_number   1
_chemical_formula_structural   CoRuBr18
_chemical_formula_sum   'Co1 Ru1 Br18'
_cell_volume   720.20689723
_cell_formula_units_Z   1
loop_
 _symmetry_equiv_pos_site_id
 _symmetry_equiv_pos_as_xyz
  1  'x, y, z'
loop_
 _atom_site_type_symbol
 _atom_site_label
 _atom_site_symmetry_multiplicity
 _atom_site_fract_x
 _atom_site_fract_y
 _atom_site_fract_z
 _atom_site_occupancy
  Co  Co0  1  0.500000  0.500000  0.500000  1
  Ru  Ru1  1  0.000000  0.000000  0.000000  1
  Br  Br2  1  0.722073  0.981351  0.015647  1
  Br  Br3  1  0.742576  0.132193  0.612575  1
  Br  Br4  1  0.015647  0.722073  0.981351  1
  Br  Br5  1  0.257424  0.867807  0.387425  1
  Br  Br6  1  0.132193  0.612575  0.742576  1
  Br  Br7  1  0.018649  0.984353  0.277927  1
  Br  Br8  1  0.612575  0.742576  0.132193  1
  Br  Br9  1  0.984353  0.277927  0.018649  1
  Br  Br10  1  0.867807  0.387425  0.257424  1
  Br  Br11  1  0.387425  0.257424  0.867807  1
  Br  Br12  1  0.981351  0.015647  0.722073  1
  Br  Br13  1  0.277927  0.018649  0.984353  1
  Br  Br14  1  0.767520  0.528345  0.487660  1
  Br  Br15  1  0.512340  0.232480  0.471655  1
  Br  Br16  1  0.471655  0.512340  0.232480  1
  Br  Br17  1  0.487660  0.767520  0.528345  1
  Br  Br18  1  0.528345  0.487660  0.767520  1
  Br  Br19  1  0.232480  0.471655  0.512340  1
