# generated using pymatgen
data_Ca3YCo14(Si2Ni)6
_symmetry_space_group_name_H-M   'P 1'
_cell_length_a   3.71515800
_cell_length_b   6.80828225
_cell_length_c   18.40229116
_cell_angle_alpha   90.08909105
_cell_angle_beta   90.00000000
_cell_angle_gamma   90.00000000
_symmetry_Int_Tables_number   1
_chemical_formula_structural   Ca3YCo14(Si2Ni)6
_chemical_formula_sum   'Ca3 Y1 Co14 Si12 Ni6'
_cell_volume   465.46412413
_cell_formula_units_Z   1
loop_
 _symmetry_equiv_pos_site_id
 _symmetry_equiv_pos_as_xyz
  1  'x, y, z'
loop_
 _atom_site_type_symbol
 _atom_site_label
 _atom_site_symmetry_multiplicity
 _atom_site_fract_x
 _atom_site_fract_y
 _atom_site_fract_z
 _atom_site_occupancy
  Ca  Ca0  1  0.250000  0.621471  0.641528  1
  Ca  Ca1  1  0.750000  0.374441  0.359208  1
  Ca  Ca2  1  0.750000  0.125500  0.860374  1
  Y  Y3  1  0.250000  0.878038  0.140099  1
  Co  Co4  1  0.250000  0.128009  0.994655  1
  Co  Co5  1  0.750000  0.382773  0.988678  1
  Co  Co6  1  0.750000  0.112691  0.489917  1
  Co  Co7  1  0.250000  0.623381  0.012096  1
  Co  Co8  1  0.250000  0.360156  0.112125  1
  Co  Co9  1  0.750000  0.640401  0.887279  1
  Co  Co10  1  0.750000  0.860725  0.382618  1
  Co  Co11  1  0.250000  0.143729  0.613344  1
  Co  Co12  1  0.250000  0.061241  0.293199  1
  Co  Co13  1  0.750000  0.937356  0.708238  1
  Co  Co14  1  0.750000  0.561810  0.205591  1
  Co  Co15  1  0.250000  0.438178  0.794113  1
  Co  Co16  1  0.750000  0.634397  0.505141  1
  Co  Co17  1  0.750000  0.182799  0.200398  1
  Si  Si18  1  0.250000  0.846829  0.925755  1
  Si  Si19  1  0.750000  0.156439  0.074149  1
  Si  Si20  1  0.750000  0.348695  0.572746  1
  Si  Si21  1  0.250000  0.661352  0.425535  1
  Si  Si22  1  0.750000  0.625964  0.764132  1
  Si  Si23  1  0.250000  0.367742  0.235355  1
  Si  Si24  1  0.250000  0.412839  0.918018  1
  Si  Si25  1  0.750000  0.583061  0.083571  1
  Si  Si26  1  0.750000  0.914928  0.586491  1
  Si  Si27  1  0.250000  0.075633  0.416236  1
  Si  Si28  1  0.250000  0.128229  0.736932  1
  Si  Si29  1  0.750000  0.876887  0.260535  1
  Ni  Ni30  1  0.250000  0.369679  0.492731  1
  Ni  Ni31  1  0.250000  0.816753  0.798659  1
  Ni  Ni32  1  0.750000  0.316373  0.701567  1
  Ni  Ni33  1  0.250000  0.682066  0.297139  1
  Ni  Ni34  1  0.250000  0.879833  0.515438  1
  Ni  Ni35  1  0.750000  0.869604  0.006411  1
