# generated using pymatgen
data_Sr4Ga14NiAu
_symmetry_space_group_name_H-M   'P 1'
_cell_length_a   6.18842465
_cell_length_b   6.19191560
_cell_length_c   11.86138912
_cell_angle_alpha   74.86992267
_cell_angle_beta   74.87864943
_cell_angle_gamma   90.00000008
_symmetry_Int_Tables_number   1
_chemical_formula_structural   Sr4Ga14NiAu
_chemical_formula_sum   'Sr4 Ga14 Ni1 Au1'
_cell_volume   422.42834823
_cell_formula_units_Z   1
loop_
 _symmetry_equiv_pos_site_id
 _symmetry_equiv_pos_as_xyz
  1  'x, y, z'
loop_
 _atom_site_type_symbol
 _atom_site_label
 _atom_site_symmetry_multiplicity
 _atom_site_fract_x
 _atom_site_fract_y
 _atom_site_fract_z
 _atom_site_occupancy
  Sr  Sr0  1  0.001435  0.001435  0.997131  1
  Sr  Sr1  1  0.501091  0.501091  0.997818  1
  Sr  Sr2  1  0.749880  0.249880  0.500241  1
  Sr  Sr3  1  0.245945  0.745945  0.508112  1
  Ga  Ga4  1  0.193518  0.193518  0.612964  1
  Ga  Ga5  1  0.808142  0.808142  0.383717  1
  Ga  Ga6  1  0.621340  0.118656  0.246795  1
  Ga  Ga7  1  0.131864  0.634548  0.246795  1
  Ga  Ga8  1  0.621340  0.634548  0.246795  1
  Ga  Ga9  1  0.131864  0.118656  0.246795  1
  Ga  Ga10  1  0.859467  0.356416  0.757757  1
  Ga  Ga11  1  0.382776  0.885826  0.757757  1
  Ga  Ga12  1  0.859467  0.885826  0.757757  1
  Ga  Ga13  1  0.382776  0.356416  0.757757  1
  Ga  Ga14  1  0.691033  0.691033  0.617934  1
  Ga  Ga15  1  0.060790  0.560790  0.878421  1
  Ga  Ga16  1  0.455219  0.955219  0.089560  1
  Ga  Ga17  1  0.943277  0.443277  0.113446  1
  Ni  Ni18  1  0.563628  0.063628  0.872746  1
  Au  Au19  1  0.309978  0.309978  0.380043  1
