# generated using pymatgen
data_Lu4Zr2PdPtF28
_symmetry_space_group_name_H-M   'P 1'
_cell_length_a   5.58640153
_cell_length_b   8.85771927
_cell_length_c   11.89560313
_cell_angle_alpha   62.58103639
_cell_angle_beta   90.15721468
_cell_angle_gamma   89.97154974
_symmetry_Int_Tables_number   1
_chemical_formula_structural   Lu4Zr2PdPtF28
_chemical_formula_sum   'Lu4 Zr2 Pd1 Pt1 F28'
_cell_volume   522.49984488
_cell_formula_units_Z   1
loop_
 _symmetry_equiv_pos_site_id
 _symmetry_equiv_pos_as_xyz
  1  'x, y, z'
loop_
 _atom_site_type_symbol
 _atom_site_label
 _atom_site_symmetry_multiplicity
 _atom_site_fract_x
 _atom_site_fract_y
 _atom_site_fract_z
 _atom_site_occupancy
  Lu  Lu0  1  0.257193  0.814104  0.272233  1
  Lu  Lu1  1  0.742103  0.185552  0.727482  1
  Lu  Lu2  1  0.758999  0.179945  0.241938  1
  Lu  Lu3  1  0.240718  0.820476  0.758665  1
  Zr  Zr4  1  0.755550  0.725250  0.045567  1
  Zr  Zr5  1  0.244332  0.274660  0.954575  1
  Pd  Pd6  1  0.260197  0.272990  0.455333  1
  Pt  Pt7  1  0.740046  0.726855  0.544699  1
  F  F8  1  0.939526  0.702775  0.417988  1
  F  F9  1  0.062371  0.297164  0.580820  1
  F  F10  1  0.471981  0.291007  0.081984  1
  F  F11  1  0.528158  0.708991  0.918122  1
  F  F12  1  0.483609  0.732003  0.156721  1
  F  F13  1  0.516254  0.267953  0.843350  1
  F  F14  1  0.972053  0.269248  0.363509  1
  F  F15  1  0.030764  0.731437  0.637001  1
  F  F16  1  0.971568  0.752535  0.174794  1
  F  F17  1  0.028398  0.247455  0.825043  1
  F  F18  1  0.453424  0.258553  0.322933  1
  F  F19  1  0.544907  0.742042  0.677777  1
  F  F20  1  0.782124  0.467935  0.145526  1
  F  F21  1  0.217908  0.531899  0.854611  1
  F  F22  1  0.263164  0.520523  0.358713  1
  F  F23  1  0.737510  0.476853  0.641781  1
  F  F24  1  0.944722  0.269615  0.055870  1
  F  F25  1  0.055202  0.730362  0.944169  1
  F  F26  1  0.441806  0.713753  0.459890  1
  F  F27  1  0.555785  0.286335  0.539436  1
  F  F28  1  0.737790  0.977157  0.452800  1
  F  F29  1  0.262002  0.024954  0.546407  1
  F  F30  1  0.247661  0.018110  0.063602  1
  F  F31  1  0.752341  0.981786  0.936423  1
  F  F32  1  0.569279  0.972371  0.242734  1
  F  F33  1  0.430790  0.027548  0.757466  1
  F  F34  1  0.071350  0.022745  0.273556  1
  F  F35  1  0.928417  0.977062  0.726484  1
