# generated using pymatgen
data_YHo2CdSi2Ag3
_symmetry_space_group_name_H-M   'P 1'
_cell_length_a   7.22805400
_cell_length_b   7.22899109
_cell_length_c   4.21679900
_cell_angle_alpha   90.00000000
_cell_angle_beta   90.00000000
_cell_angle_gamma   119.99570282
_symmetry_Int_Tables_number   1
_chemical_formula_structural   YHo2CdSi2Ag3
_chemical_formula_sum   'Y1 Ho2 Cd1 Si2 Ag3'
_cell_volume   190.82330521
_cell_formula_units_Z   1
loop_
 _symmetry_equiv_pos_site_id
 _symmetry_equiv_pos_as_xyz
  1  'x, y, z'
loop_
 _atom_site_type_symbol
 _atom_site_label
 _atom_site_symmetry_multiplicity
 _atom_site_fract_x
 _atom_site_fract_y
 _atom_site_fract_z
 _atom_site_occupancy
  Y  Y0  1  0.426187  0.000000  0.500000  1
  Ho  Ho1  1  0.000081  0.426408  0.500000  1
  Ho  Ho2  1  0.573674  0.573592  0.500000  1
  Cd  Cd3  1  0.999567  0.000000  0.500000  1
  Si  Si4  1  0.333200  0.666142  0.000000  1
  Si  Si5  1  0.667058  0.333858  0.000000  1
  Ag  Ag6  1  0.999765  0.736009  0.000000  1
  Ag  Ag7  1  0.263756  0.263991  0.000000  1
  Ag  Ag8  1  0.736711  0.000000  0.000000  1
