# generated using pymatgen
data_Ce3Ho(WN3)4
_symmetry_space_group_name_H-M   'P 1'
_cell_length_a   5.51566033
_cell_length_b   5.64665420
_cell_length_c   7.88266200
_cell_angle_alpha   90.00000000
_cell_angle_beta   90.00000000
_cell_angle_gamma   89.83177679
_symmetry_Int_Tables_number   1
_chemical_formula_structural   Ce3Ho(WN3)4
_chemical_formula_sum   'Ce3 Ho1 W4 N12'
_cell_volume   245.50465903
_cell_formula_units_Z   1
loop_
 _symmetry_equiv_pos_site_id
 _symmetry_equiv_pos_as_xyz
  1  'x, y, z'
loop_
 _atom_site_type_symbol
 _atom_site_label
 _atom_site_symmetry_multiplicity
 _atom_site_fract_x
 _atom_site_fract_y
 _atom_site_fract_z
 _atom_site_occupancy
  Ce  Ce0  1  0.492112  0.446030  0.250000  1
  Ce  Ce1  1  0.007269  0.950591  0.250000  1
  Ce  Ce2  1  0.500349  0.552936  0.750000  1
  Ho  Ho3  1  0.993840  0.057438  0.750000  1
  W  W4  1  0.502042  0.999350  0.502073  1
  W  W5  1  0.998243  0.500294  0.998737  1
  W  W6  1  0.998243  0.500294  0.501263  1
  W  W7  1  0.502042  0.999350  0.997927  1
  N  N8  1  0.700307  0.298135  0.540706  1
  N  N9  1  0.303681  0.697981  0.039901  1
  N  N10  1  0.200442  0.201393  0.043491  1
  N  N11  1  0.412332  0.983672  0.750000  1
  N  N12  1  0.918813  0.522606  0.250000  1
  N  N13  1  0.303681  0.697981  0.460099  1
  N  N14  1  0.803783  0.800991  0.954811  1
  N  N15  1  0.700307  0.298135  0.959294  1
  N  N16  1  0.803783  0.800991  0.545189  1
  N  N17  1  0.078442  0.474455  0.750000  1
  N  N18  1  0.200442  0.201393  0.456509  1
  N  N19  1  0.579844  0.015985  0.250000  1
