# generated using pymatgen
data_Lu8InSn(PbAu4)2
_symmetry_space_group_name_H-M   'P 1'
_cell_length_a   7.95698300
_cell_length_b   7.95698300
_cell_length_c   7.24671400
_cell_angle_alpha   90.00000000
_cell_angle_beta   90.00000000
_cell_angle_gamma   90.00000000
_symmetry_Int_Tables_number   1
_chemical_formula_structural   Lu8InSn(PbAu4)2
_chemical_formula_sum   'Lu8 In1 Sn1 Pb2 Au8'
_cell_volume   458.81539543
_cell_formula_units_Z   1
loop_
 _symmetry_equiv_pos_site_id
 _symmetry_equiv_pos_as_xyz
  1  'x, y, z'
loop_
 _atom_site_type_symbol
 _atom_site_label
 _atom_site_symmetry_multiplicity
 _atom_site_fract_x
 _atom_site_fract_y
 _atom_site_fract_z
 _atom_site_occupancy
  Lu  Lu0  1  0.851529  0.159593  0.498830  1
  Lu  Lu1  1  0.148471  0.840407  0.498830  1
  Lu  Lu2  1  0.340407  0.351529  0.001170  1
  Lu  Lu3  1  0.659593  0.648471  0.001170  1
  Lu  Lu4  1  0.684436  0.677028  0.499205  1
  Lu  Lu5  1  0.315564  0.322972  0.499205  1
  Lu  Lu6  1  0.177029  0.815564  0.000795  1
  Lu  Lu7  1  0.822972  0.184437  0.000795  1
  In  In8  1  0.000000  0.500000  0.250000  1
  Sn  Sn9  1  0.000000  0.500000  0.750000  1
  Pb  Pb10  1  0.500000  0.000000  0.250000  1
  Pb  Pb11  1  0.500000  0.000000  0.750000  1
  Au  Au12  1  0.632374  0.374456  0.277512  1
  Au  Au13  1  0.367626  0.625544  0.277512  1
  Au  Au14  1  0.127518  0.128602  0.778856  1
  Au  Au15  1  0.872482  0.871398  0.778856  1
  Au  Au16  1  0.371398  0.627518  0.721144  1
  Au  Au17  1  0.628602  0.372482  0.721144  1
  Au  Au18  1  0.874456  0.867626  0.222488  1
  Au  Au19  1  0.125544  0.132374  0.222488  1
