# generated using pymatgen
data_Dy5Tm11In4NiRh3
_symmetry_space_group_name_H-M   'P 1'
_cell_length_a   9.55690613
_cell_length_b   9.54871786
_cell_length_c   9.55972493
_cell_angle_alpha   60.12604642
_cell_angle_beta   60.06022563
_cell_angle_gamma   60.13971047
_symmetry_Int_Tables_number   1
_chemical_formula_structural   Dy5Tm11In4NiRh3
_chemical_formula_sum   'Dy5 Tm11 In4 Ni1 Rh3'
_cell_volume   618.38676766
_cell_formula_units_Z   1
loop_
 _symmetry_equiv_pos_site_id
 _symmetry_equiv_pos_as_xyz
  1  'x, y, z'
loop_
 _atom_site_type_symbol
 _atom_site_label
 _atom_site_symmetry_multiplicity
 _atom_site_fract_x
 _atom_site_fract_y
 _atom_site_fract_z
 _atom_site_occupancy
  Dy  Dy0  1  0.062596  0.062940  0.436904  1
  Dy  Dy1  1  0.434144  0.064843  0.436174  1
  Dy  Dy2  1  0.061871  0.437501  0.061732  1
  Dy  Dy3  1  0.048167  0.651972  0.647913  1
  Dy  Dy4  1  0.436775  0.435229  0.063035  1
  Tm  Tm5  1  0.651337  0.048650  0.646179  1
  Tm  Tm6  1  0.187885  0.810198  0.189819  1
  Tm  Tm7  1  0.188802  0.188644  0.811673  1
  Tm  Tm8  1  0.811080  0.810870  0.191888  1
  Tm  Tm9  1  0.441047  0.056779  0.056756  1
  Tm  Tm10  1  0.811682  0.187315  0.189753  1
  Tm  Tm11  1  0.060237  0.437354  0.440942  1
  Tm  Tm12  1  0.809465  0.190175  0.811405  1
  Tm  Tm13  1  0.189860  0.810759  0.812485  1
  Tm  Tm14  1  0.649837  0.647078  0.049986  1
  Tm  Tm15  1  0.652362  0.655433  0.651134  1
  In  In16  1  0.417217  0.415694  0.417534  1
  In  In17  1  0.748551  0.418525  0.417833  1
  In  In18  1  0.419270  0.747727  0.417102  1
  In  In19  1  0.418204  0.417482  0.747033  1
  Ni  Ni20  1  0.859906  0.859406  0.423905  1
  Rh  Rh21  1  0.854461  0.859733  0.860069  1
  Rh  Rh22  1  0.426851  0.860402  0.860587  1
  Rh  Rh23  1  0.858393  0.425294  0.858163  1
