# generated using pymatgen
data_Dy2Lu7Zn4
_symmetry_space_group_name_H-M   'P 1'
_cell_length_a   8.43692938
_cell_length_b   8.43692908
_cell_length_c   8.42053300
_cell_angle_alpha   94.94054154
_cell_angle_beta   94.89006720
_cell_angle_gamma   145.99275638
_symmetry_Int_Tables_number   1
_chemical_formula_structural   Dy2Lu7Zn4
_chemical_formula_sum   'Dy2 Lu7 Zn4'
_cell_volume   320.52370346
_cell_formula_units_Z   1
loop_
 _symmetry_equiv_pos_site_id
 _symmetry_equiv_pos_as_xyz
  1  'x, y, z'
loop_
 _atom_site_type_symbol
 _atom_site_label
 _atom_site_symmetry_multiplicity
 _atom_site_fract_x
 _atom_site_fract_y
 _atom_site_fract_z
 _atom_site_occupancy
  Dy  Dy0  1  0.182246  0.887133  0.069381  1
  Dy  Dy1  1  0.112076  0.183210  0.295286  1
  Lu  Lu2  1  0.498180  0.498861  0.997043  1
  Lu  Lu3  1  0.887051  0.400045  0.287100  1
  Lu  Lu4  1  0.599220  0.888594  0.487815  1
  Lu  Lu5  1  0.402178  0.114630  0.516807  1
  Lu  Lu6  1  0.112361  0.599177  0.711536  1
  Lu  Lu7  1  0.886402  0.817379  0.703783  1
  Lu  Lu8  1  0.816453  0.110870  0.927323  1
  Zn  Zn9  1  0.397578  0.736137  0.133717  1
  Zn  Zn10  1  0.738069  0.602910  0.340982  1
  Zn  Zn11  1  0.263088  0.399159  0.662246  1
  Zn  Zn12  1  0.605092  0.261888  0.866980  1
