# generated using pymatgen
data_U2Si7(PtRh2)4
_symmetry_space_group_name_H-M   'P 1'
_cell_length_a   9.79360254
_cell_length_b   9.81659137
_cell_length_c   3.88831400
_cell_angle_alpha   89.93411031
_cell_angle_beta   90.06619062
_cell_angle_gamma   119.87356613
_symmetry_Int_Tables_number   1
_chemical_formula_structural   U2Si7(PtRh2)4
_chemical_formula_sum   'U2 Si7 Pt4 Rh8'
_cell_volume   324.15047284
_cell_formula_units_Z   1
loop_
 _symmetry_equiv_pos_site_id
 _symmetry_equiv_pos_as_xyz
  1  'x, y, z'
loop_
 _atom_site_type_symbol
 _atom_site_label
 _atom_site_symmetry_multiplicity
 _atom_site_fract_x
 _atom_site_fract_y
 _atom_site_fract_z
 _atom_site_occupancy
  U  U0  1  0.327581  0.659586  0.745949  1
  U  U1  1  0.667221  0.334736  0.253782  1
  Si  Si2  1  0.999769  0.999752  0.499061  1
  Si  Si3  1  0.393048  0.288804  0.749151  1
  Si  Si4  1  0.716563  0.110541  0.750135  1
  Si  Si5  1  0.894273  0.606842  0.751781  1
  Si  Si6  1  0.604023  0.712574  0.250239  1
  Si  Si7  1  0.281063  0.887682  0.248488  1
  Si  Si8  1  0.111036  0.394895  0.249283  1
  Pt  Pt9  1  0.454865  0.077033  0.751402  1
  Pt  Pt10  1  0.931293  0.381995  0.752239  1
  Pt  Pt11  1  0.620752  0.548880  0.752675  1
  Pt  Pt12  1  0.541294  0.920765  0.248822  1
  Rh  Rh13  1  0.074273  0.620133  0.249063  1
  Rh  Rh14  1  0.379489  0.453470  0.249408  1
  Rh  Rh15  1  0.141176  0.262084  0.747879  1
  Rh  Rh16  1  0.738739  0.880201  0.748236  1
  Rh  Rh17  1  0.122381  0.857659  0.746380  1
  Rh  Rh18  1  0.860522  0.738381  0.252426  1
  Rh  Rh19  1  0.262729  0.122138  0.251269  1
  Rh  Rh20  1  0.877909  0.141850  0.252331  1
