# generated using pymatgen
data_ErLu3(ScRu)4
_symmetry_space_group_name_H-M   'P 1'
_cell_length_a   4.07372400
_cell_length_b   7.24702151
_cell_length_c   8.60371476
_cell_angle_alpha   90.06318105
_cell_angle_beta   90.00000000
_cell_angle_gamma   90.00000000
_symmetry_Int_Tables_number   1
_chemical_formula_structural   ErLu3(ScRu)4
_chemical_formula_sum   'Er1 Lu3 Sc4 Ru4'
_cell_volume   254.00185714
_cell_formula_units_Z   1
loop_
 _symmetry_equiv_pos_site_id
 _symmetry_equiv_pos_as_xyz
  1  'x, y, z'
loop_
 _atom_site_type_symbol
 _atom_site_label
 _atom_site_symmetry_multiplicity
 _atom_site_fract_x
 _atom_site_fract_y
 _atom_site_fract_z
 _atom_site_occupancy
  Er  Er0  1  0.750000  0.523729  0.828200  1
  Lu  Lu1  1  0.250000  0.975347  0.329410  1
  Lu  Lu2  1  0.250000  0.475361  0.171590  1
  Lu  Lu3  1  0.750000  0.024873  0.671000  1
  Sc  Sc4  1  0.250000  0.355221  0.559495  1
  Sc  Sc5  1  0.250000  0.856340  0.939807  1
  Sc  Sc6  1  0.750000  0.645370  0.438265  1
  Sc  Sc7  1  0.750000  0.143919  0.062350  1
  Ru  Ru8  1  0.250000  0.233127  0.877123  1
  Ru  Ru9  1  0.250000  0.738349  0.622254  1
  Ru  Ru10  1  0.750000  0.763745  0.124128  1
  Ru  Ru11  1  0.750000  0.264620  0.376380  1
