# generated using pymatgen
data_Sc8Ta11Si16Os
_symmetry_space_group_name_H-M   'P 1'
_cell_length_a   6.87473575
_cell_length_b   6.89112918
_cell_length_c   12.68033907
_cell_angle_alpha   90.37498502
_cell_angle_beta   89.91325773
_cell_angle_gamma   89.92421453
_symmetry_Int_Tables_number   1
_chemical_formula_structural   Sc8Ta11Si16Os
_chemical_formula_sum   'Sc8 Ta11 Si16 Os1'
_cell_volume   600.71307210
_cell_formula_units_Z   1
loop_
 _symmetry_equiv_pos_site_id
 _symmetry_equiv_pos_as_xyz
  1  'x, y, z'
loop_
 _atom_site_type_symbol
 _atom_site_label
 _atom_site_symmetry_multiplicity
 _atom_site_fract_x
 _atom_site_fract_y
 _atom_site_fract_z
 _atom_site_occupancy
  Sc  Sc0  1  0.000193  0.659629  0.032470  1
  Sc  Sc1  1  0.839669  0.503660  0.280534  1
  Sc  Sc2  1  0.159392  0.499704  0.781256  1
  Sc  Sc3  1  0.500926  0.840830  0.717613  1
  Sc  Sc4  1  0.497986  0.158227  0.219072  1
  Sc  Sc5  1  0.000947  0.342415  0.530222  1
  Sc  Sc6  1  0.658881  0.001233  0.969812  1
  Sc  Sc7  1  0.340319  0.000320  0.469293  1
  Ta  Ta8  1  0.329806  0.330026  0.000216  1
  Ta  Ta9  1  0.174643  0.829863  0.250437  1
  Ta  Ta10  1  0.829945  0.172189  0.749229  1
  Ta  Ta11  1  0.672369  0.666619  0.500445  1
  Ta  Ta12  1  0.002898  0.151021  0.127264  1
  Ta  Ta13  1  0.348500  0.504187  0.376126  1
  Ta  Ta14  1  0.650927  0.493945  0.876157  1
  Ta  Ta15  1  0.510223  0.344782  0.621378  1
  Ta  Ta16  1  0.494586  0.654254  0.125186  1
  Ta  Ta17  1  0.995979  0.847721  0.626978  1
  Ta  Ta18  1  0.150921  0.006337  0.873681  1
  Si  Si19  1  0.300655  0.957183  0.063140  1
  Si  Si20  1  0.546889  0.801607  0.315945  1
  Si  Si21  1  0.456962  0.197403  0.813292  1
  Si  Si22  1  0.801423  0.544297  0.686817  1
  Si  Si23  1  0.199030  0.455485  0.186839  1
  Si  Si24  1  0.702141  0.039124  0.561039  1
  Si  Si25  1  0.956322  0.302558  0.937030  1
  Si  Si26  1  0.041363  0.706010  0.436305  1
  Si  Si27  1  0.704070  0.361313  0.072471  1
  Si  Si28  1  0.130569  0.200716  0.322017  1
  Si  Si29  1  0.859979  0.795548  0.821892  1
  Si  Si30  1  0.205086  0.140395  0.677579  1
  Si  Si31  1  0.797166  0.862631  0.180308  1
  Si  Si32  1  0.295351  0.636177  0.570505  1
  Si  Si33  1  0.361336  0.706568  0.928483  1
  Si  Si34  1  0.640032  0.289177  0.426190  1
  Os  Os35  1  0.842518  0.996845  0.372778  1
