# generated using pymatgen
data_PrWO4
_symmetry_space_group_name_H-M   'P 1'
_cell_length_a   5.52022600
_cell_length_b   7.85156747
_cell_length_c   7.85477920
_cell_angle_alpha   79.53620872
_cell_angle_beta   90.00000000
_cell_angle_gamma   90.00000000
_symmetry_Int_Tables_number   1
_chemical_formula_structural   PrWO4
_chemical_formula_sum   'Pr4 W4 O16'
_cell_volume   334.78354756
_cell_formula_units_Z   4
loop_
 _symmetry_equiv_pos_site_id
 _symmetry_equiv_pos_as_xyz
  1  'x, y, z'
loop_
 _atom_site_type_symbol
 _atom_site_label
 _atom_site_symmetry_multiplicity
 _atom_site_fract_x
 _atom_site_fract_y
 _atom_site_fract_z
 _atom_site_occupancy
  Pr  Pr0  1  0.216845  0.348405  0.898378  1
  Pr  Pr1  1  0.716845  0.651595  0.601622  1
  Pr  Pr2  1  0.783155  0.651595  0.101622  1
  Pr  Pr3  1  0.283155  0.348405  0.398378  1
  W  W4  1  0.729260  0.167080  0.696057  1
  W  W5  1  0.229260  0.832920  0.803943  1
  W  W6  1  0.270740  0.832920  0.303943  1
  W  W7  1  0.770740  0.167080  0.196057  1
  O  O8  1  0.507766  0.324093  0.127624  1
  O  O9  1  0.007766  0.675907  0.372376  1
  O  O10  1  0.492234  0.675907  0.872376  1
  O  O11  1  0.992234  0.324093  0.627624  1
  O  O12  1  0.986240  0.386856  0.172180  1
  O  O13  1  0.486240  0.613144  0.327820  1
  O  O14  1  0.013760  0.613144  0.827820  1
  O  O15  1  0.513760  0.386856  0.672180  1
  O  O16  1  0.853180  0.172651  0.944493  1
  O  O17  1  0.353180  0.827349  0.555507  1
  O  O18  1  0.146820  0.827349  0.055507  1
  O  O19  1  0.646820  0.172651  0.444493  1
  O  O20  1  0.422198  0.055986  0.790083  1
  O  O21  1  0.922198  0.944014  0.709917  1
  O  O22  1  0.577802  0.944014  0.209917  1
  O  O23  1  0.077802  0.055986  0.290083  1
