# generated using pymatgen
data_Tb6CeDy3Ru4
_symmetry_space_group_name_H-M   'P 1'
_cell_length_a   8.62907375
_cell_length_b   8.60861438
_cell_length_c   7.22722611
_cell_angle_alpha   83.01070108
_cell_angle_beta   84.10220054
_cell_angle_gamma   43.47706213
_symmetry_Int_Tables_number   1
_chemical_formula_structural   Tb6CeDy3Ru4
_chemical_formula_sum   'Tb6 Ce1 Dy3 Ru4'
_cell_volume   366.57374915
_cell_formula_units_Z   1
loop_
 _symmetry_equiv_pos_site_id
 _symmetry_equiv_pos_as_xyz
  1  'x, y, z'
loop_
 _atom_site_type_symbol
 _atom_site_label
 _atom_site_symmetry_multiplicity
 _atom_site_fract_x
 _atom_site_fract_y
 _atom_site_fract_z
 _atom_site_occupancy
  Tb  Tb0  1  0.018242  0.792317  0.916668  1
  Tb  Tb1  1  0.212895  0.355969  0.312426  1
  Tb  Tb2  1  0.643209  0.791740  0.186595  1
  Tb  Tb3  1  0.797147  0.639943  0.683523  1
  Tb  Tb4  1  0.360050  0.208985  0.813930  1
  Tb  Tb5  1  0.974540  0.208949  0.085140  1
  Ce  Ce6  1  0.197592  0.991793  0.599273  1
  Dy  Dy7  1  0.793749  0.021704  0.415551  1
  Dy  Dy8  1  0.572498  0.424980  0.751158  1
  Dy  Dy9  1  0.422031  0.579271  0.252289  1
  Ru  Ru10  1  0.174508  0.603314  0.573158  1
  Ru  Ru11  1  0.381683  0.837023  0.901108  1
  Ru  Ru12  1  0.850983  0.367335  0.434018  1
  Ru  Ru13  1  0.600873  0.176678  0.075162  1
