# generated using pymatgen
data_Li(DyPb)4
_symmetry_space_group_name_H-M   'P 1'
_cell_length_a   7.65844700
_cell_length_b   15.70072400
_cell_length_c   8.27747200
_cell_angle_alpha   90.00000000
_cell_angle_beta   90.00000000
_cell_angle_gamma   90.00000000
_symmetry_Int_Tables_number   1
_chemical_formula_structural   Li(DyPb)4
_chemical_formula_sum   'Li4 Dy16 Pb16'
_cell_volume   995.30941174
_cell_formula_units_Z   4
loop_
 _symmetry_equiv_pos_site_id
 _symmetry_equiv_pos_as_xyz
  1  'x, y, z'
loop_
 _atom_site_type_symbol
 _atom_site_label
 _atom_site_symmetry_multiplicity
 _atom_site_fract_x
 _atom_site_fract_y
 _atom_site_fract_z
 _atom_site_occupancy
  Li  Li0  1  0.834572  0.750000  0.508514  1
  Li  Li1  1  0.334572  0.750000  0.991486  1
  Li  Li2  1  0.165428  0.250000  0.491486  1
  Li  Li3  1  0.665428  0.250000  0.008514  1
  Dy  Dy4  1  0.663818  0.628233  0.159381  1
  Dy  Dy5  1  0.163818  0.871767  0.340619  1
  Dy  Dy6  1  0.336182  0.128233  0.840619  1
  Dy  Dy7  1  0.836182  0.371767  0.659381  1
  Dy  Dy8  1  0.336182  0.371767  0.840619  1
  Dy  Dy9  1  0.836182  0.128233  0.659381  1
  Dy  Dy10  1  0.663818  0.871767  0.159381  1
  Dy  Dy11  1  0.163818  0.628233  0.340619  1
  Dy  Dy12  1  0.494216  0.590365  0.688275  1
  Dy  Dy13  1  0.994216  0.909635  0.811725  1
  Dy  Dy14  1  0.505784  0.090365  0.311725  1
  Dy  Dy15  1  0.005784  0.409635  0.188275  1
  Dy  Dy16  1  0.505784  0.409635  0.311725  1
  Dy  Dy17  1  0.005784  0.090365  0.188275  1
  Dy  Dy18  1  0.494216  0.909635  0.688275  1
  Dy  Dy19  1  0.994216  0.590365  0.811725  1
  Pb  Pb20  1  0.689347  0.457610  0.960379  1
  Pb  Pb21  1  0.189347  0.042390  0.539621  1
  Pb  Pb22  1  0.310653  0.957610  0.039621  1
  Pb  Pb23  1  0.810653  0.542390  0.460379  1
  Pb  Pb24  1  0.310653  0.542390  0.039621  1
  Pb  Pb25  1  0.810653  0.957610  0.460379  1
  Pb  Pb26  1  0.689347  0.042390  0.960379  1
  Pb  Pb27  1  0.189347  0.457610  0.539621  1
  Pb  Pb28  1  0.485533  0.750000  0.406730  1
  Pb  Pb29  1  0.985533  0.750000  0.093270  1
  Pb  Pb30  1  0.514467  0.250000  0.593270  1
  Pb  Pb31  1  0.014467  0.250000  0.906730  1
  Pb  Pb32  1  0.689085  0.750000  0.838718  1
  Pb  Pb33  1  0.189085  0.750000  0.661282  1
  Pb  Pb34  1  0.310915  0.250000  0.161282  1
  Pb  Pb35  1  0.810915  0.250000  0.338718  1
