# generated using pymatgen
data_Tb5Sm(Ni3As2)6
_symmetry_space_group_name_H-M   'P 1'
_cell_length_a   3.91661000
_cell_length_b   10.85242500
_cell_length_c   12.79320200
_cell_angle_alpha   90.00000000
_cell_angle_beta   90.00000000
_cell_angle_gamma   90.00000000
_symmetry_Int_Tables_number   1
_chemical_formula_structural   Tb5Sm(Ni3As2)6
_chemical_formula_sum   'Tb5 Sm1 Ni18 As12'
_cell_volume   543.77142131
_cell_formula_units_Z   1
loop_
 _symmetry_equiv_pos_site_id
 _symmetry_equiv_pos_as_xyz
  1  'x, y, z'
loop_
 _atom_site_type_symbol
 _atom_site_label
 _atom_site_symmetry_multiplicity
 _atom_site_fract_x
 _atom_site_fract_y
 _atom_site_fract_z
 _atom_site_occupancy
  Tb  Tb0  1  0.500000  0.000000  0.477161  1
  Tb  Tb1  1  0.500000  0.815845  0.206476  1
  Tb  Tb2  1  0.500000  0.184155  0.206476  1
  Tb  Tb3  1  0.000000  0.684616  0.793819  1
  Tb  Tb4  1  0.000000  0.315384  0.793819  1
  Sm  Sm5  1  0.000000  0.500000  0.522831  1
  Ni  Ni6  1  0.500000  0.500000  0.155333  1
  Ni  Ni7  1  0.000000  0.000000  0.843852  1
  Ni  Ni8  1  0.500000  0.500000  0.700164  1
  Ni  Ni9  1  0.000000  0.000000  0.300630  1
  Ni  Ni10  1  0.000000  0.500000  0.982035  1
  Ni  Ni11  1  0.500000  0.000000  0.018281  1
  Ni  Ni12  1  0.500000  0.333007  0.997588  1
  Ni  Ni13  1  0.500000  0.666993  0.997588  1
  Ni  Ni14  1  0.000000  0.166733  0.002414  1
  Ni  Ni15  1  0.000000  0.833267  0.002414  1
  Ni  Ni16  1  0.500000  0.302191  0.425467  1
  Ni  Ni17  1  0.500000  0.697809  0.425467  1
  Ni  Ni18  1  0.000000  0.196355  0.574090  1
  Ni  Ni19  1  0.000000  0.803645  0.574090  1
  Ni  Ni20  1  0.500000  0.880360  0.707964  1
  Ni  Ni21  1  0.500000  0.119640  0.707964  1
  Ni  Ni22  1  0.000000  0.620380  0.291849  1
  Ni  Ni23  1  0.000000  0.379620  0.291849  1
  As  As24  1  0.500000  0.500000  0.876743  1
  As  As25  1  0.000000  0.000000  0.123627  1
  As  As26  1  0.500000  0.500000  0.342536  1
  As  As27  1  0.000000  0.000000  0.656003  1
  As  As28  1  0.500000  0.312843  0.613666  1
  As  As29  1  0.500000  0.687157  0.613666  1
  As  As30  1  0.000000  0.185778  0.387022  1
  As  As31  1  0.000000  0.814222  0.387022  1
  As  As32  1  0.500000  0.847866  0.891167  1
  As  As33  1  0.500000  0.152134  0.891167  1
  As  As34  1  0.000000  0.652500  0.108880  1
  As  As35  1  0.000000  0.347500  0.108880  1
