# generated using pymatgen
data_AgRh(SeO3)2
_symmetry_space_group_name_H-M   'P 1'
_cell_length_a   5.36774900
_cell_length_b   7.77060200
_cell_length_c   14.16388400
_cell_angle_alpha   90.00000000
_cell_angle_beta   90.00000000
_cell_angle_gamma   90.00000000
_symmetry_Int_Tables_number   1
_chemical_formula_structural   AgRh(SeO3)2
_chemical_formula_sum   'Ag4 Rh4 Se8 O24'
_cell_volume   590.78468232
_cell_formula_units_Z   4
loop_
 _symmetry_equiv_pos_site_id
 _symmetry_equiv_pos_as_xyz
  1  'x, y, z'
loop_
 _atom_site_type_symbol
 _atom_site_label
 _atom_site_symmetry_multiplicity
 _atom_site_fract_x
 _atom_site_fract_y
 _atom_site_fract_z
 _atom_site_occupancy
  Ag  Ag0  1  0.873524  0.182821  0.621012  1
  Ag  Ag1  1  0.626476  0.182821  0.121012  1
  Ag  Ag2  1  0.373524  0.682821  0.878988  1
  Ag  Ag3  1  0.126476  0.682821  0.378988  1
  Rh  Rh4  1  0.288457  0.694163  0.125885  1
  Rh  Rh5  1  0.788457  0.194163  0.374115  1
  Rh  Rh6  1  0.211543  0.694163  0.625885  1
  Rh  Rh7  1  0.711543  0.194163  0.874115  1
  Se  Se8  1  0.301852  0.010832  0.472039  1
  Se  Se9  1  0.270377  0.375778  0.279363  1
  Se  Se10  1  0.801852  0.510832  0.027961  1
  Se  Se11  1  0.229623  0.375778  0.779363  1
  Se  Se12  1  0.198148  0.010832  0.972039  1
  Se  Se13  1  0.729623  0.875778  0.720637  1
  Se  Se14  1  0.770377  0.875778  0.220637  1
  Se  Se15  1  0.698148  0.510832  0.527961  1
  O  O16  1  0.589180  0.683778  0.034114  1
  O  O17  1  0.742233  0.452370  0.911207  1
  O  O18  1  0.513189  0.702821  0.716505  1
  O  O19  1  0.013189  0.202821  0.783495  1
  O  O20  1  0.577185  0.127695  0.490848  1
  O  O21  1  0.497074  0.762149  0.241488  1
  O  O22  1  0.910820  0.683778  0.534114  1
  O  O23  1  0.002926  0.762149  0.741488  1
  O  O24  1  0.486811  0.202821  0.283495  1
  O  O25  1  0.334462  0.437992  0.163475  1
  O  O26  1  0.422815  0.627695  0.509152  1
  O  O27  1  0.242233  0.952370  0.588793  1
  O  O28  1  0.997074  0.262149  0.258512  1
  O  O29  1  0.665538  0.937992  0.836525  1
  O  O30  1  0.986811  0.702821  0.216505  1
  O  O31  1  0.757767  0.452370  0.411207  1
  O  O32  1  0.089180  0.183778  0.465886  1
  O  O33  1  0.077185  0.627695  0.009152  1
  O  O34  1  0.834462  0.937992  0.336525  1
  O  O35  1  0.410820  0.183778  0.965886  1
  O  O36  1  0.922815  0.127695  0.990848  1
  O  O37  1  0.165538  0.437992  0.663475  1
  O  O38  1  0.502926  0.262149  0.758512  1
  O  O39  1  0.257767  0.952370  0.088793  1
