# generated using pymatgen
data_YTm19Cd6OsRu
_symmetry_space_group_name_H-M   'P 1'
_cell_length_a   9.45962921
_cell_length_b   9.45133147
_cell_length_c   9.72617500
_cell_angle_alpha   90.00000000
_cell_angle_beta   90.00000000
_cell_angle_gamma   119.97098943
_symmetry_Int_Tables_number   1
_chemical_formula_structural   YTm19Cd6OsRu
_chemical_formula_sum   'Y1 Tm19 Cd6 Os1 Ru1'
_cell_volume   753.29780609
_cell_formula_units_Z   1
loop_
 _symmetry_equiv_pos_site_id
 _symmetry_equiv_pos_as_xyz
  1  'x, y, z'
loop_
 _atom_site_type_symbol
 _atom_site_label
 _atom_site_symmetry_multiplicity
 _atom_site_fract_x
 _atom_site_fract_y
 _atom_site_fract_z
 _atom_site_occupancy
  Y  Y0  1  0.920477  0.460238  0.250000  1
  Tm  Tm1  1  0.000145  0.000073  0.499708  1
  Tm  Tm2  1  0.000145  0.000073  0.000292  1
  Tm  Tm3  1  0.210633  0.791003  0.441810  1
  Tm  Tm4  1  0.210633  0.419631  0.441810  1
  Tm  Tm5  1  0.580443  0.790222  0.441595  1
  Tm  Tm6  1  0.789647  0.209236  0.559826  1
  Tm  Tm7  1  0.789647  0.580409  0.559826  1
  Tm  Tm8  1  0.419893  0.209945  0.559265  1
  Tm  Tm9  1  0.789647  0.209236  0.940174  1
  Tm  Tm10  1  0.789647  0.580409  0.940174  1
  Tm  Tm11  1  0.419893  0.209945  0.940735  1
  Tm  Tm12  1  0.210633  0.791003  0.058190  1
  Tm  Tm13  1  0.210633  0.419631  0.058190  1
  Tm  Tm14  1  0.580443  0.790222  0.058405  1
  Tm  Tm15  1  0.538447  0.460886  0.250000  1
  Tm  Tm16  1  0.538447  0.077561  0.250000  1
  Tm  Tm17  1  0.459215  0.540532  0.750000  1
  Tm  Tm18  1  0.459215  0.918683  0.750000  1
  Tm  Tm19  1  0.081131  0.540566  0.750000  1
  Cd  Cd20  1  0.885178  0.113197  0.250000  1
  Cd  Cd21  1  0.885178  0.771982  0.250000  1
  Cd  Cd22  1  0.229186  0.114593  0.250000  1
  Cd  Cd23  1  0.114823  0.885607  0.750000  1
  Cd  Cd24  1  0.114823  0.229215  0.750000  1
  Cd  Cd25  1  0.770841  0.885420  0.750000  1
  Os  Os26  1  0.334058  0.667029  0.250000  1
  Ru  Ru27  1  0.666899  0.333449  0.750000  1
