# generated using pymatgen
data_CaNdPa2(Al3Ir)6
_symmetry_space_group_name_H-M   'P 1'
_cell_length_a   7.62526945
_cell_length_b   7.61494442
_cell_length_c   9.43253400
_cell_angle_alpha   90.00000000
_cell_angle_beta   90.00000000
_cell_angle_gamma   119.58860827
_symmetry_Int_Tables_number   1
_chemical_formula_structural   CaNdPa2(Al3Ir)6
_chemical_formula_sum   'Ca1 Nd1 Pa2 Al18 Ir6'
_cell_volume   476.28445464
_cell_formula_units_Z   1
loop_
 _symmetry_equiv_pos_site_id
 _symmetry_equiv_pos_as_xyz
  1  'x, y, z'
loop_
 _atom_site_type_symbol
 _atom_site_label
 _atom_site_symmetry_multiplicity
 _atom_site_fract_x
 _atom_site_fract_y
 _atom_site_fract_z
 _atom_site_occupancy
  Ca  Ca0  1  0.670728  0.994029  0.250000  1
  Nd  Nd1  1  0.331403  0.006789  0.750000  1
  Pa  Pa2  1  0.997657  0.672405  0.250000  1
  Pa  Pa3  1  0.002338  0.327858  0.750000  1
  Al  Al4  1  0.130453  0.126826  0.250000  1
  Al  Al5  1  0.867236  0.871902  0.750000  1
  Al  Al6  1  0.999085  0.330755  0.078396  1
  Al  Al7  1  0.997695  0.666217  0.923386  1
  Al  Al8  1  0.997695  0.666217  0.576614  1
  Al  Al9  1  0.340057  0.003668  0.422503  1
  Al  Al10  1  0.999085  0.330755  0.421604  1
  Al  Al11  1  0.663280  0.996326  0.571800  1
  Al  Al12  1  0.663280  0.996326  0.928200  1
  Al  Al13  1  0.340057  0.003668  0.077497  1
  Al  Al14  1  0.335064  0.334540  0.551296  1
  Al  Al15  1  0.664402  0.667539  0.446454  1
  Al  Al16  1  0.664402  0.667539  0.053546  1
  Al  Al17  1  0.335064  0.334540  0.948704  1
  Al  Al18  1  0.339124  0.548282  0.250000  1
  Al  Al19  1  0.661820  0.454390  0.750000  1
  Al  Al20  1  0.550450  0.344541  0.250000  1
  Al  Al21  1  0.451282  0.656595  0.750000  1
  Ir  Ir22  1  0.676069  0.331450  0.998848  1
  Ir  Ir23  1  0.322477  0.668017  0.999694  1
  Ir  Ir24  1  0.322477  0.668017  0.500306  1
  Ir  Ir25  1  0.676069  0.331450  0.501152  1
  Ir  Ir26  1  0.000624  0.999679  0.999694  1
  Ir  Ir27  1  0.000624  0.999679  0.500306  1
