# generated using pymatgen
data_TbY3CdPd
_symmetry_space_group_name_H-M   'P 1'
_cell_length_a   9.73673537
_cell_length_b   9.73673530
_cell_length_c   9.73673500
_cell_angle_alpha   59.99999762
_cell_angle_beta   59.99999786
_cell_angle_gamma   60.00000030
_symmetry_Int_Tables_number   1
_chemical_formula_structural   TbY3CdPd
_chemical_formula_sum   'Tb4 Y12 Cd4 Pd4'
_cell_volume   652.71721764
_cell_formula_units_Z   4
loop_
 _symmetry_equiv_pos_site_id
 _symmetry_equiv_pos_as_xyz
  1  'x, y, z'
loop_
 _atom_site_type_symbol
 _atom_site_label
 _atom_site_symmetry_multiplicity
 _atom_site_fract_x
 _atom_site_fract_y
 _atom_site_fract_z
 _atom_site_occupancy
  Tb  Tb0  1  0.353685  0.353685  0.353685  1
  Tb  Tb1  1  0.353685  0.353685  0.938944  1
  Tb  Tb2  1  0.353685  0.938944  0.353685  1
  Tb  Tb3  1  0.938944  0.353685  0.353685  1
  Y  Y4  1  0.810222  0.189778  0.189778  1
  Y  Y5  1  0.189778  0.810222  0.810222  1
  Y  Y6  1  0.189778  0.810222  0.189778  1
  Y  Y7  1  0.810222  0.189778  0.810222  1
  Y  Y8  1  0.189778  0.189778  0.810222  1
  Y  Y9  1  0.810222  0.810222  0.189778  1
  Y  Y10  1  0.934934  0.565066  0.565066  1
  Y  Y11  1  0.565066  0.934934  0.934934  1
  Y  Y12  1  0.565066  0.934934  0.565066  1
  Y  Y13  1  0.934934  0.565066  0.934934  1
  Y  Y14  1  0.565066  0.565066  0.934934  1
  Y  Y15  1  0.934934  0.934934  0.565066  1
  Cd  Cd16  1  0.582184  0.582184  0.582184  1
  Cd  Cd17  1  0.582184  0.582184  0.253449  1
  Cd  Cd18  1  0.582184  0.253449  0.582184  1
  Cd  Cd19  1  0.253449  0.582184  0.582184  1
  Pd  Pd20  1  0.145199  0.145199  0.145199  1
  Pd  Pd21  1  0.145199  0.145199  0.564401  1
  Pd  Pd22  1  0.145199  0.564401  0.145199  1
  Pd  Pd23  1  0.564401  0.145199  0.145199  1
