# generated using pymatgen
data_Y7Lu13Pt16
_symmetry_space_group_name_H-M   'P 1'
_cell_length_a   7.41775017
_cell_length_b   7.47890686
_cell_length_c   14.51574777
_cell_angle_alpha   90.00547262
_cell_angle_beta   89.90976640
_cell_angle_gamma   89.96047055
_symmetry_Int_Tables_number   1
_chemical_formula_structural   Y7Lu13Pt16
_chemical_formula_sum   'Y7 Lu13 Pt16'
_cell_volume   805.28404806
_cell_formula_units_Z   1
loop_
 _symmetry_equiv_pos_site_id
 _symmetry_equiv_pos_as_xyz
  1  'x, y, z'
loop_
 _atom_site_type_symbol
 _atom_site_label
 _atom_site_symmetry_multiplicity
 _atom_site_fract_x
 _atom_site_fract_y
 _atom_site_fract_z
 _atom_site_occupancy
  Y  Y0  1  0.500527  0.678427  0.093954  1
  Y  Y1  1  0.500123  0.321462  0.593154  1
  Y  Y2  1  0.999667  0.178502  0.906740  1
  Y  Y3  1  0.999387  0.175883  0.592314  1
  Y  Y4  1  0.499864  0.321962  0.906814  1
  Y  Y5  1  0.500298  0.678607  0.406912  1
  Y  Y6  1  0.000358  0.821357  0.093049  1
  Lu  Lu7  1  0.681701  0.991677  0.250780  1
  Lu  Lu8  1  0.182159  0.508590  0.250869  1
  Lu  Lu9  1  0.818182  0.491333  0.749582  1
  Lu  Lu10  1  0.318186  0.008357  0.749834  1
  Lu  Lu11  1  0.655648  0.834033  0.622292  1
  Lu  Lu12  1  0.155512  0.665961  0.877335  1
  Lu  Lu13  1  0.844174  0.333360  0.377726  1
  Lu  Lu14  1  0.344209  0.166271  0.122903  1
  Lu  Lu15  1  0.342923  0.166107  0.378172  1
  Lu  Lu16  1  0.844855  0.333521  0.123032  1
  Lu  Lu17  1  0.154223  0.667368  0.621591  1
  Lu  Lu18  1  0.655095  0.833254  0.877877  1
  Lu  Lu19  1  0.998889  0.819794  0.406350  1
  Pt  Pt20  1  0.819455  0.642912  0.252245  1
  Pt  Pt21  1  0.315098  0.859485  0.251158  1
  Pt  Pt22  1  0.683852  0.140673  0.749627  1
  Pt  Pt23  1  0.183526  0.359191  0.749098  1
  Pt  Pt24  1  0.547674  0.381542  0.250267  1
  Pt  Pt25  1  0.046127  0.117492  0.251203  1
  Pt  Pt26  1  0.953107  0.880264  0.749957  1
  Pt  Pt27  1  0.453023  0.620351  0.749420  1
  Pt  Pt28  1  0.818173  0.537338  0.541010  1
  Pt  Pt29  1  0.318038  0.964117  0.958090  1
  Pt  Pt30  1  0.686374  0.032714  0.457072  1
  Pt  Pt31  1  0.181614  0.464743  0.042382  1
  Pt  Pt32  1  0.179918  0.468390  0.456211  1
  Pt  Pt33  1  0.681582  0.036295  0.042273  1
  Pt  Pt34  1  0.318063  0.963016  0.540611  1
  Pt  Pt35  1  0.818402  0.535651  0.958098  1
