# generated using pymatgen
data_Zr3Al3Pd2Pt
_symmetry_space_group_name_H-M   'P 1'
_cell_length_a   7.16208400
_cell_length_b   7.16208377
_cell_length_c   7.28828500
_cell_angle_alpha   90.00000000
_cell_angle_beta   90.00000000
_cell_angle_gamma   119.99999182
_symmetry_Int_Tables_number   1
_chemical_formula_structural   Zr3Al3Pd2Pt
_chemical_formula_sum   'Zr6 Al6 Pd4 Pt2'
_cell_volume   323.76866983
_cell_formula_units_Z   2
loop_
 _symmetry_equiv_pos_site_id
 _symmetry_equiv_pos_as_xyz
  1  'x, y, z'
loop_
 _atom_site_type_symbol
 _atom_site_label
 _atom_site_symmetry_multiplicity
 _atom_site_fract_x
 _atom_site_fract_y
 _atom_site_fract_z
 _atom_site_occupancy
  Zr  Zr0  1  0.022228  0.605221  0.750441  1
  Zr  Zr1  1  0.977772  0.582992  0.249559  1
  Zr  Zr2  1  0.605221  0.022228  0.249559  1
  Zr  Zr3  1  0.582992  0.977772  0.750441  1
  Zr  Zr4  1  0.417008  0.394779  0.249559  1
  Zr  Zr5  1  0.394779  0.417008  0.750441  1
  Al  Al6  1  0.000000  0.253153  0.500000  1
  Al  Al7  1  0.737925  0.737925  0.000000  1
  Al  Al8  1  0.000000  0.262075  0.000000  1
  Al  Al9  1  0.253153  0.000000  0.500000  1
  Al  Al10  1  0.262075  0.000000  0.000000  1
  Al  Al11  1  0.746847  0.746847  0.500000  1
  Pd  Pd12  1  0.333333  0.666667  0.465259  1
  Pd  Pd13  1  0.666667  0.333333  0.534741  1
  Pd  Pd14  1  0.000000  0.000000  0.242997  1
  Pd  Pd15  1  0.000000  0.000000  0.757003  1
  Pt  Pt16  1  0.666667  0.333333  0.972338  1
  Pt  Pt17  1  0.333333  0.666667  0.027662  1
