# generated using pymatgen
data_DyY(ZrPd5)3
_symmetry_space_group_name_H-M   'P 1'
_cell_length_a   4.06839300
_cell_length_b   4.06839300
_cell_length_c   20.35608700
_cell_angle_alpha   90.00000000
_cell_angle_beta   90.00000000
_cell_angle_gamma   90.00000000
_symmetry_Int_Tables_number   1
_chemical_formula_structural   DyY(ZrPd5)3
_chemical_formula_sum   'Dy1 Y1 Zr3 Pd15'
_cell_volume   336.93032055
_cell_formula_units_Z   1
loop_
 _symmetry_equiv_pos_site_id
 _symmetry_equiv_pos_as_xyz
  1  'x, y, z'
loop_
 _atom_site_type_symbol
 _atom_site_label
 _atom_site_symmetry_multiplicity
 _atom_site_fract_x
 _atom_site_fract_y
 _atom_site_fract_z
 _atom_site_occupancy
  Dy  Dy0  1  0.000000  0.000000  0.000206  1
  Y  Y1  1  0.000000  0.000000  0.800407  1
  Zr  Zr2  1  0.000000  0.000000  0.199939  1
  Zr  Zr3  1  0.000000  0.000000  0.399769  1
  Zr  Zr4  1  0.000000  0.000000  0.599667  1
  Pd  Pd5  1  0.500000  0.500000  0.003822  1
  Pd  Pd6  1  0.500000  0.500000  0.204249  1
  Pd  Pd7  1  0.500000  0.500000  0.399812  1
  Pd  Pd8  1  0.500000  0.500000  0.595443  1
  Pd  Pd9  1  0.500000  0.500000  0.796598  1
  Pd  Pd10  1  0.500000  0.000000  0.106488  1
  Pd  Pd11  1  0.500000  0.000000  0.301733  1
  Pd  Pd12  1  0.500000  0.000000  0.497888  1
  Pd  Pd13  1  0.500000  0.000000  0.693193  1
  Pd  Pd14  1  0.500000  0.000000  0.900743  1
  Pd  Pd15  1  0.000000  0.500000  0.106488  1
  Pd  Pd16  1  0.000000  0.500000  0.301733  1
  Pd  Pd17  1  0.000000  0.500000  0.497888  1
  Pd  Pd18  1  0.000000  0.500000  0.693193  1
  Pd  Pd19  1  0.000000  0.500000  0.900743  1
