# generated using pymatgen
data_NaDy6Co3Sn23Ir3
_symmetry_space_group_name_H-M   'P 1'
_cell_length_a   9.79181460
_cell_length_b   9.79639093
_cell_length_c   10.02736620
_cell_angle_alpha   90.18160318
_cell_angle_beta   89.68605687
_cell_angle_gamma   120.01277322
_symmetry_Int_Tables_number   1
_chemical_formula_structural   NaDy6Co3Sn23Ir3
_chemical_formula_sum   'Na1 Dy6 Co3 Sn23 Ir3'
_cell_volume   832.88360044
_cell_formula_units_Z   1
loop_
 _symmetry_equiv_pos_site_id
 _symmetry_equiv_pos_as_xyz
  1  'x, y, z'
loop_
 _atom_site_type_symbol
 _atom_site_label
 _atom_site_symmetry_multiplicity
 _atom_site_fract_x
 _atom_site_fract_y
 _atom_site_fract_z
 _atom_site_occupancy
  Na  Na0  1  0.996394  0.993343  0.003700  1
  Dy  Dy1  1  0.481110  0.520351  0.305737  1
  Dy  Dy2  1  0.518397  0.480127  0.694126  1
  Dy  Dy3  1  0.482813  0.962686  0.304568  1
  Dy  Dy4  1  0.517651  0.038881  0.695030  1
  Dy  Dy5  1  0.037168  0.517549  0.303613  1
  Dy  Dy6  1  0.962921  0.482310  0.695644  1
  Co  Co7  1  0.173054  0.343123  0.797667  1
  Co  Co8  1  0.343459  0.173511  0.201423  1
  Co  Co9  1  0.657639  0.829480  0.796457  1
  Sn  Sn10  1  0.349188  0.005739  0.003862  1
  Sn  Sn11  1  0.651152  0.994880  0.995300  1
  Sn  Sn12  1  0.006309  0.347274  0.994776  1
  Sn  Sn13  1  0.000429  0.648706  0.999445  1
  Sn  Sn14  1  0.649447  0.655244  0.995587  1
  Sn  Sn15  1  0.342027  0.342470  0.999709  1
  Sn  Sn16  1  0.336533  0.664261  0.818089  1
  Sn  Sn17  1  0.660102  0.330509  0.177808  1
  Sn  Sn18  1  0.000740  0.000102  0.501105  1
  Sn  Sn19  1  0.778256  0.221451  0.461963  1
  Sn  Sn20  1  0.221822  0.778296  0.537335  1
  Sn  Sn21  1  0.777456  0.555624  0.461766  1
  Sn  Sn22  1  0.218829  0.437079  0.545609  1
  Sn  Sn23  1  0.438071  0.219470  0.453671  1
  Sn  Sn24  1  0.560676  0.780426  0.546517  1
  Sn  Sn25  1  0.334575  0.667393  0.118242  1
  Sn  Sn26  1  0.666289  0.334605  0.880160  1
  Sn  Sn27  1  0.122593  0.889399  0.274282  1
  Sn  Sn28  1  0.884863  0.116681  0.729830  1
  Sn  Sn29  1  0.122139  0.233441  0.275279  1
  Sn  Sn30  1  0.878781  0.768146  0.723954  1
  Sn  Sn31  1  0.766071  0.884090  0.283579  1
  Sn  Sn32  1  0.233344  0.122938  0.723510  1
  Ir  Ir33  1  0.829122  0.172581  0.201319  1
  Ir  Ir34  1  0.173231  0.830773  0.796371  1
  Ir  Ir35  1  0.827348  0.657058  0.202971  1
