# generated using pymatgen
data_Lu8Re5Si16W7
_symmetry_space_group_name_H-M   'P 1'
_cell_length_a   6.76404759
_cell_length_b   6.84827166
_cell_length_c   12.63619042
_cell_angle_alpha   89.91244374
_cell_angle_beta   89.99642657
_cell_angle_gamma   90.26560779
_symmetry_Int_Tables_number   1
_chemical_formula_structural   Lu8Re5Si16W7
_chemical_formula_sum   'Lu8 Re5 Si16 W7'
_cell_volume   585.32708589
_cell_formula_units_Z   1
loop_
 _symmetry_equiv_pos_site_id
 _symmetry_equiv_pos_as_xyz
  1  'x, y, z'
loop_
 _atom_site_type_symbol
 _atom_site_label
 _atom_site_symmetry_multiplicity
 _atom_site_fract_x
 _atom_site_fract_y
 _atom_site_fract_z
 _atom_site_occupancy
  Lu  Lu0  1  0.491608  0.334242  0.092847  1
  Lu  Lu1  1  0.993049  0.166737  0.407262  1
  Lu  Lu2  1  0.508464  0.666778  0.591977  1
  Lu  Lu3  1  0.008176  0.834032  0.907071  1
  Lu  Lu4  1  0.504999  0.667826  0.906741  1
  Lu  Lu5  1  0.005694  0.831893  0.592788  1
  Lu  Lu6  1  0.495745  0.332344  0.407153  1
  Lu  Lu7  1  0.994085  0.165597  0.094288  1
  Re  Re8  1  0.664437  0.850032  0.372417  1
  Re  Re9  1  0.189186  0.646014  0.377682  1
  Re  Re10  1  0.672040  0.848279  0.125056  1
  Re  Re11  1  0.820677  0.349398  0.877763  1
  Re  Re12  1  0.324664  0.149794  0.621556  1
  Si  Si13  1  0.659561  0.043396  0.545823  1
  Si  Si14  1  0.158119  0.455622  0.953073  1
  Si  Si15  1  0.338359  0.956684  0.046023  1
  Si  Si16  1  0.844435  0.550967  0.450086  1
  Si  Si17  1  0.333918  0.952825  0.452341  1
  Si  Si18  1  0.836946  0.548656  0.047422  1
  Si  Si19  1  0.664137  0.046574  0.953100  1
  Si  Si20  1  0.164548  0.451528  0.547193  1
  Si  Si21  1  0.530393  0.368323  0.746236  1
  Si  Si22  1  0.030789  0.133575  0.752382  1
  Si  Si23  1  0.472084  0.632263  0.249052  1
  Si  Si24  1  0.967609  0.862048  0.257781  1
  Si  Si25  1  0.805350  0.638501  0.750878  1
  Si  Si26  1  0.305398  0.861942  0.748603  1
  Si  Si27  1  0.193574  0.359820  0.250619  1
  Si  Si28  1  0.692797  0.136897  0.249342  1
  W  W29  1  0.828576  0.344269  0.626039  1
  W  W30  1  0.331677  0.156420  0.872236  1
  W  W31  1  0.172365  0.657040  0.127797  1
  W  W32  1  0.670998  0.996708  0.749596  1
  W  W33  1  0.168960  0.503781  0.749756  1
  W  W34  1  0.326688  0.002952  0.249913  1
  W  W35  1  0.829895  0.496238  0.250106  1
