# generated using pymatgen
data_Yb(Zn5Ir)2
_symmetry_space_group_name_H-M   'P 1'
_cell_length_a   6.89002339
_cell_length_b   6.79067287
_cell_length_c   6.89002447
_cell_angle_alpha   98.60849329
_cell_angle_beta   98.62488165
_cell_angle_gamma   135.46235768
_symmetry_Int_Tables_number   1
_chemical_formula_structural   Yb(Zn5Ir)2
_chemical_formula_sum   'Yb1 Zn10 Ir2'
_cell_volume   207.68133688
_cell_formula_units_Z   1
loop_
 _symmetry_equiv_pos_site_id
 _symmetry_equiv_pos_as_xyz
  1  'x, y, z'
loop_
 _atom_site_type_symbol
 _atom_site_label
 _atom_site_symmetry_multiplicity
 _atom_site_fract_x
 _atom_site_fract_y
 _atom_site_fract_z
 _atom_site_occupancy
  Yb  Yb0  1  0.000000  0.000000  0.000000  1
  Zn  Zn1  1  0.500000  0.000000  0.000000  1
  Zn  Zn2  1  0.720925  0.500000  0.220925  1
  Zn  Zn3  1  0.498524  0.721238  0.222714  1
  Zn  Zn4  1  0.031339  0.382162  0.350823  1
  Zn  Zn5  1  0.344893  0.000000  0.344893  1
  Zn  Zn6  1  0.000000  0.000000  0.500000  1
  Zn  Zn7  1  0.968661  0.617838  0.649177  1
  Zn  Zn8  1  0.655107  0.000000  0.655107  1
  Zn  Zn9  1  0.501476  0.278762  0.777286  1
  Zn  Zn10  1  0.279075  0.500000  0.779075  1
  Ir  Ir11  1  0.000000  0.500000  0.000000  1
  Ir  Ir12  1  0.500000  0.500000  0.500000  1
