# generated using pymatgen
data_BaSr9(Tc2N7)2
_symmetry_space_group_name_H-M   'P 1'
_cell_length_a   6.49634989
_cell_length_b   9.26756969
_cell_length_c   9.38398873
_cell_angle_alpha   114.46612218
_cell_angle_beta   98.81079071
_cell_angle_gamma   89.61302905
_symmetry_Int_Tables_number   1
_chemical_formula_structural   BaSr9(Tc2N7)2
_chemical_formula_sum   'Ba1 Sr9 Tc4 N14'
_cell_volume   507.15785516
_cell_formula_units_Z   1
loop_
 _symmetry_equiv_pos_site_id
 _symmetry_equiv_pos_as_xyz
  1  'x, y, z'
loop_
 _atom_site_type_symbol
 _atom_site_label
 _atom_site_symmetry_multiplicity
 _atom_site_fract_x
 _atom_site_fract_y
 _atom_site_fract_z
 _atom_site_occupancy
  Ba  Ba0  1  0.866203  0.587659  0.335106  1
  Sr  Sr1  1  0.268346  0.984741  0.563648  1
  Sr  Sr2  1  0.703828  0.414276  0.855002  1
  Sr  Sr3  1  0.298642  0.585862  0.142072  1
  Sr  Sr4  1  0.401657  0.790821  0.908149  1
  Sr  Sr5  1  0.592231  0.207470  0.086434  1
  Sr  Sr6  1  0.148115  0.402724  0.671279  1
  Sr  Sr7  1  0.889553  0.851824  0.763130  1
  Sr  Sr8  1  0.110374  0.149736  0.237413  1
  Sr  Sr9  1  0.730734  0.015080  0.434994  1
  Tc  Tc10  1  0.573616  0.360631  0.476563  1
  Tc  Tc11  1  0.423536  0.640840  0.526215  1
  Tc  Tc12  1  0.122603  0.216467  0.912466  1
  Tc  Tc13  1  0.878574  0.782858  0.082800  1
  N  N14  1  0.539528  0.549059  0.673706  1
  N  N15  1  0.448002  0.447298  0.328215  1
  N  N16  1  0.174123  0.721773  0.593872  1
  N  N17  1  0.833360  0.290875  0.427044  1
  N  N18  1  0.413027  0.194413  0.478478  1
  N  N19  1  0.579651  0.806231  0.521756  1
  N  N20  1  0.958441  0.141946  0.712753  1
  N  N21  1  0.045246  0.859729  0.281156  1
  N  N22  1  0.227758  0.052376  0.961571  1
  N  N23  1  0.773339  0.948843  0.037097  1
  N  N24  1  0.356967  0.328706  0.905556  1
  N  N25  1  0.976477  0.344096  0.067607  1
  N  N26  1  0.021615  0.650340  0.925200  1
  N  N27  1  0.644454  0.673326  0.090716  1
