# generated using pymatgen
data_Li4La(Ni2P3)2
_symmetry_space_group_name_H-M   'P 1'
_cell_length_a   7.89620034
_cell_length_b   7.89620118
_cell_length_c   7.89620030
_cell_angle_alpha   151.42092162
_cell_angle_beta   114.85997743
_cell_angle_gamma   72.62886697
_symmetry_Int_Tables_number   1
_chemical_formula_structural   Li4La(Ni2P3)2
_chemical_formula_sum   'Li4 La1 Ni4 P6'
_cell_volume   210.84482391
_cell_formula_units_Z   1
loop_
 _symmetry_equiv_pos_site_id
 _symmetry_equiv_pos_as_xyz
  1  'x, y, z'
loop_
 _atom_site_type_symbol
 _atom_site_label
 _atom_site_symmetry_multiplicity
 _atom_site_fract_x
 _atom_site_fract_y
 _atom_site_fract_z
 _atom_site_occupancy
  Li  Li0  1  0.717621  0.717621  0.000000  1
  Li  Li1  1  0.668792  0.500000  0.168792  1
  Li  Li2  1  0.331208  0.500000  0.831208  1
  Li  Li3  1  0.282379  0.282379  0.000000  1
  La  La4  1  0.000000  0.000000  0.000000  1
  Ni  Ni5  1  0.905720  0.175363  0.730359  1
  Ni  Ni6  1  0.554996  0.824637  0.730359  1
  Ni  Ni7  1  0.445004  0.175363  0.269641  1
  Ni  Ni8  1  0.094280  0.824637  0.269641  1
  P  P9  1  0.977792  0.341926  0.635866  1
  P  P10  1  0.706059  0.341926  0.364134  1
  P  P11  1  0.585771  0.085771  0.500000  1
  P  P12  1  0.414229  0.914229  0.500000  1
  P  P13  1  0.293941  0.658074  0.635866  1
  P  P14  1  0.022208  0.658074  0.364134  1
