# generated using pymatgen
data_Dy19LuPb16
_symmetry_space_group_name_H-M   'P 1'
_cell_length_a   8.21303870
_cell_length_b   8.30008970
_cell_length_c   15.66033500
_cell_angle_alpha   90.00000000
_cell_angle_beta   90.00000000
_cell_angle_gamma   89.95279086
_symmetry_Int_Tables_number   1
_chemical_formula_structural   Dy19LuPb16
_chemical_formula_sum   'Dy19 Lu1 Pb16'
_cell_volume   1067.54835541
_cell_formula_units_Z   1
loop_
 _symmetry_equiv_pos_site_id
 _symmetry_equiv_pos_as_xyz
  1  'x, y, z'
loop_
 _atom_site_type_symbol
 _atom_site_label
 _atom_site_symmetry_multiplicity
 _atom_site_fract_x
 _atom_site_fract_y
 _atom_site_fract_z
 _atom_site_occupancy
  Dy  Dy0  1  0.376129  0.840867  0.879115  1
  Dy  Dy1  1  0.877240  0.658398  0.620952  1
  Dy  Dy2  1  0.623409  0.158822  0.379099  1
  Dy  Dy3  1  0.123448  0.341153  0.120765  1
  Dy  Dy4  1  0.623409  0.158822  0.120901  1
  Dy  Dy5  1  0.123448  0.341153  0.379235  1
  Dy  Dy6  1  0.376129  0.840867  0.620885  1
  Dy  Dy7  1  0.877240  0.658398  0.879048  1
  Dy  Dy8  1  0.535685  0.323849  0.899824  1
  Dy  Dy9  1  0.036220  0.176830  0.600115  1
  Dy  Dy10  1  0.464040  0.676430  0.399919  1
  Dy  Dy11  1  0.963948  0.823581  0.100193  1
  Dy  Dy12  1  0.464040  0.676430  0.100081  1
  Dy  Dy13  1  0.963948  0.823581  0.399807  1
  Dy  Dy14  1  0.535685  0.323849  0.600176  1
  Dy  Dy15  1  0.036220  0.176830  0.899885  1
  Dy  Dy16  1  0.708273  0.996075  0.750000  1
  Dy  Dy17  1  0.791654  0.496028  0.250000  1
  Dy  Dy18  1  0.291668  0.004161  0.250000  1
  Lu  Lu19  1  0.208820  0.504387  0.750000  1
  Pb  Pb20  1  0.281033  0.033053  0.042752  1
  Pb  Pb21  1  0.780985  0.466867  0.457244  1
  Pb  Pb22  1  0.718986  0.966933  0.542896  1
  Pb  Pb23  1  0.218979  0.532905  0.956478  1
  Pb  Pb24  1  0.718986  0.966933  0.957104  1
  Pb  Pb25  1  0.218979  0.532905  0.543522  1
  Pb  Pb26  1  0.281033  0.033053  0.457248  1
  Pb  Pb27  1  0.780985  0.466867  0.042756  1
  Pb  Pb28  1  0.570665  0.625323  0.750000  1
  Pb  Pb29  1  0.072443  0.873065  0.750000  1
  Pb  Pb30  1  0.427842  0.373938  0.250000  1
  Pb  Pb31  1  0.927829  0.126121  0.250000  1
  Pb  Pb32  1  0.346961  0.155104  0.750000  1
  Pb  Pb33  1  0.847564  0.346783  0.750000  1
  Pb  Pb34  1  0.652998  0.846434  0.250000  1
  Pb  Pb35  1  0.153076  0.653201  0.250000  1
