# generated using pymatgen
data_TbDy7V4O20
_symmetry_space_group_name_H-M   'P 1'
_cell_length_a   3.73312200
_cell_length_b   10.39523891
_cell_length_c   11.27958397
_cell_angle_alpha   89.95225489
_cell_angle_beta   90.00000000
_cell_angle_gamma   90.00000000
_symmetry_Int_Tables_number   1
_chemical_formula_structural   TbDy7V4O20
_chemical_formula_sum   'Tb1 Dy7 V4 O20'
_cell_volume   437.72322369
_cell_formula_units_Z   1
loop_
 _symmetry_equiv_pos_site_id
 _symmetry_equiv_pos_as_xyz
  1  'x, y, z'
loop_
 _atom_site_type_symbol
 _atom_site_label
 _atom_site_symmetry_multiplicity
 _atom_site_fract_x
 _atom_site_fract_y
 _atom_site_fract_z
 _atom_site_occupancy
  Tb  Tb0  1  0.250000  0.119231  0.273803  1
  Dy  Dy1  1  0.250000  0.136874  0.944630  1
  Dy  Dy2  1  0.250000  0.636836  0.555348  1
  Dy  Dy3  1  0.750000  0.862609  0.054635  1
  Dy  Dy4  1  0.750000  0.363371  0.445206  1
  Dy  Dy5  1  0.750000  0.380538  0.773691  1
  Dy  Dy6  1  0.750000  0.880516  0.726295  1
  Dy  Dy7  1  0.250000  0.619454  0.226397  1
  V  V8  1  0.250000  0.170861  0.618583  1
  V  V9  1  0.250000  0.670519  0.881664  1
  V  V10  1  0.750000  0.828956  0.382028  1
  V  V11  1  0.750000  0.329642  0.117840  1
  O  O12  1  0.250000  0.227164  0.457615  1
  O  O13  1  0.250000  0.725984  0.042899  1
  O  O14  1  0.750000  0.773182  0.543148  1
  O  O15  1  0.750000  0.273541  0.956792  1
  O  O16  1  0.250000  0.494678  0.394821  1
  O  O17  1  0.250000  0.993904  0.104528  1
  O  O18  1  0.750000  0.505581  0.605491  1
  O  O19  1  0.750000  0.005516  0.894252  1
  O  O20  1  0.250000  0.265992  0.115036  1
  O  O21  1  0.250000  0.765483  0.384509  1
  O  O22  1  0.750000  0.734044  0.884243  1
  O  O23  1  0.750000  0.234200  0.616057  1
  O  O24  1  0.250000  0.007854  0.654123  1
  O  O25  1  0.250000  0.507740  0.845843  1
  O  O26  1  0.750000  0.991851  0.346672  1
  O  O27  1  0.750000  0.492432  0.153554  1
  O  O28  1  0.250000  0.258051  0.769024  1
  O  O29  1  0.250000  0.757908  0.731106  1
  O  O30  1  0.750000  0.742145  0.231169  1
  O  O31  1  0.750000  0.243340  0.269000  1
