# generated using pymatgen
data_Th3Sc(Al3Ir)6
_symmetry_space_group_name_H-M   'P 1'
_cell_length_a   7.62323001
_cell_length_b   7.63796751
_cell_length_c   9.47121800
_cell_angle_alpha   90.00000000
_cell_angle_beta   90.00000000
_cell_angle_gamma   119.52213249
_symmetry_Int_Tables_number   1
_chemical_formula_structural   Th3Sc(Al3Ir)6
_chemical_formula_sum   'Th3 Sc1 Al18 Ir6'
_cell_volume   479.87097403
_cell_formula_units_Z   1
loop_
 _symmetry_equiv_pos_site_id
 _symmetry_equiv_pos_as_xyz
  1  'x, y, z'
loop_
 _atom_site_type_symbol
 _atom_site_label
 _atom_site_symmetry_multiplicity
 _atom_site_fract_x
 _atom_site_fract_y
 _atom_site_fract_z
 _atom_site_occupancy
  Th  Th0  1  0.995511  0.671654  0.250000  1
  Th  Th1  1  0.003393  0.328636  0.750000  1
  Th  Th2  1  0.669870  0.994144  0.250000  1
  Sc  Sc3  1  0.327919  0.005782  0.750000  1
  Al  Al4  1  0.136251  0.132712  0.250000  1
  Al  Al5  1  0.873143  0.870776  0.750000  1
  Al  Al6  1  0.006089  0.335675  0.074696  1
  Al  Al7  1  0.003725  0.672852  0.920218  1
  Al  Al8  1  0.003725  0.672852  0.579782  1
  Al  Al9  1  0.335134  0.004333  0.434725  1
  Al  Al10  1  0.006089  0.335675  0.425304  1
  Al  Al11  1  0.656182  0.995563  0.579688  1
  Al  Al12  1  0.656182  0.995563  0.920312  1
  Al  Al13  1  0.335134  0.004333  0.065275  1
  Al  Al14  1  0.335999  0.330070  0.555662  1
  Al  Al15  1  0.663270  0.663100  0.455436  1
  Al  Al16  1  0.663270  0.663100  0.044564  1
  Al  Al17  1  0.335999  0.330070  0.944338  1
  Al  Al18  1  0.342210  0.544019  0.250000  1
  Al  Al19  1  0.654322  0.446521  0.750000  1
  Al  Al20  1  0.543797  0.338360  0.250000  1
  Al  Al21  1  0.451994  0.663423  0.750000  1
  Ir  Ir22  1  0.674598  0.328541  0.999911  1
  Ir  Ir23  1  0.327011  0.671361  0.000254  1
  Ir  Ir24  1  0.327011  0.671361  0.499746  1
  Ir  Ir25  1  0.674598  0.328541  0.500089  1
  Ir  Ir26  1  0.998786  0.000495  0.000072  1
  Ir  Ir27  1  0.998786  0.000495  0.499928  1
