# generated using pymatgen
data_La5Pr5Al4OsRu5
_symmetry_space_group_name_H-M   'P 1'
_cell_length_a   8.60863599
_cell_length_b   8.62497271
_cell_length_c   8.67973550
_cell_angle_alpha   109.40669439
_cell_angle_beta   109.67409144
_cell_angle_gamma   109.15316248
_symmetry_Int_Tables_number   1
_chemical_formula_structural   La5Pr5Al4OsRu5
_chemical_formula_sum   'La5 Pr5 Al4 Os1 Ru5'
_cell_volume   497.19807104
_cell_formula_units_Z   1
loop_
 _symmetry_equiv_pos_site_id
 _symmetry_equiv_pos_as_xyz
  1  'x, y, z'
loop_
 _atom_site_type_symbol
 _atom_site_label
 _atom_site_symmetry_multiplicity
 _atom_site_fract_x
 _atom_site_fract_y
 _atom_site_fract_z
 _atom_site_occupancy
  La  La0  1  0.251711  0.689708  0.439360  1
  La  La1  1  0.750264  0.813116  0.061500  1
  La  La2  1  0.439778  0.250403  0.687205  1
  La  La3  1  0.685986  0.437360  0.248225  1
  La  La4  1  0.061176  0.749491  0.811732  1
  Pr  Pr5  1  0.818182  0.066234  0.751270  1
  Pr  Pr6  1  0.214381  0.216383  0.215351  1
  Pr  Pr7  1  0.500652  0.998242  0.284891  1
  Pr  Pr8  1  0.283903  0.499152  0.998629  1
  Pr  Pr9  1  0.000915  0.285947  0.500925  1
  Al  Al10  1  0.588828  0.589792  0.587967  1
  Al  Al11  1  0.500010  0.000831  0.911484  1
  Al  Al12  1  0.912840  0.498983  0.000712  1
  Al  Al13  1  0.000080  0.913397  0.500931  1
  Os  Os14  1  0.247036  0.113664  0.863767  1
  Ru  Ru15  1  0.750068  0.384335  0.637137  1
  Ru  Ru16  1  0.862358  0.253587  0.121168  1
  Ru  Ru17  1  0.113259  0.862582  0.250097  1
  Ru  Ru18  1  0.632362  0.740598  0.378387  1
  Ru  Ru19  1  0.386211  0.636188  0.749259  1
