# generated using pymatgen
data_LaNd7Cd2IrPt
_symmetry_space_group_name_H-M   'P 1'
_cell_length_a   10.00567076
_cell_length_b   10.00595901
_cell_length_c   9.99037422
_cell_angle_alpha   60.05972302
_cell_angle_beta   60.06053116
_cell_angle_gamma   60.22139229
_symmetry_Int_Tables_number   1
_chemical_formula_structural   LaNd7Cd2IrPt
_chemical_formula_sum   'La2 Nd14 Cd4 Ir2 Pt2'
_cell_volume   709.06899030
_cell_formula_units_Z   2
loop_
 _symmetry_equiv_pos_site_id
 _symmetry_equiv_pos_as_xyz
  1  'x, y, z'
loop_
 _atom_site_type_symbol
 _atom_site_label
 _atom_site_symmetry_multiplicity
 _atom_site_fract_x
 _atom_site_fract_y
 _atom_site_fract_z
 _atom_site_occupancy
  La  La0  1  0.348041  0.348073  0.345746  1
  La  La1  1  0.349789  0.349781  0.955662  1
  Nd  Nd2  1  0.354864  0.945757  0.350438  1
  Nd  Nd3  1  0.945741  0.354870  0.350448  1
  Nd  Nd4  1  0.807480  0.190781  0.188632  1
  Nd  Nd5  1  0.189958  0.806807  0.812547  1
  Nd  Nd6  1  0.190774  0.807477  0.188643  1
  Nd  Nd7  1  0.806798  0.189959  0.812544  1
  Nd  Nd8  1  0.189702  0.189702  0.810845  1
  Nd  Nd9  1  0.811162  0.811150  0.186232  1
  Nd  Nd10  1  0.939287  0.564997  0.561830  1
  Nd  Nd11  1  0.562859  0.938494  0.936421  1
  Nd  Nd12  1  0.565001  0.939281  0.561823  1
  Nd  Nd13  1  0.938510  0.562852  0.936421  1
  Nd  Nd14  1  0.564119  0.564101  0.937132  1
  Nd  Nd15  1  0.938151  0.938126  0.561557  1
  Cd  Cd16  1  0.581117  0.581113  0.579080  1
  Cd  Cd17  1  0.580915  0.580919  0.258101  1
  Cd  Cd18  1  0.581208  0.258337  0.580085  1
  Cd  Cd19  1  0.258347  0.581219  0.580066  1
  Ir  Ir20  1  0.141081  0.572588  0.143996  1
  Ir  Ir21  1  0.572587  0.141085  0.143995  1
  Pt  Pt22  1  0.141731  0.141746  0.145590  1
  Pt  Pt23  1  0.140776  0.140788  0.572164  1
