# generated using pymatgen
data_SrTi3Mo(PO4)6
_symmetry_space_group_name_H-M   'P 1'
_cell_length_a   8.47622703
_cell_length_b   8.47622745
_cell_length_c   9.07374755
_cell_angle_alpha   62.15545844
_cell_angle_beta   117.84454182
_cell_angle_gamma   119.99999062
_symmetry_Int_Tables_number   1
_chemical_formula_structural   SrTi3Mo(PO4)6
_chemical_formula_sum   'Sr1 Ti3 Mo1 P6 O24'
_cell_volume   475.42619539
_cell_formula_units_Z   1
loop_
 _symmetry_equiv_pos_site_id
 _symmetry_equiv_pos_as_xyz
  1  'x, y, z'
loop_
 _atom_site_type_symbol
 _atom_site_label
 _atom_site_symmetry_multiplicity
 _atom_site_fract_x
 _atom_site_fract_y
 _atom_site_fract_z
 _atom_site_occupancy
  Sr  Sr0  1  0.999166  0.000834  0.997497  1
  Ti  Ti1  1  0.149085  0.850914  0.447255  1
  Ti  Ti2  1  0.850390  0.149610  0.551169  1
  Ti  Ti3  1  0.645426  0.354574  0.936279  1
  Mo  Mo4  1  0.354807  0.645193  0.064421  1
  P  P5  1  0.027954  0.244471  0.246590  1
  P  P6  1  0.755529  0.536893  0.246590  1
  P  P7  1  0.463106  0.972046  0.246590  1
  P  P8  1  0.538191  0.034822  0.752038  1
  P  P9  1  0.248670  0.461809  0.752038  1
  P  P10  1  0.965178  0.751331  0.752038  1
  O  O11  1  0.480715  0.158344  0.091055  1
  O  O12  1  0.841656  0.231316  0.091055  1
  O  O13  1  0.768683  0.519286  0.091055  1
  O  O14  1  0.179777  0.446923  0.215132  1
  O  O15  1  0.553077  0.517722  0.215132  1
  O  O16  1  0.482278  0.820224  0.215132  1
  O  O17  1  0.097914  0.094295  0.269489  1
  O  O18  1  0.905705  0.734129  0.269489  1
  O  O19  1  0.265871  0.902085  0.269489  1
  O  O20  1  0.992457  0.193313  0.418566  1
  O  O21  1  0.806686  0.380576  0.418566  1
  O  O22  1  0.619424  0.007544  0.418566  1
  O  O23  1  0.372653  0.001981  0.582837  1
  O  O24  1  0.212165  0.627347  0.582837  1
  O  O25  1  0.998019  0.787835  0.582837  1
  O  O26  1  0.732398  0.104766  0.724497  1
  O  O27  1  0.096865  0.267602  0.724497  1
  O  O28  1  0.895234  0.903135  0.724497  1
  O  O29  1  0.533206  0.185831  0.797240  1
  O  O30  1  0.449866  0.466795  0.797240  1
  O  O31  1  0.814168  0.550134  0.797240  1
  O  O32  1  0.223306  0.475259  0.903683  1
  O  O33  1  0.155635  0.776695  0.903683  1
  O  O34  1  0.524741  0.844365  0.903683  1
