# generated using pymatgen
data_NpPa2(Al3Os)4
_symmetry_space_group_name_H-M   'P 1'
_cell_length_a   8.87307777
_cell_length_b   8.87307834
_cell_length_c   9.44996400
_cell_angle_alpha   90.00000000
_cell_angle_beta   90.00000000
_cell_angle_gamma   119.95818139
_symmetry_Int_Tables_number   1
_chemical_formula_structural   NpPa2(Al3Os)4
_chemical_formula_sum   'Np2 Pa4 Al24 Os8'
_cell_volume   644.60288282
_cell_formula_units_Z   2
loop_
 _symmetry_equiv_pos_site_id
 _symmetry_equiv_pos_as_xyz
  1  'x, y, z'
loop_
 _atom_site_type_symbol
 _atom_site_label
 _atom_site_symmetry_multiplicity
 _atom_site_fract_x
 _atom_site_fract_y
 _atom_site_fract_z
 _atom_site_occupancy
  Np  Np0  1  0.200246  0.799754  0.250000  1
  Np  Np1  1  0.799754  0.200246  0.750000  1
  Pa  Pa2  1  0.197115  0.395755  0.250000  1
  Pa  Pa3  1  0.802885  0.604245  0.750000  1
  Pa  Pa4  1  0.604245  0.802885  0.250000  1
  Pa  Pa5  1  0.395755  0.197115  0.750000  1
  Al  Al6  1  0.333122  0.666878  0.016326  1
  Al  Al7  1  0.666878  0.333122  0.983674  1
  Al  Al8  1  0.666878  0.333122  0.516326  1
  Al  Al9  1  0.333122  0.666878  0.483674  1
  Al  Al10  1  0.161188  0.323282  0.579384  1
  Al  Al11  1  0.838812  0.676718  0.420616  1
  Al  Al12  1  0.676718  0.838812  0.579384  1
  Al  Al13  1  0.838812  0.676718  0.079384  1
  Al  Al14  1  0.323282  0.161188  0.420616  1
  Al  Al15  1  0.161188  0.323282  0.920616  1
  Al  Al16  1  0.161685  0.838315  0.578902  1
  Al  Al17  1  0.323282  0.161188  0.079384  1
  Al  Al18  1  0.838315  0.161685  0.421098  1
  Al  Al19  1  0.676718  0.838812  0.920616  1
  Al  Al20  1  0.838315  0.161685  0.078902  1
  Al  Al21  1  0.161685  0.838315  0.921098  1
  Al  Al22  1  0.560857  0.123514  0.250000  1
  Al  Al23  1  0.439143  0.876486  0.750000  1
  Al  Al24  1  0.876486  0.439143  0.250000  1
  Al  Al25  1  0.123514  0.560857  0.750000  1
  Al  Al26  1  0.562865  0.437135  0.250000  1
  Al  Al27  1  0.437135  0.562865  0.750000  1
  Al  Al28  1  0.003172  0.996828  0.250000  1
  Al  Al29  1  0.996828  0.003172  0.750000  1
  Os  Os30  1  0.500000  0.000000  0.000000  1
  Os  Os31  1  0.000000  0.500000  0.000000  1
  Os  Os32  1  0.500000  0.000000  0.500000  1
  Os  Os33  1  0.500000  0.500000  0.000000  1
  Os  Os34  1  0.000000  0.500000  0.500000  1
  Os  Os35  1  0.500000  0.500000  0.500000  1
  Os  Os36  1  0.000000  0.000000  0.000000  1
  Os  Os37  1  0.000000  0.000000  0.500000  1
