# generated using pymatgen
data_Be8V2TcIr
_symmetry_space_group_name_H-M   'P 1'
_cell_length_a   4.32412600
_cell_length_b   4.32412603
_cell_length_c   7.08979100
_cell_angle_alpha   90.00000000
_cell_angle_beta   90.00000000
_cell_angle_gamma   119.99999977
_symmetry_Int_Tables_number   1
_chemical_formula_structural   Be8V2TcIr
_chemical_formula_sum   'Be8 V2 Tc1 Ir1'
_cell_volume   114.80498578
_cell_formula_units_Z   1
loop_
 _symmetry_equiv_pos_site_id
 _symmetry_equiv_pos_as_xyz
  1  'x, y, z'
loop_
 _atom_site_type_symbol
 _atom_site_label
 _atom_site_symmetry_multiplicity
 _atom_site_fract_x
 _atom_site_fract_y
 _atom_site_fract_z
 _atom_site_occupancy
  Be  Be0  1  0.000000  0.000000  0.998846  1
  Be  Be1  1  0.000000  0.000000  0.496337  1
  Be  Be2  1  0.830507  0.661016  0.249644  1
  Be  Be3  1  0.168468  0.831532  0.750214  1
  Be  Be4  1  0.663066  0.831532  0.750214  1
  Be  Be5  1  0.338984  0.169493  0.249644  1
  Be  Be6  1  0.830507  0.169493  0.249644  1
  Be  Be7  1  0.168468  0.336934  0.750214  1
  V  V8  1  0.666667  0.333333  0.935562  1
  V  V9  1  0.333333  0.666667  0.440789  1
  Tc  Tc10  1  0.666667  0.333333  0.563823  1
  Ir  Ir11  1  0.333333  0.666667  0.065069  1
