# generated using pymatgen
data_TbCuTeO6
_symmetry_space_group_name_H-M   'P 1'
_cell_length_a   5.15358279
_cell_length_b   5.15056965
_cell_length_c   9.92071169
_cell_angle_alpha   89.95157192
_cell_angle_beta   90.06354392
_cell_angle_gamma   120.01376033
_symmetry_Int_Tables_number   1
_chemical_formula_structural   TbCuTeO6
_chemical_formula_sum   'Tb2 Cu2 Te2 O12'
_cell_volume   228.02236989
_cell_formula_units_Z   2
loop_
 _symmetry_equiv_pos_site_id
 _symmetry_equiv_pos_as_xyz
  1  'x, y, z'
loop_
 _atom_site_type_symbol
 _atom_site_label
 _atom_site_symmetry_multiplicity
 _atom_site_fract_x
 _atom_site_fract_y
 _atom_site_fract_z
 _atom_site_occupancy
  Tb  Tb0  1  0.999976  0.999902  0.000001  1
  Tb  Tb1  1  0.000082  0.000029  0.499995  1
  Cu  Cu2  1  0.333157  0.666581  0.249958  1
  Cu  Cu3  1  0.666606  0.333658  0.750042  1
  Te  Te4  1  0.666624  0.333296  0.250021  1
  Te  Te5  1  0.333262  0.666846  0.749982  1
  O  O6  1  0.642854  0.633213  0.139430  1
  O  O7  1  0.989972  0.356925  0.139416  1
  O  O8  1  0.366725  0.009712  0.139390  1
  O  O9  1  0.990393  0.633030  0.360614  1
  O  O10  1  0.367015  0.356812  0.360558  1
  O  O11  1  0.643017  0.009493  0.360549  1
  O  O12  1  0.357063  0.990442  0.639399  1
  O  O13  1  0.632981  0.643118  0.639403  1
  O  O14  1  0.009608  0.366860  0.639451  1
  O  O15  1  0.010093  0.643006  0.860616  1
  O  O16  1  0.633356  0.990292  0.860554  1
  O  O17  1  0.357217  0.366789  0.860618  1
