# generated using pymatgen
data_Hf4Zr2Si6OsRu5
_symmetry_space_group_name_H-M   'P 1'
_cell_length_a   7.62085639
_cell_length_b   7.61730074
_cell_length_c   7.61730183
_cell_angle_alpha   127.96831563
_cell_angle_beta   121.91127799
_cell_angle_gamma   81.72000474
_symmetry_Int_Tables_number   1
_chemical_formula_structural   Hf4Zr2Si6OsRu5
_chemical_formula_sum   'Hf4 Zr2 Si6 Os1 Ru5'
_cell_volume   284.85997447
_cell_formula_units_Z   1
loop_
 _symmetry_equiv_pos_site_id
 _symmetry_equiv_pos_as_xyz
  1  'x, y, z'
loop_
 _atom_site_type_symbol
 _atom_site_label
 _atom_site_symmetry_multiplicity
 _atom_site_fract_x
 _atom_site_fract_y
 _atom_site_fract_z
 _atom_site_occupancy
  Hf  Hf0  1  0.747441  0.831587  0.583650  1
  Hf  Hf1  1  0.252559  0.836208  0.084146  1
  Hf  Hf2  1  0.052815  0.256766  0.704365  1
  Hf  Hf3  1  0.947185  0.651551  0.203950  1
  Zr  Zr4  1  0.470602  0.698463  0.728687  1
  Zr  Zr5  1  0.529398  0.258084  0.227860  1
  Si  Si6  1  0.274878  0.268472  0.493011  1
  Si  Si7  1  0.725122  0.218132  0.993594  1
  Si  Si8  1  0.326469  0.587926  0.248793  1
  Si  Si9  1  0.673531  0.922323  0.261457  1
  Si  Si10  1  0.160329  0.922191  0.748277  1
  Si  Si11  1  0.839671  0.587948  0.761862  1
  Os  Os12  1  0.500000  0.500517  0.000517  1
  Ru  Ru13  1  0.000000  0.500036  0.500036  1
  Ru  Ru14  1  0.094439  0.253799  0.101014  1
  Ru  Ru15  1  0.905561  0.006575  0.159361  1
  Ru  Ru16  1  0.347264  0.006036  0.600252  1
  Ru  Ru17  1  0.652736  0.252987  0.658772  1
