# generated using pymatgen
data_Na2CoNi11As7
_symmetry_space_group_name_H-M   'P 1'
_cell_length_a   9.43803211
_cell_length_b   9.41385867
_cell_length_c   3.72306400
_cell_angle_alpha   90.00000000
_cell_angle_beta   90.00000000
_cell_angle_gamma   119.91958416
_symmetry_Int_Tables_number   1
_chemical_formula_structural   Na2CoNi11As7
_chemical_formula_sum   'Na2 Co1 Ni11 As7'
_cell_volume   286.70258400
_cell_formula_units_Z   1
loop_
 _symmetry_equiv_pos_site_id
 _symmetry_equiv_pos_as_xyz
  1  'x, y, z'
loop_
 _atom_site_type_symbol
 _atom_site_label
 _atom_site_symmetry_multiplicity
 _atom_site_fract_x
 _atom_site_fract_y
 _atom_site_fract_z
 _atom_site_occupancy
  Na  Na0  1  0.000007  0.999335  0.000000  1
  Na  Na1  1  0.332057  0.666760  0.500000  1
  Co  Co2  1  0.823579  0.611178  0.000000  1
  Ni  Ni3  1  0.282788  0.897368  0.000000  1
  Ni  Ni4  1  0.612258  0.715123  0.000000  1
  Ni  Ni5  1  0.100585  0.386042  0.000000  1
  Ni  Ni6  1  0.787429  0.175832  0.000000  1
  Ni  Ni7  1  0.390097  0.213006  0.000000  1
  Ni  Ni8  1  0.713304  0.952766  0.500000  1
  Ni  Ni9  1  0.240767  0.286681  0.500000  1
  Ni  Ni10  1  0.046135  0.760521  0.500000  1
  Ni  Ni11  1  0.549449  0.124272  0.500000  1
  Ni  Ni12  1  0.573134  0.453360  0.500000  1
  Ni  Ni13  1  0.882362  0.426323  0.500000  1
  As  As14  1  0.542200  0.922311  0.000000  1
  As  As15  1  0.378743  0.457187  0.000000  1
  As  As16  1  0.074650  0.619661  0.000000  1
  As  As17  1  0.961671  0.217141  0.500000  1
  As  As18  1  0.258648  0.039155  0.500000  1
  As  As19  1  0.780645  0.739108  0.500000  1
  As  As20  1  0.669493  0.336871  0.000000  1
