# generated using pymatgen
data_Ho5TmMnB14Os
_symmetry_space_group_name_H-M   'P 1'
_cell_length_a   8.01303301
_cell_length_b   8.01303332
_cell_length_c   9.27493100
_cell_angle_alpha   90.00000000
_cell_angle_beta   90.00000000
_cell_angle_gamma   154.96895005
_symmetry_Int_Tables_number   1
_chemical_formula_structural   Ho5TmMnB14Os
_chemical_formula_sum   'Ho5 Tm1 Mn1 B14 Os1'
_cell_volume   251.97484672
_cell_formula_units_Z   1
loop_
 _symmetry_equiv_pos_site_id
 _symmetry_equiv_pos_as_xyz
  1  'x, y, z'
loop_
 _atom_site_type_symbol
 _atom_site_label
 _atom_site_symmetry_multiplicity
 _atom_site_fract_x
 _atom_site_fract_y
 _atom_site_fract_z
 _atom_site_occupancy
  Ho  Ho0  1  0.894588  0.105412  0.442898  1
  Ho  Ho1  1  0.104990  0.895010  0.564095  1
  Ho  Ho2  1  0.894588  0.105412  0.057102  1
  Ho  Ho3  1  0.104990  0.895010  0.935905  1
  Ho  Ho4  1  0.244292  0.755708  0.250000  1
  Tm  Tm5  1  0.759964  0.240036  0.750000  1
  Mn  Mn6  1  0.946914  0.053086  0.750000  1
  B  B7  1  0.727297  0.272703  0.467247  1
  B  B8  1  0.272125  0.727875  0.535284  1
  B  B9  1  0.727297  0.272703  0.032753  1
  B  B10  1  0.272125  0.727875  0.964716  1
  B  B11  1  0.632088  0.367912  0.149894  1
  B  B12  1  0.369620  0.630380  0.846386  1
  B  B13  1  0.632088  0.367912  0.350106  1
  B  B14  1  0.369620  0.630380  0.653614  1
  B  B15  1  0.520145  0.479855  0.095108  1
  B  B16  1  0.478405  0.521595  0.901869  1
  B  B17  1  0.520145  0.479855  0.404892  1
  B  B18  1  0.478405  0.521595  0.598131  1
  B  B19  1  0.455706  0.544294  0.250000  1
  B  B20  1  0.540827  0.459173  0.750000  1
  Os  Os21  1  0.053777  0.946223  0.250000  1
