# generated using pymatgen
data_Ba2FeS6(O3F)6
_symmetry_space_group_name_H-M   'P 1'
_cell_length_a   9.36072795
_cell_length_b   9.32419938
_cell_length_c   7.24407633
_cell_angle_alpha   89.99999442
_cell_angle_beta   89.85352488
_cell_angle_gamma   119.87100232
_symmetry_Int_Tables_number   1
_chemical_formula_structural   Ba2FeS6(O3F)6
_chemical_formula_sum   'Ba2 Fe1 S6 O18 F6'
_cell_volume   548.27190982
_cell_formula_units_Z   1
loop_
 _symmetry_equiv_pos_site_id
 _symmetry_equiv_pos_as_xyz
  1  'x, y, z'
loop_
 _atom_site_type_symbol
 _atom_site_label
 _atom_site_symmetry_multiplicity
 _atom_site_fract_x
 _atom_site_fract_y
 _atom_site_fract_z
 _atom_site_occupancy
  Ba  Ba0  1  0.333793  0.666839  0.327801  1
  Ba  Ba1  1  0.666208  0.333046  0.672198  1
  Fe  Fe2  1  0.000000  0.000390  0.000000  1
  S  S3  1  0.357817  0.130610  0.248240  1
  S  S4  1  0.774131  0.644710  0.248478  1
  S  S5  1  0.871287  0.226505  0.249644  1
  S  S6  1  0.128713  0.355218  0.750355  1
  S  S7  1  0.225869  0.870579  0.751523  1
  S  S8  1  0.642183  0.772791  0.751761  1
  O  O9  1  0.207088  0.124249  0.186005  1
  O  O10  1  0.917921  0.798350  0.189256  1
  O  O11  1  0.880738  0.082265  0.189653  1
  O  O12  1  0.622981  0.649413  0.270773  1
  O  O13  1  0.351204  0.973257  0.271538  1
  O  O14  1  0.026795  0.377575  0.272798  1
  O  O15  1  0.442733  0.252512  0.390980  1
  O  O16  1  0.748077  0.188819  0.391069  1
  O  O17  1  0.811139  0.559051  0.390555  1
  O  O18  1  0.188861  0.747913  0.609446  1
  O  O19  1  0.557266  0.809778  0.609019  1
  O  O20  1  0.251924  0.440741  0.608931  1
  O  O21  1  0.973206  0.350781  0.727201  1
  O  O22  1  0.377020  0.026433  0.729226  1
  O  O23  1  0.648796  0.622054  0.728462  1
  O  O24  1  0.119263  0.201526  0.810349  1
  O  O25  1  0.082079  0.880429  0.810745  1
  O  O26  1  0.792912  0.917162  0.813996  1
  F  F27  1  0.738675  0.528685  0.067523  1
  F  F28  1  0.792810  0.264036  0.068801  1
  F  F29  1  0.476941  0.209994  0.068738  1
  F  F30  1  0.523059  0.733053  0.931261  1
  F  F31  1  0.207191  0.471226  0.931198  1
  F  F32  1  0.261324  0.790009  0.932476  1
