# generated using pymatgen
data_Lu2Fe7Ni5P7
_symmetry_space_group_name_H-M   'P 1'
_cell_length_a   3.62200100
_cell_length_b   9.02258052
_cell_length_c   8.97050710
_cell_angle_alpha   120.03260195
_cell_angle_beta   90.00000000
_cell_angle_gamma   90.00000000
_symmetry_Int_Tables_number   1
_chemical_formula_structural   Lu2Fe7Ni5P7
_chemical_formula_sum   'Lu2 Fe7 Ni5 P7'
_cell_volume   253.79565968
_cell_formula_units_Z   1
loop_
 _symmetry_equiv_pos_site_id
 _symmetry_equiv_pos_as_xyz
  1  'x, y, z'
loop_
 _atom_site_type_symbol
 _atom_site_label
 _atom_site_symmetry_multiplicity
 _atom_site_fract_x
 _atom_site_fract_y
 _atom_site_fract_z
 _atom_site_occupancy
  Lu  Lu0  1  0.000000  0.665022  0.329931  1
  Lu  Lu1  1  0.500000  0.334735  0.669468  1
  Fe  Fe2  1  0.000000  0.880450  0.722883  1
  Fe  Fe3  1  0.000000  0.276368  0.158841  1
  Fe  Fe4  1  0.000000  0.845860  0.118567  1
  Fe  Fe5  1  0.500000  0.612106  0.048169  1
  Fe  Fe6  1  0.500000  0.124799  0.904908  1
  Fe  Fe7  1  0.500000  0.095615  0.218095  1
  Fe  Fe8  1  0.500000  0.784909  0.879018  1
  Ni  Ni9  1  0.000000  0.369835  0.937478  1
  Ni  Ni10  1  0.000000  0.061409  0.435462  1
  Ni  Ni11  1  0.000000  0.564286  0.628971  1
  Ni  Ni12  1  0.500000  0.949324  0.560338  1
  Ni  Ni13  1  0.500000  0.438458  0.388935  1
  P  P14  1  0.000000  0.113390  0.707480  1
  P  P15  1  0.000000  0.291720  0.407794  1
  P  P16  1  0.000000  0.592070  0.891779  1
  P  P17  1  0.500000  0.716491  0.599594  1
  P  P18  1  0.500000  0.404364  0.115611  1
  P  P19  1  0.500000  0.877040  0.277131  1
  P  P20  1  0.000000  0.001751  0.999551  1
