# generated using pymatgen
data_Ca5YSi24Ru5Rh3
_symmetry_space_group_name_H-M   'P 1'
_cell_length_a   10.17551243
_cell_length_b   10.17551173
_cell_length_c   8.19644406
_cell_angle_alpha   90.00021895
_cell_angle_beta   90.00020354
_cell_angle_gamma   132.50721016
_symmetry_Int_Tables_number   1
_chemical_formula_structural   Ca5YSi24Ru5Rh3
_chemical_formula_sum   'Ca5 Y1 Si24 Ru5 Rh3'
_cell_volume   625.63181595
_cell_formula_units_Z   1
loop_
 _symmetry_equiv_pos_site_id
 _symmetry_equiv_pos_as_xyz
  1  'x, y, z'
loop_
 _atom_site_type_symbol
 _atom_site_label
 _atom_site_symmetry_multiplicity
 _atom_site_fract_x
 _atom_site_fract_y
 _atom_site_fract_z
 _atom_site_occupancy
  Ca  Ca0  1  0.999803  0.000197  0.000000  1
  Ca  Ca1  1  0.002240  0.501635  0.249882  1
  Ca  Ca2  1  0.498365  0.997760  0.750118  1
  Ca  Ca3  1  0.998314  0.497669  0.749453  1
  Ca  Ca4  1  0.502331  0.001686  0.250547  1
  Y  Y5  1  0.499660  0.500340  0.500000  1
  Si  Si6  1  0.295700  0.704300  0.000000  1
  Si  Si7  1  0.795355  0.204645  0.500000  1
  Si  Si8  1  0.705620  0.294380  0.000000  1
  Si  Si9  1  0.206787  0.793213  0.500000  1
  Si  Si10  1  0.832418  0.836179  0.331954  1
  Si  Si11  1  0.163821  0.167582  0.668046  1
  Si  Si12  1  0.667650  0.668464  0.834081  1
  Si  Si13  1  0.331536  0.332350  0.165919  1
  Si  Si14  1  0.620341  0.387449  0.224229  1
  Si  Si15  1  0.612551  0.379659  0.775771  1
  Si  Si16  1  0.109977  0.878347  0.725920  1
  Si  Si17  1  0.121653  0.890023  0.274080  1
  Si  Si18  1  0.376400  0.609174  0.771635  1
  Si  Si19  1  0.390826  0.623600  0.228365  1
  Si  Si20  1  0.887479  0.119954  0.275137  1
  Si  Si21  1  0.880046  0.112521  0.724863  1
  Si  Si22  1  0.841606  0.610057  0.002114  1
  Si  Si23  1  0.389943  0.158394  0.997886  1
  Si  Si24  1  0.891993  0.659963  0.504455  1
  Si  Si25  1  0.340037  0.108007  0.495545  1
  Si  Si26  1  0.159200  0.390437  0.996020  1
  Si  Si27  1  0.609563  0.840800  0.003980  1
  Si  Si28  1  0.111415  0.344212  0.496806  1
  Si  Si29  1  0.655788  0.888585  0.503194  1
  Ru  Ru30  1  0.332023  0.667977  0.500000  1
  Ru  Ru31  1  0.625534  0.624103  0.127525  1
  Ru  Ru32  1  0.375897  0.374466  0.872475  1
  Ru  Ru33  1  0.872803  0.872452  0.624830  1
  Ru  Ru34  1  0.127548  0.127197  0.375170  1
  Rh  Rh35  1  0.168421  0.831579  0.000000  1
  Rh  Rh36  1  0.667046  0.332954  0.500000  1
  Rh  Rh37  1  0.832312  0.167688  0.000000  1
