# generated using pymatgen
data_ScZn2PtRh2
_symmetry_space_group_name_H-M   'P 1'
_cell_length_a   4.39049000
_cell_length_b   5.37217956
_cell_length_c   7.62434801
_cell_angle_alpha   89.97060669
_cell_angle_beta   90.00000000
_cell_angle_gamma   90.00000000
_symmetry_Int_Tables_number   1
_chemical_formula_structural   ScZn2PtRh2
_chemical_formula_sum   'Sc2 Zn4 Pt2 Rh4'
_cell_volume   179.83166558
_cell_formula_units_Z   2
loop_
 _symmetry_equiv_pos_site_id
 _symmetry_equiv_pos_as_xyz
  1  'x, y, z'
loop_
 _atom_site_type_symbol
 _atom_site_label
 _atom_site_symmetry_multiplicity
 _atom_site_fract_x
 _atom_site_fract_y
 _atom_site_fract_z
 _atom_site_occupancy
  Sc  Sc0  1  0.750000  0.998343  0.750314  1
  Sc  Sc1  1  0.250000  0.001657  0.249686  1
  Zn  Zn2  1  0.250000  0.677746  0.583121  1
  Zn  Zn3  1  0.750000  0.322254  0.416879  1
  Zn  Zn4  1  0.750000  0.682011  0.084196  1
  Zn  Zn5  1  0.250000  0.317989  0.915804  1
  Pt  Pt6  1  0.250000  0.501596  0.249412  1
  Pt  Pt7  1  0.750000  0.498404  0.750588  1
  Rh  Rh8  1  0.250000  0.812987  0.916506  1
  Rh  Rh9  1  0.750000  0.187013  0.083494  1
  Rh  Rh10  1  0.750000  0.817135  0.417130  1
  Rh  Rh11  1  0.250000  0.182865  0.582870  1
