# generated using pymatgen
data_Li4In3Ag
_symmetry_space_group_name_H-M   'P 1'
_cell_length_a   8.32915021
_cell_length_b   8.32914927
_cell_length_c   8.32914858
_cell_angle_alpha   32.90914236
_cell_angle_beta   32.90914028
_cell_angle_gamma   32.90914053
_symmetry_Int_Tables_number   1
_chemical_formula_structural   Li4In3Ag
_chemical_formula_sum   'Li4 In3 Ag1'
_cell_volume   151.76753927
_cell_formula_units_Z   1
loop_
 _symmetry_equiv_pos_site_id
 _symmetry_equiv_pos_as_xyz
  1  'x, y, z'
loop_
 _atom_site_type_symbol
 _atom_site_label
 _atom_site_symmetry_multiplicity
 _atom_site_fract_x
 _atom_site_fract_y
 _atom_site_fract_z
 _atom_site_occupancy
  Li  Li0  1  0.125480  0.125480  0.125480  1
  Li  Li1  1  0.623791  0.623791  0.623791  1
  Li  Li2  1  0.004308  0.004308  0.004308  1
  Li  Li3  1  0.494304  0.494304  0.494304  1
  In  In4  1  0.872488  0.872488  0.872488  1
  In  In5  1  0.745095  0.745095  0.745095  1
  In  In6  1  0.256826  0.256826  0.256826  1
  Ag  Ag7  1  0.377709  0.377709  0.377709  1
