# generated using pymatgen
data_Tm4Fe4Os3Ru
_symmetry_space_group_name_H-M   'P 1'
_cell_length_a   5.21364412
_cell_length_b   5.21364380
_cell_length_c   8.61692700
_cell_angle_alpha   90.00000000
_cell_angle_beta   90.00000000
_cell_angle_gamma   121.13891522
_symmetry_Int_Tables_number   1
_chemical_formula_structural   Tm4Fe4Os3Ru
_chemical_formula_sum   'Tm4 Fe4 Os3 Ru1'
_cell_volume   200.47781833
_cell_formula_units_Z   1
loop_
 _symmetry_equiv_pos_site_id
 _symmetry_equiv_pos_as_xyz
  1  'x, y, z'
loop_
 _atom_site_type_symbol
 _atom_site_label
 _atom_site_symmetry_multiplicity
 _atom_site_fract_x
 _atom_site_fract_y
 _atom_site_fract_z
 _atom_site_occupancy
  Tm  Tm0  1  0.333226  0.666774  0.436728  1
  Tm  Tm1  1  0.665131  0.334869  0.562551  1
  Tm  Tm2  1  0.665131  0.334869  0.937449  1
  Tm  Tm3  1  0.333226  0.666774  0.063272  1
  Fe  Fe4  1  0.835887  0.659281  0.250000  1
  Fe  Fe5  1  0.340719  0.164113  0.250000  1
  Fe  Fe6  1  0.164493  0.336763  0.750000  1
  Fe  Fe7  1  0.663237  0.835507  0.750000  1
  Os  Os8  1  0.997879  0.002121  0.500139  1
  Os  Os9  1  0.997879  0.002121  0.999861  1
  Os  Os10  1  0.830292  0.169708  0.250000  1
  Ru  Ru11  1  0.172900  0.827100  0.750000  1
