# generated using pymatgen
data_CeSmDy(SnRh)3
_symmetry_space_group_name_H-M   'P 1'
_cell_length_a   7.56480548
_cell_length_b   7.57469145
_cell_length_c   3.91766500
_cell_angle_alpha   90.00000000
_cell_angle_beta   90.00000000
_cell_angle_gamma   119.36801124
_symmetry_Int_Tables_number   1
_chemical_formula_structural   CeSmDy(SnRh)3
_chemical_formula_sum   'Ce1 Sm1 Dy1 Sn3 Rh3'
_cell_volume   195.63713595
_cell_formula_units_Z   1
loop_
 _symmetry_equiv_pos_site_id
 _symmetry_equiv_pos_as_xyz
  1  'x, y, z'
loop_
 _atom_site_type_symbol
 _atom_site_label
 _atom_site_symmetry_multiplicity
 _atom_site_fract_x
 _atom_site_fract_y
 _atom_site_fract_z
 _atom_site_occupancy
  Ce  Ce0  1  0.414083  0.414144  0.500000  1
  Sm  Sm1  1  0.591177  0.999730  0.500000  1
  Dy  Dy2  1  0.999838  0.592311  0.500000  1
  Sn  Sn3  1  0.750357  0.748036  0.000000  1
  Sn  Sn4  1  0.256286  0.991946  0.000000  1
  Sn  Sn5  1  0.994095  0.259708  0.000000  1
  Rh  Rh6  1  0.654491  0.337976  0.000000  1
  Rh  Rh7  1  0.333212  0.651363  0.000000  1
  Rh  Rh8  1  0.006462  0.004786  0.500000  1
