# generated using pymatgen
data_Ac8Ir3RuO24
_symmetry_space_group_name_H-M   'P 1'
_cell_length_a   5.48473617
_cell_length_b   9.47722613
_cell_length_c   10.23869700
_cell_angle_alpha   89.93248846
_cell_angle_beta   90.09265966
_cell_angle_gamma   89.88674769
_symmetry_Int_Tables_number   1
_chemical_formula_structural   Ac8Ir3RuO24
_chemical_formula_sum   'Ac8 Ir3 Ru1 O24'
_cell_volume   532.20623285
_cell_formula_units_Z   1
loop_
 _symmetry_equiv_pos_site_id
 _symmetry_equiv_pos_as_xyz
  1  'x, y, z'
loop_
 _atom_site_type_symbol
 _atom_site_label
 _atom_site_symmetry_multiplicity
 _atom_site_fract_x
 _atom_site_fract_y
 _atom_site_fract_z
 _atom_site_occupancy
  Ac  Ac0  1  0.015776  0.224983  0.144134  1
  Ac  Ac1  1  0.482714  0.773062  0.643756  1
  Ac  Ac2  1  0.985494  0.720958  0.358353  1
  Ac  Ac3  1  0.511502  0.280172  0.854827  1
  Ac  Ac4  1  0.047602  0.108858  0.550787  1
  Ac  Ac5  1  0.456315  0.893935  0.051674  1
  Ac  Ac6  1  0.958919  0.611053  0.945844  1
  Ac  Ac7  1  0.540801  0.393476  0.450855  1
  Ir  Ir8  1  0.554221  0.004931  0.375846  1
  Ir  Ir9  1  0.947433  0.996330  0.874861  1
  Ir  Ir10  1  0.448929  0.507487  0.124912  1
  Ru  Ru11  1  0.045620  0.489302  0.626010  1
  O  O12  1  0.483865  0.138805  0.515435  1
  O  O13  1  0.019820  0.862754  0.015729  1
  O  O14  1  0.523506  0.642191  0.985831  1
  O  O15  1  0.981851  0.364517  0.480531  1
  O  O16  1  0.713734  0.394216  0.050519  1
  O  O17  1  0.784260  0.606915  0.550415  1
  O  O18  1  0.288017  0.891695  0.448817  1
  O  O19  1  0.212742  0.110059  0.948283  1
  O  O20  1  0.227142  0.411317  0.000321  1
  O  O21  1  0.270040  0.589447  0.503926  1
  O  O22  1  0.773517  0.908431  0.501162  1
  O  O23  1  0.726525  0.093034  0.998809  1
  O  O24  1  0.195764  0.642551  0.164113  1
  O  O25  1  0.287486  0.344430  0.661472  1
  O  O26  1  0.805430  0.140139  0.334681  1
  O  O27  1  0.697902  0.860421  0.833770  1
  O  O28  1  0.332872  0.068665  0.243868  1
  O  O29  1  0.167214  0.929658  0.744391  1
  O  O30  1  0.668197  0.567849  0.257569  1
  O  O31  1  0.819173  0.441119  0.755172  1
  O  O32  1  0.328514  0.371318  0.248281  1
  O  O33  1  0.193416  0.612871  0.750241  1
  O  O34  1  0.671730  0.868229  0.252546  1
  O  O35  1  0.831959  0.134820  0.752262  1
