# generated using pymatgen
data_Sc6Zn21Cu2S
_symmetry_space_group_name_H-M   'P 1'
_cell_length_a   8.78655462
_cell_length_b   8.73508237
_cell_length_c   8.73508300
_cell_angle_alpha   59.92992475
_cell_angle_beta   59.80489074
_cell_angle_gamma   59.80488886
_symmetry_Int_Tables_number   1
_chemical_formula_structural   Sc6Zn21Cu2S
_chemical_formula_sum   'Sc6 Zn21 Cu2 S1'
_cell_volume   472.41252684
_cell_formula_units_Z   1
loop_
 _symmetry_equiv_pos_site_id
 _symmetry_equiv_pos_as_xyz
  1  'x, y, z'
loop_
 _atom_site_type_symbol
 _atom_site_label
 _atom_site_symmetry_multiplicity
 _atom_site_fract_x
 _atom_site_fract_y
 _atom_site_fract_z
 _atom_site_occupancy
  Sc  Sc0  1  0.706985  0.293015  0.293015  1
  Sc  Sc1  1  0.293015  0.706985  0.706985  1
  Sc  Sc2  1  0.295201  0.705109  0.294891  1
  Sc  Sc3  1  0.704799  0.294891  0.705109  1
  Sc  Sc4  1  0.295201  0.294891  0.705109  1
  Sc  Sc5  1  0.704799  0.705109  0.294891  1
  Zn  Zn6  1  0.118395  0.119246  0.119246  1
  Zn  Zn7  1  0.881605  0.880754  0.880754  1
  Zn  Zn8  1  0.115417  0.127936  0.641231  1
  Zn  Zn9  1  0.115417  0.641231  0.127936  1
  Zn  Zn10  1  0.884583  0.872064  0.358769  1
  Zn  Zn11  1  0.884583  0.358769  0.872064  1
  Zn  Zn12  1  0.643113  0.119246  0.119246  1
  Zn  Zn13  1  0.356887  0.880754  0.880754  1
  Zn  Zn14  1  0.500000  0.000000  0.000000  1
  Zn  Zn15  1  0.000000  0.500000  0.000000  1
  Zn  Zn16  1  0.500000  0.000000  0.500000  1
  Zn  Zn17  1  0.000000  0.000000  0.500000  1
  Zn  Zn18  1  0.500000  0.500000  0.000000  1
  Zn  Zn19  1  0.327834  0.334641  0.334641  1
  Zn  Zn20  1  0.672166  0.665359  0.665359  1
  Zn  Zn21  1  0.331678  0.332863  0.003781  1
  Zn  Zn22  1  0.331678  0.003781  0.332863  1
  Zn  Zn23  1  0.668322  0.667137  0.996219  1
  Zn  Zn24  1  0.668322  0.996219  0.667137  1
  Zn  Zn25  1  0.002885  0.334641  0.334641  1
  Zn  Zn26  1  0.997115  0.665359  0.665359  1
  Cu  Cu27  1  0.000000  0.500000  0.500000  1
  Cu  Cu28  1  0.000000  0.000000  0.000000  1
  S  S29  1  0.500000  0.500000  0.500000  1
