# generated using pymatgen
data_Mg2Zn2GaIr
_symmetry_space_group_name_H-M   'P 1'
_cell_length_a   5.24266900
_cell_length_b   5.24266785
_cell_length_c   8.34280700
_cell_angle_alpha   90.00000000
_cell_angle_beta   90.00000000
_cell_angle_gamma   120.18260833
_symmetry_Int_Tables_number   1
_chemical_formula_structural   Mg2Zn2GaIr
_chemical_formula_sum   'Mg4 Zn4 Ga2 Ir2'
_cell_volume   198.21911334
_cell_formula_units_Z   2
loop_
 _symmetry_equiv_pos_site_id
 _symmetry_equiv_pos_as_xyz
  1  'x, y, z'
loop_
 _atom_site_type_symbol
 _atom_site_label
 _atom_site_symmetry_multiplicity
 _atom_site_fract_x
 _atom_site_fract_y
 _atom_site_fract_z
 _atom_site_occupancy
  Mg  Mg0  1  0.674373  0.325627  0.066708  1
  Mg  Mg1  1  0.325627  0.674373  0.933292  1
  Mg  Mg2  1  0.325627  0.674373  0.566708  1
  Mg  Mg3  1  0.674373  0.325627  0.433292  1
  Zn  Zn4  1  0.831969  0.646402  0.750000  1
  Zn  Zn5  1  0.168031  0.353598  0.250000  1
  Zn  Zn6  1  0.353598  0.168031  0.750000  1
  Zn  Zn7  1  0.646402  0.831969  0.250000  1
  Ga  Ga8  1  0.000000  0.000000  0.500000  1
  Ga  Ga9  1  0.000000  0.000000  0.000000  1
  Ir  Ir10  1  0.839226  0.160774  0.750000  1
  Ir  Ir11  1  0.160774  0.839226  0.250000  1
