# generated using pymatgen
data_Eu2Ho3LuTa2O14
_symmetry_space_group_name_H-M   'P 1'
_cell_length_a   6.45775551
_cell_length_b   6.45169830
_cell_length_c   7.52824800
_cell_angle_alpha   90.00172934
_cell_angle_beta   90.00290420
_cell_angle_gamma   108.82352523
_symmetry_Int_Tables_number   1
_chemical_formula_structural   Eu2Ho3LuTa2O14
_chemical_formula_sum   'Eu2 Ho3 Lu1 Ta2 O14'
_cell_volume   296.87793491
_cell_formula_units_Z   1
loop_
 _symmetry_equiv_pos_site_id
 _symmetry_equiv_pos_as_xyz
  1  'x, y, z'
loop_
 _atom_site_type_symbol
 _atom_site_label
 _atom_site_symmetry_multiplicity
 _atom_site_fract_x
 _atom_site_fract_y
 _atom_site_fract_z
 _atom_site_occupancy
  Eu  Eu0  1  0.498978  0.499337  0.500989  1
  Eu  Eu1  1  0.495643  0.496348  0.999084  1
  Ho  Ho2  1  0.000386  0.533325  0.249340  1
  Ho  Ho3  1  0.534326  0.000067  0.750671  1
  Ho  Ho4  1  0.466055  0.999258  0.250688  1
  Lu  Lu5  1  0.998586  0.467372  0.749350  1
  Ta  Ta6  1  0.999760  0.999807  0.501157  1
  Ta  Ta7  1  0.999865  0.999854  0.998989  1
  O  O8  1  0.645519  0.359680  0.749985  1
  O  O9  1  0.359000  0.639233  0.250222  1
  O  O10  1  0.932382  0.069862  0.750008  1
  O  O11  1  0.064941  0.931480  0.250043  1
  O  O12  1  0.937243  0.680708  0.538288  1
  O  O13  1  0.066507  0.322288  0.030465  1
  O  O14  1  0.322658  0.071056  0.967944  1
  O  O15  1  0.678618  0.929424  0.467291  1
  O  O16  1  0.359374  0.631467  0.750033  1
  O  O17  1  0.634871  0.365827  0.249737  1
  O  O18  1  0.939502  0.682311  0.959948  1
  O  O19  1  0.064548  0.320787  0.467837  1
  O  O20  1  0.321323  0.069515  0.533649  1
  O  O21  1  0.679914  0.930994  0.034282  1
