# generated using pymatgen
data_DyFe3P3Ru2
_symmetry_space_group_name_H-M   'P 1'
_cell_length_a   3.75493900
_cell_length_b   10.46160200
_cell_length_c   11.97186200
_cell_angle_alpha   90.00000000
_cell_angle_beta   90.00000000
_cell_angle_gamma   90.00000000
_symmetry_Int_Tables_number   1
_chemical_formula_structural   DyFe3P3Ru2
_chemical_formula_sum   'Dy4 Fe12 P12 Ru8'
_cell_volume   470.28679225
_cell_formula_units_Z   4
loop_
 _symmetry_equiv_pos_site_id
 _symmetry_equiv_pos_as_xyz
  1  'x, y, z'
loop_
 _atom_site_type_symbol
 _atom_site_label
 _atom_site_symmetry_multiplicity
 _atom_site_fract_x
 _atom_site_fract_y
 _atom_site_fract_z
 _atom_site_occupancy
  Dy  Dy0  1  0.250000  0.582945  0.709353  1
  Dy  Dy1  1  0.250000  0.917055  0.209353  1
  Dy  Dy2  1  0.750000  0.417055  0.290647  1
  Dy  Dy3  1  0.750000  0.082945  0.790647  1
  Fe  Fe4  1  0.250000  0.224225  0.175725  1
  Fe  Fe5  1  0.250000  0.275775  0.675725  1
  Fe  Fe6  1  0.750000  0.775775  0.824275  1
  Fe  Fe7  1  0.750000  0.724225  0.324275  1
  Fe  Fe8  1  0.250000  0.880340  0.698906  1
  Fe  Fe9  1  0.250000  0.619660  0.198906  1
  Fe  Fe10  1  0.750000  0.119660  0.301094  1
  Fe  Fe11  1  0.750000  0.380340  0.801094  1
  Fe  Fe12  1  0.250000  0.462061  0.934717  1
  Fe  Fe13  1  0.250000  0.037939  0.434717  1
  Fe  Fe14  1  0.750000  0.537939  0.065283  1
  Fe  Fe15  1  0.750000  0.962061  0.565283  1
  P  P16  1  0.250000  0.425307  0.113029  1
  P  P17  1  0.250000  0.074693  0.613029  1
  P  P18  1  0.750000  0.574693  0.886971  1
  P  P19  1  0.750000  0.925307  0.386971  1
  P  P20  1  0.250000  0.272846  0.861466  1
  P  P21  1  0.250000  0.227154  0.361466  1
  P  P22  1  0.750000  0.727154  0.138534  1
  P  P23  1  0.750000  0.772846  0.638534  1
  P  P24  1  0.250000  0.606143  0.385187  1
  P  P25  1  0.250000  0.893857  0.885187  1
  P  P26  1  0.750000  0.393857  0.614813  1
  P  P27  1  0.750000  0.106143  0.114813  1
  Ru  Ru28  1  0.250000  0.702387  0.984370  1
  Ru  Ru29  1  0.250000  0.797613  0.484370  1
  Ru  Ru30  1  0.750000  0.297613  0.015630  1
  Ru  Ru31  1  0.750000  0.202387  0.515630  1
  Ru  Ru32  1  0.250000  0.402973  0.485983  1
  Ru  Ru33  1  0.250000  0.097027  0.985983  1
  Ru  Ru34  1  0.750000  0.597027  0.514017  1
  Ru  Ru35  1  0.750000  0.902973  0.014017  1
