# generated using pymatgen
data_Ho3ZnSiRh2
_symmetry_space_group_name_H-M   'P 1'
_cell_length_a   5.44925200
_cell_length_b   7.98509600
_cell_length_c   13.18808700
_cell_angle_alpha   90.00000000
_cell_angle_beta   90.00000000
_cell_angle_gamma   90.00000000
_symmetry_Int_Tables_number   1
_chemical_formula_structural   Ho3ZnSiRh2
_chemical_formula_sum   'Ho12 Zn4 Si4 Rh8'
_cell_volume   573.85059661
_cell_formula_units_Z   4
loop_
 _symmetry_equiv_pos_site_id
 _symmetry_equiv_pos_as_xyz
  1  'x, y, z'
loop_
 _atom_site_type_symbol
 _atom_site_label
 _atom_site_symmetry_multiplicity
 _atom_site_fract_x
 _atom_site_fract_y
 _atom_site_fract_z
 _atom_site_occupancy
  Ho  Ho0  1  0.634526  0.259400  0.250000  1
  Ho  Ho1  1  0.365474  0.740600  0.750000  1
  Ho  Ho2  1  0.365474  0.759400  0.250000  1
  Ho  Ho3  1  0.634526  0.240600  0.750000  1
  Ho  Ho4  1  0.148605  0.398807  0.101334  1
  Ho  Ho5  1  0.851395  0.601193  0.898666  1
  Ho  Ho6  1  0.851395  0.601193  0.601334  1
  Ho  Ho7  1  0.851395  0.898807  0.398666  1
  Ho  Ho8  1  0.148605  0.398807  0.398666  1
  Ho  Ho9  1  0.148605  0.101193  0.601334  1
  Ho  Ho10  1  0.148605  0.101193  0.898666  1
  Ho  Ho11  1  0.851395  0.898807  0.101334  1
  Zn  Zn12  1  0.645137  0.250000  0.000000  1
  Zn  Zn13  1  0.354863  0.750000  0.000000  1
  Zn  Zn14  1  0.354863  0.750000  0.500000  1
  Zn  Zn15  1  0.645137  0.250000  0.500000  1
  Si  Si16  1  0.130386  0.113247  0.250000  1
  Si  Si17  1  0.869614  0.886753  0.750000  1
  Si  Si18  1  0.869614  0.613247  0.250000  1
  Si  Si19  1  0.130386  0.386753  0.750000  1
  Rh  Rh20  1  0.353163  0.031473  0.096535  1
  Rh  Rh21  1  0.646837  0.968527  0.903465  1
  Rh  Rh22  1  0.646837  0.968527  0.596535  1
  Rh  Rh23  1  0.646837  0.531473  0.403465  1
  Rh  Rh24  1  0.353163  0.031473  0.403465  1
  Rh  Rh25  1  0.353163  0.468527  0.596535  1
  Rh  Rh26  1  0.353163  0.468527  0.903465  1
  Rh  Rh27  1  0.646837  0.531473  0.096535  1
