# generated using pymatgen
data_TbBi3Te10
_symmetry_space_group_name_H-M   'P 1'
_cell_length_a   23.99889647
_cell_length_b   23.99889486
_cell_length_c   3.18195100
_cell_angle_alpha   90.00000000
_cell_angle_beta   90.00000000
_cell_angle_gamma   166.39890131
_symmetry_Int_Tables_number   1
_chemical_formula_structural   TbBi3Te10
_chemical_formula_sum   'Tb1 Bi3 Te10'
_cell_volume   430.96384935
_cell_formula_units_Z   1
loop_
 _symmetry_equiv_pos_site_id
 _symmetry_equiv_pos_as_xyz
  1  'x, y, z'
loop_
 _atom_site_type_symbol
 _atom_site_label
 _atom_site_symmetry_multiplicity
 _atom_site_fract_x
 _atom_site_fract_y
 _atom_site_fract_z
 _atom_site_occupancy
  Tb  Tb0  1  0.104102  0.895898  0.750000  1
  Bi  Bi1  1  0.682949  0.317051  0.250000  1
  Bi  Bi2  1  0.319650  0.680350  0.750000  1
  Bi  Bi3  1  0.886976  0.113024  0.250000  1
  Te  Te4  1  0.619218  0.380782  0.250000  1
  Te  Te5  1  0.385122  0.614878  0.750000  1
  Te  Te6  1  0.821280  0.178720  0.250000  1
  Te  Te7  1  0.173765  0.826235  0.750000  1
  Te  Te8  1  0.955102  0.044898  0.750000  1
  Te  Te9  1  0.046175  0.953825  0.250000  1
  Te  Te10  1  0.545316  0.454684  0.750000  1
  Te  Te11  1  0.459506  0.540494  0.250000  1
  Te  Te12  1  0.748491  0.251509  0.750000  1
  Te  Te13  1  0.252347  0.747653  0.250000  1
