# generated using pymatgen
data_Sc4Co(AsRu)6
_symmetry_space_group_name_H-M   'P 1'
_cell_length_a   7.03125174
_cell_length_b   7.03125140
_cell_length_c   7.03125183
_cell_angle_alpha   109.26703011
_cell_angle_beta   109.88042090
_cell_angle_gamma   109.26702043
_symmetry_Int_Tables_number   1
_chemical_formula_structural   Sc4Co(AsRu)6
_chemical_formula_sum   'Sc4 Co1 As6 Ru6'
_cell_volume   267.58343928
_cell_formula_units_Z   1
loop_
 _symmetry_equiv_pos_site_id
 _symmetry_equiv_pos_as_xyz
  1  'x, y, z'
loop_
 _atom_site_type_symbol
 _atom_site_label
 _atom_site_symmetry_multiplicity
 _atom_site_fract_x
 _atom_site_fract_y
 _atom_site_fract_z
 _atom_site_occupancy
  Sc  Sc0  1  0.001564  0.003093  0.501553  1
  Sc  Sc1  1  0.498447  0.996907  0.998436  1
  Sc  Sc2  1  0.001541  0.500000  0.998459  1
  Sc  Sc3  1  0.498446  0.500000  0.501554  1
  Co  Co4  1  0.749999  0.500000  0.250001  1
  As  As5  1  0.311605  0.000003  0.311586  1
  As  As6  1  0.995851  0.313633  0.309495  1
  As  As7  1  0.995852  0.686358  0.682220  1
  As  As8  1  0.317780  0.313642  0.004148  1
  As  As9  1  0.690505  0.686367  0.004149  1
  As  As10  1  0.688414  0.999997  0.688395  1
  Ru  Ru11  1  0.503095  0.749252  0.252346  1
  Ru  Ru12  1  0.503095  0.250752  0.753845  1
  Ru  Ru13  1  0.747654  0.250748  0.496905  1
  Ru  Ru14  1  0.246155  0.749248  0.496905  1
  Ru  Ru15  1  0.249997  0.500000  0.750003  1
  Ru  Ru16  1  0.999999  0.000000  0.000001  1
