# generated using pymatgen
data_Tb16MgHg3Ir3Pt
_symmetry_space_group_name_H-M   'P 1'
_cell_length_a   9.66770839
_cell_length_b   9.68168950
_cell_length_c   9.66287611
_cell_angle_alpha   59.93557550
_cell_angle_beta   59.97656674
_cell_angle_gamma   59.95214148
_symmetry_Int_Tables_number   1
_chemical_formula_structural   Tb16MgHg3Ir3Pt
_chemical_formula_sum   'Tb16 Mg1 Hg3 Ir3 Pt1'
_cell_volume   638.88132393
_cell_formula_units_Z   1
loop_
 _symmetry_equiv_pos_site_id
 _symmetry_equiv_pos_as_xyz
  1  'x, y, z'
loop_
 _atom_site_type_symbol
 _atom_site_label
 _atom_site_symmetry_multiplicity
 _atom_site_fract_x
 _atom_site_fract_y
 _atom_site_fract_z
 _atom_site_occupancy
  Tb  Tb0  1  0.191687  0.807736  0.810149  1
  Tb  Tb1  1  0.812792  0.191715  0.186369  1
  Tb  Tb2  1  0.063208  0.437868  0.061055  1
  Tb  Tb3  1  0.058365  0.646447  0.648742  1
  Tb  Tb4  1  0.647770  0.650656  0.653171  1
  Tb  Tb5  1  0.063494  0.062531  0.439001  1
  Tb  Tb6  1  0.195533  0.807887  0.188694  1
  Tb  Tb7  1  0.812792  0.809124  0.186369  1
  Tb  Tb8  1  0.812624  0.188498  0.810380  1
  Tb  Tb9  1  0.436142  0.062819  0.438220  1
  Tb  Tb10  1  0.438811  0.436941  0.061582  1
  Tb  Tb11  1  0.438811  0.062665  0.061582  1
  Tb  Tb12  1  0.063494  0.434974  0.439001  1
  Tb  Tb13  1  0.191687  0.190428  0.810149  1
  Tb  Tb14  1  0.649705  0.651896  0.046503  1
  Tb  Tb15  1  0.647770  0.048403  0.653171  1
  Mg  Mg16  1  0.717719  0.427123  0.428036  1
  Hg  Hg17  1  0.417844  0.412433  0.757290  1
  Hg  Hg18  1  0.417985  0.755953  0.413379  1
  Hg  Hg19  1  0.417985  0.412684  0.413379  1
  Ir  Ir20  1  0.859574  0.427078  0.855206  1
  Ir  Ir21  1  0.859574  0.858144  0.855206  1
  Ir  Ir22  1  0.426032  0.858870  0.856229  1
  Pt  Pt23  1  0.858608  0.857127  0.427139  1
