# generated using pymatgen
data_Cs10Rb3Zr2(In3Sb5)2
_symmetry_space_group_name_H-M   'P 1'
_cell_length_a   10.62013725
_cell_length_b   10.40130211
_cell_length_c   14.72057921
_cell_angle_alpha   79.62799230
_cell_angle_beta   77.00240704
_cell_angle_gamma   63.00136174
_symmetry_Int_Tables_number   1
_chemical_formula_structural   Cs10Rb3Zr2(In3Sb5)2
_chemical_formula_sum   'Cs10 Rb3 Zr2 In6 Sb10'
_cell_volume   1406.04775080
_cell_formula_units_Z   1
loop_
 _symmetry_equiv_pos_site_id
 _symmetry_equiv_pos_as_xyz
  1  'x, y, z'
loop_
 _atom_site_type_symbol
 _atom_site_label
 _atom_site_symmetry_multiplicity
 _atom_site_fract_x
 _atom_site_fract_y
 _atom_site_fract_z
 _atom_site_occupancy
  Cs  Cs0  1  0.859058  0.582957  0.885242  1
  Cs  Cs1  1  0.140942  0.417043  0.114758  1
  Cs  Cs2  1  0.095614  0.790203  0.429577  1
  Cs  Cs3  1  0.904386  0.209797  0.570423  1
  Cs  Cs4  1  0.748948  0.690070  0.593543  1
  Cs  Cs5  1  0.251052  0.309930  0.406457  1
  Cs  Cs6  1  0.316770  0.931044  0.092156  1
  Cs  Cs7  1  0.683230  0.068956  0.907844  1
  Cs  Cs8  1  0.892441  0.852846  0.162833  1
  Cs  Cs9  1  0.107559  0.147154  0.837167  1
  Rb  Rb10  1  0.504756  0.855757  0.352325  1
  Rb  Rb11  1  0.495244  0.144243  0.647675  1
  Rb  Rb12  1  0.500000  0.500000  0.000000  1
  Zr  Zr13  1  0.378309  0.736541  0.771606  1
  Zr  Zr14  1  0.621691  0.263459  0.228394  1
  In  In15  1  0.039104  0.804376  0.706694  1
  In  In16  1  0.960896  0.195624  0.293306  1
  In  In17  1  0.595048  0.445065  0.412239  1
  In  In18  1  0.404952  0.554935  0.587761  1
  In  In19  1  0.723415  0.563219  0.167611  1
  In  In20  1  0.276585  0.436781  0.832389  1
  Sb  Sb21  1  0.431103  0.562474  0.254272  1
  Sb  Sb22  1  0.568897  0.437526  0.745728  1
  Sb  Sb23  1  0.127762  0.742615  0.898989  1
  Sb  Sb24  1  0.872238  0.257385  0.101011  1
  Sb  Sb25  1  0.709345  0.125048  0.404578  1
  Sb  Sb26  1  0.290655  0.874952  0.595422  1
  Sb  Sb27  1  0.849649  0.509986  0.351406  1
  Sb  Sb28  1  0.150351  0.490014  0.648594  1
  Sb  Sb29  1  0.503736  0.868079  0.840427  1
  Sb  Sb30  1  0.496264  0.131921  0.159573  1
