# generated using pymatgen
data_SrOs5O13
_symmetry_space_group_name_H-M   'P 1'
_cell_length_a   5.56299767
_cell_length_b   5.56299874
_cell_length_c   16.47687700
_cell_angle_alpha   90.00000000
_cell_angle_beta   90.00000000
_cell_angle_gamma   108.42815935
_symmetry_Int_Tables_number   1
_chemical_formula_structural   SrOs5O13
_chemical_formula_sum   'Sr2 Os10 O26'
_cell_volume   483.76132424
_cell_formula_units_Z   2
loop_
 _symmetry_equiv_pos_site_id
 _symmetry_equiv_pos_as_xyz
  1  'x, y, z'
loop_
 _atom_site_type_symbol
 _atom_site_label
 _atom_site_symmetry_multiplicity
 _atom_site_fract_x
 _atom_site_fract_y
 _atom_site_fract_z
 _atom_site_occupancy
  Sr  Sr0  1  0.868231  0.139776  0.750000  1
  Sr  Sr1  1  0.139776  0.868231  0.250000  1
  Os  Os2  1  0.381487  0.620976  0.072511  1
  Os  Os3  1  0.620976  0.381487  0.927489  1
  Os  Os4  1  0.001184  0.001184  0.000000  1
  Os  Os5  1  0.381487  0.620976  0.427489  1
  Os  Os6  1  0.620976  0.381487  0.572511  1
  Os  Os7  1  0.001184  0.001184  0.500000  1
  Os  Os8  1  0.761579  0.241311  0.362711  1
  Os  Os9  1  0.761579  0.241311  0.137289  1
  Os  Os10  1  0.241311  0.761579  0.862711  1
  Os  Os11  1  0.241311  0.761579  0.637289  1
  O  O12  1  0.529792  0.069955  0.864659  1
  O  O13  1  0.069955  0.529792  0.364659  1
  O  O14  1  0.069955  0.529792  0.135341  1
  O  O15  1  0.529792  0.069955  0.635341  1
  O  O16  1  0.305613  0.305613  0.000000  1
  O  O17  1  0.305613  0.305613  0.500000  1
  O  O18  1  0.028341  0.974830  0.619019  1
  O  O19  1  0.225166  0.776866  0.750000  1
  O  O20  1  0.225056  0.777604  0.986199  1
  O  O21  1  0.225056  0.777604  0.513801  1
  O  O22  1  0.453676  0.548339  0.639917  1
  O  O23  1  0.548339  0.453676  0.139917  1
  O  O24  1  0.777604  0.225056  0.486199  1
  O  O25  1  0.974830  0.028341  0.380981  1
  O  O26  1  0.548339  0.453676  0.360083  1
  O  O27  1  0.974830  0.028341  0.119019  1
  O  O28  1  0.776866  0.225166  0.250000  1
  O  O29  1  0.777604  0.225056  0.013801  1
  O  O30  1  0.028341  0.974830  0.880981  1
  O  O31  1  0.453676  0.548339  0.860083  1
  O  O32  1  0.696716  0.696716  0.500000  1
  O  O33  1  0.696716  0.696716  0.000000  1
  O  O34  1  0.473391  0.932654  0.364846  1
  O  O35  1  0.932654  0.473391  0.635154  1
  O  O36  1  0.932654  0.473391  0.864846  1
  O  O37  1  0.473391  0.932654  0.135154  1
