# generated using pymatgen
data_Pr2Ho3ErTa2O14
_symmetry_space_group_name_H-M   'P 1'
_cell_length_a   6.50427592
_cell_length_b   6.50218418
_cell_length_c   7.60514200
_cell_angle_alpha   89.99885422
_cell_angle_beta   89.99718069
_cell_angle_gamma   109.17070478
_symmetry_Int_Tables_number   1
_chemical_formula_structural   Pr2Ho3ErTa2O14
_chemical_formula_sum   'Pr2 Ho3 Er1 Ta2 O14'
_cell_volume   303.80010920
_cell_formula_units_Z   1
loop_
 _symmetry_equiv_pos_site_id
 _symmetry_equiv_pos_as_xyz
  1  'x, y, z'
loop_
 _atom_site_type_symbol
 _atom_site_label
 _atom_site_symmetry_multiplicity
 _atom_site_fract_x
 _atom_site_fract_y
 _atom_site_fract_z
 _atom_site_occupancy
  Pr  Pr0  1  0.508430  0.508111  0.499849  1
  Pr  Pr1  1  0.492915  0.492972  0.000222  1
  Ho  Ho2  1  0.998850  0.467055  0.747427  1
  Ho  Ho3  1  0.532903  0.001159  0.752552  1
  Ho  Ho4  1  0.466721  0.999036  0.252539  1
  Er  Er5  1  0.001407  0.532878  0.247369  1
  Ta  Ta6  1  0.001125  0.001233  0.499813  1
  Ta  Ta7  1  0.999071  0.998982  0.000338  1
  O  O8  1  0.936129  0.065008  0.750020  1
  O  O9  1  0.064612  0.934703  0.249993  1
  O  O10  1  0.354267  0.644557  0.250123  1
  O  O11  1  0.644553  0.355604  0.750069  1
  O  O12  1  0.361687  0.638179  0.749959  1
  O  O13  1  0.639686  0.362381  0.249882  1
  O  O14  1  0.321920  0.071017  0.969823  1
  O  O15  1  0.677677  0.928784  0.469877  1
  O  O16  1  0.317808  0.065627  0.535498  1
  O  O17  1  0.681738  0.934121  0.035476  1
  O  O18  1  0.063360  0.317162  0.462833  1
  O  O19  1  0.935698  0.682058  0.964880  1
  O  O20  1  0.929855  0.677862  0.529774  1
  O  O21  1  0.069587  0.321507  0.031683  1
