# generated using pymatgen
data_DyPa(SiPt)2
_symmetry_space_group_name_H-M   'P 1'
_cell_length_a   4.30752500
_cell_length_b   7.06175700
_cell_length_c   7.46656000
_cell_angle_alpha   90.00000000
_cell_angle_beta   90.00000000
_cell_angle_gamma   90.00000000
_symmetry_Int_Tables_number   1
_chemical_formula_structural   DyPa(SiPt)2
_chemical_formula_sum   'Dy2 Pa2 Si4 Pt4'
_cell_volume   227.12301001
_cell_formula_units_Z   2
loop_
 _symmetry_equiv_pos_site_id
 _symmetry_equiv_pos_as_xyz
  1  'x, y, z'
loop_
 _atom_site_type_symbol
 _atom_site_label
 _atom_site_symmetry_multiplicity
 _atom_site_fract_x
 _atom_site_fract_y
 _atom_site_fract_z
 _atom_site_occupancy
  Dy  Dy0  1  0.750000  0.003149  0.700703  1
  Dy  Dy1  1  0.250000  0.496851  0.200703  1
  Pa  Pa2  1  0.750000  0.501127  0.797518  1
  Pa  Pa3  1  0.250000  0.998873  0.297518  1
  Si  Si4  1  0.250000  0.806233  0.910051  1
  Si  Si5  1  0.250000  0.309430  0.589622  1
  Si  Si6  1  0.750000  0.190570  0.089622  1
  Si  Si7  1  0.750000  0.693767  0.410051  1
  Pt  Pt8  1  0.250000  0.710008  0.583349  1
  Pt  Pt9  1  0.250000  0.203002  0.918757  1
  Pt  Pt10  1  0.750000  0.789992  0.083349  1
  Pt  Pt11  1  0.750000  0.296998  0.418757  1
