# generated using pymatgen
data_Dy4ErTm3(B6Os)4
_symmetry_space_group_name_H-M   'P 1'
_cell_length_a   3.63425500
_cell_length_b   9.11091302
_cell_length_c   11.49939202
_cell_angle_alpha   90.00741732
_cell_angle_beta   90.00000000
_cell_angle_gamma   90.00000000
_symmetry_Int_Tables_number   1
_chemical_formula_structural   Dy4ErTm3(B6Os)4
_chemical_formula_sum   'Dy4 Er1 Tm3 B24 Os4'
_cell_volume   380.76074962
_cell_formula_units_Z   1
loop_
 _symmetry_equiv_pos_site_id
 _symmetry_equiv_pos_as_xyz
  1  'x, y, z'
loop_
 _atom_site_type_symbol
 _atom_site_label
 _atom_site_symmetry_multiplicity
 _atom_site_fract_x
 _atom_site_fract_y
 _atom_site_fract_z
 _atom_site_occupancy
  Dy  Dy0  1  0.000000  0.321904  0.413989  1
  Dy  Dy1  1  0.000000  0.678129  0.586162  1
  Dy  Dy2  1  0.000000  0.821762  0.085980  1
  Dy  Dy3  1  0.000000  0.178259  0.913915  1
  Er  Er4  1  0.000000  0.944125  0.372963  1
  Tm  Tm5  1  0.000000  0.055969  0.627197  1
  Tm  Tm6  1  0.000000  0.444108  0.126901  1
  Tm  Tm7  1  0.000000  0.555903  0.873013  1
  B  B8  1  0.500000  0.554018  0.432946  1
  B  B9  1  0.500000  0.445780  0.567123  1
  B  B10  1  0.500000  0.054243  0.066968  1
  B  B11  1  0.500000  0.945811  0.932903  1
  B  B12  1  0.500000  0.748517  0.419708  1
  B  B13  1  0.500000  0.251185  0.580389  1
  B  B14  1  0.500000  0.248977  0.080271  1
  B  B15  1  0.500000  0.751097  0.919666  1
  B  B16  1  0.500000  0.791269  0.266216  1
  B  B17  1  0.500000  0.208436  0.733704  1
  B  B18  1  0.500000  0.291766  0.233598  1
  B  B19  1  0.500000  0.708386  0.766355  1
  B  B20  1  0.500000  0.631104  0.184839  1
  B  B21  1  0.500000  0.368801  0.815096  1
  B  B22  1  0.500000  0.131555  0.314942  1
  B  B23  1  0.500000  0.868743  0.684998  1
  B  B24  1  0.500000  0.983058  0.213228  1
  B  B25  1  0.500000  0.017118  0.786537  1
  B  B26  1  0.500000  0.482761  0.286455  1
  B  B27  1  0.500000  0.517139  0.713510  1
  B  B28  1  0.500000  0.605479  0.029127  1
  B  B29  1  0.500000  0.394519  0.970813  1
  B  B30  1  0.500000  0.106064  0.471011  1
  B  B31  1  0.500000  0.894208  0.529544  1
  Os  Os32  1  0.000000  0.637283  0.320765  1
  Os  Os33  1  0.000000  0.362325  0.679304  1
  Os  Os34  1  0.000000  0.137957  0.179017  1
  Os  Os35  1  0.000000  0.862243  0.820850  1
