# generated using pymatgen
data_Tb2Fe5P6IrRh4
_symmetry_space_group_name_H-M   'P 1'
_cell_length_a   3.80264700
_cell_length_b   10.44476600
_cell_length_c   12.27635100
_cell_angle_alpha   90.00000000
_cell_angle_beta   90.00000000
_cell_angle_gamma   90.00000000
_symmetry_Int_Tables_number   1
_chemical_formula_structural   Tb2Fe5P6IrRh4
_chemical_formula_sum   'Tb4 Fe10 P12 Ir2 Rh8'
_cell_volume   487.58913931
_cell_formula_units_Z   2
loop_
 _symmetry_equiv_pos_site_id
 _symmetry_equiv_pos_as_xyz
  1  'x, y, z'
loop_
 _atom_site_type_symbol
 _atom_site_label
 _atom_site_symmetry_multiplicity
 _atom_site_fract_x
 _atom_site_fract_y
 _atom_site_fract_z
 _atom_site_occupancy
  Tb  Tb0  1  0.250000  0.583333  0.712699  1
  Tb  Tb1  1  0.250000  0.916667  0.212699  1
  Tb  Tb2  1  0.750000  0.423809  0.290214  1
  Tb  Tb3  1  0.750000  0.076191  0.790214  1
  Fe  Fe4  1  0.750000  0.774317  0.828571  1
  Fe  Fe5  1  0.750000  0.725683  0.328571  1
  Fe  Fe6  1  0.250000  0.874382  0.696417  1
  Fe  Fe7  1  0.250000  0.625618  0.196417  1
  Fe  Fe8  1  0.750000  0.119893  0.302362  1
  Fe  Fe9  1  0.750000  0.380107  0.802362  1
  Fe  Fe10  1  0.250000  0.459524  0.935311  1
  Fe  Fe11  1  0.250000  0.040476  0.435311  1
  Fe  Fe12  1  0.750000  0.540886  0.064513  1
  Fe  Fe13  1  0.750000  0.959114  0.564513  1
  P  P14  1  0.250000  0.439513  0.111554  1
  P  P15  1  0.250000  0.060487  0.611554  1
  P  P16  1  0.750000  0.570736  0.887748  1
  P  P17  1  0.750000  0.929264  0.387748  1
  P  P18  1  0.250000  0.272219  0.863547  1
  P  P19  1  0.250000  0.227781  0.363547  1
  P  P20  1  0.750000  0.726011  0.146501  1
  P  P21  1  0.750000  0.773989  0.646501  1
  P  P22  1  0.250000  0.610208  0.376703  1
  P  P23  1  0.250000  0.889792  0.876703  1
  P  P24  1  0.750000  0.402620  0.618482  1
  P  P25  1  0.750000  0.097380  0.118482  1
  Ir  Ir26  1  0.250000  0.228727  0.173629  1
  Ir  Ir27  1  0.250000  0.271273  0.673629  1
  Rh  Rh28  1  0.250000  0.707854  0.984576  1
  Rh  Rh29  1  0.250000  0.792146  0.484576  1
  Rh  Rh30  1  0.750000  0.286326  0.009154  1
  Rh  Rh31  1  0.750000  0.213674  0.509154  1
  Rh  Rh32  1  0.250000  0.411843  0.477562  1
  Rh  Rh33  1  0.250000  0.088157  0.977562  1
  Rh  Rh34  1  0.750000  0.599010  0.520455  1
  Rh  Rh35  1  0.750000  0.900990  0.020455  1
