# generated using pymatgen
data_Cs14NbV(In3As5)2
_symmetry_space_group_name_H-M   'P 1'
_cell_length_a   8.99011486
_cell_length_b   9.83918390
_cell_length_c   15.05421283
_cell_angle_alpha   85.39903182
_cell_angle_beta   84.79031964
_cell_angle_gamma   85.24812839
_symmetry_Int_Tables_number   1
_chemical_formula_structural   Cs14NbV(In3As5)2
_chemical_formula_sum   'Cs14 Nb1 V1 In6 As10'
_cell_volume   1318.01734333
_cell_formula_units_Z   1
loop_
 _symmetry_equiv_pos_site_id
 _symmetry_equiv_pos_as_xyz
  1  'x, y, z'
loop_
 _atom_site_type_symbol
 _atom_site_label
 _atom_site_symmetry_multiplicity
 _atom_site_fract_x
 _atom_site_fract_y
 _atom_site_fract_z
 _atom_site_occupancy
  Cs  Cs0  1  0.832556  0.368107  0.643762  1
  Cs  Cs1  1  0.814647  0.813413  0.131410  1
  Cs  Cs2  1  0.241007  0.007984  0.468841  1
  Cs  Cs3  1  0.271352  0.256618  0.251896  1
  Cs  Cs4  1  0.742158  0.500596  0.977300  1
  Cs  Cs5  1  0.257793  0.498062  0.025533  1
  Cs  Cs6  1  0.686602  0.080542  0.887398  1
  Cs  Cs7  1  0.758801  0.993002  0.530157  1
  Cs  Cs8  1  0.729814  0.746152  0.747824  1
  Cs  Cs9  1  0.322272  0.340096  0.601749  1
  Cs  Cs10  1  0.167781  0.631208  0.355596  1
  Cs  Cs11  1  0.184482  0.185894  0.869212  1
  Cs  Cs12  1  0.315301  0.916952  0.114634  1
  Cs  Cs13  1  0.678745  0.657328  0.396150  1
  Nb  Nb14  1  0.355379  0.604796  0.773145  1
  V  V15  1  0.646392  0.393619  0.227234  1
  In  In16  1  0.061612  0.812403  0.866915  1
  In  In17  1  0.935086  0.189932  0.135032  1
  In  In18  1  0.362491  0.946840  0.704354  1
  In  In19  1  0.097224  0.722611  0.626076  1
  In  In20  1  0.900740  0.277610  0.371993  1
  In  In21  1  0.638640  0.057087  0.294378  1
  As  As22  1  0.904612  0.449664  0.211781  1
  As  As23  1  0.622474  0.211482  0.128072  1
  As  As24  1  0.085202  0.549715  0.788556  1
  As  As25  1  0.585752  0.303859  0.381516  1
  As  As26  1  0.414427  0.701019  0.612565  1
  As  As27  1  0.036922  0.991713  0.701872  1
  As  As28  1  0.515078  0.400103  0.809158  1
  As  As29  1  0.494259  0.587511  0.192653  1
  As  As30  1  0.376925  0.796880  0.875123  1
  As  As31  1  0.963475  0.007205  0.298111  1
