# generated using pymatgen
data_CePrSi2PtRh3
_symmetry_space_group_name_H-M   'P 1'
_cell_length_a   9.34919520
_cell_length_b   9.34919462
_cell_length_c   4.10120500
_cell_angle_alpha   90.00000000
_cell_angle_beta   90.00000000
_cell_angle_gamma   155.04986142
_symmetry_Int_Tables_number   1
_chemical_formula_structural   CePrSi2PtRh3
_chemical_formula_sum   'Ce1 Pr1 Si2 Pt1 Rh3'
_cell_volume   151.21565066
_cell_formula_units_Z   1
loop_
 _symmetry_equiv_pos_site_id
 _symmetry_equiv_pos_as_xyz
  1  'x, y, z'
loop_
 _atom_site_type_symbol
 _atom_site_label
 _atom_site_symmetry_multiplicity
 _atom_site_fract_x
 _atom_site_fract_y
 _atom_site_fract_z
 _atom_site_occupancy
  Ce  Ce0  1  0.900297  0.099703  0.250000  1
  Pr  Pr1  1  0.103600  0.896400  0.750000  1
  Si  Si2  1  0.320076  0.679924  0.750000  1
  Si  Si3  1  0.680618  0.319382  0.250000  1
  Pt  Pt4  1  0.546699  0.453301  0.250000  1
  Rh  Rh5  1  0.448589  0.551411  0.750000  1
  Rh  Rh6  1  0.250019  0.749981  0.250000  1
  Rh  Rh7  1  0.750102  0.249898  0.750000  1
