# generated using pymatgen
data_VGaBr14
_symmetry_space_group_name_H-M   'P 1'
_cell_length_a   10.71974700
_cell_length_b   11.19385512
_cell_length_c   11.91226482
_cell_angle_alpha   80.27269369
_cell_angle_beta   90.00000000
_cell_angle_gamma   90.00000000
_symmetry_Int_Tables_number   1
_chemical_formula_structural   VGaBr14
_chemical_formula_sum   'V2 Ga2 Br28'
_cell_volume   1408.86510240
_cell_formula_units_Z   2
loop_
 _symmetry_equiv_pos_site_id
 _symmetry_equiv_pos_as_xyz
  1  'x, y, z'
loop_
 _atom_site_type_symbol
 _atom_site_label
 _atom_site_symmetry_multiplicity
 _atom_site_fract_x
 _atom_site_fract_y
 _atom_site_fract_z
 _atom_site_occupancy
  V  V0  1  0.758699  0.671577  0.919703  1
  V  V1  1  0.258699  0.328423  0.580297  1
  Ga  Ga2  1  0.243761  0.329448  0.080504  1
  Ga  Ga3  1  0.743761  0.670552  0.419496  1
  Br  Br4  1  0.234715  0.767696  0.371825  1
  Br  Br5  1  0.734715  0.232304  0.128175  1
  Br  Br6  1  0.741920  0.249233  0.635523  1
  Br  Br7  1  0.241920  0.750767  0.864477  1
  Br  Br8  1  0.581393  0.064286  0.049127  1
  Br  Br9  1  0.081393  0.935714  0.450873  1
  Br  Br10  1  0.427628  0.926804  0.977864  1
  Br  Br11  1  0.927628  0.073196  0.522136  1
  Br  Br12  1  0.820420  0.154939  0.314975  1
  Br  Br13  1  0.320420  0.845061  0.185025  1
  Br  Br14  1  0.176071  0.840392  0.678615  1
  Br  Br15  1  0.676071  0.159608  0.821385  1
  Br  Br16  1  0.361639  0.244046  0.240421  1
  Br  Br17  1  0.861639  0.755954  0.259579  1
  Br  Br18  1  0.645290  0.727129  0.760905  1
  Br  Br19  1  0.145290  0.272871  0.739095  1
  Br  Br20  1  0.384093  0.404668  0.931641  1
  Br  Br21  1  0.884093  0.595332  0.568359  1
  Br  Br22  1  0.634278  0.607816  0.068526  1
  Br  Br23  1  0.134278  0.392184  0.431474  1
  Br  Br24  1  0.887520  0.521294  0.892015  1
  Br  Br25  1  0.387520  0.478706  0.607985  1
  Br  Br26  1  0.121401  0.491581  0.125077  1
  Br  Br27  1  0.621401  0.508419  0.374923  1
  Br  Br28  1  0.111680  0.180606  0.024073  1
  Br  Br29  1  0.611680  0.819394  0.475927  1
  Br  Br30  1  0.869492  0.830870  0.957004  1
  Br  Br31  1  0.369492  0.169130  0.542996  1
