# generated using pymatgen
data_YSi7Ir3
_symmetry_space_group_name_H-M   'P 1'
_cell_length_a   7.63112277
_cell_length_b   7.63112388
_cell_length_c   8.06393388
_cell_angle_alpha   118.23986833
_cell_angle_beta   118.23987198
_cell_angle_gamma   59.99999715
_symmetry_Int_Tables_number   1
_chemical_formula_structural   YSi7Ir3
_chemical_formula_sum   'Y2 Si14 Ir6'
_cell_volume   340.61565788
_cell_formula_units_Z   2
loop_
 _symmetry_equiv_pos_site_id
 _symmetry_equiv_pos_as_xyz
  1  'x, y, z'
loop_
 _atom_site_type_symbol
 _atom_site_label
 _atom_site_symmetry_multiplicity
 _atom_site_fract_x
 _atom_site_fract_y
 _atom_site_fract_z
 _atom_site_occupancy
  Y  Y0  1  0.000000  0.000000  0.000000  1
  Y  Y1  1  0.500001  0.500000  0.500000  1
  Si  Si2  1  0.172474  0.350795  0.087056  1
  Si  Si3  1  0.350794  0.563787  0.087056  1
  Si  Si4  1  0.563786  0.172474  0.087056  1
  Si  Si5  1  0.750000  0.750000  0.250000  1
  Si  Si6  1  0.149205  0.327526  0.412944  1
  Si  Si7  1  0.327525  0.936214  0.412944  1
  Si  Si8  1  0.936213  0.149205  0.412944  1
  Si  Si9  1  0.063787  0.850795  0.587056  1
  Si  Si10  1  0.672475  0.063787  0.587056  1
  Si  Si11  1  0.850795  0.672474  0.587056  1
  Si  Si12  1  0.250000  0.250000  0.750000  1
  Si  Si13  1  0.436214  0.827526  0.912945  1
  Si  Si14  1  0.649206  0.436213  0.912945  1
  Si  Si15  1  0.827526  0.649205  0.912945  1
  Ir  Ir16  1  0.070214  0.750000  0.250000  1
  Ir  Ir17  1  0.429786  0.070214  0.250000  1
  Ir  Ir18  1  0.750000  0.429786  0.250000  1
  Ir  Ir19  1  0.250000  0.570214  0.750000  1
  Ir  Ir20  1  0.570214  0.929786  0.750000  1
  Ir  Ir21  1  0.929786  0.250000  0.750000  1
