# generated using pymatgen
data_TmNp(B4Ir)2
_symmetry_space_group_name_H-M   'P 1'
_cell_length_a   3.53098400
_cell_length_b   5.99327398
_cell_length_c   11.61788420
_cell_angle_alpha   90.23993116
_cell_angle_beta   90.00000000
_cell_angle_gamma   90.00000000
_symmetry_Int_Tables_number   1
_chemical_formula_structural   TmNp(B4Ir)2
_chemical_formula_sum   'Tm2 Np2 B16 Ir4'
_cell_volume   245.85730519
_cell_formula_units_Z   2
loop_
 _symmetry_equiv_pos_site_id
 _symmetry_equiv_pos_as_xyz
  1  'x, y, z'
loop_
 _atom_site_type_symbol
 _atom_site_label
 _atom_site_symmetry_multiplicity
 _atom_site_fract_x
 _atom_site_fract_y
 _atom_site_fract_z
 _atom_site_occupancy
  Tm  Tm0  1  0.500000  0.630320  0.351577  1
  Tm  Tm1  1  0.500000  0.369680  0.648423  1
  Np  Np2  1  0.500000  0.129788  0.149919  1
  Np  Np3  1  0.500000  0.870212  0.850081  1
  B  B4  1  0.000000  0.472949  0.192869  1
  B  B5  1  0.000000  0.527051  0.807131  1
  B  B6  1  0.000000  0.972977  0.308958  1
  B  B7  1  0.000000  0.027023  0.691042  1
  B  B8  1  0.000000  0.290599  0.311887  1
  B  B9  1  0.000000  0.709401  0.688113  1
  B  B10  1  0.000000  0.792982  0.187921  1
  B  B11  1  0.000000  0.207018  0.812079  1
  B  B12  1  0.000000  0.365163  0.469788  1
  B  B13  1  0.000000  0.634837  0.530212  1
  B  B14  1  0.000000  0.866202  0.032548  1
  B  B15  1  0.000000  0.133798  0.967452  1
  B  B16  1  0.000000  0.385791  0.047044  1
  B  B17  1  0.000000  0.614209  0.952956  1
  B  B18  1  0.000000  0.885579  0.453335  1
  B  B19  1  0.000000  0.114421  0.546665  1
  Ir  Ir20  1  0.500000  0.144797  0.405182  1
  Ir  Ir21  1  0.500000  0.855203  0.594818  1
  Ir  Ir22  1  0.500000  0.640467  0.096783  1
  Ir  Ir23  1  0.500000  0.359533  0.903217  1
