# generated using pymatgen
data_Ce2Tm(CoSi)2
_symmetry_space_group_name_H-M   'P 1'
_cell_length_a   5.46569700
_cell_length_b   7.82751700
_cell_length_c   12.24281700
_cell_angle_alpha   90.00000000
_cell_angle_beta   90.00000000
_cell_angle_gamma   90.00000000
_symmetry_Int_Tables_number   1
_chemical_formula_structural   Ce2Tm(CoSi)2
_chemical_formula_sum   'Ce8 Tm4 Co8 Si8'
_cell_volume   523.78243415
_cell_formula_units_Z   4
loop_
 _symmetry_equiv_pos_site_id
 _symmetry_equiv_pos_as_xyz
  1  'x, y, z'
loop_
 _atom_site_type_symbol
 _atom_site_label
 _atom_site_symmetry_multiplicity
 _atom_site_fract_x
 _atom_site_fract_y
 _atom_site_fract_z
 _atom_site_occupancy
  Ce  Ce0  1  0.160666  0.400053  0.408424  1
  Ce  Ce1  1  0.160666  0.099947  0.591576  1
  Ce  Ce2  1  0.839334  0.900053  0.091576  1
  Ce  Ce3  1  0.839334  0.599947  0.908424  1
  Ce  Ce4  1  0.839334  0.599947  0.591576  1
  Ce  Ce5  1  0.839334  0.900053  0.408424  1
  Ce  Ce6  1  0.160666  0.099947  0.908424  1
  Ce  Ce7  1  0.160666  0.400053  0.091576  1
  Tm  Tm8  1  0.346146  0.745368  0.750000  1
  Tm  Tm9  1  0.346146  0.754632  0.250000  1
  Tm  Tm10  1  0.653854  0.245368  0.750000  1
  Tm  Tm11  1  0.653854  0.254632  0.250000  1
  Co  Co12  1  0.379145  0.041670  0.411873  1
  Co  Co13  1  0.379145  0.458330  0.588127  1
  Co  Co14  1  0.620855  0.541670  0.088127  1
  Co  Co15  1  0.620855  0.958330  0.911873  1
  Co  Co16  1  0.379145  0.041670  0.088127  1
  Co  Co17  1  0.379145  0.458330  0.911873  1
  Co  Co18  1  0.620855  0.541670  0.411873  1
  Co  Co19  1  0.620855  0.958330  0.588127  1
  Si  Si20  1  0.648709  0.250000  0.500000  1
  Si  Si21  1  0.351291  0.750000  0.000000  1
  Si  Si22  1  0.351291  0.750000  0.500000  1
  Si  Si23  1  0.648709  0.250000  0.000000  1
  Si  Si24  1  0.840069  0.896650  0.750000  1
  Si  Si25  1  0.840069  0.603350  0.250000  1
  Si  Si26  1  0.159931  0.396650  0.750000  1
  Si  Si27  1  0.159931  0.103350  0.250000  1
