# generated using pymatgen
data_Er8Al(PdPt11)2
_symmetry_space_group_name_H-M   'P 1'
_cell_length_a   8.34908900
_cell_length_b   8.34908918
_cell_length_c   8.33936600
_cell_angle_alpha   90.00000000
_cell_angle_beta   90.00000000
_cell_angle_gamma   90.11622369
_symmetry_Int_Tables_number   1
_chemical_formula_structural   Er8Al(PdPt11)2
_chemical_formula_sum   'Er8 Al1 Pd2 Pt22'
_cell_volume   581.31339660
_cell_formula_units_Z   1
loop_
 _symmetry_equiv_pos_site_id
 _symmetry_equiv_pos_as_xyz
  1  'x, y, z'
loop_
 _atom_site_type_symbol
 _atom_site_label
 _atom_site_symmetry_multiplicity
 _atom_site_fract_x
 _atom_site_fract_y
 _atom_site_fract_z
 _atom_site_occupancy
  Er  Er0  1  0.250613  0.250613  0.749588  1
  Er  Er1  1  0.251597  0.748646  0.251360  1
  Er  Er2  1  0.748646  0.251597  0.251360  1
  Er  Er3  1  0.747936  0.747936  0.747802  1
  Er  Er4  1  0.747936  0.747936  0.252198  1
  Er  Er5  1  0.748646  0.251597  0.748640  1
  Er  Er6  1  0.251597  0.748646  0.748640  1
  Er  Er7  1  0.250613  0.250613  0.250412  1
  Al  Al8  1  0.004268  0.004268  0.000000  1
  Pd  Pd9  1  0.999142  0.711587  0.000000  1
  Pd  Pd10  1  0.711587  0.999142  0.000000  1
  Pt  Pt11  1  0.499547  0.499547  0.746806  1
  Pt  Pt12  1  0.499416  0.253319  0.500000  1
  Pt  Pt13  1  0.253319  0.499416  0.500000  1
  Pt  Pt14  1  0.499547  0.499547  0.253194  1
  Pt  Pt15  1  0.499565  0.746446  0.500000  1
  Pt  Pt16  1  0.746446  0.499565  0.500000  1
  Pt  Pt17  1  0.998561  0.998561  0.708566  1
  Pt  Pt18  1  0.998355  0.295582  0.000000  1
  Pt  Pt19  1  0.295582  0.998355  0.000000  1
  Pt  Pt20  1  0.998561  0.998561  0.291434  1
  Pt  Pt21  1  0.000020  0.500337  0.739243  1
  Pt  Pt22  1  0.500236  0.260196  0.000000  1
  Pt  Pt23  1  0.260460  0.999936  0.500000  1
  Pt  Pt24  1  0.999936  0.260460  0.500000  1
  Pt  Pt25  1  0.500337  0.000020  0.739243  1
  Pt  Pt26  1  0.260196  0.500236  0.000000  1
  Pt  Pt27  1  0.000020  0.500337  0.260757  1
  Pt  Pt28  1  0.500600  0.738371  0.000000  1
  Pt  Pt29  1  0.000189  0.737818  0.500000  1
  Pt  Pt30  1  0.500337  0.000020  0.260757  1
  Pt  Pt31  1  0.737818  0.000189  0.500000  1
  Pt  Pt32  1  0.738371  0.500600  0.000000  1
