# generated using pymatgen
data_Pr3InPt3Pb2
_symmetry_space_group_name_H-M   'P 1'
_cell_length_a   7.92314792
_cell_length_b   7.92314880
_cell_length_c   4.07865200
_cell_angle_alpha   90.00000000
_cell_angle_beta   90.00000000
_cell_angle_gamma   120.68345615
_symmetry_Int_Tables_number   1
_chemical_formula_structural   Pr3InPt3Pb2
_chemical_formula_sum   'Pr3 In1 Pt3 Pb2'
_cell_volume   220.19654681
_cell_formula_units_Z   1
loop_
 _symmetry_equiv_pos_site_id
 _symmetry_equiv_pos_as_xyz
  1  'x, y, z'
loop_
 _atom_site_type_symbol
 _atom_site_label
 _atom_site_symmetry_multiplicity
 _atom_site_fract_x
 _atom_site_fract_y
 _atom_site_fract_z
 _atom_site_occupancy
  Pr  Pr0  1  0.591096  0.996132  0.000000  1
  Pr  Pr1  1  0.996132  0.591096  0.000000  1
  Pr  Pr2  1  0.412265  0.412265  0.000000  1
  In  In3  1  0.743436  0.743436  0.500000  1
  Pt  Pt4  1  0.343719  0.669647  0.500000  1
  Pt  Pt5  1  0.669647  0.343719  0.500000  1
  Pt  Pt6  1  0.991212  0.991212  0.000000  1
  Pb  Pb7  1  0.254726  0.997766  0.500000  1
  Pb  Pb8  1  0.997766  0.254726  0.500000  1
