# generated using pymatgen
data_PaTlCl6
_symmetry_space_group_name_H-M   'P 1'
_cell_length_a   10.52156500
_cell_length_b   7.46946816
_cell_length_c   7.41401300
_cell_angle_alpha   89.87367173
_cell_angle_beta   90.00000000
_cell_angle_gamma   90.00000000
_symmetry_Int_Tables_number   1
_chemical_formula_structural   PaTlCl6
_chemical_formula_sum   'Pa2 Tl2 Cl12'
_cell_volume   582.66953323
_cell_formula_units_Z   2
loop_
 _symmetry_equiv_pos_site_id
 _symmetry_equiv_pos_as_xyz
  1  'x, y, z'
loop_
 _atom_site_type_symbol
 _atom_site_label
 _atom_site_symmetry_multiplicity
 _atom_site_fract_x
 _atom_site_fract_y
 _atom_site_fract_z
 _atom_site_occupancy
  Pa  Pa0  1  0.993855  0.248614  0.757566  1
  Pa  Pa1  1  0.493855  0.751386  0.242434  1
  Tl  Tl2  1  0.726087  0.256465  0.300053  1
  Tl  Tl3  1  0.226087  0.743535  0.699947  1
  Cl  Cl4  1  0.491901  0.993546  0.488667  1
  Cl  Cl5  1  0.750240  0.247137  0.759786  1
  Cl  Cl6  1  0.999233  0.005264  0.996871  1
  Cl  Cl7  1  0.997520  0.494002  0.994433  1
  Cl  Cl8  1  0.499233  0.994736  0.003129  1
  Cl  Cl9  1  0.736217  0.747560  0.251602  1
  Cl  Cl10  1  0.250240  0.752863  0.240214  1
  Cl  Cl11  1  0.489400  0.509142  0.490402  1
  Cl  Cl12  1  0.991900  0.006454  0.511333  1
  Cl  Cl13  1  0.989400  0.490858  0.509598  1
  Cl  Cl14  1  0.236217  0.252440  0.748398  1
  Cl  Cl15  1  0.497520  0.505998  0.005567  1
