# generated using pymatgen
data_Lu12Co6Pb
_symmetry_space_group_name_H-M   'P 1'
_cell_length_a   8.18512325
_cell_length_b   8.18512327
_cell_length_c   8.18512400
_cell_angle_alpha   109.47122490
_cell_angle_beta   109.47122497
_cell_angle_gamma   109.47121624
_symmetry_Int_Tables_number   1
_chemical_formula_structural   Lu12Co6Pb
_chemical_formula_sum   'Lu12 Co6 Pb1'
_cell_volume   422.13736774
_cell_formula_units_Z   1
loop_
 _symmetry_equiv_pos_site_id
 _symmetry_equiv_pos_as_xyz
  1  'x, y, z'
loop_
 _atom_site_type_symbol
 _atom_site_label
 _atom_site_symmetry_multiplicity
 _atom_site_fract_x
 _atom_site_fract_y
 _atom_site_fract_z
 _atom_site_occupancy
  Lu  Lu0  1  0.804912  0.697140  0.502053  1
  Lu  Lu1  1  0.195088  0.302860  0.497947  1
  Lu  Lu2  1  0.195088  0.697140  0.892229  1
  Lu  Lu3  1  0.804912  0.302860  0.107771  1
  Lu  Lu4  1  0.697140  0.502053  0.804912  1
  Lu  Lu5  1  0.302860  0.497947  0.195088  1
  Lu  Lu6  1  0.697140  0.892229  0.195088  1
  Lu  Lu7  1  0.302860  0.107771  0.804912  1
  Lu  Lu8  1  0.502053  0.804912  0.697140  1
  Lu  Lu9  1  0.497947  0.195088  0.302860  1
  Lu  Lu10  1  0.107771  0.804912  0.302860  1
  Lu  Lu11  1  0.892229  0.195088  0.697140  1
  Co  Co12  1  0.885037  0.385037  0.500000  1
  Co  Co13  1  0.114963  0.614963  0.500000  1
  Co  Co14  1  0.385037  0.500000  0.885037  1
  Co  Co15  1  0.614963  0.500000  0.114963  1
  Co  Co16  1  0.500000  0.885037  0.385037  1
  Co  Co17  1  0.500000  0.114963  0.614963  1
  Pb  Pb18  1  0.000000  0.000000  0.000000  1
