# generated using pymatgen
data_LaPr2Pa(InRh2)2
_symmetry_space_group_name_H-M   'P 1'
_cell_length_a   7.83836600
_cell_length_b   7.83836628
_cell_length_c   3.77671100
_cell_angle_alpha   90.00000000
_cell_angle_beta   90.00000000
_cell_angle_gamma   87.22044742
_symmetry_Int_Tables_number   1
_chemical_formula_structural   LaPr2Pa(InRh2)2
_chemical_formula_sum   'La1 Pr2 Pa1 In2 Rh4'
_cell_volume   231.76806776
_cell_formula_units_Z   1
loop_
 _symmetry_equiv_pos_site_id
 _symmetry_equiv_pos_as_xyz
  1  'x, y, z'
loop_
 _atom_site_type_symbol
 _atom_site_label
 _atom_site_symmetry_multiplicity
 _atom_site_fract_x
 _atom_site_fract_y
 _atom_site_fract_z
 _atom_site_occupancy
  La  La0  1  0.825563  0.674437  0.500000  1
  Pr  Pr1  1  0.668883  0.167527  0.500000  1
  Pr  Pr2  1  0.332473  0.831117  0.500000  1
  Pa  Pa3  1  0.162568  0.337432  0.500000  1
  In  In4  1  0.002864  0.001289  0.000000  1
  In  In5  1  0.498711  0.497136  0.000000  1
  Rh  Rh6  1  0.144189  0.606010  0.000000  1
  Rh  Rh7  1  0.629899  0.870101  0.000000  1
  Rh  Rh8  1  0.340860  0.159140  0.000000  1
  Rh  Rh9  1  0.893990  0.355811  0.000000  1
