# generated using pymatgen
data_Tb3DyCd2Cu3Ni
_symmetry_space_group_name_H-M   'P 1'
_cell_length_a   7.55493758
_cell_length_b   7.55481565
_cell_length_c   3.71125300
_cell_angle_alpha   90.00000000
_cell_angle_beta   90.00000000
_cell_angle_gamma   89.15342225
_symmetry_Int_Tables_number   1
_chemical_formula_structural   Tb3DyCd2Cu3Ni
_chemical_formula_sum   'Tb3 Dy1 Cd2 Cu3 Ni1'
_cell_volume   211.80095033
_cell_formula_units_Z   1
loop_
 _symmetry_equiv_pos_site_id
 _symmetry_equiv_pos_as_xyz
  1  'x, y, z'
loop_
 _atom_site_type_symbol
 _atom_site_label
 _atom_site_symmetry_multiplicity
 _atom_site_fract_x
 _atom_site_fract_y
 _atom_site_fract_z
 _atom_site_occupancy
  Tb  Tb0  1  0.323668  0.837852  0.500000  1
  Tb  Tb1  1  0.182079  0.317821  0.500000  1
  Tb  Tb2  1  0.828051  0.671842  0.500000  1
  Dy  Dy3  1  0.662109  0.176372  0.500000  1
  Cd  Cd4  1  0.997853  0.000610  0.000000  1
  Cd  Cd5  1  0.499600  0.501882  0.000000  1
  Cu  Cu6  1  0.121132  0.616914  0.000000  1
  Cu  Cu7  1  0.882865  0.378644  0.000000  1
  Cu  Cu8  1  0.619808  0.880553  0.000000  1
  Ni  Ni9  1  0.382835  0.117511  0.000000  1
