# generated using pymatgen
data_Ho6IO12
_symmetry_space_group_name_H-M   'P 1'
_cell_length_a   6.49387350
_cell_length_b   6.49391086
_cell_length_c   6.49394528
_cell_angle_alpha   98.72807822
_cell_angle_beta   98.72823356
_cell_angle_gamma   98.72770454
_symmetry_Int_Tables_number   1
_chemical_formula_structural   Ho6IO12
_chemical_formula_sum   'Ho6 I1 O12'
_cell_volume   263.23221621
_cell_formula_units_Z   1
loop_
 _symmetry_equiv_pos_site_id
 _symmetry_equiv_pos_as_xyz
  1  'x, y, z'
loop_
 _atom_site_type_symbol
 _atom_site_label
 _atom_site_symmetry_multiplicity
 _atom_site_fract_x
 _atom_site_fract_y
 _atom_site_fract_z
 _atom_site_occupancy
  Ho  Ho0  1  0.318686  0.610981  0.145829  1
  Ho  Ho1  1  0.610980  0.145828  0.318682  1
  Ho  Ho2  1  0.854170  0.681316  0.389018  1
  Ho  Ho3  1  0.145830  0.318684  0.610982  1
  Ho  Ho4  1  0.389020  0.854172  0.681318  1
  Ho  Ho5  1  0.681314  0.389019  0.854171  1
  I  I6  1  0.000000  0.000000  0.000000  1
  O  O7  1  0.927863  0.694304  0.038672  1
  O  O8  1  0.305699  0.961334  0.072138  1
  O  O9  1  0.591120  0.431678  0.177327  1
  O  O10  1  0.961331  0.072136  0.305700  1
  O  O11  1  0.568325  0.822678  0.408878  1
  O  O12  1  0.177324  0.591123  0.431681  1
  O  O13  1  0.822676  0.408877  0.568320  1
  O  O14  1  0.431676  0.177323  0.591123  1
  O  O15  1  0.038669  0.927865  0.694300  1
  O  O16  1  0.408880  0.568323  0.822673  1
  O  O17  1  0.694301  0.038667  0.927862  1
  O  O18  1  0.072137  0.305697  0.961328  1
