# generated using pymatgen
data_SrHoPa2(NiAs)4
_symmetry_space_group_name_H-M   'P 1'
_cell_length_a   4.11042600
_cell_length_b   4.11042707
_cell_length_c   15.80956000
_cell_angle_alpha   90.00000000
_cell_angle_beta   90.00000000
_cell_angle_gamma   120.00000745
_symmetry_Int_Tables_number   1
_chemical_formula_structural   SrHoPa2(NiAs)4
_chemical_formula_sum   'Sr1 Ho1 Pa2 Ni4 As4'
_cell_volume   231.32584849
_cell_formula_units_Z   1
loop_
 _symmetry_equiv_pos_site_id
 _symmetry_equiv_pos_as_xyz
  1  'x, y, z'
loop_
 _atom_site_type_symbol
 _atom_site_label
 _atom_site_symmetry_multiplicity
 _atom_site_fract_x
 _atom_site_fract_y
 _atom_site_fract_z
 _atom_site_occupancy
  Sr  Sr0  1  0.000000  0.000000  0.000000  1
  Ho  Ho1  1  0.000000  0.000000  0.500000  1
  Pa  Pa2  1  0.000000  0.000000  0.258199  1
  Pa  Pa3  1  0.000000  0.000000  0.741801  1
  Ni  Ni4  1  0.333333  0.666667  0.166687  1
  Ni  Ni5  1  0.666667  0.333333  0.833313  1
  Ni  Ni6  1  0.666667  0.333333  0.642999  1
  Ni  Ni7  1  0.333333  0.666667  0.357001  1
  As  As8  1  0.333333  0.666667  0.614108  1
  As  As9  1  0.666667  0.333333  0.385892  1
  As  As10  1  0.666667  0.333333  0.134739  1
  As  As11  1  0.333333  0.666667  0.865261  1
