# generated using pymatgen
data_Y7Sn23(IrOs2)2
_symmetry_space_group_name_H-M   'P 1'
_cell_length_a   9.87008996
_cell_length_b   9.87009053
_cell_length_c   10.16095639
_cell_angle_alpha   90.04737057
_cell_angle_beta   89.95262752
_cell_angle_gamma   119.98472418
_symmetry_Int_Tables_number   1
_chemical_formula_structural   Y7Sn23(IrOs2)2
_chemical_formula_sum   'Y7 Sn23 Ir2 Os4'
_cell_volume   857.38148032
_cell_formula_units_Z   1
loop_
 _symmetry_equiv_pos_site_id
 _symmetry_equiv_pos_as_xyz
  1  'x, y, z'
loop_
 _atom_site_type_symbol
 _atom_site_label
 _atom_site_symmetry_multiplicity
 _atom_site_fract_x
 _atom_site_fract_y
 _atom_site_fract_z
 _atom_site_occupancy
  Y  Y0  1  0.995881  0.004119  0.990053  1
  Y  Y1  1  0.036112  0.516835  0.305994  1
  Y  Y2  1  0.483165  0.963888  0.305994  1
  Y  Y3  1  0.481968  0.518032  0.307051  1
  Y  Y4  1  0.966167  0.482656  0.696033  1
  Y  Y5  1  0.517344  0.033833  0.696033  1
  Y  Y6  1  0.517200  0.482800  0.695769  1
  Sn  Sn7  1  0.000784  0.999216  0.498051  1
  Sn  Sn8  1  0.117137  0.882863  0.277164  1
  Sn  Sn9  1  0.765414  0.882650  0.275026  1
  Sn  Sn10  1  0.117350  0.234586  0.275026  1
  Sn  Sn11  1  0.882636  0.117364  0.721079  1
  Sn  Sn12  1  0.234914  0.117511  0.724014  1
  Sn  Sn13  1  0.882489  0.765086  0.724014  1
  Sn  Sn14  1  0.349099  0.998090  0.000062  1
  Sn  Sn15  1  0.648082  0.649735  0.000210  1
  Sn  Sn16  1  0.998758  0.350485  0.000017  1
  Sn  Sn17  1  0.350265  0.351918  0.000210  1
  Sn  Sn18  1  0.001910  0.650901  0.000062  1
  Sn  Sn19  1  0.649515  0.001242  0.000017  1
  Sn  Sn20  1  0.780616  0.560509  0.459727  1
  Sn  Sn21  1  0.780162  0.219838  0.458950  1
  Sn  Sn22  1  0.439491  0.219384  0.459727  1
  Sn  Sn23  1  0.219708  0.437788  0.542504  1
  Sn  Sn24  1  0.219654  0.780346  0.541674  1
  Sn  Sn25  1  0.562212  0.780292  0.542504  1
  Sn  Sn26  1  0.667679  0.332321  0.177189  1
  Sn  Sn27  1  0.333388  0.666612  0.822036  1
  Sn  Sn28  1  0.666735  0.333265  0.876865  1
  Sn  Sn29  1  0.333400  0.666600  0.125460  1
  Ir  Ir30  1  0.341554  0.171093  0.199777  1
  Ir  Ir31  1  0.828907  0.658446  0.199777  1
  Os  Os32  1  0.168845  0.831155  0.799598  1
  Os  Os33  1  0.662799  0.831884  0.801031  1
  Os  Os34  1  0.168116  0.337201  0.801031  1
  Os  Os35  1  0.830546  0.169454  0.200270  1
