# generated using pymatgen
data_LiHf(TaSe2)8
_symmetry_space_group_name_H-M   'P 1'
_cell_length_a   7.01223300
_cell_length_b   7.01223246
_cell_length_c   13.32507200
_cell_angle_alpha   90.00000000
_cell_angle_beta   90.00000000
_cell_angle_gamma   120.00000728
_symmetry_Int_Tables_number   1
_chemical_formula_structural   LiHf(TaSe2)8
_chemical_formula_sum   'Li1 Hf1 Ta8 Se16'
_cell_volume   567.43067142
_cell_formula_units_Z   1
loop_
 _symmetry_equiv_pos_site_id
 _symmetry_equiv_pos_as_xyz
  1  'x, y, z'
loop_
 _atom_site_type_symbol
 _atom_site_label
 _atom_site_symmetry_multiplicity
 _atom_site_fract_x
 _atom_site_fract_y
 _atom_site_fract_z
 _atom_site_occupancy
  Li  Li0  1  0.000000  0.000000  0.000000  1
  Hf  Hf1  1  0.000000  0.000000  0.500000  1
  Ta  Ta2  1  0.508079  0.491921  0.751093  1
  Ta  Ta3  1  0.016157  0.508079  0.248907  1
  Ta  Ta4  1  0.491921  0.983843  0.248907  1
  Ta  Ta5  1  0.508079  0.016157  0.751093  1
  Ta  Ta6  1  0.983843  0.491921  0.751093  1
  Ta  Ta7  1  0.491921  0.508079  0.248907  1
  Ta  Ta8  1  0.000000  0.000000  0.749920  1
  Ta  Ta9  1  0.000000  0.000000  0.250080  1
  Se  Se10  1  0.830139  0.169861  0.374402  1
  Se  Se11  1  0.830139  0.660278  0.374402  1
  Se  Se12  1  0.339722  0.169861  0.374402  1
  Se  Se13  1  0.663411  0.831706  0.873140  1
  Se  Se14  1  0.169861  0.339722  0.625598  1
  Se  Se15  1  0.168294  0.831706  0.873140  1
  Se  Se16  1  0.168294  0.336589  0.873140  1
  Se  Se17  1  0.831706  0.168294  0.126860  1
  Se  Se18  1  0.336589  0.168294  0.126860  1
  Se  Se19  1  0.660278  0.830139  0.625598  1
  Se  Se20  1  0.333333  0.666667  0.119690  1
  Se  Se21  1  0.666667  0.333333  0.621492  1
  Se  Se22  1  0.666667  0.333333  0.880310  1
  Se  Se23  1  0.333333  0.666667  0.378508  1
  Se  Se24  1  0.831706  0.663411  0.126860  1
  Se  Se25  1  0.169861  0.830139  0.625598  1
