# generated using pymatgen
data_Li8Pr8BiPt7
_symmetry_space_group_name_H-M   'P 1'
_cell_length_a   9.63792239
_cell_length_b   9.63792243
_cell_length_c   7.40008965
_cell_angle_alpha   90.92699738
_cell_angle_beta   89.07300144
_cell_angle_gamma   128.76177488
_symmetry_Int_Tables_number   1
_chemical_formula_structural   Li8Pr8BiPt7
_chemical_formula_sum   'Li8 Pr8 Bi1 Pt7'
_cell_volume   535.91084629
_cell_formula_units_Z   1
loop_
 _symmetry_equiv_pos_site_id
 _symmetry_equiv_pos_as_xyz
  1  'x, y, z'
loop_
 _atom_site_type_symbol
 _atom_site_label
 _atom_site_symmetry_multiplicity
 _atom_site_fract_x
 _atom_site_fract_y
 _atom_site_fract_z
 _atom_site_occupancy
  Li  Li0  1  0.844436  0.155564  0.858637  1
  Li  Li1  1  0.837718  0.641887  0.631569  1
  Li  Li2  1  0.358113  0.162282  0.631569  1
  Li  Li3  1  0.156123  0.843877  0.371290  1
  Li  Li4  1  0.176862  0.370424  0.123911  1
  Li  Li5  1  0.629576  0.823138  0.123911  1
  Li  Li6  1  0.651540  0.348460  0.372963  1
  Li  Li7  1  0.347594  0.652406  0.881513  1
  Pr  Pr8  1  0.465426  0.534574  0.452587  1
  Pr  Pr9  1  0.522023  0.955645  0.561341  1
  Pr  Pr10  1  0.044355  0.477977  0.561341  1
  Pr  Pr11  1  0.537227  0.462773  0.952572  1
  Pr  Pr12  1  0.451489  0.024628  0.037276  1
  Pr  Pr13  1  0.975372  0.548511  0.037276  1
  Pr  Pr14  1  0.981262  0.018738  0.480556  1
  Pr  Pr15  1  0.023958  0.976042  0.965895  1
  Bi  Bi16  1  0.824173  0.175827  0.243968  1
  Pt  Pt17  1  0.814739  0.686175  0.247515  1
  Pt  Pt18  1  0.313825  0.185261  0.247515  1
  Pt  Pt19  1  0.177306  0.822694  0.751452  1
  Pt  Pt20  1  0.192387  0.323739  0.752812  1
  Pt  Pt21  1  0.676261  0.807613  0.752812  1
  Pt  Pt22  1  0.688635  0.311365  0.754707  1
  Pt  Pt23  1  0.309597  0.690403  0.263017  1
