# generated using pymatgen
data_Tm4ReI4
_symmetry_space_group_name_H-M   'P 1'
_cell_length_a   11.27792885
_cell_length_b   11.27793005
_cell_length_c   6.13129802
_cell_angle_alpha   89.23680687
_cell_angle_beta   89.23681386
_cell_angle_gamma   88.66698841
_symmetry_Int_Tables_number   1
_chemical_formula_structural   Tm4ReI4
_chemical_formula_sum   'Tm8 Re2 I8'
_cell_volume   779.50393582
_cell_formula_units_Z   2
loop_
 _symmetry_equiv_pos_site_id
 _symmetry_equiv_pos_as_xyz
  1  'x, y, z'
loop_
 _atom_site_type_symbol
 _atom_site_label
 _atom_site_symmetry_multiplicity
 _atom_site_fract_x
 _atom_site_fract_y
 _atom_site_fract_z
 _atom_site_occupancy
  Tm  Tm0  1  0.196495  0.917119  0.995706  1
  Tm  Tm1  1  0.803505  0.082881  0.004294  1
  Tm  Tm2  1  0.082881  0.803505  0.504294  1
  Tm  Tm3  1  0.917119  0.196495  0.495706  1
  Tm  Tm4  1  0.805306  0.922021  0.507269  1
  Tm  Tm5  1  0.194694  0.077979  0.492731  1
  Tm  Tm6  1  0.077979  0.194694  0.992731  1
  Tm  Tm7  1  0.922021  0.805306  0.007269  1
  Re  Re8  1  0.000233  0.999767  0.250000  1
  Re  Re9  1  0.999767  0.000233  0.750000  1
  I  I10  1  0.357203  0.848277  0.513146  1
  I  I11  1  0.642797  0.151723  0.486854  1
  I  I12  1  0.151723  0.642797  0.986854  1
  I  I13  1  0.848277  0.357203  0.013146  1
  I  I14  1  0.352031  0.145362  0.995535  1
  I  I15  1  0.647969  0.854638  0.004465  1
  I  I16  1  0.854638  0.647969  0.504465  1
  I  I17  1  0.145362  0.352031  0.495535  1
