# generated using pymatgen
data_NdMg2P6IN12
_symmetry_space_group_name_H-M   'P 1'
_cell_length_a   7.43002317
_cell_length_b   7.43698237
_cell_length_c   7.43002335
_cell_angle_alpha   109.60371067
_cell_angle_beta   109.61447231
_cell_angle_gamma   109.60367769
_symmetry_Int_Tables_number   1
_chemical_formula_structural   NdMg2P6IN12
_chemical_formula_sum   'Nd1 Mg2 P6 I1 N12'
_cell_volume   314.44732507
_cell_formula_units_Z   1
loop_
 _symmetry_equiv_pos_site_id
 _symmetry_equiv_pos_as_xyz
  1  'x, y, z'
loop_
 _atom_site_type_symbol
 _atom_site_label
 _atom_site_symmetry_multiplicity
 _atom_site_fract_x
 _atom_site_fract_y
 _atom_site_fract_z
 _atom_site_occupancy
  Nd  Nd0  1  0.012596  0.355344  0.012596  1
  Mg  Mg1  1  0.003803  0.010355  0.404337  1
  Mg  Mg2  1  0.404337  0.010355  0.003803  1
  P  P3  1  0.495939  0.258269  0.744848  1
  P  P4  1  0.252502  0.757665  0.503354  1
  P  P5  1  0.744130  0.507354  0.259417  1
  P  P6  1  0.744848  0.258269  0.495939  1
  P  P7  1  0.503354  0.757665  0.252502  1
  P  P8  1  0.259417  0.507354  0.744130  1
  I  I9  1  0.978961  0.914726  0.978961  1
  N  N10  1  0.389066  0.693472  0.389066  1
  N  N11  1  0.693689  0.416101  0.412966  1
  N  N12  1  0.412966  0.416101  0.693689  1
  N  N13  1  0.705604  0.281552  0.705604  1
  N  N14  1  0.995255  0.584233  0.300769  1
  N  N15  1  0.300769  0.584233  0.995255  1
  N  N16  1  0.281703  0.004327  0.579874  1
  N  N17  1  0.999500  0.292387  0.583234  1
  N  N18  1  0.719899  0.726763  0.298554  1
  N  N19  1  0.579874  0.004327  0.281703  1
  N  N20  1  0.298554  0.726763  0.719899  1
  N  N21  1  0.583234  0.292387  0.999500  1
