# generated using pymatgen
data_Cs2SrBi2Pb
_symmetry_space_group_name_H-M   'P 1'
_cell_length_a   5.62433800
_cell_length_b   5.62433800
_cell_length_c   9.28979200
_cell_angle_alpha   90.00000000
_cell_angle_beta   90.00000000
_cell_angle_gamma   90.00000000
_symmetry_Int_Tables_number   1
_chemical_formula_structural   Cs2SrBi2Pb
_chemical_formula_sum   'Cs2 Sr1 Bi2 Pb1'
_cell_volume   293.86564335
_cell_formula_units_Z   1
loop_
 _symmetry_equiv_pos_site_id
 _symmetry_equiv_pos_as_xyz
  1  'x, y, z'
loop_
 _atom_site_type_symbol
 _atom_site_label
 _atom_site_symmetry_multiplicity
 _atom_site_fract_x
 _atom_site_fract_y
 _atom_site_fract_z
 _atom_site_occupancy
  Cs  Cs0  1  0.499999  0.000000  0.142724  1
  Cs  Cs1  1  0.000000  0.499999  0.857276  1
  Sr  Sr2  1  0.499999  0.499999  0.500000  1
  Bi  Bi3  1  0.000000  0.499999  0.297669  1
  Bi  Bi4  1  0.499999  0.000000  0.702331  1
  Pb  Pb5  1  0.000000  0.000000  0.500000  1
