# generated using pymatgen
data_DyY2Ti(Co4P3)2
_symmetry_space_group_name_H-M   'P 1'
_cell_length_a   3.69399600
_cell_length_b   10.60139200
_cell_length_c   12.27981500
_cell_angle_alpha   90.00000000
_cell_angle_beta   90.00000000
_cell_angle_gamma   90.00000000
_symmetry_Int_Tables_number   1
_chemical_formula_structural   DyY2Ti(Co4P3)2
_chemical_formula_sum   'Dy2 Y4 Ti2 Co16 P12'
_cell_volume   480.89597073
_cell_formula_units_Z   2
loop_
 _symmetry_equiv_pos_site_id
 _symmetry_equiv_pos_as_xyz
  1  'x, y, z'
loop_
 _atom_site_type_symbol
 _atom_site_label
 _atom_site_symmetry_multiplicity
 _atom_site_fract_x
 _atom_site_fract_y
 _atom_site_fract_z
 _atom_site_occupancy
  Dy  Dy0  1  0.500000  0.820146  0.204276  1
  Dy  Dy1  1  0.500000  0.179854  0.204276  1
  Y  Y2  1  0.000000  0.500000  0.525167  1
  Y  Y3  1  0.500000  0.000000  0.474656  1
  Y  Y4  1  0.000000  0.680000  0.795760  1
  Y  Y5  1  0.000000  0.320000  0.795760  1
  Ti  Ti6  1  0.500000  0.500000  0.153731  1
  Ti  Ti7  1  0.000000  0.000000  0.846416  1
  Co  Co8  1  0.500000  0.500000  0.702927  1
  Co  Co9  1  0.000000  0.000000  0.296781  1
  Co  Co10  1  0.000000  0.500000  0.987718  1
  Co  Co11  1  0.500000  0.000000  0.012654  1
  Co  Co12  1  0.500000  0.332078  0.994349  1
  Co  Co13  1  0.500000  0.667922  0.994349  1
  Co  Co14  1  0.000000  0.167725  0.006038  1
  Co  Co15  1  0.000000  0.832275  0.006038  1
  Co  Co16  1  0.500000  0.295772  0.431772  1
  Co  Co17  1  0.500000  0.704228  0.431772  1
  Co  Co18  1  0.000000  0.204127  0.567936  1
  Co  Co19  1  0.000000  0.795873  0.567936  1
  Co  Co20  1  0.500000  0.878601  0.705897  1
  Co  Co21  1  0.500000  0.121399  0.705897  1
  Co  Co22  1  0.000000  0.621520  0.293964  1
  Co  Co23  1  0.000000  0.378480  0.293964  1
  P  P24  1  0.500000  0.500000  0.883659  1
  P  P25  1  0.000000  0.000000  0.116467  1
  P  P26  1  0.500000  0.500000  0.352963  1
  P  P27  1  0.000000  0.000000  0.646982  1
  P  P28  1  0.500000  0.310306  0.615725  1
  P  P29  1  0.500000  0.689694  0.615725  1
  P  P30  1  0.000000  0.189745  0.383968  1
  P  P31  1  0.000000  0.810255  0.383968  1
  P  P32  1  0.500000  0.843071  0.892226  1
  P  P33  1  0.500000  0.156929  0.892226  1
  P  P34  1  0.000000  0.657159  0.108029  1
  P  P35  1  0.000000  0.342841  0.108029  1
