# generated using pymatgen
data_Sc8Nb9Re3(Si7Ge)2
_symmetry_space_group_name_H-M   'P 1'
_cell_length_a   6.61190505
_cell_length_b   6.87804895
_cell_length_c   13.07792281
_cell_angle_alpha   89.83402065
_cell_angle_beta   89.98676016
_cell_angle_gamma   90.02400487
_symmetry_Int_Tables_number   1
_chemical_formula_structural   Sc8Nb9Re3(Si7Ge)2
_chemical_formula_sum   'Sc8 Nb9 Re3 Si14 Ge2'
_cell_volume   594.74221868
_cell_formula_units_Z   1
loop_
 _symmetry_equiv_pos_site_id
 _symmetry_equiv_pos_as_xyz
  1  'x, y, z'
loop_
 _atom_site_type_symbol
 _atom_site_label
 _atom_site_symmetry_multiplicity
 _atom_site_fract_x
 _atom_site_fract_y
 _atom_site_fract_z
 _atom_site_occupancy
  Sc  Sc0  1  0.495416  0.671394  0.591506  1
  Sc  Sc1  1  0.995280  0.826946  0.908044  1
  Sc  Sc2  1  0.506562  0.322006  0.092816  1
  Sc  Sc3  1  0.003133  0.177079  0.407368  1
  Sc  Sc4  1  0.501262  0.326658  0.407807  1
  Sc  Sc5  1  0.998350  0.172279  0.091717  1
  Sc  Sc6  1  0.497919  0.674436  0.907398  1
  Sc  Sc7  1  0.997502  0.824051  0.592283  1
  Nb  Nb8  1  0.668716  0.168010  0.629453  1
  Nb  Nb9  1  0.167913  0.331861  0.871803  1
  Nb  Nb10  1  0.331564  0.837740  0.125563  1
  Nb  Nb11  1  0.832286  0.663254  0.374591  1
  Nb  Nb12  1  0.329053  0.834871  0.375745  1
  Nb  Nb13  1  0.830077  0.666211  0.124526  1
  Nb  Nb14  1  0.671081  0.164899  0.872126  1
  Nb  Nb15  1  0.170202  0.335375  0.626501  1
  Nb  Nb16  1  0.657884  0.994455  0.248431  1
  Re  Re17  1  0.839379  0.505619  0.750400  1
  Re  Re18  1  0.338649  0.993515  0.749997  1
  Re  Re19  1  0.159600  0.504349  0.252382  1
  Si  Si20  1  0.331260  0.034897  0.954599  1
  Si  Si21  1  0.830825  0.464275  0.544098  1
  Si  Si22  1  0.327380  0.035484  0.546204  1
  Si  Si23  1  0.826876  0.463844  0.955258  1
  Si  Si24  1  0.669563  0.962606  0.038525  1
  Si  Si25  1  0.170665  0.537343  0.458776  1
  Si  Si26  1  0.473282  0.391406  0.750790  1
  Si  Si27  1  0.974024  0.108723  0.749039  1
  Si  Si28  1  0.525921  0.609648  0.250385  1
  Si  Si29  1  0.033684  0.887238  0.249897  1
  Si  Si30  1  0.700651  0.851630  0.749484  1
  Si  Si31  1  0.200972  0.647283  0.750394  1
  Si  Si32  1  0.290845  0.151151  0.250230  1
  Si  Si33  1  0.798854  0.359056  0.249640  1
  Ge  Ge34  1  0.675651  0.965722  0.460648  1
  Ge  Ge35  1  0.177717  0.534690  0.041576  1
