# generated using pymatgen
data_Nd2Si7Ir5Rh7
_symmetry_space_group_name_H-M   'P 1'
_cell_length_a   9.77440988
_cell_length_b   9.79429668
_cell_length_c   3.91734706
_cell_angle_alpha   89.98604509
_cell_angle_beta   89.99522678
_cell_angle_gamma   120.03484956
_symmetry_Int_Tables_number   1
_chemical_formula_structural   Nd2Si7Ir5Rh7
_chemical_formula_sum   'Nd2 Si7 Ir5 Rh7'
_cell_volume   324.66378021
_cell_formula_units_Z   1
loop_
 _symmetry_equiv_pos_site_id
 _symmetry_equiv_pos_as_xyz
  1  'x, y, z'
loop_
 _atom_site_type_symbol
 _atom_site_label
 _atom_site_symmetry_multiplicity
 _atom_site_fract_x
 _atom_site_fract_y
 _atom_site_fract_z
 _atom_site_occupancy
  Nd  Nd0  1  0.332670  0.666542  0.749348  1
  Nd  Nd1  1  0.667771  0.334194  0.250774  1
  Si  Si2  1  0.999960  0.999330  0.498376  1
  Si  Si3  1  0.890148  0.600564  0.751840  1
  Si  Si4  1  0.399834  0.289884  0.751691  1
  Si  Si5  1  0.710653  0.110119  0.751664  1
  Si  Si6  1  0.108676  0.398496  0.248275  1
  Si  Si7  1  0.600561  0.710258  0.248454  1
  Si  Si8  1  0.289708  0.891448  0.248721  1
  Ir  Ir9  1  0.619468  0.559291  0.750928  1
  Ir  Ir10  1  0.441224  0.061299  0.751587  1
  Ir  Ir11  1  0.939935  0.380948  0.751706  1
  Ir  Ir12  1  0.379454  0.441026  0.249097  1
  Ir  Ir13  1  0.558526  0.938527  0.248530  1
  Rh  Rh14  1  0.061862  0.619934  0.248596  1
  Rh  Rh15  1  0.117553  0.857111  0.744305  1
  Rh  Rh16  1  0.143079  0.259692  0.743515  1
  Rh  Rh17  1  0.740278  0.883458  0.744314  1
  Rh  Rh18  1  0.882057  0.142022  0.256008  1
  Rh  Rh19  1  0.856195  0.738367  0.256160  1
  Rh  Rh20  1  0.260391  0.117491  0.256110  1
