# generated using pymatgen
data_Er2LuGaSn3Rh2
_symmetry_space_group_name_H-M   'P 1'
_cell_length_a   7.40518175
_cell_length_b   7.43013197
_cell_length_c   4.03404100
_cell_angle_alpha   90.00000000
_cell_angle_beta   90.00000000
_cell_angle_gamma   119.94044606
_symmetry_Int_Tables_number   1
_chemical_formula_structural   Er2LuGaSn3Rh2
_chemical_formula_sum   'Er2 Lu1 Ga1 Sn3 Rh2'
_cell_volume   192.33729276
_cell_formula_units_Z   1
loop_
 _symmetry_equiv_pos_site_id
 _symmetry_equiv_pos_as_xyz
  1  'x, y, z'
loop_
 _atom_site_type_symbol
 _atom_site_label
 _atom_site_symmetry_multiplicity
 _atom_site_fract_x
 _atom_site_fract_y
 _atom_site_fract_z
 _atom_site_occupancy
  Er  Er0  1  0.396529  0.410466  0.500000  1
  Er  Er1  1  0.589772  0.986573  0.500000  1
  Lu  Lu2  1  0.015726  0.605494  0.500000  1
  Ga  Ga3  1  0.668143  0.334540  0.000000  1
  Sn  Sn4  1  0.742673  0.745853  0.000000  1
  Sn  Sn5  1  0.253541  0.995554  0.000000  1
  Sn  Sn6  1  0.003553  0.257825  0.000000  1
  Rh  Rh7  1  0.330305  0.665754  0.000000  1
  Rh  Rh8  1  0.999758  0.997942  0.500000  1
