# generated using pymatgen
data_TmZrNi12As7
_symmetry_space_group_name_H-M   'P 1'
_cell_length_a   9.33194000
_cell_length_b   9.33193954
_cell_length_c   3.78407800
_cell_angle_alpha   90.00000000
_cell_angle_beta   90.00000000
_cell_angle_gamma   120.00000871
_symmetry_Int_Tables_number   1
_chemical_formula_structural   TmZrNi12As7
_chemical_formula_sum   'Tm1 Zr1 Ni12 As7'
_cell_volume   285.38722441
_cell_formula_units_Z   1
loop_
 _symmetry_equiv_pos_site_id
 _symmetry_equiv_pos_as_xyz
  1  'x, y, z'
loop_
 _atom_site_type_symbol
 _atom_site_label
 _atom_site_symmetry_multiplicity
 _atom_site_fract_x
 _atom_site_fract_y
 _atom_site_fract_z
 _atom_site_occupancy
  Tm  Tm0  1  0.333333  0.666667  0.500000  1
  Zr  Zr1  1  0.000000  0.000000  0.000000  1
  Ni  Ni2  1  0.818898  0.615585  0.000000  1
  Ni  Ni3  1  0.384415  0.203314  0.000000  1
  Ni  Ni4  1  0.796686  0.181102  0.000000  1
  Ni  Ni5  1  0.044402  0.759224  0.500000  1
  Ni  Ni6  1  0.240776  0.285178  0.500000  1
  Ni  Ni7  1  0.714822  0.955598  0.500000  1
  Ni  Ni8  1  0.107198  0.389026  0.000000  1
  Ni  Ni9  1  0.610974  0.718172  0.000000  1
  Ni  Ni10  1  0.281828  0.892802  0.000000  1
  Ni  Ni11  1  0.878945  0.425394  0.500000  1
  Ni  Ni12  1  0.574606  0.453551  0.500000  1
  Ni  Ni13  1  0.546449  0.121055  0.500000  1
  As  As14  1  0.666667  0.333333  0.000000  1
  As  As15  1  0.782908  0.748267  0.500000  1
  As  As16  1  0.251733  0.034641  0.500000  1
  As  As17  1  0.965359  0.217092  0.500000  1
  As  As18  1  0.069707  0.616607  0.000000  1
  As  As19  1  0.383393  0.453100  0.000000  1
  As  As20  1  0.546900  0.930293  0.000000  1
