# generated using pymatgen
data_CaTb2Zn2Co9B4
_symmetry_space_group_name_H-M   'P 1'
_cell_length_a   5.13220110
_cell_length_b   5.14194317
_cell_length_c   9.68239000
_cell_angle_alpha   89.99991236
_cell_angle_beta   90.00015428
_cell_angle_gamma   120.01461890
_symmetry_Int_Tables_number   1
_chemical_formula_structural   CaTb2Zn2Co9B4
_chemical_formula_sum   'Ca1 Tb2 Zn2 Co9 B4'
_cell_volume   221.24840413
_cell_formula_units_Z   1
loop_
 _symmetry_equiv_pos_site_id
 _symmetry_equiv_pos_as_xyz
  1  'x, y, z'
loop_
 _atom_site_type_symbol
 _atom_site_label
 _atom_site_symmetry_multiplicity
 _atom_site_fract_x
 _atom_site_fract_y
 _atom_site_fract_z
 _atom_site_occupancy
  Ca  Ca0  1  0.999990  0.000000  0.000117  1
  Tb  Tb1  1  0.999995  0.000000  0.339954  1
  Tb  Tb2  1  0.999998  0.000000  0.659791  1
  Zn  Zn3  1  0.333323  0.666598  0.000111  1
  Zn  Zn4  1  0.666658  0.333401  0.000111  1
  Co  Co5  1  0.499997  0.000000  0.500009  1
  Co  Co6  1  0.499996  0.500000  0.499993  1
  Co  Co7  1  0.999996  0.500000  0.500016  1
  Co  Co8  1  0.499994  0.000000  0.213185  1
  Co  Co9  1  0.499994  0.500001  0.213162  1
  Co  Co10  1  0.999993  0.500000  0.213174  1
  Co  Co11  1  0.499997  0.000000  0.786879  1
  Co  Co12  1  0.499996  0.500000  0.786924  1
  Co  Co13  1  0.999995  0.499999  0.786910  1
  B  B14  1  0.333361  0.666674  0.351734  1
  B  B15  1  0.666626  0.333326  0.351734  1
  B  B16  1  0.666707  0.333357  0.648099  1
  B  B17  1  0.333285  0.666643  0.648099  1
