# generated using pymatgen
data_Y10Ga4Bi3Te
_symmetry_space_group_name_H-M   'P 1'
_cell_length_a   8.75506912
_cell_length_b   8.75507072
_cell_length_c   8.06355700
_cell_angle_alpha   89.99047805
_cell_angle_beta   89.99047805
_cell_angle_gamma   125.23540627
_symmetry_Int_Tables_number   1
_chemical_formula_structural   Y10Ga4Bi3Te
_chemical_formula_sum   'Y10 Ga4 Bi3 Te1'
_cell_volume   504.84202661
_cell_formula_units_Z   1
loop_
 _symmetry_equiv_pos_site_id
 _symmetry_equiv_pos_as_xyz
  1  'x, y, z'
loop_
 _atom_site_type_symbol
 _atom_site_label
 _atom_site_symmetry_multiplicity
 _atom_site_fract_x
 _atom_site_fract_y
 _atom_site_fract_z
 _atom_site_occupancy
  Y  Y0  1  0.999023  0.000977  0.000000  1
  Y  Y1  1  0.502328  0.497672  0.500000  1
  Y  Y2  1  0.790301  0.541878  0.165954  1
  Y  Y3  1  0.458122  0.209699  0.834046  1
  Y  Y4  1  0.958316  0.706256  0.668730  1
  Y  Y5  1  0.293744  0.041684  0.331270  1
  Y  Y6  1  0.205167  0.457072  0.832028  1
  Y  Y7  1  0.542928  0.794833  0.167972  1
  Y  Y8  1  0.042846  0.294985  0.331504  1
  Y  Y9  1  0.705015  0.957154  0.668496  1
  Ga  Ga10  1  0.872526  0.872864  0.374214  1
  Ga  Ga11  1  0.127136  0.127474  0.625786  1
  Ga  Ga12  1  0.627466  0.629739  0.871238  1
  Ga  Ga13  1  0.370261  0.372534  0.128762  1
  Bi  Bi14  1  0.207613  0.792387  0.000000  1
  Bi  Bi15  1  0.708298  0.291702  0.500000  1
  Bi  Bi16  1  0.792532  0.207468  0.000000  1
  Te  Te17  1  0.296377  0.703623  0.500000  1
