# generated using pymatgen
data_Ca4GaPt4Pb
_symmetry_space_group_name_H-M   'P 1'
_cell_length_a   5.75483352
_cell_length_b   5.75483367
_cell_length_c   8.19590420
_cell_angle_alpha   78.15958383
_cell_angle_beta   78.15958024
_cell_angle_gamma   59.65875515
_symmetry_Int_Tables_number   1
_chemical_formula_structural   Ca4GaPt4Pb
_chemical_formula_sum   'Ca4 Ga1 Pt4 Pb1'
_cell_volume   227.60847054
_cell_formula_units_Z   1
loop_
 _symmetry_equiv_pos_site_id
 _symmetry_equiv_pos_as_xyz
  1  'x, y, z'
loop_
 _atom_site_type_symbol
 _atom_site_label
 _atom_site_symmetry_multiplicity
 _atom_site_fract_x
 _atom_site_fract_y
 _atom_site_fract_z
 _atom_site_occupancy
  Ca  Ca0  1  0.795656  0.503804  0.352431  1
  Ca  Ca1  1  0.496196  0.204344  0.147569  1
  Ca  Ca2  1  0.203788  0.496595  0.652329  1
  Ca  Ca3  1  0.503405  0.796212  0.847671  1
  Ga  Ga4  1  0.869802  0.130198  0.750000  1
  Pt  Pt5  1  0.988512  0.732595  0.986313  1
  Pt  Pt6  1  0.267405  0.011488  0.513687  1
  Pt  Pt7  1  0.982445  0.272392  0.984553  1
  Pt  Pt8  1  0.727608  0.017555  0.515447  1
  Pb  Pb9  1  0.165181  0.834819  0.250000  1
