# generated using pymatgen
data_Yb5Pr4SmSn8
_symmetry_space_group_name_H-M   'P 1'
_cell_length_a   7.98114200
_cell_length_b   8.51711366
_cell_length_c   16.09116527
_cell_angle_alpha   90.04530381
_cell_angle_beta   90.00000000
_cell_angle_gamma   90.00000000
_symmetry_Int_Tables_number   1
_chemical_formula_structural   Yb5Pr4SmSn8
_chemical_formula_sum   'Yb10 Pr8 Sm2 Sn16'
_cell_volume   1093.81743191
_cell_formula_units_Z   2
loop_
 _symmetry_equiv_pos_site_id
 _symmetry_equiv_pos_as_xyz
  1  'x, y, z'
loop_
 _atom_site_type_symbol
 _atom_site_label
 _atom_site_symmetry_multiplicity
 _atom_site_fract_x
 _atom_site_fract_y
 _atom_site_fract_z
 _atom_site_occupancy
  Yb  Yb0  1  0.665905  0.172243  0.375984  1
  Yb  Yb1  1  0.165905  0.327757  0.124016  1
  Yb  Yb2  1  0.667392  0.173003  0.123985  1
  Yb  Yb3  1  0.167392  0.326997  0.376015  1
  Yb  Yb4  1  0.333231  0.827649  0.622885  1
  Yb  Yb5  1  0.833231  0.672351  0.877115  1
  Yb  Yb6  1  0.162304  0.502593  0.749813  1
  Yb  Yb7  1  0.662304  0.997407  0.750187  1
  Yb  Yb8  1  0.837834  0.495283  0.250023  1
  Yb  Yb9  1  0.337834  0.004717  0.249977  1
  Pr  Pr10  1  0.493564  0.316072  0.904436  1
  Pr  Pr11  1  0.993564  0.183928  0.595564  1
  Pr  Pr12  1  0.505337  0.685666  0.403217  1
  Pr  Pr13  1  0.005337  0.814334  0.096783  1
  Pr  Pr14  1  0.507465  0.684546  0.096829  1
  Pr  Pr15  1  0.007465  0.815454  0.403171  1
  Pr  Pr16  1  0.493602  0.314756  0.595162  1
  Pr  Pr17  1  0.993602  0.185244  0.904838  1
  Sm  Sm18  1  0.333118  0.826687  0.875883  1
  Sm  Sm19  1  0.833118  0.673313  0.624117  1
  Sn  Sn20  1  0.329029  0.035343  0.038609  1
  Sn  Sn21  1  0.829029  0.464657  0.461391  1
  Sn  Sn22  1  0.671258  0.963900  0.538954  1
  Sn  Sn23  1  0.171258  0.536100  0.961046  1
  Sn  Sn24  1  0.669817  0.964453  0.960436  1
  Sn  Sn25  1  0.169817  0.535547  0.539564  1
  Sn  Sn26  1  0.329216  0.035874  0.461202  1
  Sn  Sn27  1  0.829216  0.464126  0.038798  1
  Sn  Sn28  1  0.535295  0.605303  0.749487  1
  Sn  Sn29  1  0.035295  0.894697  0.750513  1
  Sn  Sn30  1  0.464961  0.396514  0.249884  1
  Sn  Sn31  1  0.964961  0.103486  0.250116  1
  Sn  Sn32  1  0.289661  0.141115  0.750555  1
  Sn  Sn33  1  0.789661  0.358885  0.749445  1
  Sn  Sn34  1  0.711011  0.858712  0.250041  1
  Sn  Sn35  1  0.211011  0.641288  0.249959  1
