# generated using pymatgen
data_U2ZnGaPt2
_symmetry_space_group_name_H-M   'P 1'
_cell_length_a   4.66686400
_cell_length_b   5.89846800
_cell_length_c   8.09989200
_cell_angle_alpha   90.00000000
_cell_angle_beta   90.00000000
_cell_angle_gamma   90.00000000
_symmetry_Int_Tables_number   1
_chemical_formula_structural   U2ZnGaPt2
_chemical_formula_sum   'U4 Zn2 Ga2 Pt4'
_cell_volume   222.96854556
_cell_formula_units_Z   2
loop_
 _symmetry_equiv_pos_site_id
 _symmetry_equiv_pos_as_xyz
  1  'x, y, z'
loop_
 _atom_site_type_symbol
 _atom_site_label
 _atom_site_symmetry_multiplicity
 _atom_site_fract_x
 _atom_site_fract_y
 _atom_site_fract_z
 _atom_site_occupancy
  U  U0  1  0.250000  0.003297  0.734353  1
  U  U1  1  0.250000  0.503297  0.765647  1
  U  U2  1  0.750000  0.996901  0.264474  1
  U  U3  1  0.750000  0.496901  0.235526  1
  Zn  Zn4  1  0.250000  0.224150  0.083684  1
  Zn  Zn5  1  0.250000  0.724150  0.416316  1
  Ga  Ga6  1  0.750000  0.778238  0.917000  1
  Ga  Ga7  1  0.750000  0.278238  0.583000  1
  Pt  Pt8  1  0.250000  0.251233  0.416115  1
  Pt  Pt9  1  0.250000  0.751233  0.083885  1
  Pt  Pt10  1  0.750000  0.746181  0.583199  1
  Pt  Pt11  1  0.750000  0.246181  0.916801  1
