# generated using pymatgen
data_YbEuMnH6
_symmetry_space_group_name_H-M   'P 1'
_cell_length_a   5.01176592
_cell_length_b   5.01176741
_cell_length_c   5.01176500
_cell_angle_alpha   59.99999612
_cell_angle_beta   59.99998625
_cell_angle_gamma   60.00000070
_symmetry_Int_Tables_number   1
_chemical_formula_structural   YbEuMnH6
_chemical_formula_sum   'Yb1 Eu1 Mn1 H6'
_cell_volume   89.01379799
_cell_formula_units_Z   1
loop_
 _symmetry_equiv_pos_site_id
 _symmetry_equiv_pos_as_xyz
  1  'x, y, z'
loop_
 _atom_site_type_symbol
 _atom_site_label
 _atom_site_symmetry_multiplicity
 _atom_site_fract_x
 _atom_site_fract_y
 _atom_site_fract_z
 _atom_site_occupancy
  Yb  Yb0  1  0.750000  0.750000  0.750000  1
  Eu  Eu1  1  0.250000  0.250000  0.250000  1
  Mn  Mn2  1  0.000000  0.000000  0.000000  1
  H  H3  1  0.765929  0.765929  0.234071  1
  H  H4  1  0.234071  0.765929  0.234071  1
  H  H5  1  0.765929  0.234071  0.234071  1
  H  H6  1  0.234071  0.234071  0.765929  1
  H  H7  1  0.765929  0.234071  0.765929  1
  H  H8  1  0.234071  0.765929  0.765929  1
