# generated using pymatgen
data_Ta6Al16Ir7
_symmetry_space_group_name_H-M   'P 1'
_cell_length_a   8.58245383
_cell_length_b   8.58245370
_cell_length_c   8.58245400
_cell_angle_alpha   59.99999884
_cell_angle_beta   59.99999936
_cell_angle_gamma   59.99999905
_symmetry_Int_Tables_number   1
_chemical_formula_structural   Ta6Al16Ir7
_chemical_formula_sum   'Ta6 Al16 Ir7'
_cell_volume   447.01224783
_cell_formula_units_Z   1
loop_
 _symmetry_equiv_pos_site_id
 _symmetry_equiv_pos_as_xyz
  1  'x, y, z'
loop_
 _atom_site_type_symbol
 _atom_site_label
 _atom_site_symmetry_multiplicity
 _atom_site_fract_x
 _atom_site_fract_y
 _atom_site_fract_z
 _atom_site_occupancy
  Ta  Ta0  1  0.677872  0.322128  0.322128  1
  Ta  Ta1  1  0.322128  0.677872  0.677872  1
  Ta  Ta2  1  0.322128  0.677872  0.322128  1
  Ta  Ta3  1  0.677872  0.322128  0.677872  1
  Ta  Ta4  1  0.322128  0.322128  0.677872  1
  Ta  Ta5  1  0.677872  0.677872  0.322128  1
  Al  Al6  1  0.336676  0.336676  0.336676  1
  Al  Al7  1  0.663324  0.663324  0.663324  1
  Al  Al8  1  0.336676  0.336676  0.989972  1
  Al  Al9  1  0.336676  0.989972  0.336676  1
  Al  Al10  1  0.663324  0.663324  0.010028  1
  Al  Al11  1  0.663324  0.010028  0.663324  1
  Al  Al12  1  0.989972  0.336676  0.336676  1
  Al  Al13  1  0.010028  0.663324  0.663324  1
  Al  Al14  1  0.119726  0.119726  0.119726  1
  Al  Al15  1  0.880274  0.880274  0.880274  1
  Al  Al16  1  0.119726  0.119726  0.640821  1
  Al  Al17  1  0.119726  0.640821  0.119726  1
  Al  Al18  1  0.880274  0.880274  0.359179  1
  Al  Al19  1  0.880274  0.359179  0.880274  1
  Al  Al20  1  0.640821  0.119726  0.119726  1
  Al  Al21  1  0.359179  0.880274  0.880274  1
  Ir  Ir22  1  0.500000  0.000000  0.000000  1
  Ir  Ir23  1  0.000000  0.500000  0.500000  1
  Ir  Ir24  1  0.000000  0.500000  0.000000  1
  Ir  Ir25  1  0.500000  0.000000  0.500000  1
  Ir  Ir26  1  0.000000  0.000000  0.500000  1
  Ir  Ir27  1  0.500000  0.500000  0.000000  1
  Ir  Ir28  1  0.000000  0.000000  0.000000  1
