# generated using pymatgen
data_Tm4Sc8In2Co2Tc
_symmetry_space_group_name_H-M   'P 1'
_cell_length_a   7.96964387
_cell_length_b   7.96964412
_cell_length_c   7.96964459
_cell_angle_alpha   108.42990064
_cell_angle_beta   108.42990185
_cell_angle_gamma   111.57456648
_symmetry_Int_Tables_number   1
_chemical_formula_structural   Tm4Sc8In2Co2Tc
_chemical_formula_sum   'Tm4 Sc8 In2 Co2 Tc1'
_cell_volume   389.27263869
_cell_formula_units_Z   1
loop_
 _symmetry_equiv_pos_site_id
 _symmetry_equiv_pos_as_xyz
  1  'x, y, z'
loop_
 _atom_site_type_symbol
 _atom_site_label
 _atom_site_symmetry_multiplicity
 _atom_site_fract_x
 _atom_site_fract_y
 _atom_site_fract_z
 _atom_site_occupancy
  Tm  Tm0  1  0.302938  0.302938  0.605876  1
  Tm  Tm1  1  0.697062  0.697062  0.394124  1
  Tm  Tm2  1  0.697062  0.302938  0.000000  1
  Tm  Tm3  1  0.302938  0.697062  0.000000  1
  Sc  Sc4  1  0.192209  0.428733  0.236525  1
  Sc  Sc5  1  0.807791  0.571267  0.763475  1
  Sc  Sc6  1  0.192209  0.955685  0.763475  1
  Sc  Sc7  1  0.955685  0.192209  0.763475  1
  Sc  Sc8  1  0.807791  0.044315  0.236525  1
  Sc  Sc9  1  0.044315  0.807791  0.236525  1
  Sc  Sc10  1  0.428733  0.192209  0.236525  1
  Sc  Sc11  1  0.571267  0.807791  0.763475  1
  In  In12  1  0.000000  0.500000  0.500000  1
  In  In13  1  0.500000  0.000000  0.500000  1
  Co  Co14  1  0.371254  0.371254  0.000000  1
  Co  Co15  1  0.628746  0.628746  0.000000  1
  Tc  Tc16  1  0.000000  0.000000  0.000000  1
