# generated using pymatgen
data_Tb3Th(GaIr)4
_symmetry_space_group_name_H-M   'P 1'
_cell_length_a   4.34005700
_cell_length_b   6.92427226
_cell_length_c   7.89721013
_cell_angle_alpha   89.94749862
_cell_angle_beta   90.00000000
_cell_angle_gamma   90.00000000
_symmetry_Int_Tables_number   1
_chemical_formula_structural   Tb3Th(GaIr)4
_chemical_formula_sum   'Tb3 Th1 Ga4 Ir4'
_cell_volume   237.32477662
_cell_formula_units_Z   1
loop_
 _symmetry_equiv_pos_site_id
 _symmetry_equiv_pos_as_xyz
  1  'x, y, z'
loop_
 _atom_site_type_symbol
 _atom_site_label
 _atom_site_symmetry_multiplicity
 _atom_site_fract_x
 _atom_site_fract_y
 _atom_site_fract_z
 _atom_site_occupancy
  Tb  Tb0  1  0.250000  0.528419  0.185754  1
  Tb  Tb1  1  0.750000  0.472529  0.811642  1
  Tb  Tb2  1  0.750000  0.971396  0.693810  1
  Th  Th3  1  0.250000  0.027174  0.314887  1
  Ga  Ga4  1  0.250000  0.649312  0.570376  1
  Ga  Ga5  1  0.750000  0.355671  0.434589  1
  Ga  Ga6  1  0.750000  0.841146  0.062695  1
  Ga  Ga7  1  0.250000  0.154250  0.927584  1
  Ir  Ir8  1  0.250000  0.766482  0.887137  1
  Ir  Ir9  1  0.750000  0.229102  0.115135  1
  Ir  Ir10  1  0.750000  0.737972  0.386490  1
  Ir  Ir11  1  0.250000  0.266546  0.609902  1
