# generated using pymatgen
data_Pr4B2CI5
_symmetry_space_group_name_H-M   'P 1'
_cell_length_a   4.30588101
_cell_length_b   12.10780364
_cell_length_c   15.46767041
_cell_angle_alpha   91.66343983
_cell_angle_beta   98.00096772
_cell_angle_gamma   100.24247045
_symmetry_Int_Tables_number   1
_chemical_formula_structural   Pr4B2CI5
_chemical_formula_sum   'Pr8 B4 C2 I10'
_cell_volume   784.63031575
_cell_formula_units_Z   2
loop_
 _symmetry_equiv_pos_site_id
 _symmetry_equiv_pos_as_xyz
  1  'x, y, z'
loop_
 _atom_site_type_symbol
 _atom_site_label
 _atom_site_symmetry_multiplicity
 _atom_site_fract_x
 _atom_site_fract_y
 _atom_site_fract_z
 _atom_site_occupancy
  Pr  Pr0  1  0.973751  0.844628  0.102874  1
  Pr  Pr1  1  0.637519  0.148306  0.126733  1
  Pr  Pr2  1  0.551613  0.707060  0.396166  1
  Pr  Pr3  1  0.913231  0.418166  0.408298  1
  Pr  Pr4  1  0.086769  0.581834  0.591702  1
  Pr  Pr5  1  0.448387  0.292939  0.603834  1
  Pr  Pr6  1  0.362481  0.851693  0.873267  1
  Pr  Pr7  1  0.026249  0.155371  0.897126  1
  B  B8  1  0.317567  0.000000  0.000000  1
  B  B9  1  0.682432  0.000000  0.000000  1
  B  B10  1  0.051646  0.054923  0.048369  1
  B  B11  1  0.948354  0.945077  0.951631  1
  C  C12  1  0.511808  0.547173  0.476442  1
  C  C13  1  0.488192  0.452827  0.523558  1
  I  I14  1  0.340232  0.663648  0.016816  1
  I  I15  1  0.931225  0.608387  0.254066  1
  I  I16  1  0.594419  0.933778  0.255060  1
  I  I17  1  0.280544  0.296598  0.264489  1
  I  I18  1  0.822591  0.164054  0.481131  1
  I  I19  1  0.177408  0.835946  0.518869  1
  I  I20  1  0.719456  0.703402  0.735511  1
  I  I21  1  0.405581  0.066222  0.744940  1
  I  I22  1  0.068775  0.391613  0.745934  1
  I  I23  1  0.659767  0.336352  0.983184  1
