# generated using pymatgen
data_ErPaPd5Pt
_symmetry_space_group_name_H-M   'P 1'
_cell_length_a   5.79124296
_cell_length_b   5.79124400
_cell_length_c   4.85909000
_cell_angle_alpha   90.00000000
_cell_angle_beta   90.00000000
_cell_angle_gamma   120.13395815
_symmetry_Int_Tables_number   1
_chemical_formula_structural   ErPaPd5Pt
_chemical_formula_sum   'Er1 Pa1 Pd5 Pt1'
_cell_volume   140.94231672
_cell_formula_units_Z   1
loop_
 _symmetry_equiv_pos_site_id
 _symmetry_equiv_pos_as_xyz
  1  'x, y, z'
loop_
 _atom_site_type_symbol
 _atom_site_label
 _atom_site_symmetry_multiplicity
 _atom_site_fract_x
 _atom_site_fract_y
 _atom_site_fract_z
 _atom_site_occupancy
  Er  Er0  1  0.667265  0.332735  0.250000  1
  Pa  Pa1  1  0.333029  0.666971  0.750000  1
  Pd  Pd2  1  0.324171  0.162280  0.750000  1
  Pd  Pd3  1  0.837720  0.675829  0.750000  1
  Pd  Pd4  1  0.163998  0.836002  0.250000  1
  Pd  Pd5  1  0.672213  0.835767  0.250000  1
  Pd  Pd6  1  0.164233  0.327787  0.250000  1
  Pt  Pt7  1  0.837370  0.162630  0.750000  1
