# generated using pymatgen
data_Dy2Ho8RuPt5
_symmetry_space_group_name_H-M   'P 1'
_cell_length_a   11.07935300
_cell_length_b   11.07935300
_cell_length_c   6.43609900
_cell_angle_alpha   90.00000000
_cell_angle_beta   90.00000000
_cell_angle_gamma   90.00000000
_symmetry_Int_Tables_number   1
_chemical_formula_structural   Dy2Ho8RuPt5
_chemical_formula_sum   'Dy4 Ho16 Ru2 Pt10'
_cell_volume   790.04442927
_cell_formula_units_Z   2
loop_
 _symmetry_equiv_pos_site_id
 _symmetry_equiv_pos_as_xyz
  1  'x, y, z'
loop_
 _atom_site_type_symbol
 _atom_site_label
 _atom_site_symmetry_multiplicity
 _atom_site_fract_x
 _atom_site_fract_y
 _atom_site_fract_z
 _atom_site_occupancy
  Dy  Dy0  1  0.000000  0.000000  0.500871  1
  Dy  Dy1  1  0.000000  0.000000  0.000871  1
  Dy  Dy2  1  0.500000  0.500000  0.000871  1
  Dy  Dy3  1  0.500000  0.500000  0.500871  1
  Ho  Ho4  1  0.293227  0.088911  0.376984  1
  Ho  Ho5  1  0.293227  0.911089  0.876984  1
  Ho  Ho6  1  0.706773  0.088911  0.876984  1
  Ho  Ho7  1  0.706773  0.911089  0.376984  1
  Ho  Ho8  1  0.588911  0.793227  0.876984  1
  Ho  Ho9  1  0.588911  0.206773  0.376984  1
  Ho  Ho10  1  0.411089  0.793227  0.376984  1
  Ho  Ho11  1  0.411089  0.206773  0.876984  1
  Ho  Ho12  1  0.201973  0.413219  0.623963  1
  Ho  Ho13  1  0.201973  0.586781  0.123963  1
  Ho  Ho14  1  0.798027  0.413219  0.123963  1
  Ho  Ho15  1  0.798027  0.586781  0.623963  1
  Ho  Ho16  1  0.913219  0.701973  0.123963  1
  Ho  Ho17  1  0.913219  0.298027  0.623963  1
  Ho  Ho18  1  0.086781  0.701973  0.623963  1
  Ho  Ho19  1  0.086781  0.298027  0.123963  1
  Ru  Ru20  1  0.000000  0.500000  0.875710  1
  Ru  Ru21  1  0.000000  0.500000  0.375710  1
  Pt  Pt22  1  0.845137  0.152769  0.250146  1
  Pt  Pt23  1  0.845137  0.847231  0.750146  1
  Pt  Pt24  1  0.154863  0.152769  0.750146  1
  Pt  Pt25  1  0.154863  0.847231  0.250146  1
  Pt  Pt26  1  0.652769  0.345137  0.750146  1
  Pt  Pt27  1  0.652769  0.654863  0.250146  1
  Pt  Pt28  1  0.347231  0.345137  0.250146  1
  Pt  Pt29  1  0.347231  0.654863  0.750146  1
  Pt  Pt30  1  0.500000  0.000000  0.118183  1
  Pt  Pt31  1  0.500000  0.000000  0.618183  1
