# generated using pymatgen
data_Ho12TlInFe2Ru
_symmetry_space_group_name_H-M   'P 1'
_cell_length_a   8.33532743
_cell_length_b   8.33536711
_cell_length_c   8.33532603
_cell_angle_alpha   108.85808606
_cell_angle_beta   108.59134032
_cell_angle_gamma   110.97468579
_symmetry_Int_Tables_number   1
_chemical_formula_structural   Ho12TlInFe2Ru
_chemical_formula_sum   'Ho12 Tl1 In1 Fe2 Ru1'
_cell_volume   445.57605921
_cell_formula_units_Z   1
loop_
 _symmetry_equiv_pos_site_id
 _symmetry_equiv_pos_as_xyz
  1  'x, y, z'
loop_
 _atom_site_type_symbol
 _atom_site_label
 _atom_site_symmetry_multiplicity
 _atom_site_fract_x
 _atom_site_fract_y
 _atom_site_fract_z
 _atom_site_occupancy
  Ho  Ho0  1  0.431117  0.192675  0.238451  1
  Ho  Ho1  1  0.568883  0.807325  0.761549  1
  Ho  Ho2  1  0.954225  0.192675  0.761558  1
  Ho  Ho3  1  0.193150  0.954210  0.761059  1
  Ho  Ho4  1  0.045775  0.807325  0.238442  1
  Ho  Ho5  1  0.806850  0.045790  0.238941  1
  Ho  Ho6  1  0.193151  0.432101  0.238950  1
  Ho  Ho7  1  0.806849  0.567899  0.761050  1
  Ho  Ho8  1  0.307216  0.306447  0.613671  1
  Ho  Ho9  1  0.692784  0.693553  0.386329  1
  Ho  Ho10  1  0.307223  0.693553  0.000769  1
  Ho  Ho11  1  0.692777  0.306447  0.999231  1
  Tl  Tl12  1  0.000000  0.500000  0.500000  1
  In  In13  1  0.500000  0.000000  0.500000  1
  Fe  Fe14  1  0.385169  0.385172  0.000003  1
  Fe  Fe15  1  0.614831  0.614828  0.999997  1
  Ru  Ru16  1  0.000000  0.000000  0.000000  1
