# generated using pymatgen
data_Ce8Ti3Nb9Si16
_symmetry_space_group_name_H-M   'P 1'
_cell_length_a   7.09824903
_cell_length_b   7.10368205
_cell_length_c   13.21018007
_cell_angle_alpha   89.98919227
_cell_angle_beta   89.99607215
_cell_angle_gamma   89.99106773
_symmetry_Int_Tables_number   1
_chemical_formula_structural   Ce8Ti3Nb9Si16
_chemical_formula_sum   'Ce8 Ti3 Nb9 Si16'
_cell_volume   666.10619077
_cell_formula_units_Z   1
loop_
 _symmetry_equiv_pos_site_id
 _symmetry_equiv_pos_as_xyz
  1  'x, y, z'
loop_
 _atom_site_type_symbol
 _atom_site_label
 _atom_site_symmetry_multiplicity
 _atom_site_fract_x
 _atom_site_fract_y
 _atom_site_fract_z
 _atom_site_occupancy
  Ce  Ce0  1  0.995058  0.664198  0.032704  1
  Ce  Ce1  1  0.004986  0.335691  0.533153  1
  Ce  Ce2  1  0.665180  0.994696  0.967083  1
  Ce  Ce3  1  0.165756  0.505657  0.782883  1
  Ce  Ce4  1  0.835071  0.494828  0.282606  1
  Ce  Ce5  1  0.505555  0.165390  0.216637  1
  Ce  Ce6  1  0.494641  0.835245  0.717603  1
  Ce  Ce7  1  0.335598  0.005064  0.466953  1
  Ti  Ti8  1  0.156917  0.006491  0.876789  1
  Ti  Ti9  1  0.492886  0.656126  0.127007  1
  Ti  Ti10  1  0.656817  0.492820  0.872738  1
  Nb  Nb11  1  0.343684  0.505902  0.373255  1
  Nb  Nb12  1  0.844355  0.994402  0.376327  1
  Nb  Nb13  1  0.006138  0.156715  0.123490  1
  Nb  Nb14  1  0.993705  0.844428  0.623290  1
  Nb  Nb15  1  0.506321  0.343656  0.626730  1
  Nb  Nb16  1  0.669495  0.669827  0.500175  1
  Nb  Nb17  1  0.829220  0.169562  0.749791  1
  Nb  Nb18  1  0.169428  0.830287  0.249972  1
  Nb  Nb19  1  0.329148  0.329454  0.000389  1
  Si  Si20  1  0.042125  0.706850  0.434910  1
  Si  Si21  1  0.957274  0.292722  0.934254  1
  Si  Si22  1  0.706372  0.042095  0.565115  1
  Si  Si23  1  0.208217  0.458810  0.184462  1
  Si  Si24  1  0.792840  0.542538  0.686055  1
  Si  Si25  1  0.457230  0.206902  0.816021  1
  Si  Si26  1  0.542308  0.792828  0.314132  1
  Si  Si27  1  0.293728  0.956433  0.064636  1
  Si  Si28  1  0.796932  0.869878  0.186521  1
  Si  Si29  1  0.296995  0.629220  0.563503  1
  Si  Si30  1  0.701213  0.373266  0.062049  1
  Si  Si31  1  0.629397  0.297249  0.436640  1
  Si  Si32  1  0.372313  0.700639  0.937942  1
  Si  Si33  1  0.129211  0.203412  0.313075  1
  Si  Si34  1  0.202277  0.128706  0.687949  1
  Si  Si35  1  0.871610  0.798011  0.813159  1
