# generated using pymatgen
data_Y4ScBi2Te
_symmetry_space_group_name_H-M   'P 1'
_cell_length_a   8.06896400
_cell_length_b   9.37880000
_cell_length_c   11.91855000
_cell_angle_alpha   90.00000000
_cell_angle_beta   90.00000000
_cell_angle_gamma   90.00000000
_symmetry_Int_Tables_number   1
_chemical_formula_structural   Y4ScBi2Te
_chemical_formula_sum   'Y16 Sc4 Bi8 Te4'
_cell_volume   901.96248685
_cell_formula_units_Z   4
loop_
 _symmetry_equiv_pos_site_id
 _symmetry_equiv_pos_as_xyz
  1  'x, y, z'
loop_
 _atom_site_type_symbol
 _atom_site_label
 _atom_site_symmetry_multiplicity
 _atom_site_fract_x
 _atom_site_fract_y
 _atom_site_fract_z
 _atom_site_occupancy
  Y  Y0  1  0.180516  0.750000  0.719767  1
  Y  Y1  1  0.680516  0.750000  0.780233  1
  Y  Y2  1  0.819484  0.250000  0.280233  1
  Y  Y3  1  0.319484  0.250000  0.219767  1
  Y  Y4  1  0.306474  0.438489  0.942189  1
  Y  Y5  1  0.806474  0.061511  0.557811  1
  Y  Y6  1  0.693526  0.938489  0.057811  1
  Y  Y7  1  0.193526  0.561511  0.442189  1
  Y  Y8  1  0.693526  0.561511  0.057811  1
  Y  Y9  1  0.193526  0.938489  0.442189  1
  Y  Y10  1  0.306474  0.061511  0.942189  1
  Y  Y11  1  0.806474  0.438489  0.557811  1
  Y  Y12  1  0.354626  0.750000  0.212599  1
  Y  Y13  1  0.854626  0.750000  0.287401  1
  Y  Y14  1  0.645374  0.250000  0.787401  1
  Y  Y15  1  0.145374  0.250000  0.712599  1
  Sc  Sc16  1  0.026377  0.750000  0.988360  1
  Sc  Sc17  1  0.526377  0.750000  0.511640  1
  Sc  Sc18  1  0.973623  0.250000  0.011640  1
  Sc  Sc19  1  0.473623  0.250000  0.488360  1
  Bi  Bi20  1  0.432930  0.003858  0.668489  1
  Bi  Bi21  1  0.932930  0.496142  0.831511  1
  Bi  Bi22  1  0.567070  0.503858  0.331511  1
  Bi  Bi23  1  0.067070  0.996142  0.168489  1
  Bi  Bi24  1  0.567070  0.996142  0.331511  1
  Bi  Bi25  1  0.067070  0.503858  0.168489  1
  Bi  Bi26  1  0.432930  0.496142  0.668489  1
  Bi  Bi27  1  0.932930  0.003858  0.831511  1
  Te  Te28  1  0.405274  0.750000  0.957449  1
  Te  Te29  1  0.905274  0.750000  0.542551  1
  Te  Te30  1  0.594726  0.250000  0.042551  1
  Te  Te31  1  0.094726  0.250000  0.457449  1
