# generated using pymatgen
data_Ta4Al5VOs2
_symmetry_space_group_name_H-M   'P 1'
_cell_length_a   5.12356400
_cell_length_b   5.12688939
_cell_length_c   8.20003300
_cell_angle_alpha   90.00000000
_cell_angle_beta   90.00000000
_cell_angle_gamma   119.97854621
_symmetry_Int_Tables_number   1
_chemical_formula_structural   Ta4Al5VOs2
_chemical_formula_sum   'Ta4 Al5 V1 Os2'
_cell_volume   186.58047389
_cell_formula_units_Z   1
loop_
 _symmetry_equiv_pos_site_id
 _symmetry_equiv_pos_as_xyz
  1  'x, y, z'
loop_
 _atom_site_type_symbol
 _atom_site_label
 _atom_site_symmetry_multiplicity
 _atom_site_fract_x
 _atom_site_fract_y
 _atom_site_fract_z
 _atom_site_occupancy
  Ta  Ta0  1  0.669733  0.339463  0.072014  1
  Ta  Ta1  1  0.669733  0.339463  0.427986  1
  Ta  Ta2  1  0.334569  0.669138  0.557124  1
  Ta  Ta3  1  0.334569  0.669138  0.942876  1
  Al  Al4  1  0.165762  0.820343  0.250000  1
  Al  Al5  1  0.654581  0.820343  0.250000  1
  Al  Al6  1  0.338522  0.170710  0.750000  1
  Al  Al7  1  0.832187  0.170710  0.750000  1
  Al  Al8  1  0.831905  0.663808  0.750000  1
  V  V9  1  0.164583  0.329165  0.250000  1
  Os  Os10  1  0.001930  0.003859  0.001158  1
  Os  Os11  1  0.001930  0.003859  0.498842  1
