# generated using pymatgen
data_Ho4Fe2NiOs5
_symmetry_space_group_name_H-M   'P 1'
_cell_length_a   5.24876500
_cell_length_b   5.24876485
_cell_length_c   8.72719500
_cell_angle_alpha   90.00000000
_cell_angle_beta   90.00000000
_cell_angle_gamma   120.20744694
_symmetry_Int_Tables_number   1
_chemical_formula_structural   Ho4Fe2NiOs5
_chemical_formula_sum   'Ho4 Fe2 Ni1 Os5'
_cell_volume   207.78199816
_cell_formula_units_Z   1
loop_
 _symmetry_equiv_pos_site_id
 _symmetry_equiv_pos_as_xyz
  1  'x, y, z'
loop_
 _atom_site_type_symbol
 _atom_site_label
 _atom_site_symmetry_multiplicity
 _atom_site_fract_x
 _atom_site_fract_y
 _atom_site_fract_z
 _atom_site_occupancy
  Ho  Ho0  1  0.669500  0.330500  0.686543  1
  Ho  Ho1  1  0.334729  0.665271  0.814551  1
  Ho  Ho2  1  0.334729  0.665271  0.185449  1
  Ho  Ho3  1  0.669500  0.330500  0.313457  1
  Fe  Fe4  1  0.658365  0.832037  0.500000  1
  Fe  Fe5  1  0.167963  0.341635  0.500000  1
  Ni  Ni6  1  0.826777  0.173223  0.000000  1
  Os  Os7  1  0.168330  0.831670  0.500000  1
  Os  Os8  1  0.335338  0.175404  0.000000  1
  Os  Os9  1  0.824596  0.664662  0.000000  1
  Os  Os10  1  0.005061  0.994939  0.253279  1
  Os  Os11  1  0.005061  0.994939  0.746721  1
