# generated using pymatgen
data_Lu6Al24Os7Au
_symmetry_space_group_name_H-M   'P 1'
_cell_length_a   8.80913654
_cell_length_b   8.80913714
_cell_length_c   9.51129990
_cell_angle_alpha   89.69134200
_cell_angle_beta   90.30865514
_cell_angle_gamma   119.92188966
_symmetry_Int_Tables_number   1
_chemical_formula_structural   Lu6Al24Os7Au
_chemical_formula_sum   'Lu6 Al24 Os7 Au1'
_cell_volume   639.69079695
_cell_formula_units_Z   1
loop_
 _symmetry_equiv_pos_site_id
 _symmetry_equiv_pos_as_xyz
  1  'x, y, z'
loop_
 _atom_site_type_symbol
 _atom_site_label
 _atom_site_symmetry_multiplicity
 _atom_site_fract_x
 _atom_site_fract_y
 _atom_site_fract_z
 _atom_site_occupancy
  Lu  Lu0  1  0.191559  0.389887  0.252106  1
  Lu  Lu1  1  0.808441  0.610113  0.747894  1
  Lu  Lu2  1  0.610113  0.808441  0.252106  1
  Lu  Lu3  1  0.389887  0.191559  0.747894  1
  Lu  Lu4  1  0.196588  0.803412  0.254320  1
  Lu  Lu5  1  0.803412  0.196588  0.745680  1
  Al  Al6  1  0.328974  0.671026  0.025261  1
  Al  Al7  1  0.671026  0.328974  0.974739  1
  Al  Al8  1  0.666192  0.333808  0.520254  1
  Al  Al9  1  0.333808  0.666192  0.479746  1
  Al  Al10  1  0.163094  0.325599  0.576330  1
  Al  Al11  1  0.836906  0.674401  0.423670  1
  Al  Al12  1  0.674401  0.836906  0.576330  1
  Al  Al13  1  0.848331  0.677686  0.080535  1
  Al  Al14  1  0.325599  0.163094  0.423670  1
  Al  Al15  1  0.151669  0.322314  0.919465  1
  Al  Al16  1  0.163286  0.836714  0.576213  1
  Al  Al17  1  0.322314  0.151669  0.080535  1
  Al  Al18  1  0.836714  0.163286  0.423787  1
  Al  Al19  1  0.677686  0.848331  0.919465  1
  Al  Al20  1  0.836890  0.163110  0.077010  1
  Al  Al21  1  0.163110  0.836890  0.922990  1
  Al  Al22  1  0.560846  0.121250  0.249348  1
  Al  Al23  1  0.439154  0.878750  0.750652  1
  Al  Al24  1  0.878750  0.439154  0.249348  1
  Al  Al25  1  0.121250  0.560846  0.750652  1
  Al  Al26  1  0.563290  0.436710  0.255384  1
  Al  Al27  1  0.436710  0.563290  0.744616  1
  Al  Al28  1  0.999500  0.000500  0.250352  1
  Al  Al29  1  0.000500  0.999500  0.749648  1
  Os  Os30  1  0.500000  0.000000  0.000000  1
  Os  Os31  1  0.000000  0.500000  0.000000  1
  Os  Os32  1  0.500000  0.000000  0.500000  1
  Os  Os33  1  0.000000  0.500000  0.500000  1
  Os  Os34  1  0.500000  0.500000  0.500000  1
  Os  Os35  1  0.000000  0.000000  0.000000  1
  Os  Os36  1  0.000000  0.000000  0.500000  1
  Au  Au37  1  0.500000  0.500000  0.000000  1
