# generated using pymatgen
data_Dy2MnFe4P6Ir5
_symmetry_space_group_name_H-M   'P 1'
_cell_length_a   3.81221200
_cell_length_b   10.48163900
_cell_length_c   12.34718900
_cell_angle_alpha   90.00000000
_cell_angle_beta   90.00000000
_cell_angle_gamma   90.00000000
_symmetry_Int_Tables_number   1
_chemical_formula_structural   Dy2MnFe4P6Ir5
_chemical_formula_sum   'Dy4 Mn2 Fe8 P12 Ir10'
_cell_volume   493.37181761
_cell_formula_units_Z   2
loop_
 _symmetry_equiv_pos_site_id
 _symmetry_equiv_pos_as_xyz
  1  'x, y, z'
loop_
 _atom_site_type_symbol
 _atom_site_label
 _atom_site_symmetry_multiplicity
 _atom_site_fract_x
 _atom_site_fract_y
 _atom_site_fract_z
 _atom_site_occupancy
  Dy  Dy0  1  0.250000  0.579668  0.713646  1
  Dy  Dy1  1  0.250000  0.920332  0.213646  1
  Dy  Dy2  1  0.750000  0.422105  0.287650  1
  Dy  Dy3  1  0.750000  0.077895  0.787650  1
  Mn  Mn4  1  0.250000  0.707901  0.992875  1
  Mn  Mn5  1  0.250000  0.792099  0.492875  1
  Fe  Fe6  1  0.250000  0.874614  0.694685  1
  Fe  Fe7  1  0.250000  0.625386  0.194685  1
  Fe  Fe8  1  0.750000  0.123264  0.303190  1
  Fe  Fe9  1  0.750000  0.376736  0.803190  1
  Fe  Fe10  1  0.250000  0.456128  0.936587  1
  Fe  Fe11  1  0.250000  0.043872  0.436587  1
  Fe  Fe12  1  0.750000  0.538152  0.063569  1
  Fe  Fe13  1  0.750000  0.961848  0.563569  1
  P  P14  1  0.250000  0.441039  0.111708  1
  P  P15  1  0.250000  0.058961  0.611708  1
  P  P16  1  0.750000  0.563515  0.889390  1
  P  P17  1  0.750000  0.936485  0.389390  1
  P  P18  1  0.250000  0.272028  0.861911  1
  P  P19  1  0.250000  0.227972  0.361911  1
  P  P20  1  0.750000  0.726222  0.135805  1
  P  P21  1  0.750000  0.773778  0.635805  1
  P  P22  1  0.250000  0.601186  0.378130  1
  P  P23  1  0.250000  0.898814  0.878130  1
  P  P24  1  0.750000  0.400871  0.621395  1
  P  P25  1  0.750000  0.099129  0.121395  1
  Ir  Ir26  1  0.750000  0.285631  0.010132  1
  Ir  Ir27  1  0.750000  0.214369  0.510132  1
  Ir  Ir28  1  0.250000  0.407463  0.474499  1
  Ir  Ir29  1  0.250000  0.092537  0.974499  1
  Ir  Ir30  1  0.750000  0.594055  0.525014  1
  Ir  Ir31  1  0.750000  0.905945  0.025014  1
  Ir  Ir32  1  0.250000  0.230753  0.173201  1
  Ir  Ir33  1  0.250000  0.269247  0.673201  1
  Ir  Ir34  1  0.750000  0.773183  0.826614  1
  Ir  Ir35  1  0.750000  0.726817  0.326614  1
