# generated using pymatgen
data_Tb3TlIn2Rh2Au
_symmetry_space_group_name_H-M   'P 1'
_cell_length_a   7.81276894
_cell_length_b   7.81284726
_cell_length_c   3.81839200
_cell_angle_alpha   90.00000000
_cell_angle_beta   90.00000000
_cell_angle_gamma   119.74761170
_symmetry_Int_Tables_number   1
_chemical_formula_structural   Tb3TlIn2Rh2Au
_chemical_formula_sum   'Tb3 Tl1 In2 Rh2 Au1'
_cell_volume   202.35985529
_cell_formula_units_Z   1
loop_
 _symmetry_equiv_pos_site_id
 _symmetry_equiv_pos_as_xyz
  1  'x, y, z'
loop_
 _atom_site_type_symbol
 _atom_site_label
 _atom_site_symmetry_multiplicity
 _atom_site_fract_x
 _atom_site_fract_y
 _atom_site_fract_z
 _atom_site_occupancy
  Tb  Tb0  1  0.586874  0.980761  0.500000  1
  Tb  Tb1  1  0.392146  0.412126  0.500000  1
  Tb  Tb2  1  0.020373  0.607427  0.500000  1
  Tl  Tl3  1  0.738935  0.740944  0.000000  1
  In  In4  1  0.003302  0.259796  0.000000  1
  In  In5  1  0.257413  0.998741  0.000000  1
  Rh  Rh6  1  0.327422  0.665393  0.000000  1
  Rh  Rh7  1  0.007710  0.007690  0.500000  1
  Au  Au8  1  0.665826  0.327122  0.000000  1
