# generated using pymatgen
data_Tm16Al4RuRh3
_symmetry_space_group_name_H-M   'P 1'
_cell_length_a   9.39112262
_cell_length_b   9.39112320
_cell_length_c   9.41838780
_cell_angle_alpha   60.09571598
_cell_angle_beta   60.09571726
_cell_angle_gamma   60.00000169
_symmetry_Int_Tables_number   1
_chemical_formula_structural   Tm16Al4RuRh3
_chemical_formula_sum   'Tm16 Al4 Ru1 Rh3'
_cell_volume   588.19784741
_cell_formula_units_Z   1
loop_
 _symmetry_equiv_pos_site_id
 _symmetry_equiv_pos_as_xyz
  1  'x, y, z'
loop_
 _atom_site_type_symbol
 _atom_site_label
 _atom_site_symmetry_multiplicity
 _atom_site_fract_x
 _atom_site_fract_y
 _atom_site_fract_z
 _atom_site_occupancy
  Tm  Tm0  1  0.061998  0.061998  0.435889  1
  Tm  Tm1  1  0.440116  0.061998  0.435889  1
  Tm  Tm2  1  0.063295  0.437032  0.062641  1
  Tm  Tm3  1  0.055983  0.648702  0.646613  1
  Tm  Tm4  1  0.437032  0.437032  0.062641  1
  Tm  Tm5  1  0.648702  0.055983  0.646613  1
  Tm  Tm6  1  0.192238  0.805832  0.196099  1
  Tm  Tm7  1  0.194702  0.194702  0.805017  1
  Tm  Tm8  1  0.805832  0.805832  0.196099  1
  Tm  Tm9  1  0.437032  0.063295  0.062641  1
  Tm  Tm10  1  0.805832  0.192238  0.196099  1
  Tm  Tm11  1  0.061998  0.440116  0.435889  1
  Tm  Tm12  1  0.805580  0.194702  0.805017  1
  Tm  Tm13  1  0.194702  0.805580  0.805017  1
  Tm  Tm14  1  0.647063  0.647063  0.058811  1
  Tm  Tm15  1  0.648702  0.648702  0.646613  1
  Al  Al16  1  0.421668  0.421668  0.421618  1
  Al  Al17  1  0.735046  0.421668  0.421618  1
  Al  Al18  1  0.421668  0.735046  0.421618  1
  Al  Al19  1  0.421823  0.421823  0.734530  1
  Ru  Ru20  1  0.858200  0.858200  0.425398  1
  Rh  Rh21  1  0.857845  0.857845  0.859211  1
  Rh  Rh22  1  0.425100  0.857845  0.859211  1
  Rh  Rh23  1  0.857845  0.425100  0.859211  1
