# generated using pymatgen
data_Yb2HoAsO6
_symmetry_space_group_name_H-M   'P 1'
_cell_length_a   7.22276300
_cell_length_b   7.22276304
_cell_length_c   5.43856200
_cell_angle_alpha   90.00000000
_cell_angle_beta   90.00000000
_cell_angle_gamma   106.57509925
_symmetry_Int_Tables_number   1
_chemical_formula_structural   Yb2HoAsO6
_chemical_formula_sum   'Yb4 Ho2 As2 O12'
_cell_volume   271.93102320
_cell_formula_units_Z   2
loop_
 _symmetry_equiv_pos_site_id
 _symmetry_equiv_pos_as_xyz
  1  'x, y, z'
loop_
 _atom_site_type_symbol
 _atom_site_label
 _atom_site_symmetry_multiplicity
 _atom_site_fract_x
 _atom_site_fract_y
 _atom_site_fract_z
 _atom_site_occupancy
  Yb  Yb0  1  0.294093  0.096862  0.763269  1
  Yb  Yb1  1  0.903138  0.705907  0.763269  1
  Yb  Yb2  1  0.096862  0.294093  0.263269  1
  Yb  Yb3  1  0.705907  0.903138  0.263269  1
  Ho  Ho4  1  0.591176  0.408824  0.235938  1
  Ho  Ho5  1  0.408824  0.591176  0.735938  1
  As  As6  1  0.807270  0.192730  0.806986  1
  As  As7  1  0.192730  0.807270  0.306986  1
  O  O8  1  0.352198  0.334325  0.501087  1
  O  O9  1  0.588537  0.100449  0.953948  1
  O  O10  1  0.100449  0.588537  0.453948  1
  O  O11  1  0.665675  0.647802  0.501087  1
  O  O12  1  0.209063  0.790937  0.991760  1
  O  O13  1  0.647802  0.665675  0.001087  1
  O  O14  1  0.790937  0.209063  0.491760  1
  O  O15  1  0.334325  0.352198  0.001087  1
  O  O16  1  0.049690  0.950310  0.402706  1
  O  O17  1  0.411463  0.899551  0.453948  1
  O  O18  1  0.950310  0.049690  0.902706  1
  O  O19  1  0.899551  0.411463  0.953948  1
