# generated using pymatgen
data_Cs2MnRh3Se8
_symmetry_space_group_name_H-M   'P 1'
_cell_length_a   6.24163987
_cell_length_b   7.45408941
_cell_length_c   17.02058500
_cell_angle_alpha   90.32972916
_cell_angle_beta   90.52883529
_cell_angle_gamma   86.40607741
_symmetry_Int_Tables_number   1
_chemical_formula_structural   Cs2MnRh3Se8
_chemical_formula_sum   'Cs4 Mn2 Rh6 Se16'
_cell_volume   790.29368960
_cell_formula_units_Z   2
loop_
 _symmetry_equiv_pos_site_id
 _symmetry_equiv_pos_as_xyz
  1  'x, y, z'
loop_
 _atom_site_type_symbol
 _atom_site_label
 _atom_site_symmetry_multiplicity
 _atom_site_fract_x
 _atom_site_fract_y
 _atom_site_fract_z
 _atom_site_occupancy
  Cs  Cs0  1  0.364824  0.985279  0.001360  1
  Cs  Cs1  1  0.619834  0.528703  0.496967  1
  Cs  Cs2  1  0.033493  0.012889  0.500679  1
  Cs  Cs3  1  0.992692  0.511905  0.003352  1
  Mn  Mn4  1  0.989211  0.504787  0.750539  1
  Mn  Mn5  1  0.509721  0.252916  0.750417  1
  Rh  Rh6  1  0.005979  0.997217  0.256044  1
  Rh  Rh7  1  0.004472  0.011902  0.747828  1
  Rh  Rh8  1  0.962995  0.511127  0.246920  1
  Rh  Rh9  1  0.489464  0.239654  0.246623  1
  Rh  Rh10  1  0.506600  0.744114  0.749452  1
  Rh  Rh11  1  0.526753  0.725880  0.250990  1
  Se  Se12  1  0.823613  0.260269  0.327733  1
  Se  Se13  1  0.843296  0.759654  0.671015  1
  Se  Se14  1  0.168540  0.746470  0.175495  1
  Se  Se15  1  0.174496  0.255697  0.827860  1
  Se  Se16  1  0.142812  0.241430  0.173876  1
  Se  Se17  1  0.163091  0.751842  0.825506  1
  Se  Se18  1  0.847206  0.762860  0.334109  1
  Se  Se19  1  0.831689  0.268171  0.667296  1
  Se  Se20  1  0.676472  0.978751  0.173549  1
  Se  Se21  1  0.670599  0.995275  0.826544  1
  Se  Se22  1  0.317266  0.493101  0.323668  1
  Se  Se23  1  0.323452  0.499397  0.672252  1
  Se  Se24  1  0.357247  0.992742  0.328842  1
  Se  Se25  1  0.350465  0.006387  0.673117  1
  Se  Se26  1  0.637095  0.471834  0.164415  1
  Se  Se27  1  0.666624  0.489746  0.833549  1
