# generated using pymatgen
data_RbBa2Cd2Sb3
_symmetry_space_group_name_H-M   'P 1'
_cell_length_a   5.07027600
_cell_length_b   13.40289600
_cell_length_c   17.06109900
_cell_angle_alpha   90.00000000
_cell_angle_beta   90.00000000
_cell_angle_gamma   90.00000000
_symmetry_Int_Tables_number   1
_chemical_formula_structural   RbBa2Cd2Sb3
_chemical_formula_sum   'Rb4 Ba8 Cd8 Sb12'
_cell_volume   1159.41055961
_cell_formula_units_Z   4
loop_
 _symmetry_equiv_pos_site_id
 _symmetry_equiv_pos_as_xyz
  1  'x, y, z'
loop_
 _atom_site_type_symbol
 _atom_site_label
 _atom_site_symmetry_multiplicity
 _atom_site_fract_x
 _atom_site_fract_y
 _atom_site_fract_z
 _atom_site_occupancy
  Rb  Rb0  1  0.250000  0.404723  0.544402  1
  Rb  Rb1  1  0.750000  0.095277  0.044402  1
  Rb  Rb2  1  0.250000  0.904723  0.955598  1
  Rb  Rb3  1  0.750000  0.595277  0.455598  1
  Ba  Ba4  1  0.250000  0.366288  0.282517  1
  Ba  Ba5  1  0.750000  0.133712  0.782517  1
  Ba  Ba6  1  0.250000  0.866288  0.217483  1
  Ba  Ba7  1  0.750000  0.633712  0.717483  1
  Ba  Ba8  1  0.250000  0.096696  0.424464  1
  Ba  Ba9  1  0.750000  0.403304  0.924464  1
  Ba  Ba10  1  0.250000  0.596696  0.075536  1
  Ba  Ba11  1  0.750000  0.903304  0.575536  1
  Cd  Cd12  1  0.250000  0.300107  0.077937  1
  Cd  Cd13  1  0.750000  0.199893  0.577937  1
  Cd  Cd14  1  0.250000  0.800107  0.422063  1
  Cd  Cd15  1  0.750000  0.699893  0.922063  1
  Cd  Cd16  1  0.250000  0.372600  0.778033  1
  Cd  Cd17  1  0.750000  0.127400  0.278033  1
  Cd  Cd18  1  0.250000  0.872600  0.721967  1
  Cd  Cd19  1  0.750000  0.627400  0.221967  1
  Sb  Sb20  1  0.250000  0.126509  0.191173  1
  Sb  Sb21  1  0.750000  0.373491  0.691173  1
  Sb  Sb22  1  0.250000  0.626509  0.308827  1
  Sb  Sb23  1  0.750000  0.873491  0.808827  1
  Sb  Sb24  1  0.250000  0.719768  0.584217  1
  Sb  Sb25  1  0.750000  0.780232  0.084217  1
  Sb  Sb26  1  0.250000  0.219768  0.915783  1
  Sb  Sb27  1  0.750000  0.280232  0.415783  1
  Sb  Sb28  1  0.250000  0.082547  0.631349  1
  Sb  Sb29  1  0.750000  0.417453  0.131349  1
  Sb  Sb30  1  0.250000  0.582547  0.868651  1
  Sb  Sb31  1  0.750000  0.917453  0.368651  1
