# generated using pymatgen
data_Tb17Y3Sn9Sb7
_symmetry_space_group_name_H-M   'P 1'
_cell_length_a   8.12624372
_cell_length_b   8.17164633
_cell_length_c   15.49378158
_cell_angle_alpha   90.13650541
_cell_angle_beta   89.66511885
_cell_angle_gamma   89.79432589
_symmetry_Int_Tables_number   1
_chemical_formula_structural   Tb17Y3Sn9Sb7
_chemical_formula_sum   'Tb17 Y3 Sn9 Sb7'
_cell_volume   1028.83413297
_cell_formula_units_Z   1
loop_
 _symmetry_equiv_pos_site_id
 _symmetry_equiv_pos_as_xyz
  1  'x, y, z'
loop_
 _atom_site_type_symbol
 _atom_site_label
 _atom_site_symmetry_multiplicity
 _atom_site_fract_x
 _atom_site_fract_y
 _atom_site_fract_z
 _atom_site_occupancy
  Tb  Tb0  1  0.388220  0.838559  0.880663  1
  Tb  Tb1  1  0.891312  0.663026  0.618899  1
  Tb  Tb2  1  0.609553  0.161407  0.381309  1
  Tb  Tb3  1  0.112821  0.337628  0.120216  1
  Tb  Tb4  1  0.611799  0.162460  0.119236  1
  Tb  Tb5  1  0.109784  0.337681  0.381105  1
  Tb  Tb6  1  0.389047  0.839169  0.619226  1
  Tb  Tb7  1  0.887566  0.663042  0.880103  1
  Tb  Tb8  1  0.553335  0.331499  0.892601  1
  Tb  Tb9  1  0.054833  0.170360  0.607539  1
  Tb  Tb10  1  0.445216  0.669408  0.392387  1
  Tb  Tb11  1  0.948268  0.824945  0.106410  1
  Tb  Tb12  1  0.451747  0.667697  0.106138  1
  Tb  Tb13  1  0.945322  0.829173  0.392250  1
  Tb  Tb14  1  0.554842  0.329942  0.608243  1
  Tb  Tb15  1  0.045982  0.177354  0.895888  1
  Tb  Tb16  1  0.219935  0.500388  0.750496  1
  Y  Y17  1  0.719852  0.002688  0.750530  1
  Y  Y18  1  0.780380  0.499573  0.248008  1
  Y  Y19  1  0.279794  0.997878  0.249434  1
  Sn  Sn20  1  0.774656  0.473961  0.043827  1
  Sn  Sn21  1  0.586351  0.627904  0.749020  1
  Sn  Sn22  1  0.085889  0.875732  0.750369  1
  Sn  Sn23  1  0.414199  0.372763  0.251066  1
  Sn  Sn24  1  0.913471  0.125275  0.250463  1
  Sn  Sn25  1  0.355514  0.143461  0.750914  1
  Sn  Sn26  1  0.857667  0.358748  0.749487  1
  Sn  Sn27  1  0.643104  0.856722  0.249852  1
  Sn  Sn28  1  0.143783  0.641759  0.250247  1
  Sb  Sb29  1  0.268499  0.018718  0.046429  1
  Sb  Sb30  1  0.768287  0.481560  0.453296  1
  Sb  Sb31  1  0.731389  0.982485  0.546991  1
  Sb  Sb32  1  0.229116  0.522629  0.954238  1
  Sb  Sb33  1  0.727882  0.979290  0.953542  1
  Sb  Sb34  1  0.232687  0.518160  0.546727  1
  Sb  Sb35  1  0.267892  0.016959  0.452854  1
