# generated using pymatgen
data_La5Pr7(GaRh)8
_symmetry_space_group_name_H-M   'P 1'
_cell_length_a   5.73800109
_cell_length_b   8.35025245
_cell_length_c   13.70797785
_cell_angle_alpha   90.02267056
_cell_angle_beta   90.02824802
_cell_angle_gamma   89.82282708
_symmetry_Int_Tables_number   1
_chemical_formula_structural   La5Pr7(GaRh)8
_chemical_formula_sum   'La5 Pr7 Ga8 Rh8'
_cell_volume   656.79745766
_cell_formula_units_Z   1
loop_
 _symmetry_equiv_pos_site_id
 _symmetry_equiv_pos_as_xyz
  1  'x, y, z'
loop_
 _atom_site_type_symbol
 _atom_site_label
 _atom_site_symmetry_multiplicity
 _atom_site_fract_x
 _atom_site_fract_y
 _atom_site_fract_z
 _atom_site_occupancy
  La  La0  1  0.848348  0.899180  0.404096  1
  La  La1  1  0.147251  0.401651  0.404868  1
  La  La2  1  0.153522  0.097955  0.596033  1
  La  La3  1  0.152552  0.101654  0.904912  1
  La  La4  1  0.847334  0.899106  0.094508  1
  Pr  Pr5  1  0.633444  0.257064  0.249569  1
  Pr  Pr6  1  0.366104  0.741210  0.750822  1
  Pr  Pr7  1  0.359800  0.755575  0.248539  1
  Pr  Pr8  1  0.638872  0.246340  0.750442  1
  Pr  Pr9  1  0.144763  0.398307  0.098222  1
  Pr  Pr10  1  0.856089  0.600728  0.901103  1
  Pr  Pr11  1  0.854169  0.604472  0.599966  1
  Ga  Ga12  1  0.138179  0.108734  0.249570  1
  Ga  Ga13  1  0.860718  0.892555  0.751216  1
  Ga  Ga14  1  0.856235  0.607145  0.249214  1
  Ga  Ga15  1  0.139847  0.391932  0.748983  1
  Ga  Ga16  1  0.630653  0.251346  0.000840  1
  Ga  Ga17  1  0.369995  0.747424  0.998694  1
  Ga  Ga18  1  0.373499  0.749790  0.501322  1
  Ga  Ga19  1  0.629135  0.251054  0.500158  1
  Rh  Rh20  1  0.358745  0.027533  0.090593  1
  Rh  Rh21  1  0.640115  0.971593  0.909548  1
  Rh  Rh22  1  0.644639  0.972624  0.590940  1
  Rh  Rh23  1  0.640434  0.528584  0.408980  1
  Rh  Rh24  1  0.358795  0.027698  0.408877  1
  Rh  Rh25  1  0.356720  0.470449  0.589433  1
  Rh  Rh26  1  0.361874  0.468980  0.907626  1
  Rh  Rh27  1  0.638167  0.529314  0.090925  1
