# generated using pymatgen
data_Tm8Fe(Si4Pt)3
_symmetry_space_group_name_H-M   'P 1'
_cell_length_a   8.10618900
_cell_length_b   8.10618909
_cell_length_c   7.79451300
_cell_angle_alpha   90.00000000
_cell_angle_beta   90.00000000
_cell_angle_gamma   119.99999553
_symmetry_Int_Tables_number   1
_chemical_formula_structural   Tm8Fe(Si4Pt)3
_chemical_formula_sum   'Tm8 Fe1 Si12 Pt3'
_cell_volume   443.56073321
_cell_formula_units_Z   1
loop_
 _symmetry_equiv_pos_site_id
 _symmetry_equiv_pos_as_xyz
  1  'x, y, z'
loop_
 _atom_site_type_symbol
 _atom_site_label
 _atom_site_symmetry_multiplicity
 _atom_site_fract_x
 _atom_site_fract_y
 _atom_site_fract_z
 _atom_site_occupancy
  Tm  Tm0  1  0.507724  0.015446  0.243832  1
  Tm  Tm1  1  0.486878  0.973757  0.754240  1
  Tm  Tm2  1  0.984554  0.492276  0.243832  1
  Tm  Tm3  1  0.026243  0.513122  0.754240  1
  Tm  Tm4  1  0.507724  0.492276  0.243832  1
  Tm  Tm5  1  0.486878  0.513122  0.754240  1
  Tm  Tm6  1  0.000000  0.000000  0.249360  1
  Tm  Tm7  1  0.000000  0.000000  0.752191  1
  Fe  Fe8  1  0.333333  0.666667  0.040001  1
  Si  Si9  1  0.173337  0.346674  0.004541  1
  Si  Si10  1  0.837064  0.674130  0.996656  1
  Si  Si11  1  0.653326  0.826663  0.004541  1
  Si  Si12  1  0.834684  0.669369  0.500777  1
  Si  Si13  1  0.325870  0.162936  0.996656  1
  Si  Si14  1  0.164931  0.329862  0.499606  1
  Si  Si15  1  0.173337  0.826663  0.004541  1
  Si  Si16  1  0.330631  0.165316  0.500777  1
  Si  Si17  1  0.837064  0.162936  0.996656  1
  Si  Si18  1  0.670138  0.835069  0.499606  1
  Si  Si19  1  0.834684  0.165316  0.500777  1
  Si  Si20  1  0.164931  0.835069  0.499606  1
  Pt  Pt21  1  0.666667  0.333333  0.966797  1
  Pt  Pt22  1  0.666667  0.333333  0.534293  1
  Pt  Pt23  1  0.333333  0.666667  0.458401  1
