# generated using pymatgen
data_LaFe3CoSb12
_symmetry_space_group_name_H-M   'P 1'
_cell_length_a   7.93379659
_cell_length_b   7.93379731
_cell_length_c   7.95473400
_cell_angle_alpha   109.52468647
_cell_angle_beta   109.52468830
_cell_angle_gamma   109.41770549
_symmetry_Int_Tables_number   1
_chemical_formula_structural   LaFe3CoSb12
_chemical_formula_sum   'La1 Fe3 Co1 Sb12'
_cell_volume   385.19346829
_cell_formula_units_Z   1
loop_
 _symmetry_equiv_pos_site_id
 _symmetry_equiv_pos_as_xyz
  1  'x, y, z'
loop_
 _atom_site_type_symbol
 _atom_site_label
 _atom_site_symmetry_multiplicity
 _atom_site_fract_x
 _atom_site_fract_y
 _atom_site_fract_z
 _atom_site_occupancy
  La  La0  1  0.000000  0.000000  0.000000  1
  Fe  Fe1  1  0.500000  0.500000  0.500000  1
  Fe  Fe2  1  0.500000  0.000000  0.000000  1
  Fe  Fe3  1  0.000000  0.500000  0.000000  1
  Co  Co4  1  0.000000  0.000000  0.500000  1
  Sb  Sb5  1  0.173263  0.836295  0.334307  1
  Sb  Sb6  1  0.163705  0.336968  0.498013  1
  Sb  Sb7  1  0.663032  0.826737  0.161044  1
  Sb  Sb8  1  0.665133  0.501923  0.836583  1
  Sb  Sb9  1  0.501923  0.836791  0.665341  1
  Sb  Sb10  1  0.826737  0.163705  0.665693  1
  Sb  Sb11  1  0.336968  0.173263  0.838956  1
  Sb  Sb12  1  0.836791  0.334867  0.171450  1
  Sb  Sb13  1  0.498077  0.163209  0.334659  1
  Sb  Sb14  1  0.334867  0.498077  0.163417  1
  Sb  Sb15  1  0.163209  0.665133  0.828550  1
  Sb  Sb16  1  0.836295  0.663032  0.501987  1
