# generated using pymatgen
data_Ho5Tm(Sc2Pb3)2
_symmetry_space_group_name_H-M   'P 1'
_cell_length_a   6.35011200
_cell_length_b   8.87286859
_cell_length_c   8.87793200
_cell_angle_alpha   120.01488862
_cell_angle_beta   89.99923125
_cell_angle_gamma   90.00033853
_symmetry_Int_Tables_number   1
_chemical_formula_structural   Ho5Tm(Sc2Pb3)2
_chemical_formula_sum   'Ho5 Tm1 Sc4 Pb6'
_cell_volume   433.13442747
_cell_formula_units_Z   1
loop_
 _symmetry_equiv_pos_site_id
 _symmetry_equiv_pos_as_xyz
  1  'x, y, z'
loop_
 _atom_site_type_symbol
 _atom_site_label
 _atom_site_symmetry_multiplicity
 _atom_site_fract_x
 _atom_site_fract_y
 _atom_site_fract_z
 _atom_site_occupancy
  Ho  Ho0  1  0.749989  0.238087  0.999884  1
  Ho  Ho1  1  0.749983  0.761849  0.761754  1
  Ho  Ho2  1  0.749987  0.999975  0.238384  1
  Ho  Ho3  1  0.250006  0.761829  0.999891  1
  Ho  Ho4  1  0.250005  0.238238  0.238102  1
  Tm  Tm5  1  0.249988  0.000031  0.761721  1
  Sc  Sc6  1  0.499968  0.333323  0.666720  1
  Sc  Sc7  1  0.499970  0.666647  0.333338  1
  Sc  Sc8  1  0.000045  0.666673  0.333346  1
  Sc  Sc9  1  0.000048  0.333352  0.666720  1
  Pb  Pb10  1  0.750005  0.601219  0.999993  1
  Pb  Pb11  1  0.750013  0.398730  0.398737  1
  Pb  Pb12  1  0.750009  0.000009  0.601294  1
  Pb  Pb13  1  0.249988  0.398149  0.999572  1
  Pb  Pb14  1  0.250000  0.601882  0.601473  1
  Pb  Pb15  1  0.249998  0.000007  0.399070  1
