# generated using pymatgen
data_Tm4Sc3InPt4
_symmetry_space_group_name_H-M   'P 1'
_cell_length_a   4.47770100
_cell_length_b   7.06320888
_cell_length_c   8.39196511
_cell_angle_alpha   93.88737017
_cell_angle_beta   90.00000000
_cell_angle_gamma   90.00000000
_symmetry_Int_Tables_number   1
_chemical_formula_structural   Tm4Sc3InPt4
_chemical_formula_sum   'Tm4 Sc3 In1 Pt4'
_cell_volume   264.80150787
_cell_formula_units_Z   1
loop_
 _symmetry_equiv_pos_site_id
 _symmetry_equiv_pos_as_xyz
  1  'x, y, z'
loop_
 _atom_site_type_symbol
 _atom_site_label
 _atom_site_symmetry_multiplicity
 _atom_site_fract_x
 _atom_site_fract_y
 _atom_site_fract_z
 _atom_site_occupancy
  Tm  Tm0  1  0.250000  0.977898  0.319412  1
  Tm  Tm1  1  0.250000  0.465679  0.166520  1
  Tm  Tm2  1  0.750000  0.035370  0.680900  1
  Tm  Tm3  1  0.750000  0.507600  0.839524  1
  Sc  Sc4  1  0.250000  0.372420  0.570606  1
  Sc  Sc5  1  0.250000  0.854957  0.934329  1
  Sc  Sc6  1  0.750000  0.640290  0.429839  1
  In  In7  1  0.750000  0.138500  0.069631  1
  Pt  Pt8  1  0.250000  0.241338  0.869236  1
  Pt  Pt9  1  0.250000  0.761474  0.600685  1
  Pt  Pt10  1  0.750000  0.747020  0.119011  1
  Pt  Pt11  1  0.750000  0.257455  0.400308  1
