# generated using pymatgen
data_Re6Te7Br4
_symmetry_space_group_name_H-M   'P 1'
_cell_length_a   12.68627838
_cell_length_b   12.68627851
_cell_length_c   12.68627806
_cell_angle_alpha   49.66304969
_cell_angle_beta   49.66304715
_cell_angle_gamma   49.66304755
_symmetry_Int_Tables_number   1
_chemical_formula_structural   Re6Te7Br4
_chemical_formula_sum   'Re12 Te14 Br8'
_cell_volume   1090.88990306
_cell_formula_units_Z   2
loop_
 _symmetry_equiv_pos_site_id
 _symmetry_equiv_pos_as_xyz
  1  'x, y, z'
loop_
 _atom_site_type_symbol
 _atom_site_label
 _atom_site_symmetry_multiplicity
 _atom_site_fract_x
 _atom_site_fract_y
 _atom_site_fract_z
 _atom_site_occupancy
  Re  Re0  1  0.535824  0.387311  0.677542  1
  Re  Re1  1  0.387311  0.677542  0.535824  1
  Re  Re2  1  0.677542  0.535824  0.387311  1
  Re  Re3  1  0.177542  0.887311  0.035824  1
  Re  Re4  1  0.887311  0.035824  0.177542  1
  Re  Re5  1  0.035824  0.177542  0.887311  1
  Re  Re6  1  0.465727  0.612264  0.322719  1
  Re  Re7  1  0.612264  0.322719  0.465727  1
  Re  Re8  1  0.322719  0.465727  0.612264  1
  Re  Re9  1  0.822719  0.112264  0.965727  1
  Re  Re10  1  0.112264  0.965727  0.822719  1
  Re  Re11  1  0.965727  0.822719  0.112264  1
  Te  Te12  1  0.827860  0.238156  0.527946  1
  Te  Te13  1  0.238156  0.527946  0.827860  1
  Te  Te14  1  0.527946  0.827860  0.238156  1
  Te  Te15  1  0.027946  0.738156  0.327860  1
  Te  Te16  1  0.738156  0.327860  0.027946  1
  Te  Te17  1  0.327860  0.027946  0.738156  1
  Te  Te18  1  0.172239  0.763215  0.469759  1
  Te  Te19  1  0.763215  0.469759  0.172239  1
  Te  Te20  1  0.469759  0.172239  0.763215  1
  Te  Te21  1  0.969759  0.263215  0.672239  1
  Te  Te22  1  0.263215  0.672239  0.969759  1
  Te  Te23  1  0.672239  0.969759  0.263215  1
  Te  Te24  1  0.600555  0.600555  0.600555  1
  Te  Te25  1  0.100555  0.100555  0.100555  1
  Br  Br26  1  0.937215  0.568025  0.241548  1
  Br  Br27  1  0.568025  0.241548  0.937215  1
  Br  Br28  1  0.241548  0.937215  0.568025  1
  Br  Br29  1  0.741548  0.068025  0.437215  1
  Br  Br30  1  0.068025  0.437215  0.741548  1
  Br  Br31  1  0.437215  0.741548  0.068025  1
  Br  Br32  1  0.402058  0.402058  0.402058  1
  Br  Br33  1  0.902058  0.902058  0.902058  1
