# generated using pymatgen
data_Er5ReTcBC6
_symmetry_space_group_name_H-M   'P 1'
_cell_length_a   8.25314344
_cell_length_b   8.25314438
_cell_length_c   3.39915800
_cell_angle_alpha   90.00000000
_cell_angle_beta   90.00000000
_cell_angle_gamma   122.04843491
_symmetry_Int_Tables_number   1
_chemical_formula_structural   Er5ReTcBC6
_chemical_formula_sum   'Er5 Re1 Tc1 B1 C6'
_cell_volume   196.24610572
_cell_formula_units_Z   1
loop_
 _symmetry_equiv_pos_site_id
 _symmetry_equiv_pos_as_xyz
  1  'x, y, z'
loop_
 _atom_site_type_symbol
 _atom_site_label
 _atom_site_symmetry_multiplicity
 _atom_site_fract_x
 _atom_site_fract_y
 _atom_site_fract_z
 _atom_site_occupancy
  Er  Er0  1  0.500250  0.499750  0.000000  1
  Er  Er1  1  0.078850  0.330388  0.500000  1
  Er  Er2  1  0.920597  0.668382  0.500000  1
  Er  Er3  1  0.669612  0.921150  0.500000  1
  Er  Er4  1  0.331618  0.079403  0.500000  1
  Re  Re5  1  0.285713  0.714287  0.000000  1
  Tc  Tc6  1  0.713906  0.286094  0.000000  1
  B  B7  1  0.999813  0.000187  0.000000  1
  C  C8  1  0.626496  0.373504  0.500000  1
  C  C9  1  0.373489  0.626511  0.500000  1
  C  C10  1  0.183466  0.183748  0.000000  1
  C  C11  1  0.816252  0.816534  0.000000  1
  C  C12  1  0.001660  0.501725  0.000000  1
  C  C13  1  0.498275  0.998340  0.000000  1
