# generated using pymatgen
data_HoAs4(RuRh)3
_symmetry_space_group_name_H-M   'P 1'
_cell_length_a   7.19952100
_cell_length_b   7.19952205
_cell_length_c   3.85970500
_cell_angle_alpha   90.00000000
_cell_angle_beta   90.00000000
_cell_angle_gamma   119.99999979
_symmetry_Int_Tables_number   1
_chemical_formula_structural   HoAs4(RuRh)3
_chemical_formula_sum   'Ho1 As4 Ru3 Rh3'
_cell_volume   173.25748817
_cell_formula_units_Z   1
loop_
 _symmetry_equiv_pos_site_id
 _symmetry_equiv_pos_as_xyz
  1  'x, y, z'
loop_
 _atom_site_type_symbol
 _atom_site_label
 _atom_site_symmetry_multiplicity
 _atom_site_fract_x
 _atom_site_fract_y
 _atom_site_fract_z
 _atom_site_occupancy
  Ho  Ho0  1  0.000000  0.000000  0.000000  1
  As  As1  1  0.806166  0.612331  0.500000  1
  As  As2  1  0.333333  0.666667  0.000000  1
  As  As3  1  0.387669  0.193834  0.500000  1
  As  As4  1  0.806166  0.193834  0.500000  1
  Ru  Ru5  1  0.534032  0.068064  0.000000  1
  Ru  Ru6  1  0.534032  0.465968  0.000000  1
  Ru  Ru7  1  0.931936  0.465968  0.000000  1
  Rh  Rh8  1  0.607281  0.803641  0.500000  1
  Rh  Rh9  1  0.196359  0.392719  0.500000  1
  Rh  Rh10  1  0.196359  0.803641  0.500000  1
