# generated using pymatgen
data_Ce3In3CuPtRh
_symmetry_space_group_name_H-M   'P 1'
_cell_length_a   7.66359100
_cell_length_b   7.66359083
_cell_length_c   3.97410100
_cell_angle_alpha   90.00000000
_cell_angle_beta   90.00000000
_cell_angle_gamma   120.00000507
_symmetry_Int_Tables_number   1
_chemical_formula_structural   Ce3In3CuPtRh
_chemical_formula_sum   'Ce3 In3 Cu1 Pt1 Rh1'
_cell_volume   202.13156447
_cell_formula_units_Z   1
loop_
 _symmetry_equiv_pos_site_id
 _symmetry_equiv_pos_as_xyz
  1  'x, y, z'
loop_
 _atom_site_type_symbol
 _atom_site_label
 _atom_site_symmetry_multiplicity
 _atom_site_fract_x
 _atom_site_fract_y
 _atom_site_fract_z
 _atom_site_occupancy
  Ce  Ce0  1  0.418872  0.004199  0.500000  1
  Ce  Ce1  1  0.995801  0.414673  0.500000  1
  Ce  Ce2  1  0.585327  0.581128  0.500000  1
  In  In3  1  0.754019  0.002364  0.000000  1
  In  In4  1  0.997636  0.751655  0.000000  1
  In  In5  1  0.248345  0.245981  0.000000  1
  Cu  Cu6  1  0.000000  0.000000  0.500000  1
  Pt  Pt7  1  0.333333  0.666667  0.000000  1
  Rh  Rh8  1  0.666667  0.333333  0.000000  1
