# generated using pymatgen
data_Ca2LaEu5(SiPd)8
_symmetry_space_group_name_H-M   'P 1'
_cell_length_a   5.87585727
_cell_length_b   7.86880292
_cell_length_c   10.84180400
_cell_angle_alpha   88.57953307
_cell_angle_beta   89.73410741
_cell_angle_gamma   89.70484927
_symmetry_Int_Tables_number   1
_chemical_formula_structural   Ca2LaEu5(SiPd)8
_chemical_formula_sum   'Ca2 La1 Eu5 Si8 Pd8'
_cell_volume   501.11544711
_cell_formula_units_Z   1
loop_
 _symmetry_equiv_pos_site_id
 _symmetry_equiv_pos_as_xyz
  1  'x, y, z'
loop_
 _atom_site_type_symbol
 _atom_site_label
 _atom_site_symmetry_multiplicity
 _atom_site_fract_x
 _atom_site_fract_y
 _atom_site_fract_z
 _atom_site_occupancy
  Ca  Ca0  1  0.369180  0.969363  0.140848  1
  Ca  Ca1  1  0.630532  0.030206  0.859517  1
  La  La2  1  0.627259  0.327012  0.366179  1
  Eu  Eu3  1  0.866229  0.529131  0.859344  1
  Eu  Eu4  1  0.132818  0.472143  0.139356  1
  Eu  Eu5  1  0.875506  0.826982  0.364670  1
  Eu  Eu6  1  0.124281  0.172570  0.636190  1
  Eu  Eu7  1  0.372567  0.673451  0.635423  1
  Si  Si8  1  0.870024  0.536844  0.576403  1
  Si  Si9  1  0.129715  0.465134  0.424680  1
  Si  Si10  1  0.373533  0.963812  0.423252  1
  Si  Si11  1  0.627105  0.035083  0.577361  1
  Si  Si12  1  0.634552  0.630570  0.138730  1
  Si  Si13  1  0.365924  0.369205  0.860507  1
  Si  Si14  1  0.130287  0.871885  0.859392  1
  Si  Si15  1  0.870228  0.127619  0.139672  1
  Pd  Pd16  1  0.896879  0.844103  0.053533  1
  Pd  Pd17  1  0.104181  0.155446  0.945662  1
  Pd  Pd18  1  0.395901  0.661888  0.944609  1
  Pd  Pd19  1  0.604133  0.338179  0.054612  1
  Pd  Pd20  1  0.883240  0.821518  0.669932  1
  Pd  Pd21  1  0.115196  0.178670  0.330318  1
  Pd  Pd22  1  0.388012  0.679405  0.330929  1
  Pd  Pd23  1  0.612717  0.319778  0.668880  1
