# generated using pymatgen
data_Tb4PrMn2O12
_symmetry_space_group_name_H-M   'P 1'
_cell_length_a   6.90339592
_cell_length_b   6.90339655
_cell_length_c   7.37216326
_cell_angle_alpha   74.63830868
_cell_angle_beta   74.63830488
_cell_angle_gamma   49.65254061
_symmetry_Int_Tables_number   1
_chemical_formula_structural   Tb4PrMn2O12
_chemical_formula_sum   'Tb4 Pr1 Mn2 O12'
_cell_volume   256.10295776
_cell_formula_units_Z   1
loop_
 _symmetry_equiv_pos_site_id
 _symmetry_equiv_pos_as_xyz
  1  'x, y, z'
loop_
 _atom_site_type_symbol
 _atom_site_label
 _atom_site_symmetry_multiplicity
 _atom_site_fract_x
 _atom_site_fract_y
 _atom_site_fract_z
 _atom_site_occupancy
  Tb  Tb0  1  0.694577  0.694577  0.662507  1
  Tb  Tb1  1  0.693556  0.693556  0.144259  1
  Tb  Tb2  1  0.306444  0.306444  0.855741  1
  Tb  Tb3  1  0.305423  0.305423  0.337493  1
  Pr  Pr4  1  0.000000  0.000000  0.000000  1
  Mn  Mn5  1  0.246599  0.753401  0.500000  1
  Mn  Mn6  1  0.753401  0.246599  0.500000  1
  O  O7  1  0.412470  0.904790  0.919702  1
  O  O8  1  0.579883  0.100833  0.578622  1
  O  O9  1  0.899167  0.420117  0.421378  1
  O  O10  1  0.095210  0.587530  0.080298  1
  O  O11  1  0.000342  0.000342  0.327566  1
  O  O12  1  0.500497  0.500497  0.678908  1
  O  O13  1  0.904790  0.412470  0.919702  1
  O  O14  1  0.100833  0.579883  0.578622  1
  O  O15  1  0.420117  0.899167  0.421378  1
  O  O16  1  0.587530  0.095210  0.080298  1
  O  O17  1  0.499503  0.499503  0.321092  1
  O  O18  1  0.999658  0.999658  0.672434  1
