# generated using pymatgen
data_Ho6Al13Mo3Os7
_symmetry_space_group_name_H-M   'P 1'
_cell_length_a   8.98431796
_cell_length_b   8.98431892
_cell_length_c   8.98431915
_cell_angle_alpha   59.59793120
_cell_angle_beta   59.59792969
_cell_angle_gamma   59.59792547
_symmetry_Int_Tables_number   1
_chemical_formula_structural   Ho6Al13Mo3Os7
_chemical_formula_sum   'Ho6 Al13 Mo3 Os7'
_cell_volume   508.10480459
_cell_formula_units_Z   1
loop_
 _symmetry_equiv_pos_site_id
 _symmetry_equiv_pos_as_xyz
  1  'x, y, z'
loop_
 _atom_site_type_symbol
 _atom_site_label
 _atom_site_symmetry_multiplicity
 _atom_site_fract_x
 _atom_site_fract_y
 _atom_site_fract_z
 _atom_site_occupancy
  Ho  Ho0  1  0.708062  0.708062  0.285895  1
  Ho  Ho1  1  0.293168  0.708269  0.293168  1
  Ho  Ho2  1  0.708269  0.293168  0.293168  1
  Ho  Ho3  1  0.293168  0.293168  0.708269  1
  Ho  Ho4  1  0.708062  0.285895  0.708062  1
  Ho  Ho5  1  0.285895  0.708062  0.708062  1
  Al  Al6  1  0.880479  0.880479  0.880479  1
  Al  Al7  1  0.121063  0.121063  0.639416  1
  Al  Al8  1  0.121063  0.639416  0.121063  1
  Al  Al9  1  0.639416  0.121063  0.121063  1
  Al  Al10  1  0.122116  0.122116  0.122116  1
  Al  Al11  1  0.669056  0.669056  0.995212  1
  Al  Al12  1  0.669056  0.995212  0.669056  1
  Al  Al13  1  0.995212  0.669056  0.669056  1
  Al  Al14  1  0.663840  0.663840  0.663840  1
  Al  Al15  1  0.331415  0.331415  0.008471  1
  Al  Al16  1  0.331415  0.008471  0.331415  1
  Al  Al17  1  0.008471  0.331415  0.331415  1
  Al  Al18  1  0.332143  0.332143  0.332143  1
  Mo  Mo19  1  0.877355  0.877355  0.362727  1
  Mo  Mo20  1  0.877355  0.362727  0.877355  1
  Mo  Mo21  1  0.362727  0.877355  0.877355  1
  Os  Os22  1  0.004878  0.004878  0.004878  1
  Os  Os23  1  0.998139  0.998139  0.496903  1
  Os  Os24  1  0.503715  0.995707  0.503715  1
  Os  Os25  1  0.995707  0.503715  0.503715  1
  Os  Os26  1  0.503715  0.503715  0.995707  1
  Os  Os27  1  0.998139  0.496903  0.998139  1
  Os  Os28  1  0.496903  0.998139  0.998139  1
