# generated using pymatgen
data_SrBi6(AsO5)4
_symmetry_space_group_name_H-M   'P 1'
_cell_length_a   7.19819022
_cell_length_b   8.00650498
_cell_length_c   9.45723694
_cell_angle_alpha   106.54116778
_cell_angle_beta   94.05528101
_cell_angle_gamma   111.80273359
_symmetry_Int_Tables_number   1
_chemical_formula_structural   SrBi6(AsO5)4
_chemical_formula_sum   'Sr1 Bi6 As4 O20'
_cell_volume   475.48205551
_cell_formula_units_Z   1
loop_
 _symmetry_equiv_pos_site_id
 _symmetry_equiv_pos_as_xyz
  1  'x, y, z'
loop_
 _atom_site_type_symbol
 _atom_site_label
 _atom_site_symmetry_multiplicity
 _atom_site_fract_x
 _atom_site_fract_y
 _atom_site_fract_z
 _atom_site_occupancy
  Sr  Sr0  1  0.000000  0.500000  0.000000  1
  Bi  Bi1  1  0.663004  0.375730  0.485017  1
  Bi  Bi2  1  0.438853  0.299603  0.084130  1
  Bi  Bi3  1  0.336996  0.624270  0.514983  1
  Bi  Bi4  1  0.199513  0.211875  0.673918  1
  Bi  Bi5  1  0.800487  0.788125  0.326082  1
  Bi  Bi6  1  0.561147  0.700397  0.915870  1
  As  As7  1  0.048191  0.773320  0.757599  1
  As  As8  1  0.652550  0.103898  0.742126  1
  As  As9  1  0.951809  0.226680  0.242401  1
  As  As10  1  0.347450  0.896102  0.257874  1
  O  O11  1  0.841995  0.980898  0.169720  1
  O  O12  1  0.534869  0.878501  0.369724  1
  O  O13  1  0.773434  0.325730  0.245625  1
  O  O14  1  0.372970  0.129189  0.308161  1
  O  O15  1  0.934758  0.695790  0.569618  1
  O  O16  1  0.065242  0.304210  0.430382  1
  O  O17  1  0.347197  0.805586  0.069548  1
  O  O18  1  0.652803  0.194414  0.930452  1
  O  O19  1  0.886229  0.252891  0.721761  1
  O  O20  1  0.547653  0.524582  0.362222  1
  O  O21  1  0.113771  0.747109  0.278239  1
  O  O22  1  0.452347  0.475418  0.637778  1
  O  O23  1  0.226566  0.674270  0.754375  1
  O  O24  1  0.672172  0.590621  0.099855  1
  O  O25  1  0.465131  0.121499  0.630276  1
  O  O26  1  0.327828  0.409379  0.900145  1
  O  O27  1  0.876833  0.676298  0.860233  1
  O  O28  1  0.627030  0.870811  0.691839  1
  O  O29  1  0.158005  0.019102  0.830280  1
  O  O30  1  0.123167  0.323702  0.139767  1
