# generated using pymatgen
data_Ho2(ReB2)3
_symmetry_space_group_name_H-M   'P 1'
_cell_length_a   6.20974574
_cell_length_b   6.20974537
_cell_length_c   7.49289396
_cell_angle_alpha   90.55116900
_cell_angle_beta   90.55117385
_cell_angle_gamma   113.71274788
_symmetry_Int_Tables_number   1
_chemical_formula_structural   Ho2(ReB2)3
_chemical_formula_sum   'Ho4 Re6 B12'
_cell_volume   264.49837528
_cell_formula_units_Z   2
loop_
 _symmetry_equiv_pos_site_id
 _symmetry_equiv_pos_as_xyz
  1  'x, y, z'
loop_
 _atom_site_type_symbol
 _atom_site_label
 _atom_site_symmetry_multiplicity
 _atom_site_fract_x
 _atom_site_fract_y
 _atom_site_fract_z
 _atom_site_occupancy
  Ho  Ho0  1  0.100974  0.443334  0.321768  1
  Ho  Ho1  1  0.556666  0.899026  0.178232  1
  Ho  Ho2  1  0.899026  0.556666  0.678232  1
  Ho  Ho3  1  0.443334  0.100974  0.821768  1
  Re  Re4  1  0.588494  0.411506  0.250000  1
  Re  Re5  1  0.411506  0.588494  0.750000  1
  Re  Re6  1  0.990641  0.807072  0.088648  1
  Re  Re7  1  0.192928  0.009359  0.411352  1
  Re  Re8  1  0.009359  0.192928  0.911352  1
  Re  Re9  1  0.807072  0.990641  0.588648  1
  B  B10  1  0.249776  0.151662  0.129883  1
  B  B11  1  0.848338  0.750224  0.370117  1
  B  B12  1  0.750224  0.848338  0.870117  1
  B  B13  1  0.151662  0.249776  0.629883  1
  B  B14  1  0.587801  0.160023  0.479741  1
  B  B15  1  0.839977  0.412199  0.020259  1
  B  B16  1  0.412199  0.839977  0.520259  1
  B  B17  1  0.160023  0.587801  0.979741  1
  B  B18  1  0.443732  0.350285  0.536007  1
  B  B19  1  0.649715  0.556268  0.963993  1
  B  B20  1  0.556268  0.649715  0.463993  1
  B  B21  1  0.350285  0.443732  0.036007  1
