# generated using pymatgen
data_HfNb(ZnGa)3
_symmetry_space_group_name_H-M   'P 1'
_cell_length_a   3.94398000
_cell_length_b   4.00544700
_cell_length_c   8.14638600
_cell_angle_alpha   90.00000000
_cell_angle_beta   90.00000000
_cell_angle_gamma   90.00000000
_symmetry_Int_Tables_number   1
_chemical_formula_structural   HfNb(ZnGa)3
_chemical_formula_sum   'Hf1 Nb1 Zn3 Ga3'
_cell_volume   128.69174149
_cell_formula_units_Z   1
loop_
 _symmetry_equiv_pos_site_id
 _symmetry_equiv_pos_as_xyz
  1  'x, y, z'
loop_
 _atom_site_type_symbol
 _atom_site_label
 _atom_site_symmetry_multiplicity
 _atom_site_fract_x
 _atom_site_fract_y
 _atom_site_fract_z
 _atom_site_occupancy
  Hf  Hf0  1  0.000000  0.000000  0.245613  1
  Nb  Nb1  1  0.000000  0.000000  0.754933  1
  Zn  Zn2  1  0.500000  0.000000  0.502531  1
  Zn  Zn3  1  0.000000  0.500000  0.996815  1
  Zn  Zn4  1  0.000000  0.500000  0.503118  1
  Ga  Ga5  1  0.500000  0.500000  0.741896  1
  Ga  Ga6  1  0.500000  0.500000  0.258793  1
  Ga  Ga7  1  0.500000  0.000000  0.996301  1
