# generated using pymatgen
data_Cs4Zr6BeCl18
_symmetry_space_group_name_H-M   'P 1'
_cell_length_a   10.71373747
_cell_length_b   10.71373871
_cell_length_c   10.31218600
_cell_angle_alpha   77.10224067
_cell_angle_beta   77.10223915
_cell_angle_gamma   117.42598345
_symmetry_Int_Tables_number   1
_chemical_formula_structural   Cs4Zr6BeCl18
_chemical_formula_sum   'Cs4 Zr6 Be1 Cl18'
_cell_volume   948.64108254
_cell_formula_units_Z   1
loop_
 _symmetry_equiv_pos_site_id
 _symmetry_equiv_pos_as_xyz
  1  'x, y, z'
loop_
 _atom_site_type_symbol
 _atom_site_label
 _atom_site_symmetry_multiplicity
 _atom_site_fract_x
 _atom_site_fract_y
 _atom_site_fract_z
 _atom_site_occupancy
  Cs  Cs0  1  0.767566  0.445731  0.687379  1
  Cs  Cs1  1  0.554269  0.232434  0.312621  1
  Cs  Cs2  1  0.232434  0.554269  0.312621  1
  Cs  Cs3  1  0.445731  0.767566  0.687379  1
  Zr  Zr4  1  0.122028  0.122028  0.147434  1
  Zr  Zr5  1  0.877972  0.877972  0.852566  1
  Zr  Zr6  1  0.947153  0.760940  0.152713  1
  Zr  Zr7  1  0.239060  0.052847  0.847287  1
  Zr  Zr8  1  0.052847  0.239060  0.847287  1
  Zr  Zr9  1  0.760940  0.947153  0.152713  1
  Be  Be10  1  0.000000  0.000000  0.000000  1
  Cl  Cl11  1  0.813671  0.613520  0.007898  1
  Cl  Cl12  1  0.386481  0.186329  0.992102  1
  Cl  Cl13  1  0.186329  0.386481  0.992102  1
  Cl  Cl14  1  0.613519  0.813671  0.007898  1
  Cl  Cl15  1  0.200012  0.799988  0.000000  1
  Cl  Cl16  1  0.799988  0.200012  0.000000  1
  Cl  Cl17  1  0.314744  0.314744  0.676264  1
  Cl  Cl18  1  0.685256  0.685256  0.323736  1
  Cl  Cl19  1  0.888912  0.501555  0.320727  1
  Cl  Cl20  1  0.498445  0.111088  0.679273  1
  Cl  Cl21  1  0.111088  0.498445  0.679273  1
  Cl  Cl22  1  0.501555  0.888912  0.320727  1
  Cl  Cl23  1  0.253691  0.253691  0.298892  1
  Cl  Cl24  1  0.746309  0.746309  0.701108  1
  Cl  Cl25  1  0.074920  0.874450  0.315214  1
  Cl  Cl26  1  0.125550  0.925080  0.684786  1
  Cl  Cl27  1  0.925080  0.125550  0.684786  1
  Cl  Cl28  1  0.874450  0.074920  0.315214  1
