# generated using pymatgen
data_K6ScAlP4
_symmetry_space_group_name_H-M   'P 1'
_cell_length_a   8.85890236
_cell_length_b   8.85890123
_cell_length_c   8.85890035
_cell_angle_alpha   136.96153176
_cell_angle_beta   127.95272280
_cell_angle_gamma   69.76284174
_symmetry_Int_Tables_number   1
_chemical_formula_structural   K6ScAlP4
_chemical_formula_sum   'K6 Sc1 Al1 P4'
_cell_volume   367.15257378
_cell_formula_units_Z   1
loop_
 _symmetry_equiv_pos_site_id
 _symmetry_equiv_pos_as_xyz
  1  'x, y, z'
loop_
 _atom_site_type_symbol
 _atom_site_label
 _atom_site_symmetry_multiplicity
 _atom_site_fract_x
 _atom_site_fract_y
 _atom_site_fract_z
 _atom_site_occupancy
  K  K0  1  0.008490  0.802018  0.186394  1
  K  K1  1  0.500000  0.750000  0.250000  1
  K  K2  1  0.615624  0.322097  0.313606  1
  K  K3  1  0.384376  0.697982  0.706474  1
  K  K4  1  0.500000  0.250000  0.750000  1
  K  K5  1  0.991510  0.177903  0.793526  1
  Sc  Sc6  1  0.000000  0.250000  0.250000  1
  Al  Al7  1  0.000000  0.750000  0.750000  1
  P  P8  1  0.087405  0.420441  0.693938  1
  P  P9  1  0.912595  0.606531  0.333035  1
  P  P10  1  0.273496  0.079559  0.166965  1
  P  P11  1  0.726504  0.893469  0.806062  1
