# generated using pymatgen
data_ErGaSiPtRh
_symmetry_space_group_name_H-M   'P 1'
_cell_length_a   4.08805300
_cell_length_b   4.08805300
_cell_length_c   10.46016900
_cell_angle_alpha   90.00000000
_cell_angle_beta   90.00000000
_cell_angle_gamma   90.00000000
_symmetry_Int_Tables_number   1
_chemical_formula_structural   ErGaSiPtRh
_chemical_formula_sum   'Er2 Ga2 Si2 Pt2 Rh2'
_cell_volume   174.81219924
_cell_formula_units_Z   2
loop_
 _symmetry_equiv_pos_site_id
 _symmetry_equiv_pos_as_xyz
  1  'x, y, z'
loop_
 _atom_site_type_symbol
 _atom_site_label
 _atom_site_symmetry_multiplicity
 _atom_site_fract_x
 _atom_site_fract_y
 _atom_site_fract_z
 _atom_site_occupancy
  Er  Er0  1  0.000000  0.500000  0.244644  1
  Er  Er1  1  0.500000  0.000000  0.755357  1
  Ga  Ga2  1  0.000000  0.000000  0.500000  1
  Ga  Ga3  1  0.500000  0.500000  0.500000  1
  Si  Si4  1  0.000000  0.500000  0.878800  1
  Si  Si5  1  0.500000  0.000000  0.121200  1
  Pt  Pt6  1  0.000000  0.500000  0.654759  1
  Pt  Pt7  1  0.500000  0.000000  0.345241  1
  Rh  Rh8  1  0.000000  0.000000  0.000000  1
  Rh  Rh9  1  0.500000  0.500000  0.000000  1
