# generated using pymatgen
data_Tb3HfAl17GaRh6
_symmetry_space_group_name_H-M   'P 1'
_cell_length_a   7.52773647
_cell_length_b   7.51097379
_cell_length_c   9.42782400
_cell_angle_alpha   90.00000000
_cell_angle_beta   90.00000000
_cell_angle_gamma   119.38748170
_symmetry_Int_Tables_number   1
_chemical_formula_structural   Tb3HfAl17GaRh6
_chemical_formula_sum   'Tb3 Hf1 Al17 Ga1 Rh6'
_cell_volume   464.46214554
_cell_formula_units_Z   1
loop_
 _symmetry_equiv_pos_site_id
 _symmetry_equiv_pos_as_xyz
  1  'x, y, z'
loop_
 _atom_site_type_symbol
 _atom_site_label
 _atom_site_symmetry_multiplicity
 _atom_site_fract_x
 _atom_site_fract_y
 _atom_site_fract_z
 _atom_site_occupancy
  Tb  Tb0  1  0.006720  0.325078  0.750000  1
  Tb  Tb1  1  0.672367  0.995888  0.250000  1
  Tb  Tb2  1  0.325879  0.006781  0.750000  1
  Hf  Hf3  1  0.996198  0.672745  0.250000  1
  Al  Al4  1  0.126068  0.123353  0.250000  1
  Al  Al5  1  0.000433  0.339602  0.080221  1
  Al  Al6  1  0.999044  0.664332  0.929484  1
  Al  Al7  1  0.999044  0.664332  0.570516  1
  Al  Al8  1  0.332127  0.997314  0.419776  1
  Al  Al9  1  0.000433  0.339602  0.419779  1
  Al  Al10  1  0.663767  0.997719  0.574825  1
  Al  Al11  1  0.663767  0.997719  0.925175  1
  Al  Al12  1  0.332127  0.997314  0.080224  1
  Al  Al13  1  0.334351  0.334358  0.546477  1
  Al  Al14  1  0.669817  0.667091  0.441927  1
  Al  Al15  1  0.669817  0.667091  0.058073  1
  Al  Al16  1  0.334351  0.334358  0.953523  1
  Al  Al17  1  0.335397  0.551579  0.250000  1
  Al  Al18  1  0.661919  0.450685  0.750000  1
  Al  Al19  1  0.557151  0.345021  0.250000  1
  Al  Al20  1  0.449100  0.659589  0.750000  1
  Ga  Ga21  1  0.867987  0.866430  0.750000  1
  Rh  Rh22  1  0.673273  0.329237  0.001496  1
  Rh  Rh23  1  0.328135  0.672835  0.001912  1
  Rh  Rh24  1  0.328135  0.672835  0.498088  1
  Rh  Rh25  1  0.673273  0.329237  0.498504  1
  Rh  Rh26  1  0.999659  0.998938  0.004212  1
  Rh  Rh27  1  0.999659  0.998938  0.495788  1
