# generated using pymatgen
data_Ho3Er(SiPd14)2
_symmetry_space_group_name_H-M   'P 1'
_cell_length_a   8.91974500
_cell_length_b   8.91974500
_cell_length_c   7.07599500
_cell_angle_alpha   90.00000000
_cell_angle_beta   90.00000000
_cell_angle_gamma   90.00000000
_symmetry_Int_Tables_number   1
_chemical_formula_structural   Ho3Er(SiPd14)2
_chemical_formula_sum   'Ho3 Er1 Si2 Pd28'
_cell_volume   562.97925891
_cell_formula_units_Z   1
loop_
 _symmetry_equiv_pos_site_id
 _symmetry_equiv_pos_as_xyz
  1  'x, y, z'
loop_
 _atom_site_type_symbol
 _atom_site_label
 _atom_site_symmetry_multiplicity
 _atom_site_fract_x
 _atom_site_fract_y
 _atom_site_fract_z
 _atom_site_occupancy
  Ho  Ho0  1  0.500000  0.000000  0.934506  1
  Ho  Ho1  1  0.000000  0.500000  0.065494  1
  Ho  Ho2  1  0.000000  0.000000  0.500000  1
  Er  Er3  1  0.500000  0.500000  0.500000  1
  Si  Si4  1  0.500000  0.000000  0.447925  1
  Si  Si5  1  0.000000  0.500000  0.552075  1
  Pd  Pd6  1  0.334376  0.834296  0.616034  1
  Pd  Pd7  1  0.334376  0.165704  0.616034  1
  Pd  Pd8  1  0.665624  0.834296  0.616034  1
  Pd  Pd9  1  0.665624  0.165704  0.616034  1
  Pd  Pd10  1  0.165704  0.665624  0.383966  1
  Pd  Pd11  1  0.165704  0.334376  0.383966  1
  Pd  Pd12  1  0.834296  0.665624  0.383966  1
  Pd  Pd13  1  0.834296  0.334376  0.383966  1
  Pd  Pd14  1  0.500000  0.769813  0.256495  1
  Pd  Pd15  1  0.500000  0.230187  0.256495  1
  Pd  Pd16  1  0.269946  0.000000  0.256393  1
  Pd  Pd17  1  0.730054  0.000000  0.256393  1
  Pd  Pd18  1  0.000000  0.730054  0.743607  1
  Pd  Pd19  1  0.000000  0.269946  0.743607  1
  Pd  Pd20  1  0.230187  0.500000  0.743505  1
  Pd  Pd21  1  0.769813  0.500000  0.743505  1
  Pd  Pd22  1  0.500000  0.349134  0.852020  1
  Pd  Pd23  1  0.500000  0.650866  0.852020  1
  Pd  Pd24  1  0.849037  0.000000  0.852152  1
  Pd  Pd25  1  0.150963  0.000000  0.852152  1
  Pd  Pd26  1  0.000000  0.150963  0.147848  1
  Pd  Pd27  1  0.000000  0.849037  0.147848  1
  Pd  Pd28  1  0.650866  0.500000  0.147980  1
  Pd  Pd29  1  0.349134  0.500000  0.147980  1
  Pd  Pd30  1  0.250040  0.749960  0.000000  1
  Pd  Pd31  1  0.250040  0.250040  0.000000  1
  Pd  Pd32  1  0.749960  0.749960  0.000000  1
  Pd  Pd33  1  0.749960  0.250040  0.000000  1
