# generated using pymatgen
data_Tb7YLu8(ScSi4)4
_symmetry_space_group_name_H-M   'P 1'
_cell_length_a   7.20235601
_cell_length_b   7.55140303
_cell_length_c   14.29085403
_cell_angle_alpha   89.99251031
_cell_angle_beta   90.00007564
_cell_angle_gamma   89.99318844
_symmetry_Int_Tables_number   1
_chemical_formula_structural   Tb7YLu8(ScSi4)4
_chemical_formula_sum   'Tb7 Y1 Lu8 Sc4 Si16'
_cell_volume   777.24942795
_cell_formula_units_Z   1
loop_
 _symmetry_equiv_pos_site_id
 _symmetry_equiv_pos_as_xyz
  1  'x, y, z'
loop_
 _atom_site_type_symbol
 _atom_site_label
 _atom_site_symmetry_multiplicity
 _atom_site_fract_x
 _atom_site_fract_y
 _atom_site_fract_z
 _atom_site_occupancy
  Tb  Tb0  1  0.985834  0.821327  0.902000  1
  Tb  Tb1  1  0.485850  0.678597  0.902039  1
  Tb  Tb2  1  0.985838  0.821307  0.597974  1
  Tb  Tb3  1  0.514116  0.321371  0.098018  1
  Tb  Tb4  1  0.014156  0.178647  0.402074  1
  Tb  Tb5  1  0.514178  0.321281  0.401990  1
  Tb  Tb6  1  0.485809  0.678690  0.597991  1
  Y  Y7  1  0.014267  0.178852  0.097963  1
  Lu  Lu8  1  0.327614  0.177277  0.625234  1
  Lu  Lu9  1  0.672419  0.822713  0.374784  1
  Lu  Lu10  1  0.172367  0.677384  0.374786  1
  Lu  Lu11  1  0.672324  0.822672  0.125134  1
  Lu  Lu12  1  0.827637  0.322699  0.625225  1
  Lu  Lu13  1  0.327532  0.177316  0.874870  1
  Lu  Lu14  1  0.827658  0.322645  0.874783  1
  Lu  Lu15  1  0.172331  0.677376  0.125117  1
  Sc  Sc16  1  0.160557  0.509052  0.749995  1
  Sc  Sc17  1  0.839477  0.490953  0.250003  1
  Sc  Sc18  1  0.339555  0.009073  0.250007  1
  Sc  Sc19  1  0.660522  0.990934  0.749978  1
  Si  Si20  1  0.027267  0.104556  0.750059  1
  Si  Si21  1  0.972649  0.895797  0.249929  1
  Si  Si22  1  0.472521  0.604545  0.249965  1
  Si  Si23  1  0.527318  0.395358  0.750029  1
  Si  Si24  1  0.284277  0.867909  0.750051  1
  Si  Si25  1  0.716078  0.131901  0.249835  1
  Si  Si26  1  0.215805  0.368104  0.249969  1
  Si  Si27  1  0.784291  0.631992  0.750047  1
  Si  Si28  1  0.155327  0.468034  0.539538  1
  Si  Si29  1  0.844641  0.531936  0.460511  1
  Si  Si30  1  0.344754  0.968042  0.460501  1
  Si  Si31  1  0.844609  0.531798  0.039544  1
  Si  Si32  1  0.655316  0.031952  0.539571  1
  Si  Si33  1  0.155312  0.467860  0.960474  1
  Si  Si34  1  0.655357  0.031954  0.960433  1
  Si  Si35  1  0.344437  0.968095  0.039576  1
