# generated using pymatgen
data_CrSb12IrOs2
_symmetry_space_group_name_H-M   'P 1'
_cell_length_a   8.18193634
_cell_length_b   8.16817741
_cell_length_c   8.13563500
_cell_angle_alpha   109.28229602
_cell_angle_beta   109.18000272
_cell_angle_gamma   109.60058502
_symmetry_Int_Tables_number   1
_chemical_formula_structural   CrSb12IrOs2
_chemical_formula_sum   'Cr1 Sb12 Ir1 Os2'
_cell_volume   420.35090437
_cell_formula_units_Z   1
loop_
 _symmetry_equiv_pos_site_id
 _symmetry_equiv_pos_as_xyz
  1  'x, y, z'
loop_
 _atom_site_type_symbol
 _atom_site_label
 _atom_site_symmetry_multiplicity
 _atom_site_fract_x
 _atom_site_fract_y
 _atom_site_fract_z
 _atom_site_occupancy
  Cr  Cr0  1  0.000000  0.000000  0.500000  1
  Sb  Sb1  1  0.159879  0.815186  0.662997  1
  Sb  Sb2  1  0.840121  0.184814  0.337003  1
  Sb  Sb3  1  0.846006  0.506719  0.662066  1
  Sb  Sb4  1  0.153994  0.493281  0.337934  1
  Sb  Sb5  1  0.813610  0.656014  0.150768  1
  Sb  Sb6  1  0.186390  0.343986  0.849232  1
  Sb  Sb7  1  0.508588  0.664023  0.847726  1
  Sb  Sb8  1  0.491412  0.335977  0.152274  1
  Sb  Sb9  1  0.665935  0.154233  0.818961  1
  Sb  Sb10  1  0.334065  0.845767  0.181039  1
  Sb  Sb11  1  0.653044  0.842826  0.499785  1
  Sb  Sb12  1  0.346956  0.157174  0.500215  1
  Ir  Ir13  1  0.500000  0.500000  0.500000  1
  Os  Os14  1  0.500000  0.000000  0.000000  1
  Os  Os15  1  0.000000  0.500000  0.000000  1
