# generated using pymatgen
data_Tm4Lu16(SiSb3)3
_symmetry_space_group_name_H-M   'P 1'
_cell_length_a   7.86493721
_cell_length_b   8.95846100
_cell_length_c   11.64623200
_cell_angle_alpha   90.00000000
_cell_angle_beta   89.91577710
_cell_angle_gamma   90.00000000
_symmetry_Int_Tables_number   1
_chemical_formula_structural   Tm4Lu16(SiSb3)3
_chemical_formula_sum   'Tm4 Lu16 Si3 Sb9'
_cell_volume   820.56622148
_cell_formula_units_Z   1
loop_
 _symmetry_equiv_pos_site_id
 _symmetry_equiv_pos_as_xyz
  1  'x, y, z'
loop_
 _atom_site_type_symbol
 _atom_site_label
 _atom_site_symmetry_multiplicity
 _atom_site_fract_x
 _atom_site_fract_y
 _atom_site_fract_z
 _atom_site_occupancy
  Tm  Tm0  1  0.677469  0.250000  0.271817  1
  Tm  Tm1  1  0.835606  0.250000  0.786106  1
  Tm  Tm2  1  0.141915  0.250000  0.207320  1
  Tm  Tm3  1  0.343578  0.250000  0.714063  1
  Lu  Lu4  1  0.815642  0.945960  0.063680  1
  Lu  Lu5  1  0.310817  0.044068  0.431329  1
  Lu  Lu6  1  0.180604  0.446933  0.938751  1
  Lu  Lu7  1  0.687013  0.565495  0.565671  1
  Lu  Lu8  1  0.180604  0.053067  0.938751  1
  Lu  Lu9  1  0.687013  0.934505  0.565671  1
  Lu  Lu10  1  0.815642  0.554040  0.063680  1
  Lu  Lu11  1  0.310817  0.455932  0.431329  1
  Lu  Lu12  1  0.535625  0.250000  0.996303  1
  Lu  Lu13  1  0.040903  0.750000  0.502068  1
  Lu  Lu14  1  0.461095  0.750000  0.001669  1
  Lu  Lu15  1  0.974958  0.250000  0.497437  1
  Lu  Lu16  1  0.165766  0.750000  0.213537  1
  Lu  Lu17  1  0.334784  0.750000  0.716005  1
  Lu  Lu18  1  0.640819  0.750000  0.293482  1
  Lu  Lu19  1  0.858163  0.750000  0.794983  1
  Si  Si20  1  0.908747  0.250000  0.024847  1
  Si  Si21  1  0.416479  0.750000  0.480631  1
  Si  Si22  1  0.087694  0.750000  0.978084  1
  Sb  Sb23  1  0.932593  0.987859  0.326515  1
  Sb  Sb24  1  0.432789  0.010508  0.172892  1
  Sb  Sb25  1  0.066605  0.491866  0.674243  1
  Sb  Sb26  1  0.566922  0.510326  0.825921  1
  Sb  Sb27  1  0.066605  0.008134  0.674243  1
  Sb  Sb28  1  0.566922  0.989674  0.825921  1
  Sb  Sb29  1  0.932593  0.512141  0.326515  1
  Sb  Sb30  1  0.432789  0.489492  0.172892  1
  Sb  Sb31  1  0.590425  0.250000  0.523645  1
