# generated using pymatgen
data_Dy2Er(Ni3As2)3
_symmetry_space_group_name_H-M   'P 1'
_cell_length_a   3.89851400
_cell_length_b   10.87144700
_cell_length_c   12.75503800
_cell_angle_alpha   90.00000000
_cell_angle_beta   90.00000000
_cell_angle_gamma   90.00000000
_symmetry_Int_Tables_number   1
_chemical_formula_structural   Dy2Er(Ni3As2)3
_chemical_formula_sum   'Dy4 Er2 Ni18 As12'
_cell_volume   540.59024918
_cell_formula_units_Z   2
loop_
 _symmetry_equiv_pos_site_id
 _symmetry_equiv_pos_as_xyz
  1  'x, y, z'
loop_
 _atom_site_type_symbol
 _atom_site_label
 _atom_site_symmetry_multiplicity
 _atom_site_fract_x
 _atom_site_fract_y
 _atom_site_fract_z
 _atom_site_occupancy
  Dy  Dy0  1  0.000000  0.500000  0.523012  1
  Dy  Dy1  1  0.500000  0.000000  0.476488  1
  Dy  Dy2  1  0.000000  0.684028  0.793347  1
  Dy  Dy3  1  0.000000  0.315972  0.793347  1
  Er  Er4  1  0.500000  0.816960  0.206847  1
  Er  Er5  1  0.500000  0.183040  0.206847  1
  Ni  Ni6  1  0.500000  0.500000  0.156129  1
  Ni  Ni7  1  0.000000  0.000000  0.843902  1
  Ni  Ni8  1  0.500000  0.500000  0.699117  1
  Ni  Ni9  1  0.000000  0.000000  0.300680  1
  Ni  Ni10  1  0.000000  0.500000  0.983029  1
  Ni  Ni11  1  0.500000  0.000000  0.018508  1
  Ni  Ni12  1  0.500000  0.332469  0.997849  1
  Ni  Ni13  1  0.500000  0.667531  0.997849  1
  Ni  Ni14  1  0.000000  0.166593  0.003403  1
  Ni  Ni15  1  0.000000  0.833407  0.003403  1
  Ni  Ni16  1  0.500000  0.303035  0.425698  1
  Ni  Ni17  1  0.500000  0.696965  0.425698  1
  Ni  Ni18  1  0.000000  0.196618  0.572956  1
  Ni  Ni19  1  0.000000  0.803382  0.572956  1
  Ni  Ni20  1  0.500000  0.879791  0.707912  1
  Ni  Ni21  1  0.500000  0.120209  0.707912  1
  Ni  Ni22  1  0.000000  0.621037  0.291692  1
  Ni  Ni23  1  0.000000  0.378963  0.291692  1
  As  As24  1  0.500000  0.500000  0.876579  1
  As  As25  1  0.000000  0.000000  0.124465  1
  As  As26  1  0.500000  0.500000  0.344533  1
  As  As27  1  0.000000  0.000000  0.654985  1
  As  As28  1  0.500000  0.314320  0.613111  1
  As  As29  1  0.500000  0.685680  0.613111  1
  As  As30  1  0.000000  0.185351  0.385914  1
  As  As31  1  0.000000  0.814649  0.385914  1
  As  As32  1  0.500000  0.847649  0.890947  1
  As  As33  1  0.500000  0.152351  0.890947  1
  As  As34  1  0.000000  0.653628  0.109610  1
  As  As35  1  0.000000  0.346372  0.109610  1
