# generated using pymatgen
data_Yb2Pa(SnIr)3
_symmetry_space_group_name_H-M   'P 1'
_cell_length_a   7.42041801
_cell_length_b   7.65720470
_cell_length_c   3.99027400
_cell_angle_alpha   90.00000000
_cell_angle_beta   90.00000000
_cell_angle_gamma   121.06131338
_symmetry_Int_Tables_number   1
_chemical_formula_structural   Yb2Pa(SnIr)3
_chemical_formula_sum   'Yb2 Pa1 Sn3 Ir3'
_cell_volume   194.21705066
_cell_formula_units_Z   1
loop_
 _symmetry_equiv_pos_site_id
 _symmetry_equiv_pos_as_xyz
  1  'x, y, z'
loop_
 _atom_site_type_symbol
 _atom_site_label
 _atom_site_symmetry_multiplicity
 _atom_site_fract_x
 _atom_site_fract_y
 _atom_site_fract_z
 _atom_site_occupancy
  Yb  Yb0  1  0.593391  0.592408  0.500000  1
  Yb  Yb1  1  0.406609  0.999016  0.500000  1
  Pa  Pa2  1  0.000000  0.412022  0.500000  1
  Sn  Sn3  1  0.000000  0.760823  0.000000  1
  Sn  Sn4  1  0.273681  0.257907  0.000000  1
  Sn  Sn5  1  0.726319  0.984226  0.000000  1
  Ir  Ir6  1  0.293542  0.633254  0.000000  1
  Ir  Ir7  1  0.706458  0.339711  0.000000  1
  Ir  Ir8  1  0.000000  0.020632  0.500000  1
