# generated using pymatgen
data_TbPr6PI12
_symmetry_space_group_name_H-M   'P 1'
_cell_length_a   10.01344827
_cell_length_b   10.01344929
_cell_length_c   10.01344892
_cell_angle_alpha   107.78706446
_cell_angle_beta   107.78706032
_cell_angle_gamma   107.78707475
_symmetry_Int_Tables_number   1
_chemical_formula_structural   TbPr6PI12
_chemical_formula_sum   'Tb1 Pr6 P1 I12'
_cell_volume   817.55712653
_cell_formula_units_Z   1
loop_
 _symmetry_equiv_pos_site_id
 _symmetry_equiv_pos_as_xyz
  1  'x, y, z'
loop_
 _atom_site_type_symbol
 _atom_site_label
 _atom_site_symmetry_multiplicity
 _atom_site_fract_x
 _atom_site_fract_y
 _atom_site_fract_z
 _atom_site_occupancy
  Tb  Tb0  1  0.500000  0.500000  0.500000  1
  Pr  Pr1  1  0.100725  0.304851  0.029335  1
  Pr  Pr2  1  0.029335  0.100725  0.304851  1
  Pr  Pr3  1  0.304851  0.029335  0.100725  1
  Pr  Pr4  1  0.899275  0.695149  0.970665  1
  Pr  Pr5  1  0.970665  0.899275  0.695149  1
  Pr  Pr6  1  0.695149  0.970665  0.899275  1
  P  P7  1  0.000000  0.000000  0.000000  1
  I  I8  1  0.470366  0.390416  0.163652  1
  I  I9  1  0.163652  0.470366  0.390416  1
  I  I10  1  0.390416  0.163652  0.470366  1
  I  I11  1  0.529634  0.609584  0.836348  1
  I  I12  1  0.836348  0.529634  0.609584  1
  I  I13  1  0.609584  0.836348  0.529634  1
  I  I14  1  0.770419  0.315596  0.925848  1
  I  I15  1  0.925848  0.770419  0.315596  1
  I  I16  1  0.315596  0.925848  0.770419  1
  I  I17  1  0.229581  0.684404  0.074152  1
  I  I18  1  0.074152  0.229581  0.684404  1
  I  I19  1  0.684404  0.074152  0.229581  1
