# generated using pymatgen
data_Sc2B2SbIrRh4
_symmetry_space_group_name_H-M   'P 1'
_cell_length_a   9.34948700
_cell_length_b   9.34948700
_cell_length_c   3.26238400
_cell_angle_alpha   90.00000000
_cell_angle_beta   90.00000000
_cell_angle_gamma   90.00000000
_symmetry_Int_Tables_number   1
_chemical_formula_structural   Sc2B2SbIrRh4
_chemical_formula_sum   'Sc4 B4 Sb2 Ir2 Rh8'
_cell_volume   285.17446972
_cell_formula_units_Z   2
loop_
 _symmetry_equiv_pos_site_id
 _symmetry_equiv_pos_as_xyz
  1  'x, y, z'
loop_
 _atom_site_type_symbol
 _atom_site_label
 _atom_site_symmetry_multiplicity
 _atom_site_fract_x
 _atom_site_fract_y
 _atom_site_fract_z
 _atom_site_occupancy
  Sc  Sc0  1  0.825581  0.325581  0.000000  1
  Sc  Sc1  1  0.325581  0.174419  0.000000  1
  Sc  Sc2  1  0.674419  0.825581  0.000000  1
  Sc  Sc3  1  0.174419  0.674419  0.000000  1
  B  B4  1  0.619781  0.119781  0.000000  1
  B  B5  1  0.119781  0.380219  0.000000  1
  B  B6  1  0.880219  0.619781  0.000000  1
  B  B7  1  0.380219  0.880219  0.000000  1
  Sb  Sb8  1  0.000000  0.000000  0.000000  1
  Sb  Sb9  1  0.500000  0.500000  0.000000  1
  Ir  Ir10  1  0.500000  0.000000  0.500000  1
  Ir  Ir11  1  0.000000  0.500000  0.500000  1
  Rh  Rh12  1  0.072877  0.221275  0.500000  1
  Rh  Rh13  1  0.221275  0.927123  0.500000  1
  Rh  Rh14  1  0.778725  0.072877  0.500000  1
  Rh  Rh15  1  0.927123  0.778725  0.500000  1
  Rh  Rh16  1  0.427123  0.721275  0.500000  1
  Rh  Rh17  1  0.572877  0.278725  0.500000  1
  Rh  Rh18  1  0.721275  0.572877  0.500000  1
  Rh  Rh19  1  0.278725  0.427123  0.500000  1
