# generated using pymatgen
data_Tb14Th6(Ir3Ru)3
_symmetry_space_group_name_H-M   'P 1'
_cell_length_a   11.08018453
_cell_length_b   11.04039903
_cell_length_c   6.42239232
_cell_angle_alpha   89.99143674
_cell_angle_beta   89.96473559
_cell_angle_gamma   90.00264579
_symmetry_Int_Tables_number   1
_chemical_formula_structural   Tb14Th6(Ir3Ru)3
_chemical_formula_sum   'Tb14 Th6 Ir9 Ru3'
_cell_volume   785.64890143
_cell_formula_units_Z   1
loop_
 _symmetry_equiv_pos_site_id
 _symmetry_equiv_pos_as_xyz
  1  'x, y, z'
loop_
 _atom_site_type_symbol
 _atom_site_label
 _atom_site_symmetry_multiplicity
 _atom_site_fract_x
 _atom_site_fract_y
 _atom_site_fract_z
 _atom_site_occupancy
  Tb  Tb0  1  0.406927  0.787292  0.377449  1
  Tb  Tb1  1  0.407950  0.212675  0.878109  1
  Tb  Tb2  1  0.206322  0.413449  0.621624  1
  Tb  Tb3  1  0.206209  0.586602  0.117962  1
  Tb  Tb4  1  0.794632  0.414578  0.113595  1
  Tb  Tb5  1  0.794603  0.585665  0.616755  1
  Tb  Tb6  1  0.915320  0.705083  0.112516  1
  Tb  Tb7  1  0.915271  0.294859  0.615711  1
  Tb  Tb8  1  0.086388  0.705205  0.617167  1
  Tb  Tb9  1  0.086219  0.294961  0.113912  1
  Tb  Tb10  1  0.998571  0.998612  0.503820  1
  Tb  Tb11  1  0.998470  0.001580  0.003763  1
  Tb  Tb12  1  0.498801  0.495087  0.008663  1
  Tb  Tb13  1  0.499388  0.504770  0.508689  1
  Th  Th14  1  0.291591  0.089872  0.380082  1
  Th  Th15  1  0.291454  0.911406  0.881136  1
  Th  Th16  1  0.707536  0.094483  0.879552  1
  Th  Th17  1  0.707701  0.904446  0.378907  1
  Th  Th18  1  0.588036  0.788758  0.882554  1
  Th  Th19  1  0.589169  0.211168  0.382144  1
  Ir  Ir20  1  0.841178  0.151024  0.250535  1
  Ir  Ir21  1  0.840926  0.848845  0.750102  1
  Ir  Ir22  1  0.156900  0.148513  0.746845  1
  Ir  Ir23  1  0.156256  0.851335  0.246833  1
  Ir  Ir24  1  0.653464  0.344453  0.746374  1
  Ir  Ir25  1  0.653797  0.655107  0.245858  1
  Ir  Ir26  1  0.349788  0.342028  0.262549  1
  Ir  Ir27  1  0.350004  0.658333  0.761607  1
  Ir  Ir28  1  0.001544  0.500301  0.376942  1
  Ru  Ru29  1  0.501817  0.002675  0.120261  1
  Ru  Ru30  1  0.502093  0.997321  0.620325  1
  Ru  Ru31  1  0.001675  0.499514  0.877655  1
