# generated using pymatgen
data_Nb2As2H
_symmetry_space_group_name_H-M   'P 1'
_cell_length_a   4.93178650
_cell_length_b   4.93183842
_cell_length_c   6.03546116
_cell_angle_alpha   127.76953082
_cell_angle_beta   127.76757571
_cell_angle_gamma   89.95528768
_symmetry_Int_Tables_number   1
_chemical_formula_structural   Nb2As2H
_chemical_formula_sum   'Nb2 As2 H1'
_cell_volume   73.44915370
_cell_formula_units_Z   1
loop_
 _symmetry_equiv_pos_site_id
 _symmetry_equiv_pos_as_xyz
  1  'x, y, z'
loop_
 _atom_site_type_symbol
 _atom_site_label
 _atom_site_symmetry_multiplicity
 _atom_site_fract_x
 _atom_site_fract_y
 _atom_site_fract_z
 _atom_site_occupancy
  Nb  Nb0  1  0.396732  0.829856  0.663477  1
  Nb  Nb1  1  0.896022  0.329705  0.667761  1
  As  As2  1  0.649226  0.577723  0.332797  1
  As  As3  1  0.144349  0.082664  0.333422  1
  H  H4  1  0.899148  0.326665  0.998557  1
