# generated using pymatgen
data_La6DyY3(Sn5Ir2)4
_symmetry_space_group_name_H-M   'P 1'
_cell_length_a   14.18424305
_cell_length_b   14.18429305
_cell_length_c   4.65685700
_cell_angle_alpha   90.00000000
_cell_angle_beta   90.00000000
_cell_angle_gamma   89.99007926
_symmetry_Int_Tables_number   1
_chemical_formula_structural   La6DyY3(Sn5Ir2)4
_chemical_formula_sum   'La6 Dy1 Y3 Sn20 Ir8'
_cell_volume   936.92915946
_cell_formula_units_Z   1
loop_
 _symmetry_equiv_pos_site_id
 _symmetry_equiv_pos_as_xyz
  1  'x, y, z'
loop_
 _atom_site_type_symbol
 _atom_site_label
 _atom_site_symmetry_multiplicity
 _atom_site_fract_x
 _atom_site_fract_y
 _atom_site_fract_z
 _atom_site_occupancy
  La  La0  1  0.500000  0.499981  0.000000  1
  La  La1  1  0.999981  0.999999  0.000000  1
  La  La2  1  0.887028  0.387027  0.500000  1
  La  La3  1  0.112953  0.612952  0.500000  1
  La  La4  1  0.387042  0.112970  0.500000  1
  La  La5  1  0.612972  0.887044  0.500000  1
  Dy  Dy6  1  0.675636  0.175636  0.500000  1
  Y  Y7  1  0.324334  0.824334  0.500000  1
  Y  Y8  1  0.175659  0.324323  0.500000  1
  Y  Y9  1  0.824322  0.675660  0.500000  1
  Sn  Sn10  1  0.570107  0.070108  0.000000  1
  Sn  Sn11  1  0.429937  0.929938  0.000000  1
  Sn  Sn12  1  0.070070  0.429936  0.000000  1
  Sn  Sn13  1  0.929936  0.570071  0.000000  1
  Sn  Sn14  1  0.655512  0.698223  0.000000  1
  Sn  Sn15  1  0.344507  0.301784  0.000000  1
  Sn  Sn16  1  0.155493  0.801779  0.000000  1
  Sn  Sn17  1  0.844454  0.198239  0.000000  1
  Sn  Sn18  1  0.301779  0.655493  0.000000  1
  Sn  Sn19  1  0.698238  0.344454  0.000000  1
  Sn  Sn20  1  0.198224  0.155512  0.000000  1
  Sn  Sn21  1  0.801783  0.844507  0.000000  1
  Sn  Sn22  1  0.663443  0.506053  0.500000  1
  Sn  Sn23  1  0.336575  0.493912  0.500000  1
  Sn  Sn24  1  0.163433  0.993941  0.500000  1
  Sn  Sn25  1  0.836544  0.006075  0.500000  1
  Sn  Sn26  1  0.493940  0.663433  0.500000  1
  Sn  Sn27  1  0.506076  0.336545  0.500000  1
  Sn  Sn28  1  0.006053  0.163442  0.500000  1
  Sn  Sn29  1  0.993912  0.836575  0.500000  1
  Ir  Ir30  1  0.747194  0.529331  0.000000  1
  Ir  Ir31  1  0.252802  0.470690  0.000000  1
  Ir  Ir32  1  0.247197  0.970667  0.000000  1
  Ir  Ir33  1  0.752755  0.029420  0.000000  1
  Ir  Ir34  1  0.470666  0.747197  0.000000  1
  Ir  Ir35  1  0.529421  0.252755  0.000000  1
  Ir  Ir36  1  0.029329  0.247194  0.000000  1
  Ir  Ir37  1  0.970689  0.752802  0.000000  1
