# generated using pymatgen
data_LiNd2Ge2(PPd5)4
_symmetry_space_group_name_H-M   'P 1'
_cell_length_a   8.66786947
_cell_length_b   8.77505026
_cell_length_c   8.77505072
_cell_angle_alpha   59.19353829
_cell_angle_beta   60.40322361
_cell_angle_gamma   60.40322025
_symmetry_Int_Tables_number   1
_chemical_formula_structural   LiNd2Ge2(PPd5)4
_chemical_formula_sum   'Li1 Nd2 Ge2 P4 Pd20'
_cell_volume   471.81148785
_cell_formula_units_Z   1
loop_
 _symmetry_equiv_pos_site_id
 _symmetry_equiv_pos_as_xyz
  1  'x, y, z'
loop_
 _atom_site_type_symbol
 _atom_site_label
 _atom_site_symmetry_multiplicity
 _atom_site_fract_x
 _atom_site_fract_y
 _atom_site_fract_z
 _atom_site_occupancy
  Li  Li0  1  0.000000  0.000000  0.000000  1
  Nd  Nd1  1  0.250000  0.250000  0.250000  1
  Nd  Nd2  1  0.750000  0.750000  0.750000  1
  Ge  Ge3  1  0.739175  0.260825  0.260825  1
  Ge  Ge4  1  0.260825  0.739175  0.739175  1
  P  P5  1  0.262503  0.737497  0.262503  1
  P  P6  1  0.737497  0.262503  0.737497  1
  P  P7  1  0.262503  0.262503  0.737497  1
  P  P8  1  0.737497  0.737497  0.262503  1
  Pd  Pd9  1  0.379221  0.388892  0.388892  1
  Pd  Pd10  1  0.620779  0.611108  0.611108  1
  Pd  Pd11  1  0.388892  0.379221  0.842996  1
  Pd  Pd12  1  0.388892  0.842996  0.379221  1
  Pd  Pd13  1  0.611108  0.620779  0.157004  1
  Pd  Pd14  1  0.611108  0.157004  0.620779  1
  Pd  Pd15  1  0.842996  0.388892  0.388892  1
  Pd  Pd16  1  0.157004  0.611108  0.611108  1
  Pd  Pd17  1  0.342795  0.000000  0.000000  1
  Pd  Pd18  1  0.657205  0.000000  0.000000  1
  Pd  Pd19  1  0.000000  0.342795  0.657205  1
  Pd  Pd20  1  0.000000  0.657205  0.342795  1
  Pd  Pd21  1  0.010296  0.346949  0.989704  1
  Pd  Pd22  1  0.653051  0.989704  0.346949  1
  Pd  Pd23  1  0.989704  0.653051  0.010296  1
  Pd  Pd24  1  0.346949  0.010296  0.653051  1
  Pd  Pd25  1  0.010296  0.989704  0.346949  1
  Pd  Pd26  1  0.989704  0.010296  0.653051  1
  Pd  Pd27  1  0.653051  0.346949  0.989704  1
  Pd  Pd28  1  0.346949  0.653051  0.010296  1
