# generated using pymatgen
data_Tm4Lu16ZnBi11
_symmetry_space_group_name_H-M   'P 1'
_cell_length_a   8.07780607
_cell_length_b   9.36450000
_cell_length_c   11.76781100
_cell_angle_alpha   90.00000000
_cell_angle_beta   89.71766957
_cell_angle_gamma   90.00000000
_symmetry_Int_Tables_number   1
_chemical_formula_structural   Tm4Lu16ZnBi11
_chemical_formula_sum   'Tm4 Lu16 Zn1 Bi11'
_cell_volume   890.16072453
_cell_formula_units_Z   1
loop_
 _symmetry_equiv_pos_site_id
 _symmetry_equiv_pos_as_xyz
  1  'x, y, z'
loop_
 _atom_site_type_symbol
 _atom_site_label
 _atom_site_symmetry_multiplicity
 _atom_site_fract_x
 _atom_site_fract_y
 _atom_site_fract_z
 _atom_site_occupancy
  Tm  Tm0  1  0.194922  0.250000  0.777778  1
  Tm  Tm1  1  0.809171  0.750000  0.216733  1
  Tm  Tm2  1  0.312545  0.750000  0.282564  1
  Tm  Tm3  1  0.673929  0.250000  0.709652  1
  Lu  Lu4  1  0.036336  0.250000  0.508398  1
  Lu  Lu5  1  0.981214  0.750000  0.491170  1
  Lu  Lu6  1  0.477381  0.750000  0.010464  1
  Lu  Lu7  1  0.524676  0.250000  0.989630  1
  Lu  Lu8  1  0.353396  0.250000  0.294595  1
  Lu  Lu9  1  0.651612  0.750000  0.717911  1
  Lu  Lu10  1  0.148825  0.750000  0.780738  1
  Lu  Lu11  1  0.851407  0.250000  0.216552  1
  Lu  Lu12  1  0.192982  0.067689  0.061126  1
  Lu  Lu13  1  0.808039  0.932630  0.940668  1
  Lu  Lu14  1  0.309485  0.950547  0.558509  1
  Lu  Lu15  1  0.808039  0.567370  0.940668  1
  Lu  Lu16  1  0.682591  0.073446  0.445204  1
  Lu  Lu17  1  0.192982  0.432311  0.061126  1
  Lu  Lu18  1  0.682591  0.426554  0.445204  1
  Lu  Lu19  1  0.309485  0.549453  0.558509  1
  Zn  Zn20  1  0.404686  0.250000  0.539014  1
  Bi  Bi21  1  0.596891  0.750000  0.458480  1
  Bi  Bi22  1  0.098340  0.750000  0.042382  1
  Bi  Bi23  1  0.904751  0.250000  0.953861  1
  Bi  Bi24  1  0.060400  0.002393  0.323477  1
  Bi  Bi25  1  0.936591  0.998252  0.675706  1
  Bi  Bi26  1  0.437212  0.995453  0.825032  1
  Bi  Bi27  1  0.936591  0.501748  0.675706  1
  Bi  Bi28  1  0.562659  0.004621  0.175316  1
  Bi  Bi29  1  0.060400  0.497607  0.323477  1
  Bi  Bi30  1  0.562659  0.495379  0.175316  1
  Bi  Bi31  1  0.437212  0.504547  0.825032  1
