# generated using pymatgen
data_DyHo3Al17SiRh6
_symmetry_space_group_name_H-M   'P 1'
_cell_length_a   7.54063333
_cell_length_b   7.52263858
_cell_length_c   9.44725630
_cell_angle_alpha   89.99815435
_cell_angle_beta   89.92431770
_cell_angle_gamma   119.54903877
_symmetry_Int_Tables_number   1
_chemical_formula_structural   DyHo3Al17SiRh6
_chemical_formula_sum   'Dy1 Ho3 Al17 Si1 Rh6'
_cell_volume   466.19699405
_cell_formula_units_Z   1
loop_
 _symmetry_equiv_pos_site_id
 _symmetry_equiv_pos_as_xyz
  1  'x, y, z'
loop_
 _atom_site_type_symbol
 _atom_site_label
 _atom_site_symmetry_multiplicity
 _atom_site_fract_x
 _atom_site_fract_y
 _atom_site_fract_z
 _atom_site_occupancy
  Dy  Dy0  1  0.328492  0.005041  0.250373  1
  Ho  Ho1  1  0.994045  0.663427  0.746981  1
  Ho  Ho2  1  0.005064  0.329270  0.255253  1
  Ho  Ho3  1  0.676789  0.002659  0.746708  1
  Al  Al4  1  0.127579  0.127266  0.749527  1
  Al  Al5  1  0.871126  0.873260  0.249423  1
  Al  Al6  1  0.998143  0.668803  0.423480  1
  Al  Al7  1  0.999458  0.665084  0.074335  1
  Al  Al8  1  0.334453  0.999001  0.924173  1
  Al  Al9  1  0.001817  0.334992  0.929953  1
  Al  Al10  1  0.664620  0.999556  0.074315  1
  Al  Al11  1  0.660061  0.994889  0.422964  1
  Al  Al12  1  0.334127  0.999362  0.576118  1
  Al  Al13  1  0.333877  0.332994  0.052138  1
  Al  Al14  1  0.668055  0.668516  0.947758  1
  Al  Al15  1  0.667021  0.667851  0.553274  1
  Al  Al16  1  0.336383  0.333661  0.448890  1
  Al  Al17  1  0.340635  0.550702  0.750186  1
  Al  Al18  1  0.661287  0.450348  0.250298  1
  Al  Al19  1  0.546409  0.339533  0.749786  1
  Al  Al20  1  0.449357  0.657952  0.249421  1
  Si  Si21  1  0.002288  0.335121  0.575474  1
  Rh  Rh22  1  0.680541  0.328657  0.502260  1
  Rh  Rh23  1  0.319476  0.664019  0.500137  1
  Rh  Rh24  1  0.327453  0.671391  0.999255  1
  Rh  Rh25  1  0.672704  0.328287  0.998582  1
  Rh  Rh26  1  0.998749  0.007470  0.499863  1
  Rh  Rh27  1  0.999989  0.000887  0.999078  1
