# generated using pymatgen
data_Pr2AlAg6
_symmetry_space_group_name_H-M   'P 1'
_cell_length_a   5.48125781
_cell_length_b   5.48125950
_cell_length_c   14.33408900
_cell_angle_alpha   90.00000000
_cell_angle_beta   90.00000000
_cell_angle_gamma   116.98946149
_symmetry_Int_Tables_number   1
_chemical_formula_structural   Pr2AlAg6
_chemical_formula_sum   'Pr4 Al2 Ag12'
_cell_volume   383.75342643
_cell_formula_units_Z   2
loop_
 _symmetry_equiv_pos_site_id
 _symmetry_equiv_pos_as_xyz
  1  'x, y, z'
loop_
 _atom_site_type_symbol
 _atom_site_label
 _atom_site_symmetry_multiplicity
 _atom_site_fract_x
 _atom_site_fract_y
 _atom_site_fract_z
 _atom_site_occupancy
  Pr  Pr0  1  0.322802  0.322802  0.116924  1
  Pr  Pr1  1  0.677198  0.677198  0.616924  1
  Pr  Pr2  1  0.322802  0.322802  0.383076  1
  Pr  Pr3  1  0.677198  0.677198  0.883076  1
  Al  Al4  1  0.826819  0.826819  0.250000  1
  Al  Al5  1  0.173181  0.173181  0.750000  1
  Ag  Ag6  1  0.829727  0.333838  0.250000  1
  Ag  Ag7  1  0.170273  0.666162  0.750000  1
  Ag  Ag8  1  0.333838  0.829727  0.250000  1
  Ag  Ag9  1  0.666162  0.170273  0.750000  1
  Ag  Ag10  1  0.989920  0.669102  0.076096  1
  Ag  Ag11  1  0.010080  0.330898  0.576096  1
  Ag  Ag12  1  0.669102  0.989920  0.423904  1
  Ag  Ag13  1  0.330898  0.010080  0.923904  1
  Ag  Ag14  1  0.010080  0.330898  0.923904  1
  Ag  Ag15  1  0.989920  0.669102  0.423904  1
  Ag  Ag16  1  0.330898  0.010080  0.576096  1
  Ag  Ag17  1  0.669102  0.989920  0.076096  1
