# generated using pymatgen
data_HoTa5NbSn6
_symmetry_space_group_name_H-M   'P 1'
_cell_length_a   5.78841000
_cell_length_b   5.78841096
_cell_length_c   9.59093900
_cell_angle_alpha   90.00000000
_cell_angle_beta   90.00000000
_cell_angle_gamma   120.01299295
_symmetry_Int_Tables_number   1
_chemical_formula_structural   HoTa5NbSn6
_chemical_formula_sum   'Ho1 Ta5 Nb1 Sn6'
_cell_volume   278.26176020
_cell_formula_units_Z   1
loop_
 _symmetry_equiv_pos_site_id
 _symmetry_equiv_pos_as_xyz
  1  'x, y, z'
loop_
 _atom_site_type_symbol
 _atom_site_label
 _atom_site_symmetry_multiplicity
 _atom_site_fract_x
 _atom_site_fract_y
 _atom_site_fract_z
 _atom_site_occupancy
  Ho  Ho0  1  0.000000  0.000000  0.999971  1
  Ta  Ta1  1  0.000000  0.500000  0.750743  1
  Ta  Ta2  1  0.500000  0.500000  0.750604  1
  Ta  Ta3  1  0.500000  0.000000  0.750743  1
  Ta  Ta4  1  0.000000  0.500000  0.249378  1
  Ta  Ta5  1  0.500000  0.000000  0.249378  1
  Nb  Nb6  1  0.500000  0.500000  0.249470  1
  Sn  Sn7  1  0.666851  0.333149  0.499995  1
  Sn  Sn8  1  0.333149  0.666851  0.499995  1
  Sn  Sn9  1  0.666682  0.333318  0.000040  1
  Sn  Sn10  1  0.333318  0.666682  0.000040  1
  Sn  Sn11  1  0.000000  0.000000  0.668553  1
  Sn  Sn12  1  0.000000  0.000000  0.331088  1
