# generated using pymatgen
data_Er2Co3Ni
_symmetry_space_group_name_H-M   'P 1'
_cell_length_a   4.96773637
_cell_length_b   5.11018267
_cell_length_c   4.96773600
_cell_angle_alpha   60.91789409
_cell_angle_beta   60.00000245
_cell_angle_gamma   60.91789330
_symmetry_Int_Tables_number   1
_chemical_formula_structural   Er2Co3Ni
_chemical_formula_sum   'Er2 Co3 Ni1'
_cell_volume   90.39128376
_cell_formula_units_Z   1
loop_
 _symmetry_equiv_pos_site_id
 _symmetry_equiv_pos_as_xyz
  1  'x, y, z'
loop_
 _atom_site_type_symbol
 _atom_site_label
 _atom_site_symmetry_multiplicity
 _atom_site_fract_x
 _atom_site_fract_y
 _atom_site_fract_z
 _atom_site_occupancy
  Er  Er0  1  0.247278  0.258165  0.247278  1
  Er  Er1  1  0.002722  0.991835  0.002722  1
  Co  Co2  1  0.625000  0.625000  0.125000  1
  Co  Co3  1  0.125000  0.625000  0.625000  1
  Co  Co4  1  0.625000  0.625000  0.625000  1
  Ni  Ni5  1  0.625000  0.125000  0.625000  1
