# generated using pymatgen
data_HoTm11In2Fe2Ir
_symmetry_space_group_name_H-M   'P 1'
_cell_length_a   8.27926231
_cell_length_b   8.27275359
_cell_length_c   8.27926303
_cell_angle_alpha   108.68322495
_cell_angle_beta   108.77123537
_cell_angle_gamma   111.00242750
_symmetry_Int_Tables_number   1
_chemical_formula_structural   HoTm11In2Fe2Ir
_chemical_formula_sum   'Ho1 Tm11 In2 Fe2 Ir1'
_cell_volume   436.12115482
_cell_formula_units_Z   1
loop_
 _symmetry_equiv_pos_site_id
 _symmetry_equiv_pos_as_xyz
  1  'x, y, z'
loop_
 _atom_site_type_symbol
 _atom_site_label
 _atom_site_symmetry_multiplicity
 _atom_site_fract_x
 _atom_site_fract_y
 _atom_site_fract_z
 _atom_site_occupancy
  Ho  Ho0  1  0.194118  0.433625  0.239508  1
  Tm  Tm1  1  0.806263  0.567661  0.761398  1
  Tm  Tm2  1  0.193574  0.954653  0.761078  1
  Tm  Tm3  1  0.954472  0.193279  0.760543  1
  Tm  Tm4  1  0.805995  0.044783  0.238789  1
  Tm  Tm5  1  0.044978  0.806669  0.238739  1
  Tm  Tm6  1  0.432736  0.193279  0.238808  1
  Tm  Tm7  1  0.567930  0.806669  0.761690  1
  Tm  Tm8  1  0.307956  0.307726  0.615997  1
  Tm  Tm9  1  0.692920  0.692453  0.384518  1
  Tm  Tm10  1  0.691730  0.307726  0.999769  1
  Tm  Tm11  1  0.307934  0.692453  0.999533  1
  In  In12  1  0.999425  0.500040  0.500615  1
  In  In13  1  0.499999  0.999982  0.499984  1
  Fe  Fe14  1  0.385876  0.385655  0.999779  1
  Fe  Fe15  1  0.614639  0.614583  0.999944  1
  Ir  Ir16  1  0.999455  0.998764  0.999308  1
