# generated using pymatgen
data_AcSeCl
_symmetry_space_group_name_H-M   'P 1'
_cell_length_a   4.51101800
_cell_length_b   7.87780400
_cell_length_c   9.42648900
_cell_angle_alpha   90.00000000
_cell_angle_beta   90.00000000
_cell_angle_gamma   90.00000000
_symmetry_Int_Tables_number   1
_chemical_formula_structural   AcSeCl
_chemical_formula_sum   'Ac4 Se4 Cl4'
_cell_volume   334.98834442
_cell_formula_units_Z   4
loop_
 _symmetry_equiv_pos_site_id
 _symmetry_equiv_pos_as_xyz
  1  'x, y, z'
loop_
 _atom_site_type_symbol
 _atom_site_label
 _atom_site_symmetry_multiplicity
 _atom_site_fract_x
 _atom_site_fract_y
 _atom_site_fract_z
 _atom_site_occupancy
  Ac  Ac0  1  0.250000  0.259739  0.368831  1
  Ac  Ac1  1  0.250000  0.759739  0.131169  1
  Ac  Ac2  1  0.750000  0.740261  0.631169  1
  Ac  Ac3  1  0.750000  0.240261  0.868831  1
  Se  Se4  1  0.250000  0.458354  0.672082  1
  Se  Se5  1  0.250000  0.958354  0.827918  1
  Se  Se6  1  0.750000  0.541646  0.327918  1
  Se  Se7  1  0.750000  0.041646  0.172082  1
  Cl  Cl8  1  0.250000  0.865801  0.440384  1
  Cl  Cl9  1  0.250000  0.365801  0.059616  1
  Cl  Cl10  1  0.750000  0.134199  0.559616  1
  Cl  Cl11  1  0.750000  0.634199  0.940384  1
