# generated using pymatgen
data_CePr6Nd9(CdIr)4
_symmetry_space_group_name_H-M   'P 1'
_cell_length_a   9.95674916
_cell_length_b   9.95674875
_cell_length_c   9.95674877
_cell_angle_alpha   59.63482870
_cell_angle_beta   59.63483067
_cell_angle_gamma   59.63483101
_symmetry_Int_Tables_number   1
_chemical_formula_structural   CePr6Nd9(CdIr)4
_chemical_formula_sum   'Ce1 Pr6 Nd9 Cd4 Ir4'
_cell_volume   692.17961181
_cell_formula_units_Z   1
loop_
 _symmetry_equiv_pos_site_id
 _symmetry_equiv_pos_as_xyz
  1  'x, y, z'
loop_
 _atom_site_type_symbol
 _atom_site_label
 _atom_site_symmetry_multiplicity
 _atom_site_fract_x
 _atom_site_fract_y
 _atom_site_fract_z
 _atom_site_occupancy
  Ce  Ce0  1  0.343776  0.343776  0.343776  1
  Pr  Pr1  1  0.942403  0.560812  0.560812  1
  Pr  Pr2  1  0.558758  0.939525  0.939525  1
  Pr  Pr3  1  0.560812  0.942403  0.560812  1
  Pr  Pr4  1  0.939525  0.558758  0.939525  1
  Pr  Pr5  1  0.560812  0.560812  0.942403  1
  Pr  Pr6  1  0.939525  0.939525  0.558758  1
  Nd  Nd7  1  0.349211  0.349211  0.952352  1
  Nd  Nd8  1  0.349211  0.952352  0.349211  1
  Nd  Nd9  1  0.952352  0.349211  0.349211  1
  Nd  Nd10  1  0.810511  0.189662  0.189662  1
  Nd  Nd11  1  0.189082  0.809346  0.809346  1
  Nd  Nd12  1  0.189662  0.810511  0.189662  1
  Nd  Nd13  1  0.809346  0.189082  0.809346  1
  Nd  Nd14  1  0.189662  0.189662  0.810511  1
  Nd  Nd15  1  0.809346  0.809346  0.189082  1
  Cd  Cd16  1  0.579708  0.579708  0.579708  1
  Cd  Cd17  1  0.578590  0.578590  0.261340  1
  Cd  Cd18  1  0.578590  0.261340  0.578590  1
  Cd  Cd19  1  0.261340  0.578590  0.578590  1
  Ir  Ir20  1  0.142118  0.142118  0.142118  1
  Ir  Ir21  1  0.147008  0.147008  0.571643  1
  Ir  Ir22  1  0.147008  0.571643  0.147008  1
  Ir  Ir23  1  0.571643  0.147008  0.147008  1
