# generated using pymatgen
data_Dy2YTm(CrB4)4
_symmetry_space_group_name_H-M   'P 1'
_cell_length_a   3.43945800
_cell_length_b   5.93117326
_cell_length_c   11.45994712
_cell_angle_alpha   89.95436755
_cell_angle_beta   90.00000000
_cell_angle_gamma   90.00000000
_symmetry_Int_Tables_number   1
_chemical_formula_structural   Dy2YTm(CrB4)4
_chemical_formula_sum   'Dy2 Y1 Tm1 Cr4 B16'
_cell_volume   233.78309129
_cell_formula_units_Z   1
loop_
 _symmetry_equiv_pos_site_id
 _symmetry_equiv_pos_as_xyz
  1  'x, y, z'
loop_
 _atom_site_type_symbol
 _atom_site_label
 _atom_site_symmetry_multiplicity
 _atom_site_fract_x
 _atom_site_fract_y
 _atom_site_fract_z
 _atom_site_occupancy
  Dy  Dy0  1  0.000000  0.375349  0.651140  1
  Dy  Dy1  1  0.000000  0.124646  0.150540  1
  Y  Y2  1  0.000000  0.624671  0.349179  1
  Tm  Tm3  1  0.000000  0.875230  0.849302  1
  Cr  Cr4  1  0.000000  0.624550  0.080299  1
  Cr  Cr5  1  0.000000  0.375645  0.918634  1
  Cr  Cr6  1  0.000000  0.124198  0.419450  1
  Cr  Cr7  1  0.000000  0.875832  0.581608  1
  B  B8  1  0.500000  0.781541  0.183663  1
  B  B9  1  0.500000  0.217188  0.815885  1
  B  B10  1  0.500000  0.281293  0.315834  1
  B  B11  1  0.500000  0.718800  0.685054  1
  B  B12  1  0.500000  0.863074  0.031464  1
  B  B13  1  0.500000  0.136613  0.966970  1
  B  B14  1  0.500000  0.362690  0.468002  1
  B  B15  1  0.500000  0.637474  0.532933  1
  B  B16  1  0.500000  0.887108  0.453622  1
  B  B17  1  0.500000  0.112821  0.547286  1
  B  B18  1  0.500000  0.387070  0.046168  1
  B  B19  1  0.500000  0.614145  0.952460  1
  B  B20  1  0.500000  0.975552  0.308566  1
  B  B21  1  0.500000  0.023924  0.692490  1
  B  B22  1  0.500000  0.475230  0.191049  1
  B  B23  1  0.500000  0.525354  0.808401  1
