# generated using pymatgen
data_Nd7SmSiPd24
_symmetry_space_group_name_H-M   'P 1'
_cell_length_a   8.46813901
_cell_length_b   8.46813901
_cell_length_c   8.46813901
_cell_angle_alpha   89.99538547
_cell_angle_beta   90.00461453
_cell_angle_gamma   90.00461453
_symmetry_Int_Tables_number   1
_chemical_formula_structural   Nd7SmSiPd24
_chemical_formula_sum   'Nd7 Sm1 Si1 Pd24'
_cell_volume   607.24497860
_cell_formula_units_Z   1
loop_
 _symmetry_equiv_pos_site_id
 _symmetry_equiv_pos_as_xyz
  1  'x, y, z'
loop_
 _atom_site_type_symbol
 _atom_site_label
 _atom_site_symmetry_multiplicity
 _atom_site_fract_x
 _atom_site_fract_y
 _atom_site_fract_z
 _atom_site_occupancy
  Nd  Nd0  1  0.253488  0.253444  0.253444  1
  Nd  Nd1  1  0.746551  0.746573  0.746573  1
  Nd  Nd2  1  0.746556  0.746512  0.253444  1
  Nd  Nd3  1  0.746556  0.253444  0.746512  1
  Nd  Nd4  1  0.253427  0.253449  0.746573  1
  Nd  Nd5  1  0.253427  0.746573  0.253449  1
  Nd  Nd6  1  0.253454  0.746546  0.746546  1
  Sm  Sm7  1  0.746512  0.253488  0.253488  1
  Si  Si8  1  0.999986  0.000014  0.000014  1
  Pd  Pd9  1  0.257165  0.499994  0.000016  1
  Pd  Pd10  1  0.742824  0.499519  0.000517  1
  Pd  Pd11  1  0.999483  0.257176  0.499519  1
  Pd  Pd12  1  0.500481  0.257176  0.000517  1
  Pd  Pd13  1  0.999984  0.742835  0.499994  1
  Pd  Pd14  1  0.500006  0.742835  0.000016  1
  Pd  Pd15  1  0.500481  0.000517  0.257176  1
  Pd  Pd16  1  0.257165  0.000016  0.499994  1
  Pd  Pd17  1  0.500006  0.000016  0.742835  1
  Pd  Pd18  1  0.742824  0.000517  0.499519  1
  Pd  Pd19  1  0.999483  0.499519  0.257176  1
  Pd  Pd20  1  0.999984  0.499994  0.742835  1
  Pd  Pd21  1  0.251965  0.499979  0.499979  1
  Pd  Pd22  1  0.748025  0.499456  0.499456  1
  Pd  Pd23  1  0.500544  0.251975  0.499456  1
  Pd  Pd24  1  0.500021  0.748035  0.499979  1
  Pd  Pd25  1  0.500544  0.499456  0.251975  1
  Pd  Pd26  1  0.500021  0.499979  0.748035  1
  Pd  Pd27  1  0.280528  0.000012  0.000012  1
  Pd  Pd28  1  0.719571  0.000519  0.000519  1
  Pd  Pd29  1  0.999481  0.280429  0.000519  1
  Pd  Pd30  1  0.999988  0.719472  0.000012  1
  Pd  Pd31  1  0.999481  0.000519  0.280429  1
  Pd  Pd32  1  0.999988  0.000012  0.719472  1
