# generated using pymatgen
data_Sc5GaNi2(BIr2)4
_symmetry_space_group_name_H-M   'P 1'
_cell_length_a   3.11280900
_cell_length_b   9.31231600
_cell_length_c   9.31231600
_cell_angle_alpha   90.00000000
_cell_angle_beta   90.00000000
_cell_angle_gamma   90.00000000
_symmetry_Int_Tables_number   1
_chemical_formula_structural   Sc5GaNi2(BIr2)4
_chemical_formula_sum   'Sc5 Ga1 Ni2 B4 Ir8'
_cell_volume   269.94039739
_cell_formula_units_Z   1
loop_
 _symmetry_equiv_pos_site_id
 _symmetry_equiv_pos_as_xyz
  1  'x, y, z'
loop_
 _atom_site_type_symbol
 _atom_site_label
 _atom_site_symmetry_multiplicity
 _atom_site_fract_x
 _atom_site_fract_y
 _atom_site_fract_z
 _atom_site_occupancy
  Sc  Sc0  1  0.000000  0.177323  0.680386  1
  Sc  Sc1  1  0.000000  0.822677  0.319614  1
  Sc  Sc2  1  0.000000  0.319614  0.177323  1
  Sc  Sc3  1  0.000000  0.680386  0.822677  1
  Sc  Sc4  1  0.000000  0.500000  0.500000  1
  Ga  Ga5  1  0.000000  0.000000  0.000000  1
  Ni  Ni6  1  0.500000  0.000000  0.500000  1
  Ni  Ni7  1  0.500000  0.500000  0.000000  1
  B  B8  1  0.000000  0.614710  0.107769  1
  B  B9  1  0.000000  0.385290  0.892231  1
  B  B10  1  0.000000  0.892231  0.614710  1
  B  B11  1  0.000000  0.107769  0.385290  1
  Ir  Ir12  1  0.500000  0.061497  0.222481  1
  Ir  Ir13  1  0.500000  0.938503  0.777519  1
  Ir  Ir14  1  0.500000  0.777519  0.061497  1
  Ir  Ir15  1  0.500000  0.434192  0.730089  1
  Ir  Ir16  1  0.500000  0.222481  0.938503  1
  Ir  Ir17  1  0.500000  0.565808  0.269911  1
  Ir  Ir18  1  0.500000  0.730089  0.565808  1
  Ir  Ir19  1  0.500000  0.269911  0.434192  1
