# generated using pymatgen
data_SmYHf2Zr4F30
_symmetry_space_group_name_H-M   'P 1'
_cell_length_a   8.24171975
_cell_length_b   8.24171988
_cell_length_c   8.21950266
_cell_angle_alpha   79.69885962
_cell_angle_beta   79.69886157
_cell_angle_gamma   99.95887371
_symmetry_Int_Tables_number   1
_chemical_formula_structural   SmYHf2Zr4F30
_chemical_formula_sum   'Sm1 Y1 Hf2 Zr4 F30'
_cell_volume   528.21570630
_cell_formula_units_Z   1
loop_
 _symmetry_equiv_pos_site_id
 _symmetry_equiv_pos_as_xyz
  1  'x, y, z'
loop_
 _atom_site_type_symbol
 _atom_site_label
 _atom_site_symmetry_multiplicity
 _atom_site_fract_x
 _atom_site_fract_y
 _atom_site_fract_z
 _atom_site_occupancy
  Sm  Sm0  1  0.177801  0.822199  0.250000  1
  Y  Y1  1  0.821958  0.178042  0.750000  1
  Hf  Hf2  1  0.751645  0.248355  0.250000  1
  Hf  Hf3  1  0.248474  0.751526  0.750000  1
  Zr  Zr4  1  0.744705  0.677444  0.675669  1
  Zr  Zr5  1  0.322556  0.255295  0.824331  1
  Zr  Zr6  1  0.253445  0.322312  0.326041  1
  Zr  Zr7  1  0.677688  0.746555  0.173959  1
  F  F8  1  0.314907  0.349811  0.054873  1
  F  F9  1  0.933139  0.811470  0.148724  1
  F  F10  1  0.840671  0.461178  0.685786  1
  F  F11  1  0.465414  0.845093  0.182183  1
  F  F12  1  0.809515  0.933985  0.654121  1
  F  F13  1  0.350010  0.315283  0.553855  1
  F  F14  1  0.684717  0.649990  0.946144  1
  F  F15  1  0.066015  0.190485  0.845879  1
  F  F16  1  0.154907  0.534586  0.317817  1
  F  F17  1  0.538822  0.159329  0.814214  1
  F  F18  1  0.188530  0.066861  0.351276  1
  F  F19  1  0.650189  0.685093  0.445127  1
  F  F20  1  0.774565  0.277913  0.999910  1
  F  F21  1  0.002690  0.275065  0.221857  1
  F  F22  1  0.773775  0.502195  0.223182  1
  F  F23  1  0.502390  0.773292  0.723823  1
  F  F24  1  0.276197  0.002240  0.721677  1
  F  F25  1  0.282345  0.773010  0.500461  1
  F  F26  1  0.226990  0.717655  0.999539  1
  F  F27  1  0.997760  0.723803  0.778323  1
  F  F28  1  0.226708  0.497610  0.776177  1
  F  F29  1  0.497805  0.226225  0.276818  1
  F  F30  1  0.724935  0.997310  0.278143  1
  F  F31  1  0.722087  0.225435  0.500090  1
  F  F32  1  0.466531  0.533469  0.250000  1
  F  F33  1  0.747663  0.953459  0.970965  1
  F  F34  1  0.046541  0.252337  0.529035  1
  F  F35  1  0.253577  0.049854  0.025371  1
  F  F36  1  0.950146  0.746423  0.474629  1
  F  F37  1  0.532188  0.467812  0.750000  1
