# generated using pymatgen
data_Ca3HoAl18OsPd5
_symmetry_space_group_name_H-M   'P 1'
_cell_length_a   7.65438064
_cell_length_b   7.64491824
_cell_length_c   9.55276979
_cell_angle_alpha   90.05157726
_cell_angle_beta   90.11801967
_cell_angle_gamma   119.66924881
_symmetry_Int_Tables_number   1
_chemical_formula_structural   Ca3HoAl18OsPd5
_chemical_formula_sum   'Ca3 Ho1 Al18 Os1 Pd5'
_cell_volume   485.71183032
_cell_formula_units_Z   1
loop_
 _symmetry_equiv_pos_site_id
 _symmetry_equiv_pos_as_xyz
  1  'x, y, z'
loop_
 _atom_site_type_symbol
 _atom_site_label
 _atom_site_symmetry_multiplicity
 _atom_site_fract_x
 _atom_site_fract_y
 _atom_site_fract_z
 _atom_site_occupancy
  Ca  Ca0  1  0.994231  0.669066  0.248189  1
  Ca  Ca1  1  0.003578  0.329659  0.751223  1
  Ca  Ca2  1  0.671484  0.996132  0.248534  1
  Ho  Ho3  1  0.331089  0.002455  0.752674  1
  Al  Al4  1  0.130663  0.132820  0.249328  1
  Al  Al5  1  0.871757  0.870454  0.750420  1
  Al  Al6  1  0.994902  0.334412  0.073451  1
  Al  Al7  1  0.995277  0.658740  0.924118  1
  Al  Al8  1  0.998958  0.665924  0.578155  1
  Al  Al9  1  0.334005  0.001650  0.422902  1
  Al  Al10  1  0.001793  0.335413  0.425331  1
  Al  Al11  1  0.665067  0.998941  0.576846  1
  Al  Al12  1  0.666861  0.004336  0.924690  1
  Al  Al13  1  0.340373  0.004585  0.075548  1
  Al  Al14  1  0.333190  0.333211  0.557095  1
  Al  Al15  1  0.664668  0.665633  0.446953  1
  Al  Al16  1  0.667257  0.662067  0.046626  1
  Al  Al17  1  0.336277  0.331695  0.949481  1
  Al  Al18  1  0.338572  0.545091  0.249146  1
  Al  Al19  1  0.657077  0.451473  0.753360  1
  Al  Al20  1  0.547042  0.340388  0.245924  1
  Al  Al21  1  0.457521  0.665824  0.750814  1
  Os  Os22  1  0.669129  0.327300  0.998475  1
  Pd  Pd23  1  0.328393  0.671813  0.998705  1
  Pd  Pd24  1  0.327927  0.671980  0.501335  1
  Pd  Pd25  1  0.670057  0.328166  0.501031  1
  Pd  Pd26  1  0.001781  0.000330  0.998677  1
  Pd  Pd27  1  0.001073  0.000440  0.500970  1
