# generated using pymatgen
data_Dy4TiAl3Ir4
_symmetry_space_group_name_H-M   'P 1'
_cell_length_a   4.29130800
_cell_length_b   6.88586922
_cell_length_c   7.91543346
_cell_angle_alpha   89.83360790
_cell_angle_beta   90.00000000
_cell_angle_gamma   90.00000000
_symmetry_Int_Tables_number   1
_chemical_formula_structural   Dy4TiAl3Ir4
_chemical_formula_sum   'Dy4 Ti1 Al3 Ir4'
_cell_volume   233.89520992
_cell_formula_units_Z   1
loop_
 _symmetry_equiv_pos_site_id
 _symmetry_equiv_pos_as_xyz
  1  'x, y, z'
loop_
 _atom_site_type_symbol
 _atom_site_label
 _atom_site_symmetry_multiplicity
 _atom_site_fract_x
 _atom_site_fract_y
 _atom_site_fract_z
 _atom_site_occupancy
  Dy  Dy0  1  0.250000  0.965685  0.316327  1
  Dy  Dy1  1  0.250000  0.472908  0.176626  1
  Dy  Dy2  1  0.750000  0.024145  0.685250  1
  Dy  Dy3  1  0.750000  0.532239  0.824432  1
  Ti  Ti4  1  0.250000  0.370416  0.565082  1
  Al  Al5  1  0.250000  0.857844  0.934821  1
  Al  Al6  1  0.750000  0.640277  0.437036  1
  Al  Al7  1  0.750000  0.143392  0.062709  1
  Ir  Ir8  1  0.250000  0.231355  0.876580  1
  Ir  Ir9  1  0.250000  0.726282  0.616213  1
  Ir  Ir10  1  0.750000  0.770964  0.117407  1
  Ir  Ir11  1  0.750000  0.264493  0.387519  1
