# generated using pymatgen
data_LiPuB6Os
_symmetry_space_group_name_H-M   'P 1'
_cell_length_a   3.53900100
_cell_length_b   8.81740400
_cell_length_c   11.22819100
_cell_angle_alpha   90.00000000
_cell_angle_beta   90.00000000
_cell_angle_gamma   90.00000000
_symmetry_Int_Tables_number   1
_chemical_formula_structural   LiPuB6Os
_chemical_formula_sum   'Li4 Pu4 B24 Os4'
_cell_volume   350.37347218
_cell_formula_units_Z   4
loop_
 _symmetry_equiv_pos_site_id
 _symmetry_equiv_pos_as_xyz
  1  'x, y, z'
loop_
 _atom_site_type_symbol
 _atom_site_label
 _atom_site_symmetry_multiplicity
 _atom_site_fract_x
 _atom_site_fract_y
 _atom_site_fract_z
 _atom_site_occupancy
  Li  Li0  1  0.000000  0.945606  0.375380  1
  Li  Li1  1  0.000000  0.054394  0.624621  1
  Li  Li2  1  0.000000  0.445606  0.124620  1
  Li  Li3  1  0.000000  0.554394  0.875379  1
  Pu  Pu4  1  0.000000  0.317335  0.414276  1
  Pu  Pu5  1  0.000000  0.682665  0.585724  1
  Pu  Pu6  1  0.000000  0.817335  0.085724  1
  Pu  Pu7  1  0.000000  0.182665  0.914276  1
  B  B8  1  0.500000  0.554559  0.433135  1
  B  B9  1  0.500000  0.445441  0.566865  1
  B  B10  1  0.500000  0.054559  0.066865  1
  B  B11  1  0.500000  0.945441  0.933135  1
  B  B12  1  0.500000  0.757681  0.418142  1
  B  B13  1  0.500000  0.242319  0.581858  1
  B  B14  1  0.500000  0.257681  0.081858  1
  B  B15  1  0.500000  0.742319  0.918142  1
  B  B16  1  0.500000  0.793491  0.263537  1
  B  B17  1  0.500000  0.206509  0.736463  1
  B  B18  1  0.500000  0.293490  0.236463  1
  B  B19  1  0.500000  0.706509  0.763537  1
  B  B20  1  0.500000  0.625477  0.181785  1
  B  B21  1  0.500000  0.374523  0.818215  1
  B  B22  1  0.500000  0.125477  0.318215  1
  B  B23  1  0.500000  0.874523  0.681785  1
  B  B24  1  0.500000  0.979201  0.213287  1
  B  B25  1  0.500000  0.020799  0.786713  1
  B  B26  1  0.500000  0.479201  0.286713  1
  B  B27  1  0.500000  0.520799  0.713287  1
  B  B28  1  0.500000  0.591797  0.026040  1
  B  B29  1  0.500000  0.408203  0.973960  1
  B  B30  1  0.500000  0.091797  0.473960  1
  B  B31  1  0.500000  0.908203  0.526040  1
  Os  Os32  1  0.000000  0.640284  0.319161  1
  Os  Os33  1  0.000000  0.359716  0.680839  1
  Os  Os34  1  0.000000  0.140284  0.180839  1
  Os  Os35  1  0.000000  0.859716  0.819161  1
