# generated using pymatgen
data_VZn5(GaRh2)6
_symmetry_space_group_name_H-M   'P 1'
_cell_length_a   4.27818700
_cell_length_b   6.06270000
_cell_length_c   12.84553300
_cell_angle_alpha   90.00000000
_cell_angle_beta   90.00157518
_cell_angle_gamma   90.00000000
_symmetry_Int_Tables_number   1
_chemical_formula_structural   VZn5(GaRh2)6
_chemical_formula_sum   'V1 Zn5 Ga6 Rh12'
_cell_volume   333.17926931
_cell_formula_units_Z   1
loop_
 _symmetry_equiv_pos_site_id
 _symmetry_equiv_pos_as_xyz
  1  'x, y, z'
loop_
 _atom_site_type_symbol
 _atom_site_label
 _atom_site_symmetry_multiplicity
 _atom_site_fract_x
 _atom_site_fract_y
 _atom_site_fract_z
 _atom_site_occupancy
  V  V0  1  0.000000  0.500000  0.000000  1
  Zn  Zn1  1  0.499779  0.000000  0.167444  1
  Zn  Zn2  1  0.999779  0.500000  0.333881  1
  Zn  Zn3  1  0.500000  0.000000  0.500000  1
  Zn  Zn4  1  0.000221  0.500000  0.666119  1
  Zn  Zn5  1  0.500221  0.000000  0.832556  1
  Ga  Ga6  1  0.000000  0.000000  0.000000  1
  Ga  Ga7  1  0.499773  0.500000  0.167619  1
  Ga  Ga8  1  0.999772  0.000000  0.336211  1
  Ga  Ga9  1  0.500000  0.500000  0.500000  1
  Ga  Ga10  1  0.000228  0.000000  0.663790  1
  Ga  Ga11  1  0.500227  0.500000  0.832382  1
  Rh  Rh12  1  0.500000  0.253813  0.000000  1
  Rh  Rh13  1  0.500000  0.746186  0.000000  1
  Rh  Rh14  1  0.999789  0.252351  0.163654  1
  Rh  Rh15  1  0.999789  0.747648  0.163654  1
  Rh  Rh16  1  0.499800  0.250019  0.331968  1
  Rh  Rh17  1  0.499800  0.749982  0.331968  1
  Rh  Rh18  1  0.000000  0.251085  0.500000  1
  Rh  Rh19  1  0.000000  0.748916  0.500000  1
  Rh  Rh20  1  0.500200  0.250019  0.668032  1
  Rh  Rh21  1  0.500200  0.749982  0.668032  1
  Rh  Rh22  1  0.000210  0.252351  0.836346  1
  Rh  Rh23  1  0.000210  0.747648  0.836346  1
