# generated using pymatgen
data_Yb5Th3AlPd24
_symmetry_space_group_name_H-M   'P 1'
_cell_length_a   8.43036860
_cell_length_b   8.43036853
_cell_length_c   8.41058400
_cell_angle_alpha   89.92830523
_cell_angle_beta   89.92830523
_cell_angle_gamma   89.95215913
_symmetry_Int_Tables_number   1
_chemical_formula_structural   Yb5Th3AlPd24
_chemical_formula_sum   'Yb5 Th3 Al1 Pd24'
_cell_volume   597.74843178
_cell_formula_units_Z   1
loop_
 _symmetry_equiv_pos_site_id
 _symmetry_equiv_pos_as_xyz
  1  'x, y, z'
loop_
 _atom_site_type_symbol
 _atom_site_label
 _atom_site_symmetry_multiplicity
 _atom_site_fract_x
 _atom_site_fract_y
 _atom_site_fract_z
 _atom_site_occupancy
  Yb  Yb0  1  0.749610  0.250784  0.750231  1
  Yb  Yb1  1  0.251210  0.251210  0.748045  1
  Yb  Yb2  1  0.250527  0.748382  0.250301  1
  Yb  Yb3  1  0.250784  0.749610  0.750231  1
  Yb  Yb4  1  0.748382  0.250527  0.250301  1
  Th  Th5  1  0.254695  0.254695  0.255632  1
  Th  Th6  1  0.744512  0.744512  0.745590  1
  Th  Th7  1  0.747251  0.747251  0.253515  1
  Al  Al8  1  0.001849  0.001849  0.997929  1
  Pd  Pd9  1  0.260330  0.500487  0.000437  1
  Pd  Pd10  1  0.740442  0.498725  0.001495  1
  Pd  Pd11  1  0.998721  0.260664  0.499853  1
  Pd  Pd12  1  0.500487  0.260330  0.000437  1
  Pd  Pd13  1  0.001686  0.739503  0.499446  1
  Pd  Pd14  1  0.498725  0.740442  0.001495  1
  Pd  Pd15  1  0.500560  0.998449  0.259504  1
  Pd  Pd16  1  0.260664  0.998721  0.499853  1
  Pd  Pd17  1  0.500152  0.999566  0.739748  1
  Pd  Pd18  1  0.739503  0.001686  0.499446  1
  Pd  Pd19  1  0.998449  0.500560  0.259504  1
  Pd  Pd20  1  0.999566  0.500152  0.739748  1
  Pd  Pd21  1  0.252849  0.502100  0.501198  1
  Pd  Pd22  1  0.746168  0.495691  0.499191  1
  Pd  Pd23  1  0.502100  0.252849  0.501198  1
  Pd  Pd24  1  0.495691  0.746168  0.499191  1
  Pd  Pd25  1  0.501222  0.501222  0.253413  1
  Pd  Pd26  1  0.499143  0.499143  0.748001  1
  Pd  Pd27  1  0.290787  0.999468  0.999026  1
  Pd  Pd28  1  0.710744  0.002859  0.999526  1
  Pd  Pd29  1  0.999468  0.290787  0.999026  1
  Pd  Pd30  1  0.002859  0.710744  0.999526  1
  Pd  Pd31  1  0.000235  0.000235  0.290087  1
  Pd  Pd32  1  0.000626  0.000626  0.707871  1
