# generated using pymatgen
data_Li11ZnBi6
_symmetry_space_group_name_H-M   'P 1'
_cell_length_a   8.05197800
_cell_length_b   8.09200068
_cell_length_c   6.92845303
_cell_angle_alpha   90.12610289
_cell_angle_beta   90.00000000
_cell_angle_gamma   119.83653169
_symmetry_Int_Tables_number   1
_chemical_formula_structural   Li11ZnBi6
_chemical_formula_sum   'Li11 Zn1 Bi6'
_cell_volume   391.59489632
_cell_formula_units_Z   1
loop_
 _symmetry_equiv_pos_site_id
 _symmetry_equiv_pos_as_xyz
  1  'x, y, z'
loop_
 _atom_site_type_symbol
 _atom_site_label
 _atom_site_symmetry_multiplicity
 _atom_site_fract_x
 _atom_site_fract_y
 _atom_site_fract_z
 _atom_site_occupancy
  Li  Li0  1  0.711657  0.705721  0.499923  1
  Li  Li1  1  0.005935  0.294279  0.500077  1
  Li  Li2  1  0.995703  0.288414  0.000301  1
  Li  Li3  1  0.707289  0.711586  0.999699  1
  Li  Li4  1  0.295801  0.000000  0.500000  1
  Li  Li5  1  0.628056  0.003275  0.254564  1
  Li  Li6  1  0.372870  0.365672  0.260906  1
  Li  Li7  1  0.998301  0.628796  0.259824  1
  Li  Li8  1  0.624781  0.996725  0.745436  1
  Li  Li9  1  0.369503  0.371204  0.740176  1
  Li  Li10  1  0.007198  0.634328  0.739094  1
  Zn  Zn11  1  0.287032  0.000000  0.000000  1
  Bi  Bi12  1  0.002256  0.999613  0.251941  1
  Bi  Bi13  1  0.002643  0.000387  0.748059  1
  Bi  Bi14  1  0.327186  0.670862  0.001692  1
  Bi  Bi15  1  0.337141  0.666820  0.497361  1
  Bi  Bi16  1  0.656325  0.329138  0.998308  1
  Bi  Bi17  1  0.670322  0.333180  0.502639  1
