# generated using pymatgen
data_Sr5Er5Sn8
_symmetry_space_group_name_H-M   'P 1'
_cell_length_a   8.03444000
_cell_length_b   8.53917500
_cell_length_c   16.12337600
_cell_angle_alpha   90.00000000
_cell_angle_beta   90.00000000
_cell_angle_gamma   90.00000000
_symmetry_Int_Tables_number   1
_chemical_formula_structural   Sr5Er5Sn8
_chemical_formula_sum   'Sr10 Er10 Sn16'
_cell_volume   1106.18434458
_cell_formula_units_Z   2
loop_
 _symmetry_equiv_pos_site_id
 _symmetry_equiv_pos_as_xyz
  1  'x, y, z'
loop_
 _atom_site_type_symbol
 _atom_site_label
 _atom_site_symmetry_multiplicity
 _atom_site_fract_x
 _atom_site_fract_y
 _atom_site_fract_z
 _atom_site_occupancy
  Sr  Sr0  1  0.502097  0.677796  0.594492  1
  Sr  Sr1  1  0.002097  0.822204  0.905508  1
  Sr  Sr2  1  0.495321  0.319046  0.089528  1
  Sr  Sr3  1  0.995321  0.180954  0.410472  1
  Sr  Sr4  1  0.495321  0.319046  0.410472  1
  Sr  Sr5  1  0.995321  0.180954  0.089528  1
  Sr  Sr6  1  0.502097  0.677796  0.905508  1
  Sr  Sr7  1  0.002097  0.822204  0.594492  1
  Sr  Sr8  1  0.165827  0.485733  0.250000  1
  Sr  Sr9  1  0.665827  0.014267  0.250000  1
  Er  Er10  1  0.675852  0.163261  0.625702  1
  Er  Er11  1  0.175852  0.336739  0.874298  1
  Er  Er12  1  0.326154  0.832734  0.120977  1
  Er  Er13  1  0.826154  0.667266  0.379023  1
  Er  Er14  1  0.326154  0.832734  0.379023  1
  Er  Er15  1  0.826154  0.667266  0.120977  1
  Er  Er16  1  0.675852  0.163261  0.874298  1
  Er  Er17  1  0.175852  0.336739  0.625702  1
  Er  Er18  1  0.840245  0.505101  0.750000  1
  Er  Er19  1  0.340245  0.994899  0.750000  1
  Sn  Sn20  1  0.663802  0.958165  0.462332  1
  Sn  Sn21  1  0.163802  0.541835  0.037668  1
  Sn  Sn22  1  0.335520  0.039573  0.954810  1
  Sn  Sn23  1  0.835520  0.460427  0.545190  1
  Sn  Sn24  1  0.335520  0.039573  0.545190  1
  Sn  Sn25  1  0.835520  0.460427  0.954810  1
  Sn  Sn26  1  0.663802  0.958165  0.037668  1
  Sn  Sn27  1  0.163802  0.541835  0.462332  1
  Sn  Sn28  1  0.477532  0.367365  0.750000  1
  Sn  Sn29  1  0.977532  0.132635  0.750000  1
  Sn  Sn30  1  0.531975  0.635711  0.250000  1
  Sn  Sn31  1  0.031975  0.864289  0.250000  1
  Sn  Sn32  1  0.709843  0.867523  0.750000  1
  Sn  Sn33  1  0.209843  0.632477  0.750000  1
  Sn  Sn34  1  0.277085  0.113602  0.250000  1
  Sn  Sn35  1  0.777085  0.386398  0.250000  1
