# generated using pymatgen
data_BeGa2(FeRh2)3
_symmetry_space_group_name_H-M   'P 1'
_cell_length_a   4.23794500
_cell_length_b   5.96201500
_cell_length_c   12.70281700
_cell_angle_alpha   90.00030261
_cell_angle_beta   90.00096482
_cell_angle_gamma   89.99994413
_symmetry_Int_Tables_number   1
_chemical_formula_structural   BeGa2(FeRh2)3
_chemical_formula_sum   'Be2 Ga4 Fe6 Rh12'
_cell_volume   320.95816032
_cell_formula_units_Z   2
loop_
 _symmetry_equiv_pos_site_id
 _symmetry_equiv_pos_as_xyz
  1  'x, y, z'
loop_
 _atom_site_type_symbol
 _atom_site_label
 _atom_site_symmetry_multiplicity
 _atom_site_fract_x
 _atom_site_fract_y
 _atom_site_fract_z
 _atom_site_occupancy
  Be  Be0  1  0.000316  0.499999  0.669119  1
  Be  Be1  1  0.500325  0.000001  0.830873  1
  Ga  Ga2  1  0.000006  0.499999  0.996129  1
  Ga  Ga3  1  0.499738  0.000001  0.165090  1
  Ga  Ga4  1  0.999737  0.499998  0.334895  1
  Ga  Ga5  1  0.500010  0.000002  0.503881  1
  Fe  Fe6  1  0.000003  0.000000  0.993705  1
  Fe  Fe7  1  0.499749  0.500000  0.163353  1
  Fe  Fe8  1  0.999748  0.999998  0.336655  1
  Fe  Fe9  1  0.500006  0.500001  0.506303  1
  Fe  Fe10  1  0.000228  0.999999  0.669168  1
  Fe  Fe11  1  0.500234  0.500000  0.830824  1
  Rh  Rh12  1  0.500007  0.244994  0.994415  1
  Rh  Rh13  1  0.500010  0.755005  0.994414  1
  Rh  Rh14  1  0.999754  0.249183  0.165462  1
  Rh  Rh15  1  0.999751  0.750815  0.165465  1
  Rh  Rh16  1  0.499751  0.250843  0.334540  1
  Rh  Rh17  1  0.499751  0.749157  0.334539  1
  Rh  Rh18  1  0.000016  0.254995  0.505575  1
  Rh  Rh19  1  0.000012  0.745006  0.505574  1
  Rh  Rh20  1  0.500213  0.253203  0.670906  1
  Rh  Rh21  1  0.500214  0.746799  0.670905  1
  Rh  Rh22  1  0.000216  0.246776  0.829105  1
  Rh  Rh23  1  0.000216  0.753225  0.829104  1
