# generated using pymatgen
data_Ce6Th2VS17
_symmetry_space_group_name_H-M   'P 1'
_cell_length_a   7.95756717
_cell_length_b   7.95756605
_cell_length_c   10.54587806
_cell_angle_alpha   80.99740946
_cell_angle_beta   80.99741266
_cell_angle_gamma   65.01066604
_symmetry_Int_Tables_number   1
_chemical_formula_structural   Ce6Th2VS17
_chemical_formula_sum   'Ce6 Th2 V1 S17'
_cell_volume   594.77013351
_cell_formula_units_Z   1
loop_
 _symmetry_equiv_pos_site_id
 _symmetry_equiv_pos_as_xyz
  1  'x, y, z'
loop_
 _atom_site_type_symbol
 _atom_site_label
 _atom_site_symmetry_multiplicity
 _atom_site_fract_x
 _atom_site_fract_y
 _atom_site_fract_z
 _atom_site_occupancy
  Ce  Ce0  1  0.186234  0.698476  0.706526  1
  Ce  Ce1  1  0.698476  0.186234  0.706526  1
  Ce  Ce2  1  0.205776  0.205776  0.545896  1
  Ce  Ce3  1  0.794323  0.794323  0.456590  1
  Ce  Ce4  1  0.684371  0.684371  0.975373  1
  Ce  Ce5  1  0.315658  0.315658  0.020744  1
  Th  Th6  1  0.812631  0.302350  0.296043  1
  Th  Th7  1  0.302350  0.812631  0.296043  1
  V  V8  1  0.997463  0.997463  0.994364  1
  S  S9  1  0.823410  0.430865  0.533405  1
  S  S10  1  0.430865  0.823410  0.533405  1
  S  S11  1  0.175981  0.568803  0.468900  1
  S  S12  1  0.568803  0.175981  0.468900  1
  S  S13  1  0.940257  0.319606  0.026169  1
  S  S14  1  0.319606  0.940257  0.026169  1
  S  S15  1  0.060136  0.680794  0.972540  1
  S  S16  1  0.680794  0.060136  0.972540  1
  S  S17  1  0.209012  0.209012  0.278975  1
  S  S18  1  0.792495  0.792495  0.721915  1
  S  S19  1  0.061606  0.061606  0.775498  1
  S  S20  1  0.939488  0.939488  0.223390  1
  S  S21  1  0.303363  0.303363  0.757105  1
  S  S22  1  0.698312  0.698312  0.243011  1
  S  S23  1  0.520690  0.520690  0.831928  1
  S  S24  1  0.477914  0.477914  0.166934  1
  S  S25  1  0.999985  0.999985  0.501112  1
