# generated using pymatgen
data_HfZr5Mn7Co16
_symmetry_space_group_name_H-M   'P 1'
_cell_length_a   8.14911249
_cell_length_b   8.14608379
_cell_length_c   8.14911305
_cell_angle_alpha   60.01230180
_cell_angle_beta   59.97540478
_cell_angle_gamma   60.01230003
_symmetry_Int_Tables_number   1
_chemical_formula_structural   HfZr5Mn7Co16
_chemical_formula_sum   'Hf1 Zr5 Mn7 Co16'
_cell_volume   382.52025126
_cell_formula_units_Z   1
loop_
 _symmetry_equiv_pos_site_id
 _symmetry_equiv_pos_as_xyz
  1  'x, y, z'
loop_
 _atom_site_type_symbol
 _atom_site_label
 _atom_site_symmetry_multiplicity
 _atom_site_fract_x
 _atom_site_fract_y
 _atom_site_fract_z
 _atom_site_occupancy
  Hf  Hf0  1  0.211901  0.788099  0.211901  1
  Zr  Zr1  1  0.210109  0.789891  0.790774  1
  Zr  Zr2  1  0.790774  0.789891  0.210109  1
  Zr  Zr3  1  0.790774  0.209226  0.210109  1
  Zr  Zr4  1  0.210109  0.209226  0.790774  1
  Zr  Zr5  1  0.789271  0.210729  0.789271  1
  Mn  Mn6  1  0.499822  0.000178  0.499822  1
  Mn  Mn7  1  0.499493  0.500507  0.000573  1
  Mn  Mn8  1  0.499985  0.500015  0.499985  1
  Mn  Mn9  1  0.000573  0.999427  0.499493  1
  Mn  Mn10  1  0.999822  0.500178  0.999822  1
  Mn  Mn11  1  0.000573  0.500507  0.499493  1
  Mn  Mn12  1  0.499493  0.999427  0.000573  1
  Co  Co13  1  0.620000  0.621206  0.137588  1
  Co  Co14  1  0.174637  0.476412  0.174637  1
  Co  Co15  1  0.862490  0.379327  0.378855  1
  Co  Co16  1  0.523588  0.825363  0.825684  1
  Co  Co17  1  0.475754  0.174778  0.174689  1
  Co  Co18  1  0.825684  0.825363  0.523588  1
  Co  Co19  1  0.174689  0.174778  0.475754  1
  Co  Co20  1  0.137588  0.621206  0.620000  1
  Co  Co21  1  0.174637  0.174316  0.174637  1
  Co  Co22  1  0.378855  0.379327  0.862490  1
  Co  Co23  1  0.620673  0.621145  0.620673  1
  Co  Co24  1  0.378794  0.862412  0.378794  1
  Co  Co25  1  0.378794  0.380000  0.378794  1
  Co  Co26  1  0.825222  0.825311  0.825222  1
  Co  Co27  1  0.620673  0.137510  0.620673  1
  Co  Co28  1  0.825222  0.524246  0.825222  1
