# generated using pymatgen
data_Yb2Eu6Si(GeN4)3
_symmetry_space_group_name_H-M   'P 1'
_cell_length_a   6.03463704
_cell_length_b   6.03463843
_cell_length_c   11.65937101
_cell_angle_alpha   90.44761165
_cell_angle_beta   89.55238588
_cell_angle_gamma   125.43342547
_symmetry_Int_Tables_number   1
_chemical_formula_structural   Yb2Eu6Si(GeN4)3
_chemical_formula_sum   'Yb2 Eu6 Si1 Ge3 N12'
_cell_volume   345.94438763
_cell_formula_units_Z   1
loop_
 _symmetry_equiv_pos_site_id
 _symmetry_equiv_pos_as_xyz
  1  'x, y, z'
loop_
 _atom_site_type_symbol
 _atom_site_label
 _atom_site_symmetry_multiplicity
 _atom_site_fract_x
 _atom_site_fract_y
 _atom_site_fract_z
 _atom_site_occupancy
  Yb  Yb0  1  0.045801  0.954199  0.857526  1
  Yb  Yb1  1  0.962680  0.037320  0.142485  1
  Eu  Eu2  1  0.462421  0.537579  0.350868  1
  Eu  Eu3  1  0.542106  0.457894  0.650387  1
  Eu  Eu4  1  0.640279  0.359721  0.073202  1
  Eu  Eu5  1  0.360153  0.639847  0.924143  1
  Eu  Eu6  1  0.861183  0.138817  0.575616  1
  Eu  Eu7  1  0.141331  0.858669  0.428120  1
  Si  Si8  1  0.244117  0.755883  0.663594  1
  Ge  Ge9  1  0.746613  0.253387  0.837067  1
  Ge  Ge10  1  0.253660  0.746340  0.161591  1
  Ge  Ge11  1  0.757750  0.242250  0.336587  1
  N  N12  1  0.573381  0.426619  0.865217  1
  N  N13  1  0.426141  0.573859  0.136490  1
  N  N14  1  0.928265  0.071735  0.362397  1
  N  N15  1  0.082470  0.917530  0.639007  1
  N  N16  1  0.540318  0.947185  0.744218  1
  N  N17  1  0.939589  0.559795  0.251388  1
  N  N18  1  0.440205  0.060411  0.251388  1
  N  N19  1  0.052815  0.459682  0.744218  1
  N  N20  1  0.849046  0.150954  0.965683  1
  N  N21  1  0.154711  0.845289  0.030506  1
  N  N22  1  0.654586  0.345414  0.469988  1
  N  N23  1  0.340380  0.659620  0.538314  1
