# generated using pymatgen
data_Ho4AlGa5Ru2
_symmetry_space_group_name_H-M   'P 1'
_cell_length_a   5.48403500
_cell_length_b   5.43807903
_cell_length_c   8.71499200
_cell_angle_alpha   90.00000000
_cell_angle_beta   90.00000000
_cell_angle_gamma   120.27995136
_symmetry_Int_Tables_number   1
_chemical_formula_structural   Ho4AlGa5Ru2
_chemical_formula_sum   'Ho4 Al1 Ga5 Ru2'
_cell_volume   224.44570438
_cell_formula_units_Z   1
loop_
 _symmetry_equiv_pos_site_id
 _symmetry_equiv_pos_as_xyz
  1  'x, y, z'
loop_
 _atom_site_type_symbol
 _atom_site_label
 _atom_site_symmetry_multiplicity
 _atom_site_fract_x
 _atom_site_fract_y
 _atom_site_fract_z
 _atom_site_occupancy
  Ho  Ho0  1  0.667520  0.335040  0.051801  1
  Ho  Ho1  1  0.667520  0.335040  0.448199  1
  Ho  Ho2  1  0.333659  0.667319  0.553516  1
  Ho  Ho3  1  0.333659  0.667319  0.946483  1
  Al  Al4  1  0.160309  0.320617  0.250000  1
  Ga  Ga5  1  0.163532  0.830712  0.250000  1
  Ga  Ga6  1  0.667181  0.830712  0.250000  1
  Ga  Ga7  1  0.329838  0.164449  0.750000  1
  Ga  Ga8  1  0.834611  0.164449  0.750000  1
  Ga  Ga9  1  0.835256  0.670513  0.750000  1
  Ru  Ru10  1  0.003456  0.006913  0.000323  1
  Ru  Ru11  1  0.003456  0.006913  0.499676  1
