# generated using pymatgen
data_K2SbAsO6
_symmetry_space_group_name_H-M   'P 1'
_cell_length_a   9.53405500
_cell_length_b   5.96359400
_cell_length_c   11.11618100
_cell_angle_alpha   90.00000000
_cell_angle_beta   90.00000000
_cell_angle_gamma   90.00000000
_symmetry_Int_Tables_number   1
_chemical_formula_structural   K2SbAsO6
_chemical_formula_sum   'K8 Sb4 As4 O24'
_cell_volume   632.03529534
_cell_formula_units_Z   4
loop_
 _symmetry_equiv_pos_site_id
 _symmetry_equiv_pos_as_xyz
  1  'x, y, z'
loop_
 _atom_site_type_symbol
 _atom_site_label
 _atom_site_symmetry_multiplicity
 _atom_site_fract_x
 _atom_site_fract_y
 _atom_site_fract_z
 _atom_site_occupancy
  K  K0  1  0.618971  0.500000  0.163976  1
  K  K1  1  0.317716  0.000000  0.202052  1
  K  K2  1  0.817716  0.000000  0.297948  1
  K  K3  1  0.118971  0.500000  0.336024  1
  K  K4  1  0.881028  0.000000  0.663976  1
  K  K5  1  0.182283  0.500000  0.702052  1
  K  K6  1  0.682283  0.500000  0.797948  1
  K  K7  1  0.381029  0.000000  0.836024  1
  Sb  Sb8  1  0.000000  0.250000  0.000000  1
  Sb  Sb9  1  0.000000  0.749999  0.000000  1
  Sb  Sb10  1  0.499999  0.250000  0.500000  1
  Sb  Sb11  1  0.499999  0.749999  0.500000  1
  As  As12  1  0.311226  0.500000  0.011836  1
  As  As13  1  0.811226  0.500000  0.488164  1
  As  As14  1  0.188773  0.000000  0.511836  1
  As  As15  1  0.688773  0.000000  0.988164  1
  O  O16  1  0.789758  0.235706  0.033587  1
  O  O17  1  0.789758  0.764294  0.033587  1
  O  O18  1  0.547404  0.000000  0.078228  1
  O  O19  1  0.014378  0.500000  0.117549  1
  O  O20  1  0.031926  0.000000  0.118760  1
  O  O21  1  0.335646  0.500000  0.161805  1
  O  O22  1  0.835646  0.500000  0.338195  1
  O  O23  1  0.531926  0.000000  0.381240  1
  O  O24  1  0.514379  0.500000  0.382451  1
  O  O25  1  0.047404  0.000000  0.421772  1
  O  O26  1  0.289758  0.235706  0.466413  1
  O  O27  1  0.289758  0.764294  0.466413  1
  O  O28  1  0.710240  0.264295  0.533587  1
  O  O29  1  0.710240  0.735704  0.533587  1
  O  O30  1  0.952595  0.500000  0.578228  1
  O  O31  1  0.485621  0.000000  0.617549  1
  O  O32  1  0.468072  0.500000  0.618760  1
  O  O33  1  0.164352  0.000000  0.661805  1
  O  O34  1  0.664352  0.000000  0.838195  1
  O  O35  1  0.968073  0.500000  0.881239  1
  O  O36  1  0.985620  0.000000  0.882451  1
  O  O37  1  0.452595  0.500000  0.921772  1
  O  O38  1  0.210241  0.264295  0.966413  1
  O  O39  1  0.210241  0.735704  0.966413  1
