# generated using pymatgen
data_Th3FeIr8
_symmetry_space_group_name_H-M   'P 1'
_cell_length_a   9.32493523
_cell_length_b   9.32493504
_cell_length_c   9.32493471
_cell_angle_alpha   33.50539533
_cell_angle_beta   33.50539583
_cell_angle_gamma   33.50538886
_symmetry_Int_Tables_number   1
_chemical_formula_structural   Th3FeIr8
_chemical_formula_sum   'Th3 Fe1 Ir8'
_cell_volume   220.06239134
_cell_formula_units_Z   1
loop_
 _symmetry_equiv_pos_site_id
 _symmetry_equiv_pos_as_xyz
  1  'x, y, z'
loop_
 _atom_site_type_symbol
 _atom_site_label
 _atom_site_symmetry_multiplicity
 _atom_site_fract_x
 _atom_site_fract_y
 _atom_site_fract_z
 _atom_site_occupancy
  Th  Th0  1  0.860851  0.860851  0.860851  1
  Th  Th1  1  0.138306  0.138306  0.138306  1
  Th  Th2  1  0.999522  0.999522  0.999522  1
  Fe  Fe3  1  0.333152  0.333152  0.333152  1
  Ir  Ir4  1  0.417274  0.923213  0.417274  1
  Ir  Ir5  1  0.417274  0.417274  0.923213  1
  Ir  Ir6  1  0.923213  0.417274  0.417274  1
  Ir  Ir7  1  0.580065  0.082636  0.580065  1
  Ir  Ir8  1  0.580065  0.580065  0.082636  1
  Ir  Ir9  1  0.082636  0.580065  0.580065  1
  Ir  Ir10  1  0.666865  0.666865  0.666865  1
  Ir  Ir11  1  0.500778  0.500778  0.500778  1
