# generated using pymatgen
data_Ba5Nd4Y4Ni4O21
_symmetry_space_group_name_H-M   'P 1'
_cell_length_a   10.35718457
_cell_length_b   10.35718479
_cell_length_c   10.35718447
_cell_angle_alpha   94.52026503
_cell_angle_beta   94.52026668
_cell_angle_gamma   147.39192886
_symmetry_Int_Tables_number   1
_chemical_formula_structural   Ba5Nd4Y4Ni4O21
_chemical_formula_sum   'Ba5 Nd4 Y4 Ni4 O21'
_cell_volume   574.64423323
_cell_formula_units_Z   1
loop_
 _symmetry_equiv_pos_site_id
 _symmetry_equiv_pos_as_xyz
  1  'x, y, z'
loop_
 _atom_site_type_symbol
 _atom_site_label
 _atom_site_symmetry_multiplicity
 _atom_site_fract_x
 _atom_site_fract_y
 _atom_site_fract_z
 _atom_site_occupancy
  Ba  Ba0  1  0.000000  0.000000  0.000000  1
  Ba  Ba1  1  0.137495  0.532566  0.670060  1
  Ba  Ba2  1  0.862505  0.467434  0.329940  1
  Ba  Ba3  1  0.467434  0.137495  0.604929  1
  Ba  Ba4  1  0.532566  0.862505  0.395071  1
  Nd  Nd5  1  0.166227  0.249142  0.415369  1
  Nd  Nd6  1  0.833773  0.750858  0.584631  1
  Nd  Nd7  1  0.750858  0.166227  0.917086  1
  Nd  Nd8  1  0.249142  0.833773  0.082914  1
  Y  Y9  1  0.358512  0.412920  0.771433  1
  Y  Y10  1  0.641488  0.587080  0.228567  1
  Y  Y11  1  0.587080  0.358512  0.945592  1
  Y  Y12  1  0.412920  0.641488  0.054408  1
  Ni  Ni13  1  0.245767  0.040391  0.286159  1
  Ni  Ni14  1  0.754233  0.959609  0.713841  1
  Ni  Ni15  1  0.959609  0.245767  0.205377  1
  Ni  Ni16  1  0.040391  0.754233  0.794623  1
  O  O17  1  0.500000  0.500000  0.000000  1
  O  O18  1  0.967557  0.628607  0.596164  1
  O  O19  1  0.032443  0.371393  0.403836  1
  O  O20  1  0.371393  0.967557  0.338952  1
  O  O21  1  0.628607  0.032443  0.661048  1
  O  O22  1  0.295528  0.428066  0.221417  1
  O  O23  1  0.206649  0.074109  0.778583  1
  O  O24  1  0.074109  0.295528  0.867461  1
  O  O25  1  0.428066  0.206649  0.132539  1
  O  O26  1  0.704472  0.571934  0.778583  1
  O  O27  1  0.793351  0.925891  0.221417  1
  O  O28  1  0.925891  0.704472  0.132539  1
  O  O29  1  0.571934  0.793351  0.867461  1
  O  O30  1  0.496384  0.610017  0.599958  1
  O  O31  1  0.010060  0.896427  0.400042  1
  O  O32  1  0.896427  0.496384  0.886367  1
  O  O33  1  0.610017  0.010060  0.113633  1
  O  O34  1  0.503616  0.389983  0.400042  1
  O  O35  1  0.989940  0.103573  0.599958  1
  O  O36  1  0.103573  0.503616  0.113633  1
  O  O37  1  0.389983  0.989940  0.886367  1
