# generated using pymatgen
data_HoErTm4(ReB7)2
_symmetry_space_group_name_H-M   'P 1'
_cell_length_a   7.99293900
_cell_length_b   7.99293858
_cell_length_c   9.30143400
_cell_angle_alpha   90.00000000
_cell_angle_beta   90.00000000
_cell_angle_gamma   154.64895646
_symmetry_Int_Tables_number   1
_chemical_formula_structural   HoErTm4(ReB7)2
_chemical_formula_sum   'Ho1 Er1 Tm4 Re2 B14'
_cell_volume   254.43223932
_cell_formula_units_Z   1
loop_
 _symmetry_equiv_pos_site_id
 _symmetry_equiv_pos_as_xyz
  1  'x, y, z'
loop_
 _atom_site_type_symbol
 _atom_site_label
 _atom_site_symmetry_multiplicity
 _atom_site_fract_x
 _atom_site_fract_y
 _atom_site_fract_z
 _atom_site_occupancy
  Ho  Ho0  1  0.243421  0.756579  0.250000  1
  Er  Er1  1  0.756695  0.243305  0.750000  1
  Tm  Tm2  1  0.894572  0.105428  0.059323  1
  Tm  Tm3  1  0.105454  0.894546  0.559392  1
  Tm  Tm4  1  0.105454  0.894546  0.940608  1
  Tm  Tm5  1  0.894572  0.105428  0.440677  1
  Re  Re6  1  0.052082  0.947918  0.250000  1
  Re  Re7  1  0.947842  0.052158  0.750000  1
  B  B8  1  0.454282  0.545718  0.250000  1
  B  B9  1  0.545721  0.454279  0.750000  1
  B  B10  1  0.727450  0.272550  0.033357  1
  B  B11  1  0.272547  0.727453  0.533601  1
  B  B12  1  0.272547  0.727453  0.966399  1
  B  B13  1  0.727450  0.272550  0.466643  1
  B  B14  1  0.632271  0.367729  0.349667  1
  B  B15  1  0.367681  0.632319  0.849623  1
  B  B16  1  0.367681  0.632319  0.650377  1
  B  B17  1  0.632271  0.367729  0.150333  1
  B  B18  1  0.519905  0.480095  0.405371  1
  B  B19  1  0.480100  0.519900  0.905389  1
  B  B20  1  0.480100  0.519900  0.594611  1
  B  B21  1  0.519905  0.480095  0.094629  1
