# generated using pymatgen
data_Na12Cr5Fe3N16
_symmetry_space_group_name_H-M   'P 1'
_cell_length_a   5.55278300
_cell_length_b   9.57555053
_cell_length_c   9.42940840
_cell_angle_alpha   90.11107968
_cell_angle_beta   90.00000000
_cell_angle_gamma   90.00000000
_symmetry_Int_Tables_number   1
_chemical_formula_structural   Na12Cr5Fe3N16
_chemical_formula_sum   'Na12 Cr5 Fe3 N16'
_cell_volume   501.36969991
_cell_formula_units_Z   1
loop_
 _symmetry_equiv_pos_site_id
 _symmetry_equiv_pos_as_xyz
  1  'x, y, z'
loop_
 _atom_site_type_symbol
 _atom_site_label
 _atom_site_symmetry_multiplicity
 _atom_site_fract_x
 _atom_site_fract_y
 _atom_site_fract_z
 _atom_site_occupancy
  Na  Na0  1  0.640121  0.156372  0.418182  1
  Na  Na1  1  0.861087  0.842298  0.417707  1
  Na  Na2  1  0.640121  0.343628  0.081818  1
  Na  Na3  1  0.861087  0.657702  0.082293  1
  Na  Na4  1  0.360953  0.842046  0.581818  1
  Na  Na5  1  0.139213  0.157252  0.582597  1
  Na  Na6  1  0.360953  0.657954  0.918182  1
  Na  Na7  1  0.139213  0.342748  0.917403  1
  Na  Na8  1  0.750112  0.500006  0.410010  1
  Na  Na9  1  0.750112  0.999994  0.089990  1
  Na  Na10  1  0.250177  0.499740  0.589546  1
  Na  Na11  1  0.250177  0.000260  0.910454  1
  Cr  Cr12  1  0.749826  0.499779  0.737829  1
  Cr  Cr13  1  0.749826  0.000221  0.762171  1
  Cr  Cr14  1  0.250989  0.505344  0.263110  1
  Cr  Cr15  1  0.250989  0.994656  0.236890  1
  Cr  Cr16  1  0.197002  0.250000  0.250000  1
  Fe  Fe17  1  0.699431  0.250000  0.750000  1
  Fe  Fe18  1  0.800770  0.750000  0.750000  1
  Fe  Fe19  1  0.305083  0.750000  0.250000  1
  N  N20  1  0.887746  0.360652  0.637842  1
  N  N21  1  0.611979  0.639160  0.638115  1
  N  N22  1  0.887746  0.139348  0.862158  1
  N  N23  1  0.611979  0.860840  0.861885  1
  N  N24  1  0.112719  0.641340  0.361428  1
  N  N25  1  0.383344  0.360278  0.361794  1
  N  N26  1  0.112719  0.858660  0.138572  1
  N  N27  1  0.383344  0.139722  0.138206  1
  N  N28  1  0.542937  0.396215  0.837693  1
  N  N29  1  0.957265  0.603892  0.837615  1
  N  N30  1  0.542937  0.103785  0.662307  1
  N  N31  1  0.957265  0.896108  0.662385  1
  N  N32  1  0.458855  0.603579  0.162181  1
  N  N33  1  0.041535  0.395549  0.164420  1
  N  N34  1  0.458855  0.896421  0.337819  1
  N  N35  1  0.041535  0.104451  0.335580  1
