# generated using pymatgen
data_Sm2Gd8Si5Hg
_symmetry_space_group_name_H-M   'P 1'
_cell_length_a   7.63372961
_cell_length_b   7.63372953
_cell_length_c   8.88783400
_cell_angle_alpha   115.43254324
_cell_angle_beta   115.43255128
_cell_angle_gamma   90.00000645
_symmetry_Int_Tables_number   1
_chemical_formula_structural   Sm2Gd8Si5Hg
_chemical_formula_sum   'Sm2 Gd8 Si5 Hg1'
_cell_volume   411.46720711
_cell_formula_units_Z   1
loop_
 _symmetry_equiv_pos_site_id
 _symmetry_equiv_pos_as_xyz
  1  'x, y, z'
loop_
 _atom_site_type_symbol
 _atom_site_label
 _atom_site_symmetry_multiplicity
 _atom_site_fract_x
 _atom_site_fract_y
 _atom_site_fract_z
 _atom_site_occupancy
  Sm  Sm0  1  0.522200  0.522200  0.044400  1
  Sm  Sm1  1  0.977800  0.977800  0.955600  1
  Gd  Gd2  1  0.983914  0.823394  0.284029  1
  Gd  Gd3  1  0.300116  0.460634  0.284029  1
  Gd  Gd4  1  0.823394  0.300116  0.284029  1
  Gd  Gd5  1  0.460634  0.983914  0.284029  1
  Gd  Gd6  1  0.039366  0.199884  0.715971  1
  Gd  Gd7  1  0.676606  0.516086  0.715971  1
  Gd  Gd8  1  0.199884  0.676606  0.715971  1
  Gd  Gd9  1  0.516086  0.039366  0.715971  1
  Si  Si10  1  0.250000  0.250000  0.500000  1
  Si  Si11  1  0.621512  0.878488  0.000000  1
  Si  Si12  1  0.378488  0.121512  0.000000  1
  Si  Si13  1  0.878488  0.378488  0.000000  1
  Si  Si14  1  0.121512  0.621512  0.000000  1
  Hg  Hg15  1  0.750000  0.750000  0.500000  1
