# generated using pymatgen
data_Tm3Mg(Ni4As3)2
_symmetry_space_group_name_H-M   'P 1'
_cell_length_a   3.89059000
_cell_length_b   11.03046600
_cell_length_c   12.78265000
_cell_angle_alpha   90.00000000
_cell_angle_beta   90.00000000
_cell_angle_gamma   90.00000000
_symmetry_Int_Tables_number   1
_chemical_formula_structural   Tm3Mg(Ni4As3)2
_chemical_formula_sum   'Tm6 Mg2 Ni16 As12'
_cell_volume   548.56768954
_cell_formula_units_Z   2
loop_
 _symmetry_equiv_pos_site_id
 _symmetry_equiv_pos_as_xyz
  1  'x, y, z'
loop_
 _atom_site_type_symbol
 _atom_site_label
 _atom_site_symmetry_multiplicity
 _atom_site_fract_x
 _atom_site_fract_y
 _atom_site_fract_z
 _atom_site_occupancy
  Tm  Tm0  1  0.000000  0.500000  0.529120  1
  Tm  Tm1  1  0.500000  0.000000  0.470880  1
  Tm  Tm2  1  0.500000  0.823156  0.205810  1
  Tm  Tm3  1  0.500000  0.176844  0.205810  1
  Tm  Tm4  1  0.000000  0.676844  0.794190  1
  Tm  Tm5  1  0.000000  0.323156  0.794190  1
  Mg  Mg6  1  0.500000  0.500000  0.155061  1
  Mg  Mg7  1  0.000000  0.000000  0.844939  1
  Ni  Ni8  1  0.500000  0.500000  0.701729  1
  Ni  Ni9  1  0.000000  0.000000  0.298271  1
  Ni  Ni10  1  0.000000  0.500000  0.987760  1
  Ni  Ni11  1  0.500000  0.000000  0.012240  1
  Ni  Ni12  1  0.500000  0.333326  0.997754  1
  Ni  Ni13  1  0.500000  0.666674  0.997754  1
  Ni  Ni14  1  0.000000  0.166674  0.002246  1
  Ni  Ni15  1  0.000000  0.833326  0.002246  1
  Ni  Ni16  1  0.500000  0.299225  0.431284  1
  Ni  Ni17  1  0.500000  0.700775  0.431284  1
  Ni  Ni18  1  0.000000  0.200775  0.568716  1
  Ni  Ni19  1  0.000000  0.799225  0.568716  1
  Ni  Ni20  1  0.500000  0.880283  0.705501  1
  Ni  Ni21  1  0.500000  0.119717  0.705501  1
  Ni  Ni22  1  0.000000  0.619717  0.294499  1
  Ni  Ni23  1  0.000000  0.380283  0.294499  1
  As  As24  1  0.500000  0.500000  0.879856  1
  As  As25  1  0.000000  0.000000  0.120144  1
  As  As26  1  0.500000  0.500000  0.360247  1
  As  As27  1  0.000000  0.000000  0.639753  1
  As  As28  1  0.500000  0.314878  0.616420  1
  As  As29  1  0.500000  0.685122  0.616420  1
  As  As30  1  0.000000  0.185122  0.383580  1
  As  As31  1  0.000000  0.814878  0.383580  1
  As  As32  1  0.500000  0.836961  0.889746  1
  As  As33  1  0.500000  0.163039  0.889746  1
  As  As34  1  0.000000  0.663039  0.110254  1
  As  As35  1  0.000000  0.336961  0.110254  1
