# generated using pymatgen
data_Ho12Cd(Si4Ir)3
_symmetry_space_group_name_H-M   'P 1'
_cell_length_a   4.23438700
_cell_length_b   10.73092889
_cell_length_c   12.37288400
_cell_angle_alpha   89.96598324
_cell_angle_beta   90.00000000
_cell_angle_gamma   90.00000000
_symmetry_Int_Tables_number   1
_chemical_formula_structural   Ho12Cd(Si4Ir)3
_chemical_formula_sum   'Ho12 Cd1 Si12 Ir3'
_cell_volume   562.21021140
_cell_formula_units_Z   1
loop_
 _symmetry_equiv_pos_site_id
 _symmetry_equiv_pos_as_xyz
  1  'x, y, z'
loop_
 _atom_site_type_symbol
 _atom_site_label
 _atom_site_symmetry_multiplicity
 _atom_site_fract_x
 _atom_site_fract_y
 _atom_site_fract_z
 _atom_site_occupancy
  Ho  Ho0  1  0.250000  0.881009  0.023573  1
  Ho  Ho1  1  0.250000  0.626265  0.517516  1
  Ho  Ho2  1  0.750000  0.117794  0.981989  1
  Ho  Ho3  1  0.750000  0.380278  0.474824  1
  Ho  Ho4  1  0.250000  0.920751  0.598525  1
  Ho  Ho5  1  0.250000  0.581157  0.103661  1
  Ho  Ho6  1  0.750000  0.080551  0.393973  1
  Ho  Ho7  1  0.750000  0.419412  0.899510  1
  Ho  Ho8  1  0.250000  0.673542  0.804077  1
  Ho  Ho9  1  0.250000  0.841944  0.300942  1
  Ho  Ho10  1  0.750000  0.342106  0.198764  1
  Ho  Ho11  1  0.750000  0.149787  0.700842  1
  Cd  Cd12  1  0.250000  0.386096  0.681775  1
  Si  Si13  1  0.250000  0.005523  0.821783  1
  Si  Si14  1  0.250000  0.489265  0.324526  1
  Si  Si15  1  0.750000  0.988742  0.179618  1
  Si  Si16  1  0.750000  0.533012  0.675405  1
  Si  Si17  1  0.250000  0.234095  0.853719  1
  Si  Si18  1  0.250000  0.252155  0.338057  1
  Si  Si19  1  0.750000  0.753820  0.160183  1
  Si  Si20  1  0.750000  0.755784  0.658313  1
  Si  Si21  1  0.250000  0.179177  0.532006  1
  Si  Si22  1  0.250000  0.297049  0.046866  1
  Si  Si23  1  0.750000  0.800114  0.454422  1
  Si  Si24  1  0.750000  0.701112  0.959872  1
  Ir  Ir25  1  0.250000  0.109112  0.178832  1
  Ir  Ir26  1  0.750000  0.610540  0.316765  1
  Ir  Ir27  1  0.750000  0.889811  0.819659  1
