# generated using pymatgen
data_Y10Ho6In4Ru3Rh
_symmetry_space_group_name_H-M   'P 1'
_cell_length_a   9.69364376
_cell_length_b   9.70745591
_cell_length_c   9.64763898
_cell_angle_alpha   59.65389765
_cell_angle_beta   59.69496963
_cell_angle_gamma   59.76906645
_symmetry_Int_Tables_number   1
_chemical_formula_structural   Y10Ho6In4Ru3Rh
_chemical_formula_sum   'Y10 Ho6 In4 Ru3 Rh1'
_cell_volume   637.65751489
_cell_formula_units_Z   1
loop_
 _symmetry_equiv_pos_site_id
 _symmetry_equiv_pos_as_xyz
  1  'x, y, z'
loop_
 _atom_site_type_symbol
 _atom_site_label
 _atom_site_symmetry_multiplicity
 _atom_site_fract_x
 _atom_site_fract_y
 _atom_site_fract_z
 _atom_site_occupancy
  Y  Y0  1  0.190540  0.191318  0.806227  1
  Y  Y1  1  0.598363  0.597602  0.206984  1
  Y  Y2  1  0.441988  0.058064  0.441052  1
  Y  Y3  1  0.441459  0.441407  0.059141  1
  Y  Y4  1  0.812467  0.189585  0.807172  1
  Y  Y5  1  0.191058  0.808181  0.191955  1
  Y  Y6  1  0.439953  0.055416  0.059381  1
  Y  Y7  1  0.189463  0.811940  0.806973  1
  Y  Y8  1  0.055622  0.439628  0.059455  1
  Y  Y9  1  0.810521  0.809786  0.188887  1
  Ho  Ho10  1  0.205234  0.599353  0.597606  1
  Ho  Ho11  1  0.058531  0.441469  0.440710  1
  Ho  Ho12  1  0.057992  0.057998  0.438701  1
  Ho  Ho13  1  0.807696  0.191870  0.192225  1
  Ho  Ho14  1  0.599487  0.206484  0.596898  1
  Ho  Ho15  1  0.600454  0.599749  0.596123  1
  In  In16  1  0.832259  0.832559  0.832337  1
  In  In17  1  0.832631  0.832536  0.501628  1
  In  In18  1  0.501937  0.832928  0.832168  1
  In  In19  1  0.832849  0.501728  0.832352  1
  Ru  Ru20  1  0.388057  0.829337  0.396130  1
  Ru  Ru21  1  0.386658  0.389335  0.394840  1
  Ru  Ru22  1  0.831189  0.388401  0.396408  1
  Rh  Rh23  1  0.393590  0.393325  0.824644  1
