# generated using pymatgen
data_Dy4Ho4Re3RuC8
_symmetry_space_group_name_H-M   'P 1'
_cell_length_a   5.10245700
_cell_length_b   6.54846901
_cell_length_c   9.81549607
_cell_angle_alpha   90.09847075
_cell_angle_beta   90.00000000
_cell_angle_gamma   90.00000000
_symmetry_Int_Tables_number   1
_chemical_formula_structural   Dy4Ho4Re3RuC8
_chemical_formula_sum   'Dy4 Ho4 Re3 Ru1 C8'
_cell_volume   327.96744918
_cell_formula_units_Z   1
loop_
 _symmetry_equiv_pos_site_id
 _symmetry_equiv_pos_as_xyz
  1  'x, y, z'
loop_
 _atom_site_type_symbol
 _atom_site_label
 _atom_site_symmetry_multiplicity
 _atom_site_fract_x
 _atom_site_fract_y
 _atom_site_fract_z
 _atom_site_occupancy
  Dy  Dy0  1  0.250000  0.467467  0.784197  1
  Dy  Dy1  1  0.750000  0.033429  0.284304  1
  Dy  Dy2  1  0.250000  0.968296  0.717035  1
  Dy  Dy3  1  0.750000  0.531465  0.213883  1
  Ho  Ho4  1  0.250000  0.825605  0.055275  1
  Ho  Ho5  1  0.750000  0.678822  0.556699  1
  Ho  Ho6  1  0.250000  0.320358  0.442865  1
  Ho  Ho7  1  0.750000  0.178964  0.942781  1
  Re  Re8  1  0.750000  0.220372  0.632397  1
  Re  Re9  1  0.250000  0.780269  0.366120  1
  Re  Re10  1  0.750000  0.720731  0.867126  1
  Ru  Ru11  1  0.250000  0.279648  0.133762  1
  C  C12  1  0.250000  0.173204  0.950026  1
  C  C13  1  0.750000  0.823027  0.052351  1
  C  C14  1  0.250000  0.675427  0.550731  1
  C  C15  1  0.750000  0.323261  0.447873  1
  C  C16  1  0.250000  0.045331  0.259713  1
  C  C17  1  0.750000  0.453474  0.758953  1
  C  C18  1  0.250000  0.547855  0.243245  1
  C  C19  1  0.750000  0.952995  0.740664  1
