# generated using pymatgen
data_Sm5Y7Fe2Br17
_symmetry_space_group_name_H-M   'P 1'
_cell_length_a   9.31757068
_cell_length_b   11.18888269
_cell_length_c   11.22449393
_cell_angle_alpha   93.17641083
_cell_angle_beta   105.12950886
_cell_angle_gamma   114.05716576
_symmetry_Int_Tables_number   1
_chemical_formula_structural   Sm5Y7Fe2Br17
_chemical_formula_sum   'Sm5 Y7 Fe2 Br17'
_cell_volume   1013.98114693
_cell_formula_units_Z   1
loop_
 _symmetry_equiv_pos_site_id
 _symmetry_equiv_pos_as_xyz
  1  'x, y, z'
loop_
 _atom_site_type_symbol
 _atom_site_label
 _atom_site_symmetry_multiplicity
 _atom_site_fract_x
 _atom_site_fract_y
 _atom_site_fract_z
 _atom_site_occupancy
  Sm  Sm0  1  0.060125  0.515402  0.320406  1
  Sm  Sm1  1  0.985310  0.806656  0.583037  1
  Sm  Sm2  1  0.640845  0.238754  0.285575  1
  Sm  Sm3  1  0.018554  0.189908  0.422687  1
  Sm  Sm4  1  0.224493  0.671881  0.987270  1
  Y  Y5  1  0.258291  0.990433  0.892856  1
  Y  Y6  1  0.359509  0.760802  0.712292  1
  Y  Y7  1  0.939549  0.483760  0.677248  1
  Y  Y8  1  0.746832  0.015274  0.109795  1
  Y  Y9  1  0.150842  0.286559  0.148505  1
  Y  Y10  1  0.772346  0.326738  0.007954  1
  Y  Y11  1  0.842873  0.711575  0.851540  1
  Fe  Fe12  1  0.103426  0.738024  0.785652  1
  Fe  Fe13  1  0.896612  0.262664  0.214517  1
  Br  Br14  1  0.790093  0.525936  0.424835  1
  Br  Br15  1  0.649811  0.423886  0.762707  1
  Br  Br16  1  0.844547  0.898935  0.325674  1
  Br  Br17  1  0.324939  0.215041  0.363192  1
  Br  Br18  1  0.155862  0.098108  0.677900  1
  Br  Br19  1  0.580781  0.050903  0.848418  1
  Br  Br20  1  0.765650  0.192768  0.542653  1
  Br  Br21  1  0.552023  0.714984  0.949053  1
  Br  Br22  1  0.354838  0.572800  0.236059  1
  Br  Br23  1  0.211418  0.475486  0.583141  1
  Br  Br24  1  0.051681  0.371706  0.897689  1
  Br  Br25  1  0.445777  0.286077  0.042022  1
  Br  Br26  1  0.000203  0.999362  0.998950  1
  Br  Br27  1  0.244979  0.815977  0.468054  1
  Br  Br28  1  0.416249  0.947430  0.146907  1
  Br  Br29  1  0.671642  0.784767  0.638933  1
  Br  Br30  1  0.939902  0.627406  0.094479  1
