# generated using pymatgen
data_Cs3CrRhBr9
_symmetry_space_group_name_H-M   'P 1'
_cell_length_a   7.78300100
_cell_length_b   7.78302605
_cell_length_c   19.47104300
_cell_angle_alpha   90.00000000
_cell_angle_beta   90.00000000
_cell_angle_gamma   120.00094636
_symmetry_Int_Tables_number   1
_chemical_formula_structural   Cs3CrRhBr9
_chemical_formula_sum   'Cs6 Cr2 Rh2 Br18'
_cell_volume   1021.43627273
_cell_formula_units_Z   2
loop_
 _symmetry_equiv_pos_site_id
 _symmetry_equiv_pos_as_xyz
  1  'x, y, z'
loop_
 _atom_site_type_symbol
 _atom_site_label
 _atom_site_symmetry_multiplicity
 _atom_site_fract_x
 _atom_site_fract_y
 _atom_site_fract_z
 _atom_site_occupancy
  Cs  Cs0  1  0.666667  0.333335  0.931432  1
  Cs  Cs1  1  0.333333  0.666665  0.431432  1
  Cs  Cs2  1  0.666666  0.333331  0.570440  1
  Cs  Cs3  1  0.333334  0.666669  0.070440  1
  Cs  Cs4  1  0.999999  0.000000  0.749204  1
  Cs  Cs5  1  0.000001  0.000000  0.249204  1
  Cr  Cr6  1  0.666682  0.333321  0.335880  1
  Cr  Cr7  1  0.333318  0.666679  0.835880  1
  Rh  Rh8  1  0.333318  0.666663  0.667173  1
  Rh  Rh9  1  0.666682  0.333337  0.167173  1
  Br  Br10  1  0.820360  0.640701  0.404954  1
  Br  Br11  1  0.179640  0.359299  0.904954  1
  Br  Br12  1  0.179642  0.820351  0.904955  1
  Br  Br13  1  0.181541  0.363084  0.594226  1
  Br  Br14  1  0.640691  0.820352  0.904953  1
  Br  Br15  1  0.359309  0.179648  0.404953  1
  Br  Br16  1  0.038234  0.519118  0.749437  1
  Br  Br17  1  0.820358  0.179649  0.404955  1
  Br  Br18  1  0.519132  0.038254  0.249445  1
  Br  Br19  1  0.480866  0.519127  0.749445  1
  Br  Br20  1  0.519134  0.480873  0.249445  1
  Br  Br21  1  0.961766  0.480882  0.249437  1
  Br  Br22  1  0.363087  0.181543  0.094230  1
  Br  Br23  1  0.480868  0.961746  0.749445  1
  Br  Br24  1  0.818459  0.636916  0.094226  1
  Br  Br25  1  0.181542  0.818457  0.594226  1
  Br  Br26  1  0.636913  0.818457  0.594230  1
  Br  Br27  1  0.818458  0.181543  0.094226  1
