# generated using pymatgen
data_SmCu3NiPt
_symmetry_space_group_name_H-M   'P 1'
_cell_length_a   5.18904843
_cell_length_b   5.18904862
_cell_length_c   4.10128200
_cell_angle_alpha   90.00000000
_cell_angle_beta   90.00000000
_cell_angle_gamma   123.76308471
_symmetry_Int_Tables_number   1
_chemical_formula_structural   SmCu3NiPt
_chemical_formula_sum   'Sm1 Cu3 Ni1 Pt1'
_cell_volume   91.80687208
_cell_formula_units_Z   1
loop_
 _symmetry_equiv_pos_site_id
 _symmetry_equiv_pos_as_xyz
  1  'x, y, z'
loop_
 _atom_site_type_symbol
 _atom_site_label
 _atom_site_symmetry_multiplicity
 _atom_site_fract_x
 _atom_site_fract_y
 _atom_site_fract_z
 _atom_site_occupancy
  Sm  Sm0  1  0.502453  0.497547  0.000000  1
  Cu  Cu1  1  0.180245  0.819755  0.000000  1
  Cu  Cu2  1  0.997926  0.500239  0.500000  1
  Cu  Cu3  1  0.499761  0.002074  0.500000  1
  Ni  Ni4  1  0.821815  0.178185  0.000000  1
  Pt  Pt5  1  0.997799  0.002201  0.500000  1
