# generated using pymatgen
data_PrHo2Sc2(In2Pt)2
_symmetry_space_group_name_H-M   'P 1'
_cell_length_a   3.58874400
_cell_length_b   8.07683900
_cell_length_c   17.96203200
_cell_angle_alpha   90.00000000
_cell_angle_beta   90.00000000
_cell_angle_gamma   90.00000000
_symmetry_Int_Tables_number   1
_chemical_formula_structural   PrHo2Sc2(In2Pt)2
_chemical_formula_sum   'Pr2 Ho4 Sc4 In8 Pt4'
_cell_volume   520.64220566
_cell_formula_units_Z   2
loop_
 _symmetry_equiv_pos_site_id
 _symmetry_equiv_pos_as_xyz
  1  'x, y, z'
loop_
 _atom_site_type_symbol
 _atom_site_label
 _atom_site_symmetry_multiplicity
 _atom_site_fract_x
 _atom_site_fract_y
 _atom_site_fract_z
 _atom_site_occupancy
  Pr  Pr0  1  0.000000  0.000000  0.000000  1
  Pr  Pr1  1  0.000000  0.500000  0.500000  1
  Ho  Ho2  1  0.000000  0.238746  0.213558  1
  Ho  Ho3  1  0.000000  0.761254  0.786442  1
  Ho  Ho4  1  0.000000  0.261254  0.713558  1
  Ho  Ho5  1  0.000000  0.738746  0.286442  1
  Sc  Sc6  1  0.000000  0.121726  0.411149  1
  Sc  Sc7  1  0.000000  0.878274  0.588851  1
  Sc  Sc8  1  0.000000  0.378274  0.911149  1
  Sc  Sc9  1  0.000000  0.621726  0.088851  1
  In  In10  1  0.500000  0.408246  0.346293  1
  In  In11  1  0.500000  0.591754  0.653707  1
  In  In12  1  0.500000  0.091754  0.846293  1
  In  In13  1  0.500000  0.908246  0.153707  1
  In  In14  1  0.500000  0.319750  0.058934  1
  In  In15  1  0.500000  0.680250  0.941066  1
  In  In16  1  0.500000  0.180250  0.558934  1
  In  In17  1  0.500000  0.819750  0.441066  1
  Pt  Pt18  1  0.500000  0.029569  0.306171  1
  Pt  Pt19  1  0.500000  0.970431  0.693829  1
  Pt  Pt20  1  0.500000  0.470431  0.806171  1
  Pt  Pt21  1  0.500000  0.529569  0.193829  1
