# generated using pymatgen
data_TbSm6IrI12
_symmetry_space_group_name_H-M   'P 1'
_cell_length_a   9.93467455
_cell_length_b   9.93467438
_cell_length_c   9.93467400
_cell_angle_alpha   107.10922691
_cell_angle_beta   107.10922660
_cell_angle_gamma   107.10922792
_symmetry_Int_Tables_number   1
_chemical_formula_structural   TbSm6IrI12
_chemical_formula_sum   'Tb1 Sm6 Ir1 I12'
_cell_volume   814.14942563
_cell_formula_units_Z   1
loop_
 _symmetry_equiv_pos_site_id
 _symmetry_equiv_pos_as_xyz
  1  'x, y, z'
loop_
 _atom_site_type_symbol
 _atom_site_label
 _atom_site_symmetry_multiplicity
 _atom_site_fract_x
 _atom_site_fract_y
 _atom_site_fract_z
 _atom_site_occupancy
  Tb  Tb0  1  0.500000  0.500000  0.500000  1
  Sm  Sm1  1  0.902851  0.699704  0.975417  1
  Sm  Sm2  1  0.975417  0.902851  0.699704  1
  Sm  Sm3  1  0.699704  0.975417  0.902851  1
  Sm  Sm4  1  0.097149  0.300296  0.024583  1
  Sm  Sm5  1  0.024583  0.097149  0.300296  1
  Sm  Sm6  1  0.300296  0.024583  0.097149  1
  Ir  Ir7  1  0.000000  0.000000  0.000000  1
  I  I8  1  0.772973  0.320123  0.925676  1
  I  I9  1  0.925676  0.772973  0.320123  1
  I  I10  1  0.320123  0.925676  0.772973  1
  I  I11  1  0.227027  0.679877  0.074324  1
  I  I12  1  0.074324  0.227027  0.679877  1
  I  I13  1  0.679877  0.074324  0.227027  1
  I  I14  1  0.533795  0.610885  0.834339  1
  I  I15  1  0.834339  0.533795  0.610885  1
  I  I16  1  0.610885  0.834339  0.533795  1
  I  I17  1  0.466205  0.389115  0.165661  1
  I  I18  1  0.165661  0.466205  0.389115  1
  I  I19  1  0.389115  0.165661  0.466205  1
