# generated using pymatgen
data_Hf18CuRe8S
_symmetry_space_group_name_H-M   'P 1'
_cell_length_a   8.58331522
_cell_length_b   8.58331571
_cell_length_c   8.56531500
_cell_angle_alpha   90.00000000
_cell_angle_beta   90.00000000
_cell_angle_gamma   120.05941655
_symmetry_Int_Tables_number   1
_chemical_formula_structural   Hf18CuRe8S
_chemical_formula_sum   'Hf18 Cu1 Re8 S1'
_cell_volume   546.16490182
_cell_formula_units_Z   1
loop_
 _symmetry_equiv_pos_site_id
 _symmetry_equiv_pos_as_xyz
  1  'x, y, z'
loop_
 _atom_site_type_symbol
 _atom_site_label
 _atom_site_symmetry_multiplicity
 _atom_site_fract_x
 _atom_site_fract_y
 _atom_site_fract_z
 _atom_site_occupancy
  Hf  Hf0  1  0.195080  0.804920  0.445053  1
  Hf  Hf1  1  0.195048  0.390124  0.445079  1
  Hf  Hf2  1  0.609876  0.804952  0.445079  1
  Hf  Hf3  1  0.804904  0.195096  0.551858  1
  Hf  Hf4  1  0.804562  0.609434  0.552120  1
  Hf  Hf5  1  0.390566  0.195438  0.552120  1
  Hf  Hf6  1  0.804904  0.195096  0.948142  1
  Hf  Hf7  1  0.804562  0.609434  0.947880  1
  Hf  Hf8  1  0.390566  0.195438  0.947880  1
  Hf  Hf9  1  0.195080  0.804920  0.054947  1
  Hf  Hf10  1  0.195048  0.390124  0.054921  1
  Hf  Hf11  1  0.609876  0.804952  0.054921  1
  Hf  Hf12  1  0.541827  0.458173  0.250000  1
  Hf  Hf13  1  0.541917  0.083895  0.250000  1
  Hf  Hf14  1  0.916105  0.458083  0.250000  1
  Hf  Hf15  1  0.454226  0.545774  0.750000  1
  Hf  Hf16  1  0.454622  0.909674  0.750000  1
  Hf  Hf17  1  0.090326  0.545378  0.750000  1
  Cu  Cu18  1  0.333619  0.666381  0.250000  1
  Re  Re19  1  0.889174  0.778342  0.250000  1
  Re  Re20  1  0.221658  0.110826  0.250000  1
  Re  Re21  1  0.889213  0.110787  0.250000  1
  Re  Re22  1  0.110370  0.889630  0.750000  1
  Re  Re23  1  0.110360  0.220881  0.750000  1
  Re  Re24  1  0.779119  0.889640  0.750000  1
  Re  Re25  1  0.000029  0.999971  0.500039  1
  Re  Re26  1  0.000029  0.999971  0.999961  1
  S  S27  1  0.667332  0.332668  0.750000  1
