# generated using pymatgen
data_KSr3Ca2(ReN4)2
_symmetry_space_group_name_H-M   'P 1'
_cell_length_a   10.46602720
_cell_length_b   10.13963419
_cell_length_c   8.00017775
_cell_angle_alpha   69.32628804
_cell_angle_beta   65.01635209
_cell_angle_gamma   45.65735918
_symmetry_Int_Tables_number   1
_chemical_formula_structural   KSr3Ca2(ReN4)2
_chemical_formula_sum   'K2 Sr6 Ca4 Re4 N16'
_cell_volume   548.16677172
_cell_formula_units_Z   2
loop_
 _symmetry_equiv_pos_site_id
 _symmetry_equiv_pos_as_xyz
  1  'x, y, z'
loop_
 _atom_site_type_symbol
 _atom_site_label
 _atom_site_symmetry_multiplicity
 _atom_site_fract_x
 _atom_site_fract_y
 _atom_site_fract_z
 _atom_site_occupancy
  K  K0  1  0.565848  0.934152  0.934152  1
  K  K1  1  0.934152  0.565848  0.565848  1
  Sr  Sr2  1  0.311514  0.688486  0.688486  1
  Sr  Sr3  1  0.105139  0.105139  0.894861  1
  Sr  Sr4  1  0.131227  0.131227  0.368773  1
  Sr  Sr5  1  0.368773  0.368773  0.131227  1
  Sr  Sr6  1  0.688486  0.311514  0.311514  1
  Sr  Sr7  1  0.894861  0.894861  0.105139  1
  Ca  Ca8  1  0.334416  0.334416  0.665584  1
  Ca  Ca9  1  0.907395  0.907395  0.592605  1
  Ca  Ca10  1  0.665584  0.665584  0.334416  1
  Ca  Ca11  1  0.592605  0.592605  0.907395  1
  Re  Re12  1  0.490830  0.009170  0.490830  1
  Re  Re13  1  0.009170  0.490830  0.009170  1
  Re  Re14  1  0.752802  0.247198  0.752802  1
  Re  Re15  1  0.247198  0.752802  0.247198  1
  N  N16  1  0.039250  0.635229  0.807727  1
  N  N17  1  0.718167  0.274162  0.997475  1
  N  N18  1  0.635229  0.039250  0.517795  1
  N  N19  1  0.517795  0.807727  0.635229  1
  N  N20  1  0.269221  0.559584  0.405570  1
  N  N21  1  0.765625  0.405570  0.559584  1
  N  N22  1  0.997475  0.010196  0.718167  1
  N  N23  1  0.557458  0.982123  0.245463  1
  N  N24  1  0.405570  0.765625  0.269221  1
  N  N25  1  0.982123  0.557458  0.214955  1
  N  N26  1  0.274162  0.718167  0.010196  1
  N  N27  1  0.807727  0.517795  0.039250  1
  N  N28  1  0.214955  0.245463  0.982123  1
  N  N29  1  0.559584  0.269221  0.765625  1
  N  N30  1  0.245463  0.214955  0.557458  1
  N  N31  1  0.010196  0.997475  0.274162  1
