# generated using pymatgen
data_Dy3LuFe5Si10Rh
_symmetry_space_group_name_H-M   'P 1'
_cell_length_a   8.01495517
_cell_length_b   8.01207797
_cell_length_c   8.01207810
_cell_angle_alpha   140.39492792
_cell_angle_beta   108.09670436
_cell_angle_gamma   85.34469951
_symmetry_Int_Tables_number   1
_chemical_formula_structural   Dy3LuFe5Si10Rh
_chemical_formula_sum   'Dy3 Lu1 Fe5 Si10 Rh1'
_cell_volume   300.96264824
_cell_formula_units_Z   1
loop_
 _symmetry_equiv_pos_site_id
 _symmetry_equiv_pos_as_xyz
  1  'x, y, z'
loop_
 _atom_site_type_symbol
 _atom_site_label
 _atom_site_symmetry_multiplicity
 _atom_site_fract_x
 _atom_site_fract_y
 _atom_site_fract_z
 _atom_site_occupancy
  Dy  Dy0  1  0.405218  0.637486  0.767734  1
  Dy  Dy1  1  0.871542  0.138970  0.732571  1
  Dy  Dy2  1  0.135988  0.863781  0.272206  1
  Lu  Lu3  1  0.594037  0.362377  0.231659  1
  Fe  Fe4  1  0.995380  0.747170  0.744791  1
  Fe  Fe5  1  0.448648  0.857054  0.591596  1
  Fe  Fe6  1  0.264418  0.354674  0.909744  1
  Fe  Fe7  1  0.737052  0.644557  0.092495  1
  Fe  Fe8  1  0.995380  0.250589  0.248210  1
  Si  Si9  1  0.248213  0.091269  0.156946  1
  Si  Si10  1  0.734340  0.906022  0.828320  1
  Si  Si11  1  0.074557  0.405670  0.668887  1
  Si  Si12  1  0.923531  0.593525  0.330005  1
  Si  Si13  1  0.796565  0.035605  0.246433  1
  Si  Si14  1  0.211391  0.463180  0.251416  1
  Si  Si15  1  0.211391  0.959974  0.748210  1
  Si  Si16  1  0.503575  0.734299  0.244102  1
  Si  Si17  1  0.503575  0.259473  0.769277  1
  Si  Si18  1  0.796565  0.550132  0.760960  1
  Rh  Rh19  1  0.548632  0.144192  0.404440  1
