# generated using pymatgen
data_Ti3Si2RhC
_symmetry_space_group_name_H-M   'P 1'
_cell_length_a   8.04753186
_cell_length_b   8.04959464
_cell_length_c   8.04886117
_cell_angle_alpha   59.99123621
_cell_angle_beta   60.00950322
_cell_angle_gamma   60.00445869
_symmetry_Int_Tables_number   1
_chemical_formula_structural   Ti3Si2RhC
_chemical_formula_sum   'Ti12 Si8 Rh4 C4'
_cell_volume   368.70004569
_cell_formula_units_Z   4
loop_
 _symmetry_equiv_pos_site_id
 _symmetry_equiv_pos_as_xyz
  1  'x, y, z'
loop_
 _atom_site_type_symbol
 _atom_site_label
 _atom_site_symmetry_multiplicity
 _atom_site_fract_x
 _atom_site_fract_y
 _atom_site_fract_z
 _atom_site_occupancy
  Ti  Ti0  1  0.938194  0.938009  0.561843  1
  Ti  Ti1  1  0.688304  0.311772  0.311795  1
  Ti  Ti2  1  0.311659  0.688151  0.688209  1
  Ti  Ti3  1  0.688208  0.688108  0.311745  1
  Ti  Ti4  1  0.688228  0.311706  0.688167  1
  Ti  Ti5  1  0.311871  0.688103  0.311975  1
  Ti  Ti6  1  0.561772  0.938294  0.561833  1
  Ti  Ti7  1  0.561696  0.938228  0.938205  1
  Ti  Ti8  1  0.938341  0.561849  0.561791  1
  Ti  Ti9  1  0.938129  0.561897  0.938025  1
  Ti  Ti10  1  0.311806  0.311991  0.688157  1
  Ti  Ti11  1  0.561792  0.561892  0.938255  1
  Si  Si12  1  0.913428  0.259911  0.913362  1
  Si  Si13  1  0.336594  0.336645  0.990081  1
  Si  Si14  1  0.990122  0.336622  0.336609  1
  Si  Si15  1  0.336584  0.336668  0.336639  1
  Si  Si16  1  0.259878  0.913378  0.913391  1
  Si  Si17  1  0.913416  0.913332  0.913361  1
  Si  Si18  1  0.913406  0.913355  0.259919  1
  Si  Si19  1  0.336572  0.990089  0.336638  1
  Rh  Rh20  1  0.125000  0.625000  0.125000  1
  Rh  Rh21  1  0.125000  0.125000  0.625000  1
  Rh  Rh22  1  0.625000  0.125000  0.125000  1
  Rh  Rh23  1  0.125000  0.125000  0.125000  1
  C  C24  1  0.625000  0.125000  0.625000  1
  C  C25  1  0.625000  0.625000  0.125000  1
  C  C26  1  0.125000  0.625000  0.625000  1
  C  C27  1  0.625000  0.625000  0.625000  1
