# generated using pymatgen
data_Tb4Er5Lu11(CoSb2)4
_symmetry_space_group_name_H-M   'P 1'
_cell_length_a   7.74233731
_cell_length_b   8.76054300
_cell_length_c   12.02122048
_cell_angle_alpha   90.00000000
_cell_angle_beta   90.03230022
_cell_angle_gamma   90.00000000
_symmetry_Int_Tables_number   1
_chemical_formula_structural   Tb4Er5Lu11(CoSb2)4
_chemical_formula_sum   'Tb4 Er5 Lu11 Co4 Sb8'
_cell_volume   815.36414028
_cell_formula_units_Z   1
loop_
 _symmetry_equiv_pos_site_id
 _symmetry_equiv_pos_as_xyz
  1  'x, y, z'
loop_
 _atom_site_type_symbol
 _atom_site_label
 _atom_site_symmetry_multiplicity
 _atom_site_fract_x
 _atom_site_fract_y
 _atom_site_fract_z
 _atom_site_occupancy
  Tb  Tb0  1  0.622561  0.750000  0.307145  1
  Tb  Tb1  1  0.122555  0.250000  0.192958  1
  Tb  Tb2  1  0.377481  0.250000  0.692866  1
  Tb  Tb3  1  0.877433  0.750000  0.807052  1
  Er  Er4  1  0.154606  0.750000  0.204196  1
  Er  Er5  1  0.654840  0.250000  0.296074  1
  Er  Er6  1  0.845045  0.250000  0.796038  1
  Er  Er7  1  0.345053  0.750000  0.703833  1
  Er  Er8  1  0.447443  0.750000  0.997482  1
  Lu  Lu9  1  0.947003  0.250000  0.502531  1
  Lu  Lu10  1  0.552955  0.250000  0.002496  1
  Lu  Lu11  1  0.052975  0.750000  0.497477  1
  Lu  Lu12  1  0.823843  0.962574  0.065164  1
  Lu  Lu13  1  0.323661  0.037570  0.434883  1
  Lu  Lu14  1  0.176092  0.462085  0.934747  1
  Lu  Lu15  1  0.676343  0.537627  0.565122  1
  Lu  Lu16  1  0.176092  0.037915  0.934747  1
  Lu  Lu17  1  0.676343  0.962373  0.565122  1
  Lu  Lu18  1  0.823843  0.537426  0.065164  1
  Lu  Lu19  1  0.323661  0.462430  0.434883  1
  Co  Co20  1  0.431275  0.750000  0.491180  1
  Co  Co21  1  0.931291  0.250000  0.008775  1
  Co  Co22  1  0.568685  0.250000  0.508800  1
  Co  Co23  1  0.068410  0.750000  0.991240  1
  Sb  Sb24  1  0.931073  0.991628  0.329491  1
  Sb  Sb25  1  0.431060  0.008767  0.170836  1
  Sb  Sb26  1  0.068931  0.491579  0.670505  1
  Sb  Sb27  1  0.569190  0.508086  0.829181  1
  Sb  Sb28  1  0.068931  0.008421  0.670505  1
  Sb  Sb29  1  0.569190  0.991914  0.829181  1
  Sb  Sb30  1  0.931073  0.508372  0.329491  1
  Sb  Sb31  1  0.431060  0.491233  0.170836  1
