# generated using pymatgen
data_Sm5Dy(Lu7Pt8)2
_symmetry_space_group_name_H-M   'P 1'
_cell_length_a   7.41761906
_cell_length_b   7.49220830
_cell_length_c   14.65011300
_cell_angle_alpha   90.00726501
_cell_angle_beta   89.99270055
_cell_angle_gamma   90.03301468
_symmetry_Int_Tables_number   1
_chemical_formula_structural   Sm5Dy(Lu7Pt8)2
_chemical_formula_sum   'Sm5 Dy1 Lu14 Pt16'
_cell_volume   814.17031688
_cell_formula_units_Z   1
loop_
 _symmetry_equiv_pos_site_id
 _symmetry_equiv_pos_as_xyz
  1  'x, y, z'
loop_
 _atom_site_type_symbol
 _atom_site_label
 _atom_site_symmetry_multiplicity
 _atom_site_fract_x
 _atom_site_fract_y
 _atom_site_fract_z
 _atom_site_occupancy
  Sm  Sm0  1  0.512790  0.324126  0.094142  1
  Sm  Sm1  1  0.012868  0.174530  0.406587  1
  Sm  Sm2  1  0.512184  0.329568  0.407478  1
  Sm  Sm3  1  0.011954  0.170806  0.092427  1
  Sm  Sm4  1  0.487129  0.676012  0.905298  1
  Dy  Dy5  1  0.987051  0.823012  0.594765  1
  Lu  Lu6  1  0.645578  0.167144  0.622856  1
  Lu  Lu7  1  0.144777  0.332370  0.875921  1
  Lu  Lu8  1  0.355966  0.833105  0.122551  1
  Lu  Lu9  1  0.856857  0.667439  0.378159  1
  Lu  Lu10  1  0.357701  0.830832  0.379542  1
  Lu  Lu11  1  0.857985  0.669472  0.121084  1
  Lu  Lu12  1  0.646866  0.166629  0.876834  1
  Lu  Lu13  1  0.145938  0.333249  0.622548  1
  Lu  Lu14  1  0.487554  0.678637  0.596600  1
  Lu  Lu15  1  0.988675  0.821394  0.903325  1
  Lu  Lu16  1  0.805957  0.508568  0.749156  1
  Lu  Lu17  1  0.305931  0.991609  0.749273  1
  Lu  Lu18  1  0.193105  0.491411  0.249847  1
  Lu  Lu19  1  0.693127  0.008561  0.250920  1
  Pt  Pt20  1  0.687828  0.960521  0.461546  1
  Pt  Pt21  1  0.186995  0.537274  0.040341  1
  Pt  Pt22  1  0.305921  0.029176  0.955337  1
  Pt  Pt23  1  0.806459  0.474686  0.545459  1
  Pt  Pt24  1  0.312691  0.026558  0.545710  1
  Pt  Pt25  1  0.817352  0.471174  0.954677  1
  Pt  Pt26  1  0.687124  0.959995  0.037855  1
  Pt  Pt27  1  0.186741  0.541164  0.462873  1
  Pt  Pt28  1  0.440274  0.380543  0.748329  1
  Pt  Pt29  1  0.941132  0.118469  0.749752  1
  Pt  Pt30  1  0.560303  0.625675  0.250482  1
  Pt  Pt31  1  0.060180  0.874902  0.250643  1
  Pt  Pt32  1  0.669549  0.858605  0.747114  1
  Pt  Pt33  1  0.166740  0.642638  0.749275  1
  Pt  Pt34  1  0.330391  0.138641  0.251345  1
  Pt  Pt35  1  0.830324  0.361503  0.249947  1
