# generated using pymatgen
data_BaNaRhF6
_symmetry_space_group_name_H-M   'P 1'
_cell_length_a   9.98222000
_cell_length_b   5.89342363
_cell_length_c   10.05692247
_cell_angle_alpha   87.00307836
_cell_angle_beta   90.00000000
_cell_angle_gamma   90.00000000
_symmetry_Int_Tables_number   1
_chemical_formula_structural   BaNaRhF6
_chemical_formula_sum   'Ba4 Na4 Rh4 F24'
_cell_volume   590.83406663
_cell_formula_units_Z   4
loop_
 _symmetry_equiv_pos_site_id
 _symmetry_equiv_pos_as_xyz
  1  'x, y, z'
loop_
 _atom_site_type_symbol
 _atom_site_label
 _atom_site_symmetry_multiplicity
 _atom_site_fract_x
 _atom_site_fract_y
 _atom_site_fract_z
 _atom_site_occupancy
  Ba  Ba0  1  0.324456  0.765642  0.489828  1
  Ba  Ba1  1  0.824456  0.234358  0.010172  1
  Ba  Ba2  1  0.675544  0.234358  0.510172  1
  Ba  Ba3  1  0.175544  0.765642  0.989828  1
  Na  Na4  1  0.048752  0.275697  0.397014  1
  Na  Na5  1  0.548752  0.724303  0.102986  1
  Na  Na6  1  0.951248  0.724303  0.602986  1
  Na  Na7  1  0.451248  0.275697  0.897014  1
  Rh  Rh8  1  0.920948  0.767937  0.265893  1
  Rh  Rh9  1  0.420948  0.232063  0.234107  1
  Rh  Rh10  1  0.079052  0.232063  0.734107  1
  Rh  Rh11  1  0.579052  0.767937  0.765893  1
  F  F12  1  0.021897  0.006884  0.154062  1
  F  F13  1  0.521897  0.993116  0.345938  1
  F  F14  1  0.978103  0.993116  0.845938  1
  F  F15  1  0.478103  0.006884  0.654062  1
  F  F16  1  0.676556  0.528329  0.875030  1
  F  F17  1  0.176556  0.471671  0.624970  1
  F  F18  1  0.323444  0.471671  0.124970  1
  F  F19  1  0.823444  0.528329  0.375030  1
  F  F20  1  0.918264  0.326951  0.621951  1
  F  F21  1  0.418264  0.673049  0.878049  1
  F  F22  1  0.081736  0.673049  0.378049  1
  F  F23  1  0.581736  0.326951  0.121951  1
  F  F24  1  0.526884  0.533878  0.637124  1
  F  F25  1  0.026884  0.466122  0.862876  1
  F  F26  1  0.473116  0.466122  0.362876  1
  F  F27  1  0.973116  0.533878  0.137124  1
  F  F28  1  0.239763  0.148590  0.847320  1
  F  F29  1  0.739763  0.851410  0.652680  1
  F  F30  1  0.760237  0.851410  0.152680  1
  F  F31  1  0.260237  0.148590  0.347320  1
  F  F32  1  0.621453  0.007209  0.895843  1
  F  F33  1  0.121453  0.992791  0.604157  1
  F  F34  1  0.378547  0.992791  0.104157  1
  F  F35  1  0.878547  0.007209  0.395843  1
