# generated using pymatgen
data_Dy4As6Ir4Ru3
_symmetry_space_group_name_H-M   'P 1'
_cell_length_a   7.26694249
_cell_length_b   7.26872702
_cell_length_c   7.26871779
_cell_angle_alpha   109.48145938
_cell_angle_beta   109.47283760
_cell_angle_gamma   109.47037271
_symmetry_Int_Tables_number   1
_chemical_formula_structural   Dy4As6Ir4Ru3
_chemical_formula_sum   'Dy4 As6 Ir4 Ru3'
_cell_volume   295.52007075
_cell_formula_units_Z   1
loop_
 _symmetry_equiv_pos_site_id
 _symmetry_equiv_pos_as_xyz
  1  'x, y, z'
loop_
 _atom_site_type_symbol
 _atom_site_label
 _atom_site_symmetry_multiplicity
 _atom_site_fract_x
 _atom_site_fract_y
 _atom_site_fract_z
 _atom_site_occupancy
  Dy  Dy0  1  0.999998  0.000058  0.499903  1
  Dy  Dy1  1  0.500000  0.999887  0.000110  1
  Dy  Dy2  1  0.000001  0.500097  0.999942  1
  Dy  Dy3  1  0.500000  0.499890  0.500111  1
  As  As4  1  0.678826  0.681821  0.997010  1
  As  As5  1  0.315081  0.318012  0.997070  1
  As  As6  1  0.000011  0.677664  0.683528  1
  As  As7  1  0.999986  0.316472  0.322333  1
  As  As8  1  0.684921  0.002933  0.681990  1
  As  As9  1  0.321178  0.002993  0.318178  1
  Ir  Ir10  1  0.500004  0.250709  0.749303  1
  Ir  Ir11  1  0.500000  0.750697  0.249292  1
  Ir  Ir12  1  0.748387  0.498914  0.249467  1
  Ir  Ir13  1  0.251615  0.750533  0.501087  1
  Ru  Ru14  1  0.999996  0.999961  0.000035  1
  Ru  Ru15  1  0.250656  0.500014  0.750656  1
  Ru  Ru16  1  0.749341  0.249345  0.499986  1
