# generated using pymatgen
data_Zr2ZnB2Ir3Ru2
_symmetry_space_group_name_H-M   'P 1'
_cell_length_a   9.39971106
_cell_length_b   9.44665503
_cell_length_c   3.10316800
_cell_angle_alpha   90.00000000
_cell_angle_beta   90.00000000
_cell_angle_gamma   89.81679352
_symmetry_Int_Tables_number   1
_chemical_formula_structural   Zr2ZnB2Ir3Ru2
_chemical_formula_sum   'Zr4 Zn2 B4 Ir6 Ru4'
_cell_volume   275.54696250
_cell_formula_units_Z   2
loop_
 _symmetry_equiv_pos_site_id
 _symmetry_equiv_pos_as_xyz
  1  'x, y, z'
loop_
 _atom_site_type_symbol
 _atom_site_label
 _atom_site_symmetry_multiplicity
 _atom_site_fract_x
 _atom_site_fract_y
 _atom_site_fract_z
 _atom_site_occupancy
  Zr  Zr0  1  0.671113  0.175716  0.000000  1
  Zr  Zr1  1  0.328887  0.824284  0.000000  1
  Zr  Zr2  1  0.179317  0.324918  0.000000  1
  Zr  Zr3  1  0.820683  0.675082  0.000000  1
  Zn  Zn4  1  0.000000  0.000000  0.000000  1
  Zn  Zn5  1  0.500000  0.500000  0.000000  1
  B  B6  1  0.124074  0.623747  0.000000  1
  B  B7  1  0.875926  0.376253  0.000000  1
  B  B8  1  0.621971  0.873265  0.000000  1
  B  B9  1  0.378029  0.126735  0.000000  1
  Ir  Ir10  1  0.217271  0.069201  0.500000  1
  Ir  Ir11  1  0.782729  0.930799  0.500000  1
  Ir  Ir12  1  0.068511  0.782609  0.500000  1
  Ir  Ir13  1  0.717819  0.429109  0.500000  1
  Ir  Ir14  1  0.931489  0.217391  0.500000  1
  Ir  Ir15  1  0.282181  0.570891  0.500000  1
  Ru  Ru16  1  0.569594  0.716964  0.500000  1
  Ru  Ru17  1  0.430406  0.283036  0.500000  1
  Ru  Ru18  1  0.500000  0.000000  0.500000  1
  Ru  Ru19  1  0.000000  0.500000  0.500000  1
