# generated using pymatgen
data_Zr8ZnFe2Rh
_symmetry_space_group_name_H-M   'P 1'
_cell_length_a   8.74319506
_cell_length_b   8.74319583
_cell_length_c   8.73527100
_cell_angle_alpha   60.02999029
_cell_angle_beta   60.02998739
_cell_angle_gamma   60.28299446
_symmetry_Int_Tables_number   1
_chemical_formula_structural   Zr8ZnFe2Rh
_chemical_formula_sum   'Zr16 Zn2 Fe4 Rh2'
_cell_volume   473.39051428
_cell_formula_units_Z   2
loop_
 _symmetry_equiv_pos_site_id
 _symmetry_equiv_pos_as_xyz
  1  'x, y, z'
loop_
 _atom_site_type_symbol
 _atom_site_label
 _atom_site_symmetry_multiplicity
 _atom_site_fract_x
 _atom_site_fract_y
 _atom_site_fract_z
 _atom_site_occupancy
  Zr  Zr0  1  0.054535  0.649348  0.648060  1
  Zr  Zr1  1  0.649348  0.054535  0.648060  1
  Zr  Zr2  1  0.649092  0.649092  0.052994  1
  Zr  Zr3  1  0.649092  0.649092  0.648822  1
  Zr  Zr4  1  0.809987  0.809987  0.190013  1
  Zr  Zr5  1  0.194965  0.194965  0.805035  1
  Zr  Zr6  1  0.809410  0.192567  0.805403  1
  Zr  Zr7  1  0.192567  0.809410  0.192620  1
  Zr  Zr8  1  0.192567  0.809410  0.805403  1
  Zr  Zr9  1  0.809410  0.192567  0.192620  1
  Zr  Zr10  1  0.440792  0.440792  0.059208  1
  Zr  Zr11  1  0.068648  0.068648  0.431352  1
  Zr  Zr12  1  0.441486  0.065090  0.435976  1
  Zr  Zr13  1  0.065090  0.441486  0.057448  1
  Zr  Zr14  1  0.065090  0.441486  0.435976  1
  Zr  Zr15  1  0.441486  0.065090  0.057448  1
  Zn  Zn16  1  0.732525  0.418760  0.424358  1
  Zn  Zn17  1  0.418760  0.732525  0.424358  1
  Fe  Fe18  1  0.423570  0.856751  0.859838  1
  Fe  Fe19  1  0.856751  0.423570  0.859838  1
  Fe  Fe20  1  0.859359  0.859359  0.420886  1
  Fe  Fe21  1  0.859359  0.859359  0.860395  1
  Rh  Rh22  1  0.408054  0.408054  0.768887  1
  Rh  Rh23  1  0.408054  0.408054  0.415006  1
