# generated using pymatgen
data_Er8CrTc2RuC8
_symmetry_space_group_name_H-M   'P 1'
_cell_length_a   5.03934000
_cell_length_b   6.49588192
_cell_length_c   9.73620700
_cell_angle_alpha   89.85810731
_cell_angle_beta   90.00000000
_cell_angle_gamma   90.00000000
_symmetry_Int_Tables_number   1
_chemical_formula_structural   Er8CrTc2RuC8
_chemical_formula_sum   'Er8 Cr1 Tc2 Ru1 C8'
_cell_volume   318.71334592
_cell_formula_units_Z   1
loop_
 _symmetry_equiv_pos_site_id
 _symmetry_equiv_pos_as_xyz
  1  'x, y, z'
loop_
 _atom_site_type_symbol
 _atom_site_label
 _atom_site_symmetry_multiplicity
 _atom_site_fract_x
 _atom_site_fract_y
 _atom_site_fract_z
 _atom_site_occupancy
  Er  Er0  1  0.750000  0.531497  0.782597  1
  Er  Er1  1  0.250000  0.966981  0.285493  1
  Er  Er2  1  0.750000  0.674768  0.443970  1
  Er  Er3  1  0.250000  0.826649  0.942041  1
  Er  Er4  1  0.750000  0.180311  0.055318  1
  Er  Er5  1  0.250000  0.319487  0.561298  1
  Er  Er6  1  0.250000  0.465148  0.215346  1
  Er  Er7  1  0.750000  0.029908  0.717621  1
  Cr  Cr8  1  0.250000  0.278665  0.864591  1
  Tc  Tc9  1  0.250000  0.779085  0.634988  1
  Tc  Tc10  1  0.750000  0.719044  0.132929  1
  Ru  Ru11  1  0.750000  0.217748  0.367592  1
  C  C12  1  0.250000  0.677365  0.448678  1
  C  C13  1  0.250000  0.540344  0.764157  1
  C  C14  1  0.750000  0.452167  0.240396  1
  C  C15  1  0.750000  0.825720  0.948184  1
  C  C16  1  0.250000  0.052258  0.743620  1
  C  C17  1  0.250000  0.185069  0.043099  1
  C  C18  1  0.750000  0.325648  0.551368  1
  C  C19  1  0.750000  0.952136  0.256713  1
