# generated using pymatgen
data_Ga(SiPt)2
_symmetry_space_group_name_H-M   'P 1'
_cell_length_a   3.95625500
_cell_length_b   3.95625533
_cell_length_c   12.35644600
_cell_angle_alpha   90.00000000
_cell_angle_beta   90.00000000
_cell_angle_gamma   119.99998891
_symmetry_Int_Tables_number   1
_chemical_formula_structural   Ga(SiPt)2
_chemical_formula_sum   'Ga2 Si4 Pt4'
_cell_volume   167.49152783
_cell_formula_units_Z   2
loop_
 _symmetry_equiv_pos_site_id
 _symmetry_equiv_pos_as_xyz
  1  'x, y, z'
loop_
 _atom_site_type_symbol
 _atom_site_label
 _atom_site_symmetry_multiplicity
 _atom_site_fract_x
 _atom_site_fract_y
 _atom_site_fract_z
 _atom_site_occupancy
  Ga  Ga0  1  0.000000  0.000000  0.250000  1
  Ga  Ga1  1  0.000000  0.000000  0.750000  1
  Si  Si2  1  0.333333  0.666667  0.564397  1
  Si  Si3  1  0.666667  0.333333  0.064397  1
  Si  Si4  1  0.666667  0.333333  0.435603  1
  Si  Si5  1  0.333333  0.666667  0.935603  1
  Pt  Pt6  1  0.333333  0.666667  0.366222  1
  Pt  Pt7  1  0.666667  0.333333  0.866222  1
  Pt  Pt8  1  0.666667  0.333333  0.633778  1
  Pt  Pt9  1  0.333333  0.666667  0.133778  1
