# generated using pymatgen
data_TbYCo2Hg
_symmetry_space_group_name_H-M   'P 1'
_cell_length_a   7.14228272
_cell_length_b   7.14228207
_cell_length_c   3.92714600
_cell_angle_alpha   90.00000000
_cell_angle_beta   90.00000000
_cell_angle_gamma   149.22979503
_symmetry_Int_Tables_number   1
_chemical_formula_structural   TbYCo2Hg
_chemical_formula_sum   'Tb1 Y1 Co2 Hg1'
_cell_volume   102.48925192
_cell_formula_units_Z   1
loop_
 _symmetry_equiv_pos_site_id
 _symmetry_equiv_pos_as_xyz
  1  'x, y, z'
loop_
 _atom_site_type_symbol
 _atom_site_label
 _atom_site_symmetry_multiplicity
 _atom_site_fract_x
 _atom_site_fract_y
 _atom_site_fract_z
 _atom_site_occupancy
  Tb  Tb0  1  0.363552  0.636448  0.500000  1
  Y  Y1  1  0.635830  0.364170  0.500000  1
  Co  Co2  1  0.792488  0.207512  0.000000  1
  Co  Co3  1  0.208011  0.791989  0.000000  1
  Hg  Hg4  1  0.000120  0.999880  0.000000  1
