# generated using pymatgen
data_DyU(FeB4)2
_symmetry_space_group_name_H-M   'P 1'
_cell_length_a   3.37505800
_cell_length_b   5.88371501
_cell_length_c   11.38077602
_cell_angle_alpha   90.00707021
_cell_angle_beta   90.00000000
_cell_angle_gamma   90.00000000
_symmetry_Int_Tables_number   1
_chemical_formula_structural   DyU(FeB4)2
_chemical_formula_sum   'Dy2 U2 Fe4 B16'
_cell_volume   225.99807621
_cell_formula_units_Z   2
loop_
 _symmetry_equiv_pos_site_id
 _symmetry_equiv_pos_as_xyz
  1  'x, y, z'
loop_
 _atom_site_type_symbol
 _atom_site_label
 _atom_site_symmetry_multiplicity
 _atom_site_fract_x
 _atom_site_fract_y
 _atom_site_fract_z
 _atom_site_occupancy
  Dy  Dy0  1  0.000000  0.626708  0.351204  1
  Dy  Dy1  1  0.000000  0.373292  0.648796  1
  U  U2  1  0.000000  0.126522  0.150839  1
  U  U3  1  0.000000  0.873478  0.849161  1
  Fe  Fe4  1  0.000000  0.634496  0.089100  1
  Fe  Fe5  1  0.000000  0.365504  0.910900  1
  Fe  Fe6  1  0.000000  0.132676  0.408614  1
  Fe  Fe7  1  0.000000  0.867324  0.591386  1
  B  B8  1  0.500000  0.783614  0.184690  1
  B  B9  1  0.500000  0.216386  0.815310  1
  B  B10  1  0.500000  0.281646  0.314730  1
  B  B11  1  0.500000  0.718354  0.685270  1
  B  B12  1  0.500000  0.864153  0.033838  1
  B  B13  1  0.500000  0.135847  0.966162  1
  B  B14  1  0.500000  0.360247  0.467546  1
  B  B15  1  0.500000  0.639753  0.532454  1
  B  B16  1  0.500000  0.887986  0.454711  1
  B  B17  1  0.500000  0.112014  0.545289  1
  B  B18  1  0.500000  0.387026  0.045986  1
  B  B19  1  0.500000  0.612974  0.954014  1
  B  B20  1  0.500000  0.975610  0.309586  1
  B  B21  1  0.500000  0.024390  0.690414  1
  B  B22  1  0.500000  0.475482  0.190310  1
  B  B23  1  0.500000  0.524518  0.809690  1
