# generated using pymatgen
data_Ca5InSi2
_symmetry_space_group_name_H-M   'P 1'
_cell_length_a   9.42570369
_cell_length_b   9.42570233
_cell_length_c   9.42570386
_cell_angle_alpha   131.12993113
_cell_angle_beta   131.12993300
_cell_angle_gamma   71.60673128
_symmetry_Int_Tables_number   1
_chemical_formula_structural   Ca5InSi2
_chemical_formula_sum   'Ca10 In2 Si4'
_cell_volume   464.86567828
_cell_formula_units_Z   2
loop_
 _symmetry_equiv_pos_site_id
 _symmetry_equiv_pos_as_xyz
  1  'x, y, z'
loop_
 _atom_site_type_symbol
 _atom_site_label
 _atom_site_symmetry_multiplicity
 _atom_site_fract_x
 _atom_site_fract_y
 _atom_site_fract_z
 _atom_site_occupancy
  Ca  Ca0  1  0.813003  0.313003  0.854195  1
  Ca  Ca1  1  0.186997  0.686997  0.145805  1
  Ca  Ca2  1  0.458807  0.958807  0.145805  1
  Ca  Ca3  1  0.313003  0.458807  0.500000  1
  Ca  Ca4  1  0.041193  0.186997  0.500000  1
  Ca  Ca5  1  0.541193  0.041193  0.854195  1
  Ca  Ca6  1  0.686997  0.541193  0.500000  1
  Ca  Ca7  1  0.958807  0.813003  0.500000  1
  Ca  Ca8  1  0.000000  0.000000  0.000000  1
  Ca  Ca9  1  0.500000  0.500000  0.000000  1
  In  In10  1  0.250000  0.250000  0.000000  1
  In  In11  1  0.750000  0.750000  0.000000  1
  Si  Si12  1  0.111063  0.611063  0.722128  1
  Si  Si13  1  0.888937  0.388937  0.277872  1
  Si  Si14  1  0.611063  0.888937  0.500000  1
  Si  Si15  1  0.388937  0.111063  0.500000  1
