# generated using pymatgen
data_V6ReSi5Tc12
_symmetry_space_group_name_H-M   'P 1'
_cell_length_a   4.24259200
_cell_length_b   6.03830600
_cell_length_c   12.77224101
_cell_angle_alpha   90.00000000
_cell_angle_beta   89.99498502
_cell_angle_gamma   90.00000000
_symmetry_Int_Tables_number   1
_chemical_formula_structural   V6ReSi5Tc12
_chemical_formula_sum   'V6 Re1 Si5 Tc12'
_cell_volume   327.20014714
_cell_formula_units_Z   1
loop_
 _symmetry_equiv_pos_site_id
 _symmetry_equiv_pos_as_xyz
  1  'x, y, z'
loop_
 _atom_site_type_symbol
 _atom_site_label
 _atom_site_symmetry_multiplicity
 _atom_site_fract_x
 _atom_site_fract_y
 _atom_site_fract_z
 _atom_site_occupancy
  V  V0  1  0.000000  0.500000  0.000000  1
  V  V1  1  0.499840  0.000000  0.171172  1
  V  V2  1  0.999774  0.500000  0.336405  1
  V  V3  1  0.500000  0.000000  0.500000  1
  V  V4  1  0.000226  0.500000  0.663595  1
  V  V5  1  0.500160  0.000000  0.828828  1
  Re  Re6  1  0.000000  0.000000  0.000000  1
  Si  Si7  1  0.499755  0.500000  0.168371  1
  Si  Si8  1  0.999746  0.000000  0.333870  1
  Si  Si9  1  0.500000  0.500000  0.500000  1
  Si  Si10  1  0.000254  0.000000  0.666130  1
  Si  Si11  1  0.500245  0.500000  0.831628  1
  Tc  Tc12  1  0.499999  0.255357  0.000000  1
  Tc  Tc13  1  0.499999  0.744643  0.000000  1
  Tc  Tc14  1  0.999807  0.251181  0.167334  1
  Tc  Tc15  1  0.999807  0.748819  0.167334  1
  Tc  Tc16  1  0.499784  0.249252  0.333173  1
  Tc  Tc17  1  0.499784  0.750748  0.333173  1
  Tc  Tc18  1  0.000000  0.251112  0.500000  1
  Tc  Tc19  1  0.000000  0.748888  0.500000  1
  Tc  Tc20  1  0.500216  0.249252  0.666827  1
  Tc  Tc21  1  0.500216  0.750748  0.666827  1
  Tc  Tc22  1  0.000193  0.251181  0.832667  1
  Tc  Tc23  1  0.000193  0.748819  0.832667  1
