# generated using pymatgen
data_Sm2Dy3LuCoI10
_symmetry_space_group_name_H-M   'P 1'
_cell_length_a   7.71819749
_cell_length_b   9.72439891
_cell_length_c   9.68526974
_cell_angle_alpha   106.96764476
_cell_angle_beta   96.37649137
_cell_angle_gamma   104.89273381
_symmetry_Int_Tables_number   1
_chemical_formula_structural   Sm2Dy3LuCoI10
_chemical_formula_sum   'Sm2 Dy3 Lu1 Co1 I10'
_cell_volume   658.17362809
_cell_formula_units_Z   1
loop_
 _symmetry_equiv_pos_site_id
 _symmetry_equiv_pos_as_xyz
  1  'x, y, z'
loop_
 _atom_site_type_symbol
 _atom_site_label
 _atom_site_symmetry_multiplicity
 _atom_site_fract_x
 _atom_site_fract_y
 _atom_site_fract_z
 _atom_site_occupancy
  Sm  Sm0  1  0.889641  0.959658  0.231177  1
  Sm  Sm1  1  0.113415  0.041645  0.770205  1
  Dy  Dy2  1  0.031434  0.718842  0.915961  1
  Dy  Dy3  1  0.970424  0.281838  0.085232  1
  Dy  Dy4  1  0.657631  0.878055  0.837632  1
  Lu  Lu5  1  0.335031  0.119817  0.159218  1
  Co  Co6  1  0.000242  0.000174  0.000038  1
  I  I7  1  0.650601  0.550642  0.729281  1
  I  I8  1  0.352520  0.445909  0.271039  1
  I  I9  1  0.739491  0.912628  0.541055  1
  I  I10  1  0.264921  0.089173  0.457493  1
  I  I11  1  0.085488  0.375099  0.820960  1
  I  I12  1  0.915136  0.624994  0.179535  1
  I  I13  1  0.452390  0.818704  0.093723  1
  I  I14  1  0.547950  0.185261  0.910773  1
  I  I15  1  0.225163  0.741035  0.655096  1
  I  I16  1  0.768522  0.256524  0.341582  1
