# generated using pymatgen
data_Sr8V3PN12
_symmetry_space_group_name_H-M   'P 1'
_cell_length_a   6.20354639
_cell_length_b   6.20180979
_cell_length_c   12.29096412
_cell_angle_alpha   90.06669117
_cell_angle_beta   89.44161706
_cell_angle_gamma   125.60263367
_symmetry_Int_Tables_number   1
_chemical_formula_structural   Sr8V3PN12
_chemical_formula_sum   'Sr8 V3 P1 N12'
_cell_volume   384.45649118
_cell_formula_units_Z   1
loop_
 _symmetry_equiv_pos_site_id
 _symmetry_equiv_pos_as_xyz
  1  'x, y, z'
loop_
 _atom_site_type_symbol
 _atom_site_label
 _atom_site_symmetry_multiplicity
 _atom_site_fract_x
 _atom_site_fract_y
 _atom_site_fract_z
 _atom_site_occupancy
  Sr  Sr0  1  0.559277  0.941157  0.853867  1
  Sr  Sr1  1  0.949356  0.559691  0.359573  1
  Sr  Sr2  1  0.443615  0.046081  0.145899  1
  Sr  Sr3  1  0.048955  0.445673  0.646124  1
  Sr  Sr4  1  0.648005  0.865771  0.427664  1
  Sr  Sr5  1  0.134904  0.351130  0.075468  1
  Sr  Sr6  1  0.363257  0.136664  0.579116  1
  Sr  Sr7  1  0.860805  0.638857  0.920560  1
  V  V8  1  0.259490  0.254375  0.337697  1
  V  V9  1  0.247404  0.254585  0.828975  1
  V  V10  1  0.747379  0.738858  0.164174  1
  P  P11  1  0.742895  0.755264  0.662325  1
  N  N12  1  0.671589  0.846897  0.045723  1
  N  N13  1  0.150071  0.331708  0.455985  1
  N  N14  1  0.334349  0.152394  0.946624  1
  N  N15  1  0.841807  0.669947  0.556604  1
  N  N16  1  0.979040  0.021360  0.250857  1
  N  N17  1  0.007982  0.963207  0.742524  1
  N  N18  1  0.447606  0.552986  0.251026  1
  N  N19  1  0.101473  0.421684  0.865801  1
  N  N20  1  0.440043  0.117213  0.368749  1
  N  N21  1  0.883801  0.557666  0.132815  1
  N  N22  1  0.586028  0.893530  0.638481  1
  N  N23  1  0.550871  0.483302  0.743368  1
