# generated using pymatgen
data_Dy3Y3IrO12
_symmetry_space_group_name_H-M   'P 1'
_cell_length_a   6.48962072
_cell_length_b   6.48965959
_cell_length_c   6.48960400
_cell_angle_alpha   98.65242230
_cell_angle_beta   98.65269247
_cell_angle_gamma   98.65243853
_symmetry_Int_Tables_number   1
_chemical_formula_structural   Dy3Y3IrO12
_chemical_formula_sum   'Dy3 Y3 Ir1 O12'
_cell_volume   262.90502083
_cell_formula_units_Z   1
loop_
 _symmetry_equiv_pos_site_id
 _symmetry_equiv_pos_as_xyz
  1  'x, y, z'
loop_
 _atom_site_type_symbol
 _atom_site_label
 _atom_site_symmetry_multiplicity
 _atom_site_fract_x
 _atom_site_fract_y
 _atom_site_fract_z
 _atom_site_occupancy
  Dy  Dy0  1  0.856125  0.388840  0.685849  1
  Dy  Dy1  1  0.611009  0.314060  0.143739  1
  Dy  Dy2  1  0.314343  0.144117  0.611254  1
  Y  Y3  1  0.686221  0.856374  0.389458  1
  Y  Y4  1  0.389232  0.685950  0.856005  1
  Y  Y5  1  0.143859  0.610631  0.313961  1
  Ir  Ir6  1  0.000061  0.000199  0.000026  1
  O  O7  1  0.929343  0.035562  0.702107  1
  O  O8  1  0.964446  0.297949  0.070634  1
  O  O9  1  0.591372  0.177732  0.433751  1
  O  O10  1  0.822376  0.565823  0.408523  1
  O  O11  1  0.298134  0.071347  0.964972  1
  O  O12  1  0.566700  0.407630  0.822457  1
  O  O13  1  0.433673  0.590733  0.177120  1
  O  O14  1  0.702242  0.929532  0.034921  1
  O  O15  1  0.177040  0.432783  0.591619  1
  O  O16  1  0.408277  0.823074  0.566790  1
  O  O17  1  0.034391  0.702056  0.928817  1
  O  O18  1  0.071155  0.965607  0.297995  1
