# generated using pymatgen
data_Zr6Al6Ir5Pd
_symmetry_space_group_name_H-M   'P 1'
_cell_length_a   7.19973600
_cell_length_b   7.19973576
_cell_length_c   7.09475800
_cell_angle_alpha   90.00000000
_cell_angle_beta   90.00000000
_cell_angle_gamma   120.00000110
_symmetry_Int_Tables_number   1
_chemical_formula_structural   Zr6Al6Ir5Pd
_chemical_formula_sum   'Zr6 Al6 Ir5 Pd1'
_cell_volume   318.49406426
_cell_formula_units_Z   1
loop_
 _symmetry_equiv_pos_site_id
 _symmetry_equiv_pos_as_xyz
  1  'x, y, z'
loop_
 _atom_site_type_symbol
 _atom_site_label
 _atom_site_symmetry_multiplicity
 _atom_site_fract_x
 _atom_site_fract_y
 _atom_site_fract_z
 _atom_site_occupancy
  Zr  Zr0  1  0.590231  0.585118  0.250000  1
  Zr  Zr1  1  0.004877  0.402967  0.750000  1
  Zr  Zr2  1  0.414882  0.005114  0.250000  1
  Zr  Zr3  1  0.994886  0.409769  0.250000  1
  Zr  Zr4  1  0.398089  0.995123  0.750000  1
  Zr  Zr5  1  0.597033  0.601911  0.750000  1
  Al  Al6  1  0.259893  0.259786  0.501804  1
  Al  Al7  1  0.740214  0.000106  0.501804  1
  Al  Al8  1  0.999894  0.740107  0.501804  1
  Al  Al9  1  0.740214  0.000106  0.998196  1
  Al  Al10  1  0.259893  0.259786  0.998196  1
  Al  Al11  1  0.999894  0.740107  0.998196  1
  Ir  Ir12  1  0.333333  0.666667  0.492542  1
  Ir  Ir13  1  0.000000  0.000000  0.750000  1
  Ir  Ir14  1  0.333333  0.666667  0.007458  1
  Ir  Ir15  1  0.666667  0.333333  0.507102  1
  Ir  Ir16  1  0.666667  0.333333  0.992898  1
  Pd  Pd17  1  0.000000  0.000000  0.250000  1
