# generated using pymatgen
data_Ti8VBi4As
_symmetry_space_group_name_H-M   'P 1'
_cell_length_a   7.89943727
_cell_length_b   7.89911990
_cell_length_c   7.89943831
_cell_angle_alpha   95.84705736
_cell_angle_beta   95.85683115
_cell_angle_gamma   142.76114515
_symmetry_Int_Tables_number   1
_chemical_formula_structural   Ti8VBi4As
_chemical_formula_sum   'Ti8 V1 Bi4 As1'
_cell_volume   282.66381413
_cell_formula_units_Z   1
loop_
 _symmetry_equiv_pos_site_id
 _symmetry_equiv_pos_as_xyz
  1  'x, y, z'
loop_
 _atom_site_type_symbol
 _atom_site_label
 _atom_site_symmetry_multiplicity
 _atom_site_fract_x
 _atom_site_fract_y
 _atom_site_fract_z
 _atom_site_occupancy
  Ti  Ti0  1  0.706175  0.590074  0.283032  1
  Ti  Ti1  1  0.307069  0.423116  0.716963  1
  Ti  Ti2  1  0.590086  0.307070  0.883952  1
  Ti  Ti3  1  0.076883  0.192930  0.283016  1
  Ti  Ti4  1  0.793847  0.076884  0.883953  1
  Ti  Ti5  1  0.423131  0.706171  0.116081  1
  Ti  Ti6  1  0.909910  0.793829  0.716960  1
  Ti  Ti7  1  0.192958  0.909926  0.116101  1
  V  V8  1  0.750083  0.750000  0.000083  1
  Bi  Bi9  1  0.139600  0.639661  0.779248  1
  Bi  Bi10  1  0.360354  0.139608  0.499927  1
  Bi  Bi11  1  0.860319  0.360392  0.220745  1
  Bi  Bi12  1  0.639586  0.860339  0.499939  1
  As  As13  1  0.250000  0.250000  0.000000  1
