# generated using pymatgen
data_Tb9Lu(In2Au)4
_symmetry_space_group_name_H-M   'P 1'
_cell_length_a   3.69868600
_cell_length_b   8.22164115
_cell_length_c   18.47460530
_cell_angle_alpha   89.93065448
_cell_angle_beta   90.00000000
_cell_angle_gamma   90.00000000
_symmetry_Int_Tables_number   1
_chemical_formula_structural   Tb9Lu(In2Au)4
_chemical_formula_sum   'Tb9 Lu1 In8 Au4'
_cell_volume   561.79883093
_cell_formula_units_Z   1
loop_
 _symmetry_equiv_pos_site_id
 _symmetry_equiv_pos_as_xyz
  1  'x, y, z'
loop_
 _atom_site_type_symbol
 _atom_site_label
 _atom_site_symmetry_multiplicity
 _atom_site_fract_x
 _atom_site_fract_y
 _atom_site_fract_z
 _atom_site_occupancy
  Tb  Tb0  1  0.000000  0.879856  0.579105  1
  Tb  Tb1  1  0.000000  0.380100  0.920010  1
  Tb  Tb2  1  0.000000  0.620118  0.080270  1
  Tb  Tb3  1  0.000000  0.236710  0.217236  1
  Tb  Tb4  1  0.000000  0.762896  0.782871  1
  Tb  Tb5  1  0.000000  0.262563  0.715843  1
  Tb  Tb6  1  0.000000  0.737662  0.284599  1
  Tb  Tb7  1  0.000000  0.000214  0.000459  1
  Tb  Tb8  1  0.000000  0.499375  0.499418  1
  Lu  Lu9  1  0.000000  0.119818  0.418461  1
  In  In10  1  0.500000  0.416320  0.353760  1
  In  In11  1  0.500000  0.579655  0.646437  1
  In  In12  1  0.500000  0.079034  0.852974  1
  In  In13  1  0.500000  0.920892  0.148213  1
  In  In14  1  0.500000  0.290126  0.067345  1
  In  In15  1  0.500000  0.710298  0.933120  1
  In  In16  1  0.500000  0.207769  0.563634  1
  In  In17  1  0.500000  0.795029  0.434408  1
  Au  Au18  1  0.500000  0.029446  0.305391  1
  Au  Au19  1  0.500000  0.972614  0.696097  1
  Au  Au20  1  0.500000  0.471869  0.802806  1
  Au  Au21  1  0.500000  0.527636  0.197546  1
