# generated using pymatgen
data_Tb16Dy4GaCo4Bi7
_symmetry_space_group_name_H-M   'P 1'
_cell_length_a   8.02877368
_cell_length_b   8.89519300
_cell_length_c   12.38533006
_cell_angle_alpha   90.13061246
_cell_angle_beta   90.10271237
_cell_angle_gamma   90.11743313
_symmetry_Int_Tables_number   1
_chemical_formula_structural   Tb16Dy4GaCo4Bi7
_chemical_formula_sum   'Tb16 Dy4 Ga1 Co4 Bi7'
_cell_volume   884.52361775
_cell_formula_units_Z   1
loop_
 _symmetry_equiv_pos_site_id
 _symmetry_equiv_pos_as_xyz
  1  'x, y, z'
loop_
 _atom_site_type_symbol
 _atom_site_label
 _atom_site_symmetry_multiplicity
 _atom_site_fract_x
 _atom_site_fract_y
 _atom_site_fract_z
 _atom_site_occupancy
  Tb  Tb0  1  0.839252  0.741386  0.798051  1
  Tb  Tb1  1  0.151754  0.250047  0.195278  1
  Tb  Tb2  1  0.354540  0.258898  0.703932  1
  Tb  Tb3  1  0.650834  0.751672  0.300530  1
  Tb  Tb4  1  0.390208  0.739835  0.696010  1
  Tb  Tb5  1  0.617569  0.249756  0.311481  1
  Tb  Tb6  1  0.868047  0.257944  0.812210  1
  Tb  Tb7  1  0.118255  0.749895  0.188803  1
  Tb  Tb8  1  0.952449  0.751990  0.503055  1
  Tb  Tb9  1  0.051106  0.248460  0.497746  1
  Tb  Tb10  1  0.462097  0.262295  0.989898  1
  Tb  Tb11  1  0.548385  0.737908  0.995756  1
  Tb  Tb12  1  0.677650  0.035359  0.564842  1
  Tb  Tb13  1  0.323907  0.962992  0.437367  1
  Tb  Tb14  1  0.175923  0.967185  0.934793  1
  Tb  Tb15  1  0.324370  0.533969  0.436316  1
  Dy  Dy16  1  0.820739  0.031140  0.063215  1
  Dy  Dy17  1  0.673803  0.467303  0.572024  1
  Dy  Dy18  1  0.824070  0.464981  0.062039  1
  Dy  Dy19  1  0.180359  0.534730  0.933364  1
  Ga  Ga20  1  0.568894  0.495121  0.829283  1
  Co  Co21  1  0.565053  0.749038  0.509667  1
  Co  Co22  1  0.436875  0.249885  0.493535  1
  Co  Co23  1  0.056913  0.250141  0.990889  1
  Co  Co24  1  0.937837  0.748981  0.006388  1
  Bi  Bi25  1  0.428000  0.508040  0.175115  1
  Bi  Bi26  1  0.072285  0.507233  0.673052  1
  Bi  Bi27  1  0.428328  0.992548  0.168898  1
  Bi  Bi28  1  0.928093  0.491623  0.327050  1
  Bi  Bi29  1  0.571370  0.006908  0.827344  1
  Bi  Bi30  1  0.929094  0.008942  0.325081  1
  Bi  Bi31  1  0.071942  0.993798  0.676990  1
