# generated using pymatgen
data_Nd(OsO3)3
_symmetry_space_group_name_H-M   'P 1'
_cell_length_a   7.47945800
_cell_length_b   5.33088965
_cell_length_c   8.23689304
_cell_angle_alpha   85.42199853
_cell_angle_beta   90.00000000
_cell_angle_gamma   90.00000000
_symmetry_Int_Tables_number   1
_chemical_formula_structural   Nd(OsO3)3
_chemical_formula_sum   'Nd2 Os6 O18'
_cell_volume   327.37495941
_cell_formula_units_Z   2
loop_
 _symmetry_equiv_pos_site_id
 _symmetry_equiv_pos_as_xyz
  1  'x, y, z'
loop_
 _atom_site_type_symbol
 _atom_site_label
 _atom_site_symmetry_multiplicity
 _atom_site_fract_x
 _atom_site_fract_y
 _atom_site_fract_z
 _atom_site_occupancy
  Nd  Nd0  1  0.750000  0.028804  0.574285  1
  Nd  Nd1  1  0.250000  0.971196  0.425715  1
  Os  Os2  1  0.495246  0.535675  0.693509  1
  Os  Os3  1  0.995246  0.464325  0.306491  1
  Os  Os4  1  0.500000  0.000000  0.000000  1
  Os  Os5  1  0.000000  0.000000  0.000000  1
  Os  Os6  1  0.004754  0.535675  0.693509  1
  Os  Os7  1  0.504754  0.464325  0.306491  1
  O  O8  1  0.750000  0.429888  0.689232  1
  O  O9  1  0.250000  0.570112  0.310768  1
  O  O10  1  0.750000  0.076015  0.013328  1
  O  O11  1  0.250000  0.923985  0.986672  1
  O  O12  1  0.250000  0.641733  0.673203  1
  O  O13  1  0.750000  0.358267  0.326797  1
  O  O14  1  0.035635  0.267280  0.527568  1
  O  O15  1  0.535635  0.732720  0.472432  1
  O  O16  1  0.558472  0.844674  0.791313  1
  O  O17  1  0.058472  0.155326  0.208687  1
  O  O18  1  0.441528  0.155326  0.208687  1
  O  O19  1  0.941528  0.844674  0.791313  1
  O  O20  1  0.036761  0.306978  0.876053  1
  O  O21  1  0.536761  0.693022  0.123947  1
  O  O22  1  0.963239  0.693022  0.123947  1
  O  O23  1  0.463239  0.306978  0.876053  1
  O  O24  1  0.464365  0.267280  0.527568  1
  O  O25  1  0.964365  0.732720  0.472432  1
