# generated using pymatgen
data_Tm2Nb6Fe9Co7P12
_symmetry_space_group_name_H-M   'P 1'
_cell_length_a   11.97380600
_cell_length_b   11.97380671
_cell_length_c   3.64327300
_cell_angle_alpha   90.00000000
_cell_angle_beta   90.00000000
_cell_angle_gamma   119.99999803
_symmetry_Int_Tables_number   1
_chemical_formula_structural   Tm2Nb6Fe9Co7P12
_chemical_formula_sum   'Tm2 Nb6 Fe9 Co7 P12'
_cell_volume   452.36272995
_cell_formula_units_Z   1
loop_
 _symmetry_equiv_pos_site_id
 _symmetry_equiv_pos_as_xyz
  1  'x, y, z'
loop_
 _atom_site_type_symbol
 _atom_site_label
 _atom_site_symmetry_multiplicity
 _atom_site_fract_x
 _atom_site_fract_y
 _atom_site_fract_z
 _atom_site_occupancy
  Tm  Tm0  1  0.333333  0.666667  0.000000  1
  Tm  Tm1  1  0.666667  0.333333  0.000000  1
  Nb  Nb2  1  0.814048  0.000000  0.500000  1
  Nb  Nb3  1  0.000000  0.814048  0.500000  1
  Nb  Nb4  1  0.185952  0.185952  0.500000  1
  Nb  Nb5  1  0.439818  0.000000  0.000000  1
  Nb  Nb6  1  0.000000  0.439818  0.000000  1
  Nb  Nb7  1  0.560182  0.560182  0.000000  1
  Fe  Fe8  1  0.272214  0.000000  0.500000  1
  Fe  Fe9  1  0.000000  0.272214  0.500000  1
  Fe  Fe10  1  0.727786  0.727786  0.500000  1
  Fe  Fe11  1  0.631857  0.809689  0.000000  1
  Fe  Fe12  1  0.190311  0.822170  0.000000  1
  Fe  Fe13  1  0.177830  0.368143  0.000000  1
  Fe  Fe14  1  0.368143  0.177830  0.000000  1
  Fe  Fe15  1  0.809689  0.631857  0.000000  1
  Fe  Fe16  1  0.822170  0.190311  0.000000  1
  Co  Co17  1  0.519488  0.876024  0.500000  1
  Co  Co18  1  0.123976  0.643464  0.500000  1
  Co  Co19  1  0.356536  0.480512  0.500000  1
  Co  Co20  1  0.480512  0.356536  0.500000  1
  Co  Co21  1  0.876024  0.519488  0.500000  1
  Co  Co22  1  0.643464  0.123976  0.500000  1
  Co  Co23  1  0.000000  0.000000  0.000000  1
  P  P24  1  0.174222  0.000000  0.000000  1
  P  P25  1  0.000000  0.174222  0.000000  1
  P  P26  1  0.825778  0.825778  0.000000  1
  P  P27  1  0.524659  0.694295  0.500000  1
  P  P28  1  0.305705  0.830363  0.500000  1
  P  P29  1  0.169637  0.475341  0.500000  1
  P  P30  1  0.475341  0.169637  0.500000  1
  P  P31  1  0.694295  0.524659  0.500000  1
  P  P32  1  0.830363  0.305705  0.500000  1
  P  P33  1  0.648633  0.000000  0.000000  1
  P  P34  1  0.000000  0.648633  0.000000  1
  P  P35  1  0.351367  0.351367  0.000000  1
