# generated using pymatgen
data_Y6Tm10CdIn3Ni4
_symmetry_space_group_name_H-M   'P 1'
_cell_length_a   9.50348056
_cell_length_b   9.51127035
_cell_length_c   9.50678401
_cell_angle_alpha   59.99251156
_cell_angle_beta   60.00060701
_cell_angle_gamma   59.91173219
_symmetry_Int_Tables_number   1
_chemical_formula_structural   Y6Tm10CdIn3Ni4
_chemical_formula_sum   'Y6 Tm10 Cd1 In3 Ni4'
_cell_volume   607.19297037
_cell_formula_units_Z   1
loop_
 _symmetry_equiv_pos_site_id
 _symmetry_equiv_pos_as_xyz
  1  'x, y, z'
loop_
 _atom_site_type_symbol
 _atom_site_label
 _atom_site_symmetry_multiplicity
 _atom_site_fract_x
 _atom_site_fract_y
 _atom_site_fract_z
 _atom_site_occupancy
  Y  Y0  1  0.189454  0.813053  0.813066  1
  Y  Y1  1  0.812309  0.188469  0.188315  1
  Y  Y2  1  0.812997  0.187690  0.811825  1
  Y  Y3  1  0.190682  0.811128  0.188002  1
  Y  Y4  1  0.812980  0.811827  0.187635  1
  Y  Y5  1  0.190753  0.188107  0.810900  1
  Tm  Tm6  1  0.595266  0.596310  0.596414  1
  Tm  Tm7  1  0.598616  0.597898  0.206045  1
  Tm  Tm8  1  0.598122  0.206255  0.597605  1
  Tm  Tm9  1  0.205120  0.597871  0.598155  1
  Tm  Tm10  1  0.062527  0.438103  0.438074  1
  Tm  Tm11  1  0.437482  0.063305  0.063123  1
  Tm  Tm12  1  0.437145  0.063370  0.437123  1
  Tm  Tm13  1  0.062515  0.438837  0.061865  1
  Tm  Tm14  1  0.437096  0.436991  0.063582  1
  Tm  Tm15  1  0.062243  0.061743  0.439052  1
  Cd  Cd16  1  0.505497  0.830812  0.830832  1
  In  In17  1  0.831457  0.832641  0.832743  1
  In  In18  1  0.829693  0.832207  0.504781  1
  In  In19  1  0.829629  0.504910  0.832238  1
  Ni  Ni20  1  0.392359  0.392702  0.392934  1
  Ni  Ni21  1  0.391119  0.390975  0.823662  1
  Ni  Ni22  1  0.391185  0.823622  0.390950  1
  Ni  Ni23  1  0.823752  0.391173  0.391079  1
