# generated using pymatgen
data_Zr4Al6CuTc
_symmetry_space_group_name_H-M   'P 1'
_cell_length_a   5.31080200
_cell_length_b   5.31080161
_cell_length_c   8.49613700
_cell_angle_alpha   90.00000000
_cell_angle_beta   90.00000000
_cell_angle_gamma   120.00000241
_symmetry_Int_Tables_number   1
_chemical_formula_structural   Zr4Al6CuTc
_chemical_formula_sum   'Zr4 Al6 Cu1 Tc1'
_cell_volume   207.52590507
_cell_formula_units_Z   1
loop_
 _symmetry_equiv_pos_site_id
 _symmetry_equiv_pos_as_xyz
  1  'x, y, z'
loop_
 _atom_site_type_symbol
 _atom_site_label
 _atom_site_symmetry_multiplicity
 _atom_site_fract_x
 _atom_site_fract_y
 _atom_site_fract_z
 _atom_site_occupancy
  Zr  Zr0  1  0.666667  0.333333  0.064449  1
  Zr  Zr1  1  0.666667  0.333333  0.442698  1
  Zr  Zr2  1  0.333333  0.666666  0.557303  1
  Zr  Zr3  1  0.333333  0.666666  0.935550  1
  Al  Al4  1  0.167497  0.334994  0.252383  1
  Al  Al5  1  0.167497  0.832502  0.252383  1
  Al  Al6  1  0.665005  0.832502  0.252383  1
  Al  Al7  1  0.334994  0.167497  0.747617  1
  Al  Al8  1  0.832503  0.167497  0.747617  1
  Al  Al9  1  0.832503  0.665005  0.747617  1
  Cu  Cu10  1  0.000000  0.000000  0.500001  1
  Tc  Tc11  1  0.000000  0.000000  0.000000  1
