# generated using pymatgen
data_YHf2PdF15
_symmetry_space_group_name_H-M   'P 1'
_cell_length_a   8.12458501
_cell_length_b   8.12458514
_cell_length_c   8.08966023
_cell_angle_alpha   78.98394312
_cell_angle_beta   78.98395735
_cell_angle_gamma   98.94083259
_symmetry_Int_Tables_number   1
_chemical_formula_structural   YHf2PdF15
_chemical_formula_sum   'Y2 Hf4 Pd2 F30'
_cell_volume   504.18072958
_cell_formula_units_Z   2
loop_
 _symmetry_equiv_pos_site_id
 _symmetry_equiv_pos_as_xyz
  1  'x, y, z'
loop_
 _atom_site_type_symbol
 _atom_site_label
 _atom_site_symmetry_multiplicity
 _atom_site_fract_x
 _atom_site_fract_y
 _atom_site_fract_z
 _atom_site_occupancy
  Y  Y0  1  0.177285  0.822715  0.250000  1
  Y  Y1  1  0.822715  0.177285  0.750000  1
  Hf  Hf2  1  0.738419  0.679107  0.668855  1
  Hf  Hf3  1  0.320893  0.261581  0.831145  1
  Hf  Hf4  1  0.261581  0.320893  0.331145  1
  Hf  Hf5  1  0.679107  0.738419  0.168855  1
  Pd  Pd6  1  0.748821  0.251179  0.250000  1
  Pd  Pd7  1  0.251179  0.748821  0.750000  1
  F  F8  1  0.313211  0.349172  0.060204  1
  F  F9  1  0.930811  0.808518  0.155772  1
  F  F10  1  0.835207  0.463328  0.689358  1
  F  F11  1  0.463328  0.835207  0.189358  1
  F  F12  1  0.808518  0.930811  0.655772  1
  F  F13  1  0.349172  0.313211  0.560203  1
  F  F14  1  0.686789  0.650828  0.939796  1
  F  F15  1  0.069189  0.191482  0.844228  1
  F  F16  1  0.164793  0.536672  0.310642  1
  F  F17  1  0.536672  0.164793  0.810642  1
  F  F18  1  0.191482  0.069189  0.344228  1
  F  F19  1  0.650828  0.686789  0.439796  1
  F  F20  1  0.769096  0.284717  0.001509  1
  F  F21  1  0.995144  0.273458  0.207480  1
  F  F22  1  0.786730  0.504663  0.219038  1
  F  F23  1  0.504663  0.786730  0.719038  1
  F  F24  1  0.273458  0.995144  0.707480  1
  F  F25  1  0.284717  0.769096  0.501509  1
  F  F26  1  0.230904  0.715283  0.998491  1
  F  F27  1  0.004856  0.726542  0.792520  1
  F  F28  1  0.213270  0.495337  0.780962  1
  F  F29  1  0.495337  0.213270  0.280962  1
  F  F30  1  0.726542  0.004856  0.292520  1
  F  F31  1  0.715283  0.230904  0.498491  1
  F  F32  1  0.475359  0.524641  0.250000  1
  F  F33  1  0.746270  0.952467  0.975923  1
  F  F34  1  0.047533  0.253730  0.524077  1
  F  F35  1  0.253730  0.047533  0.024077  1
  F  F36  1  0.952467  0.746270  0.475923  1
  F  F37  1  0.524641  0.475359  0.750000  1
