# generated using pymatgen
data_DyHo3(Si2Rh)2
_symmetry_space_group_name_H-M   'P 1'
_cell_length_a   5.68262162
_cell_length_b   5.68262237
_cell_length_c   10.05195440
_cell_angle_alpha   63.62245384
_cell_angle_beta   63.62244824
_cell_angle_gamma   43.33031544
_symmetry_Int_Tables_number   1
_chemical_formula_structural   DyHo3(Si2Rh)2
_chemical_formula_sum   'Dy1 Ho3 Si4 Rh2'
_cell_volume   195.64035800
_cell_formula_units_Z   1
loop_
 _symmetry_equiv_pos_site_id
 _symmetry_equiv_pos_as_xyz
  1  'x, y, z'
loop_
 _atom_site_type_symbol
 _atom_site_label
 _atom_site_symmetry_multiplicity
 _atom_site_fract_x
 _atom_site_fract_y
 _atom_site_fract_z
 _atom_site_occupancy
  Dy  Dy0  1  0.814738  0.814738  0.109299  1
  Ho  Ho1  1  0.001034  0.001034  0.325492  1
  Ho  Ho2  1  0.185042  0.185042  0.889978  1
  Ho  Ho3  1  0.998545  0.998545  0.674823  1
  Si  Si4  1  0.360889  0.360889  0.565414  1
  Si  Si5  1  0.488986  0.488986  0.879027  1
  Si  Si6  1  0.638997  0.638997  0.435118  1
  Si  Si7  1  0.511761  0.511761  0.120360  1
  Rh  Rh8  1  0.725523  0.725523  0.627886  1
  Rh  Rh9  1  0.274486  0.274486  0.372604  1
