# generated using pymatgen
data_Tb2Er5LuSb20
_symmetry_space_group_name_H-M   'P 1'
_cell_length_a   4.20281500
_cell_length_b   13.15630211
_cell_length_c   14.57040800
_cell_angle_alpha   78.41285200
_cell_angle_beta   90.00000000
_cell_angle_gamma   90.00000000
_symmetry_Int_Tables_number   1
_chemical_formula_structural   Tb2Er5LuSb20
_chemical_formula_sum   'Tb2 Er5 Lu1 Sb20'
_cell_volume   789.23005105
_cell_formula_units_Z   1
loop_
 _symmetry_equiv_pos_site_id
 _symmetry_equiv_pos_as_xyz
  1  'x, y, z'
loop_
 _atom_site_type_symbol
 _atom_site_label
 _atom_site_symmetry_multiplicity
 _atom_site_fract_x
 _atom_site_fract_y
 _atom_site_fract_z
 _atom_site_occupancy
  Tb  Tb0  1  0.250000  0.953626  0.358859  1
  Tb  Tb1  1  0.750000  0.046636  0.641313  1
  Er  Er2  1  0.750000  0.604439  0.229584  1
  Er  Er3  1  0.250000  0.661704  0.856009  1
  Er  Er4  1  0.750000  0.338015  0.143574  1
  Er  Er5  1  0.250000  0.668706  0.576160  1
  Er  Er6  1  0.750000  0.331356  0.424091  1
  Lu  Lu7  1  0.250000  0.395929  0.770218  1
  Sb  Sb8  1  0.250000  0.145247  0.779275  1
  Sb  Sb9  1  0.750000  0.855537  0.221074  1
  Sb  Sb10  1  0.250000  0.144538  0.482310  1
  Sb  Sb11  1  0.750000  0.855514  0.517833  1
  Sb  Sb12  1  0.250000  0.153133  0.170779  1
  Sb  Sb13  1  0.750000  0.846741  0.829212  1
  Sb  Sb14  1  0.250000  0.420635  0.974461  1
  Sb  Sb15  1  0.750000  0.579356  0.024426  1
  Sb  Sb16  1  0.750000  0.028991  0.909635  1
  Sb  Sb17  1  0.250000  0.970960  0.090207  1
  Sb  Sb18  1  0.750000  0.140459  0.322142  1
  Sb  Sb19  1  0.250000  0.859719  0.677924  1
  Sb  Sb20  1  0.750000  0.279703  0.935881  1
  Sb  Sb21  1  0.250000  0.720425  0.063054  1
  Sb  Sb22  1  0.750000  0.286213  0.653591  1
  Sb  Sb23  1  0.250000  0.714051  0.347153  1
  Sb  Sb24  1  0.750000  0.574974  0.734665  1
  Sb  Sb25  1  0.250000  0.423240  0.265733  1
  Sb  Sb26  1  0.750000  0.571970  0.447379  1
  Sb  Sb27  1  0.250000  0.428186  0.553460  1
