# generated using pymatgen
data_Ho5In4IrPd
_symmetry_space_group_name_H-M   'P 1'
_cell_length_a   3.61470200
_cell_length_b   8.11344996
_cell_length_c   18.26885088
_cell_angle_alpha   90.16040549
_cell_angle_beta   90.00000000
_cell_angle_gamma   90.00000000
_symmetry_Int_Tables_number   1
_chemical_formula_structural   Ho5In4IrPd
_chemical_formula_sum   'Ho10 In8 Ir2 Pd2'
_cell_volume   535.78134746
_cell_formula_units_Z   2
loop_
 _symmetry_equiv_pos_site_id
 _symmetry_equiv_pos_as_xyz
  1  'x, y, z'
loop_
 _atom_site_type_symbol
 _atom_site_label
 _atom_site_symmetry_multiplicity
 _atom_site_fract_x
 _atom_site_fract_y
 _atom_site_fract_z
 _atom_site_occupancy
  Ho  Ho0  1  0.000000  0.500000  0.500000  1
  Ho  Ho1  1  0.000000  0.000000  0.000000  1
  Ho  Ho2  1  0.000000  0.729135  0.277347  1
  Ho  Ho3  1  0.000000  0.270865  0.722653  1
  Ho  Ho4  1  0.000000  0.746473  0.779961  1
  Ho  Ho5  1  0.000000  0.253527  0.220039  1
  Ho  Ho6  1  0.000000  0.612971  0.086878  1
  Ho  Ho7  1  0.000000  0.387029  0.913122  1
  Ho  Ho8  1  0.000000  0.884523  0.584079  1
  Ho  Ho9  1  0.000000  0.115477  0.415921  1
  In  In10  1  0.500000  0.710424  0.931723  1
  In  In11  1  0.500000  0.289576  0.068277  1
  In  In12  1  0.500000  0.790325  0.431672  1
  In  In13  1  0.500000  0.209675  0.568328  1
  In  In14  1  0.500000  0.578425  0.648546  1
  In  In15  1  0.500000  0.421575  0.351454  1
  In  In16  1  0.500000  0.921488  0.149544  1
  In  In17  1  0.500000  0.078512  0.850456  1
  Ir  Ir18  1  0.500000  0.519853  0.195685  1
  Ir  Ir19  1  0.500000  0.480147  0.804315  1
  Pd  Pd20  1  0.500000  0.978994  0.695895  1
  Pd  Pd21  1  0.500000  0.021006  0.304105  1
