# generated using pymatgen
data_Tc2Te4OsBr2
_symmetry_space_group_name_H-M   'P 1'
_cell_length_a   9.76263537
_cell_length_b   9.87990795
_cell_length_c   12.73074773
_cell_angle_alpha   95.02261888
_cell_angle_beta   88.28884133
_cell_angle_gamma   118.26936120
_symmetry_Int_Tables_number   1
_chemical_formula_structural   Tc2Te4OsBr2
_chemical_formula_sum   'Tc8 Te16 Os4 Br8'
_cell_volume   1077.22950708
_cell_formula_units_Z   4
loop_
 _symmetry_equiv_pos_site_id
 _symmetry_equiv_pos_as_xyz
  1  'x, y, z'
loop_
 _atom_site_type_symbol
 _atom_site_label
 _atom_site_symmetry_multiplicity
 _atom_site_fract_x
 _atom_site_fract_y
 _atom_site_fract_z
 _atom_site_occupancy
  Tc  Tc0  1  0.352536  0.369869  0.391836  1
  Tc  Tc1  1  0.647464  0.630131  0.608164  1
  Tc  Tc2  1  0.416864  0.335773  0.589630  1
  Tc  Tc3  1  0.583136  0.664227  0.410370  1
  Tc  Tc4  1  0.117332  0.040019  0.871406  1
  Tc  Tc5  1  0.882668  0.959981  0.128594  1
  Tc  Tc6  1  0.166599  0.994313  0.069484  1
  Tc  Tc7  1  0.833401  0.005687  0.930516  1
  Te  Te8  1  0.370029  0.249210  0.979895  1
  Te  Te9  1  0.629971  0.750790  0.020105  1
  Te  Te10  1  0.579378  0.467854  0.247903  1
  Te  Te11  1  0.420622  0.532146  0.752097  1
  Te  Te12  1  0.039022  0.261326  0.841473  1
  Te  Te13  1  0.960978  0.738674  0.158527  1
  Te  Te14  1  0.810726  0.184144  0.094574  1
  Te  Te15  1  0.189274  0.815856  0.905426  1
  Te  Te16  1  0.873874  0.725370  0.463499  1
  Te  Te17  1  0.126126  0.274630  0.536501  1
  Te  Te18  1  0.708153  0.397118  0.640188  1
  Te  Te19  1  0.291847  0.602882  0.359812  1
  Te  Te20  1  0.144967  0.175108  0.234356  1
  Te  Te21  1  0.855033  0.824892  0.765644  1
  Te  Te22  1  0.419789  0.141592  0.427967  1
  Te  Te23  1  0.580211  0.858408  0.572033  1
  Os  Os24  1  0.645074  0.433808  0.444833  1
  Os  Os25  1  0.354926  0.566192  0.555167  1
  Os  Os26  1  0.090511  0.217569  0.037675  1
  Os  Os27  1  0.909489  0.782431  0.962325  1
  Br  Br28  1  0.391612  0.978673  0.162367  1
  Br  Br29  1  0.608388  0.021327  0.837633  1
  Br  Br30  1  0.295221  0.087641  0.700630  1
  Br  Br31  1  0.704779  0.912359  0.299370  1
  Br  Br32  1  0.208920  0.510669  0.085876  1
  Br  Br33  1  0.791080  0.489331  0.914124  1
  Br  Br34  1  0.843289  0.347181  0.372384  1
  Br  Br35  1  0.156711  0.652819  0.627616  1
