# generated using pymatgen
data_Cs3Rb(GaI4)4
_symmetry_space_group_name_H-M   'P 1'
_cell_length_a   8.38113474
_cell_length_b   9.12385352
_cell_length_c   17.00619171
_cell_angle_alpha   85.73512242
_cell_angle_beta   90.33180600
_cell_angle_gamma   90.09417890
_symmetry_Int_Tables_number   1
_chemical_formula_structural   Cs3Rb(GaI4)4
_chemical_formula_sum   'Cs3 Rb1 Ga4 I16'
_cell_volume   1296.80992078
_cell_formula_units_Z   1
loop_
 _symmetry_equiv_pos_site_id
 _symmetry_equiv_pos_as_xyz
  1  'x, y, z'
loop_
 _atom_site_type_symbol
 _atom_site_label
 _atom_site_symmetry_multiplicity
 _atom_site_fract_x
 _atom_site_fract_y
 _atom_site_fract_z
 _atom_site_occupancy
  Cs  Cs0  1  0.506149  0.257453  0.640791  1
  Cs  Cs1  1  0.006406  0.742123  0.860308  1
  Cs  Cs2  1  0.493907  0.742606  0.357819  1
  Rb  Rb3  1  0.997070  0.256542  0.139292  1
  Ga  Ga4  1  0.353776  0.246630  0.359794  1
  Ga  Ga5  1  0.858908  0.754315  0.139475  1
  Ga  Ga6  1  0.644001  0.753149  0.639386  1
  Ga  Ga7  1  0.142803  0.246072  0.861683  1
  I  I8  1  0.866151  0.150472  0.908845  1
  I  I9  1  0.367447  0.848444  0.590703  1
  I  I10  1  0.132953  0.856291  0.091737  1
  I  I11  1  0.630586  0.152366  0.408231  1
  I  I12  1  0.389849  0.399746  0.225823  1
  I  I13  1  0.898124  0.593342  0.270835  1
  I  I14  1  0.602683  0.598811  0.772543  1
  I  I15  1  0.103030  0.402052  0.728888  1
  I  I16  1  0.664449  0.970425  0.157859  1
  I  I17  1  0.152364  0.035663  0.340121  1
  I  I18  1  0.344316  0.035858  0.842727  1
  I  I19  1  0.844847  0.964896  0.657959  1
  I  I20  1  0.233835  0.413379  0.461842  1
  I  I21  1  0.739040  0.582907  0.038957  1
  I  I22  1  0.766180  0.586812  0.537795  1
  I  I23  1  0.261130  0.409647  0.966589  1
