# generated using pymatgen
data_La4PrNd5(Al2Os3)2
_symmetry_space_group_name_H-M   'P 1'
_cell_length_a   8.56821008
_cell_length_b   8.63001405
_cell_length_c   8.62685576
_cell_angle_alpha   109.44869827
_cell_angle_beta   109.24178319
_cell_angle_gamma   109.25181085
_symmetry_Int_Tables_number   1
_chemical_formula_structural   La4PrNd5(Al2Os3)2
_chemical_formula_sum   'La4 Pr1 Nd5 Al4 Os6'
_cell_volume   493.89184346
_cell_formula_units_Z   1
loop_
 _symmetry_equiv_pos_site_id
 _symmetry_equiv_pos_as_xyz
  1  'x, y, z'
loop_
 _atom_site_type_symbol
 _atom_site_label
 _atom_site_symmetry_multiplicity
 _atom_site_fract_x
 _atom_site_fract_y
 _atom_site_fract_z
 _atom_site_occupancy
  La  La0  1  0.253029  0.687686  0.437825  1
  La  La1  1  0.751718  0.815880  0.061383  1
  La  La2  1  0.435798  0.248586  0.685070  1
  La  La3  1  0.688761  0.438150  0.253868  1
  Pr  Pr4  1  0.000048  0.287498  0.504569  1
  Nd  Nd5  1  0.068111  0.751336  0.819135  1
  Nd  Nd6  1  0.819365  0.066162  0.750471  1
  Nd  Nd7  1  0.213662  0.215010  0.211144  1
  Nd  Nd8  1  0.499588  0.994799  0.285170  1
  Nd  Nd9  1  0.288082  0.501714  0.999086  1
  Al  Al10  1  0.588821  0.587454  0.588930  1
  Al  Al11  1  0.499374  0.004003  0.915269  1
  Al  Al12  1  0.914885  0.497067  0.998603  1
  Al  Al13  1  0.997952  0.911584  0.498087  1
  Os  Os14  1  0.245987  0.118102  0.859143  1
  Os  Os15  1  0.743592  0.378649  0.635077  1
  Os  Os16  1  0.862278  0.251939  0.118806  1
  Os  Os17  1  0.112521  0.861570  0.244930  1
  Os  Os18  1  0.631778  0.742296  0.380718  1
  Os  Os19  1  0.384648  0.640514  0.752720  1
