# generated using pymatgen
data_Sr3Li4ThSi8
_symmetry_space_group_name_H-M   'P 1'
_cell_length_a   3.88880900
_cell_length_b   8.03256515
_cell_length_c   10.94882769
_cell_angle_alpha   90.03498658
_cell_angle_beta   90.00000000
_cell_angle_gamma   90.00000000
_symmetry_Int_Tables_number   1
_chemical_formula_structural   Sr3Li4ThSi8
_chemical_formula_sum   'Sr3 Li4 Th1 Si8'
_cell_volume   342.00968893
_cell_formula_units_Z   1
loop_
 _symmetry_equiv_pos_site_id
 _symmetry_equiv_pos_as_xyz
  1  'x, y, z'
loop_
 _atom_site_type_symbol
 _atom_site_label
 _atom_site_symmetry_multiplicity
 _atom_site_fract_x
 _atom_site_fract_y
 _atom_site_fract_z
 _atom_site_occupancy
  Sr  Sr0  1  0.250000  0.137804  0.868220  1
  Sr  Sr1  1  0.750000  0.867087  0.135484  1
  Sr  Sr2  1  0.250000  0.633662  0.634714  1
  Li  Li3  1  0.250000  0.992413  0.386512  1
  Li  Li4  1  0.750000  0.998329  0.608737  1
  Li  Li5  1  0.250000  0.506104  0.111178  1
  Li  Li6  1  0.750000  0.498424  0.888189  1
  Th  Th7  1  0.750000  0.371386  0.366483  1
  Si  Si8  1  0.750000  0.282786  0.079867  1
  Si  Si9  1  0.250000  0.725241  0.929102  1
  Si  Si10  1  0.750000  0.761889  0.428344  1
  Si  Si11  1  0.250000  0.227861  0.558848  1
  Si  Si12  1  0.750000  0.826332  0.826615  1
  Si  Si13  1  0.250000  0.184701  0.188725  1
  Si  Si14  1  0.750000  0.325348  0.665041  1
  Si  Si15  1  0.250000  0.660635  0.323941  1
