# generated using pymatgen
data_Tl(S8Br)3
_symmetry_space_group_name_H-M   'P 1'
_cell_length_a   15.26227621
_cell_length_b   15.26227501
_cell_length_c   15.26227583
_cell_angle_alpha   118.70792964
_cell_angle_beta   118.70791876
_cell_angle_gamma   118.70791826
_symmetry_Int_Tables_number   1
_chemical_formula_structural   Tl(S8Br)3
_chemical_formula_sum   'Tl1 S24 Br3'
_cell_volume   1043.45750455
_cell_formula_units_Z   1
loop_
 _symmetry_equiv_pos_site_id
 _symmetry_equiv_pos_as_xyz
  1  'x, y, z'
loop_
 _atom_site_type_symbol
 _atom_site_label
 _atom_site_symmetry_multiplicity
 _atom_site_fract_x
 _atom_site_fract_y
 _atom_site_fract_z
 _atom_site_occupancy
  Tl  Tl0  1  0.084142  0.084142  0.084142  1
  S  S1  1  0.023885  0.619620  0.619620  1
  S  S2  1  0.619620  0.619620  0.023885  1
  S  S3  1  0.619620  0.023885  0.619620  1
  S  S4  1  0.234728  0.844671  0.716833  1
  S  S5  1  0.844671  0.716833  0.234728  1
  S  S6  1  0.716833  0.234728  0.844671  1
  S  S7  1  0.844671  0.234728  0.716833  1
  S  S8  1  0.234728  0.716833  0.844671  1
  S  S9  1  0.716833  0.844671  0.234728  1
  S  S10  1  0.103450  0.632177  0.452164  1
  S  S11  1  0.632177  0.452164  0.103450  1
  S  S12  1  0.452164  0.103450  0.632177  1
  S  S13  1  0.632177  0.103450  0.452164  1
  S  S14  1  0.103450  0.452164  0.632177  1
  S  S15  1  0.452164  0.632177  0.103450  1
  S  S16  1  0.352392  0.741548  0.613649  1
  S  S17  1  0.741548  0.613649  0.352392  1
  S  S18  1  0.613649  0.352392  0.741548  1
  S  S19  1  0.741548  0.352392  0.613649  1
  S  S20  1  0.352392  0.613649  0.741548  1
  S  S21  1  0.613649  0.741548  0.352392  1
  S  S22  1  0.190323  0.472114  0.472114  1
  S  S23  1  0.472114  0.472114  0.190323  1
  S  S24  1  0.472114  0.190323  0.472114  1
  Br  Br25  1  0.172530  0.004764  0.004764  1
  Br  Br26  1  0.004764  0.004764  0.172530  1
  Br  Br27  1  0.004764  0.172530  0.004764  1
