# generated using pymatgen
data_Y3ThCoAg
_symmetry_space_group_name_H-M   'P 1'
_cell_length_a   9.52174024
_cell_length_b   9.52173971
_cell_length_c   9.52174100
_cell_angle_alpha   59.99999898
_cell_angle_beta   60.00000082
_cell_angle_gamma   60.00000272
_symmetry_Int_Tables_number   1
_chemical_formula_structural   Y3ThCoAg
_chemical_formula_sum   'Y12 Th4 Co4 Ag4'
_cell_volume   610.42738529
_cell_formula_units_Z   4
loop_
 _symmetry_equiv_pos_site_id
 _symmetry_equiv_pos_as_xyz
  1  'x, y, z'
loop_
 _atom_site_type_symbol
 _atom_site_label
 _atom_site_symmetry_multiplicity
 _atom_site_fract_x
 _atom_site_fract_y
 _atom_site_fract_z
 _atom_site_occupancy
  Y  Y0  1  0.811820  0.188180  0.188180  1
  Y  Y1  1  0.188180  0.811820  0.811820  1
  Y  Y2  1  0.188180  0.811820  0.188180  1
  Y  Y3  1  0.811820  0.188180  0.811820  1
  Y  Y4  1  0.188180  0.188180  0.811820  1
  Y  Y5  1  0.811820  0.811820  0.188180  1
  Y  Y6  1  0.935646  0.564354  0.564354  1
  Y  Y7  1  0.564354  0.935646  0.935646  1
  Y  Y8  1  0.564354  0.935646  0.564354  1
  Y  Y9  1  0.935646  0.564354  0.935646  1
  Y  Y10  1  0.564354  0.564354  0.935646  1
  Y  Y11  1  0.935646  0.935646  0.564354  1
  Th  Th12  1  0.346495  0.346495  0.346495  1
  Th  Th13  1  0.346495  0.346495  0.960517  1
  Th  Th14  1  0.346495  0.960517  0.346495  1
  Th  Th15  1  0.960517  0.346495  0.346495  1
  Co  Co16  1  0.145248  0.145248  0.145248  1
  Co  Co17  1  0.145248  0.145248  0.564254  1
  Co  Co18  1  0.145248  0.564254  0.145248  1
  Co  Co19  1  0.564254  0.145248  0.145248  1
  Ag  Ag20  1  0.582329  0.582329  0.582329  1
  Ag  Ag21  1  0.582329  0.582329  0.253012  1
  Ag  Ag22  1  0.582329  0.253012  0.582329  1
  Ag  Ag23  1  0.253012  0.582329  0.582329  1
