# generated using pymatgen
data_Ca2Nd(BPt2)3
_symmetry_space_group_name_H-M   'P 1'
_cell_length_a   5.51101892
_cell_length_b   5.51101933
_cell_length_c   7.70357900
_cell_angle_alpha   90.00000000
_cell_angle_beta   90.00000000
_cell_angle_gamma   120.22810717
_symmetry_Int_Tables_number   1
_chemical_formula_structural   Ca2Nd(BPt2)3
_chemical_formula_sum   'Ca2 Nd1 B3 Pt6'
_cell_volume   202.15484804
_cell_formula_units_Z   1
loop_
 _symmetry_equiv_pos_site_id
 _symmetry_equiv_pos_as_xyz
  1  'x, y, z'
loop_
 _atom_site_type_symbol
 _atom_site_label
 _atom_site_symmetry_multiplicity
 _atom_site_fract_x
 _atom_site_fract_y
 _atom_site_fract_z
 _atom_site_occupancy
  Ca  Ca0  1  0.000000  0.500000  0.670434  1
  Ca  Ca1  1  0.500000  0.000000  0.996233  1
  Nd  Nd2  1  0.500000  0.500000  0.333333  1
  B  B3  1  0.500000  0.500000  0.833333  1
  B  B4  1  0.000000  0.500000  0.162924  1
  B  B5  1  0.500000  0.000000  0.503743  1
  Pt  Pt6  1  0.148723  0.294243  0.999997  1
  Pt  Pt7  1  0.848887  0.151113  0.333333  1
  Pt  Pt8  1  0.851277  0.705757  0.999997  1
  Pt  Pt9  1  0.705757  0.851277  0.666670  1
  Pt  Pt10  1  0.294243  0.148723  0.666670  1
  Pt  Pt11  1  0.151113  0.848887  0.333333  1
