# generated using pymatgen
data_Hf8Zr6Nb2Co3Ir5N4
_symmetry_space_group_name_H-M   'P 1'
_cell_length_a   8.60931568
_cell_length_b   8.60931483
_cell_length_c   8.67340135
_cell_angle_alpha   60.21104699
_cell_angle_beta   60.21104902
_cell_angle_gamma   60.00627525
_symmetry_Int_Tables_number   1
_chemical_formula_structural   Hf8Zr6Nb2Co3Ir5N4
_chemical_formula_sum   'Hf8 Zr6 Nb2 Co3 Ir5 N4'
_cell_volume   456.04788303
_cell_formula_units_Z   1
loop_
 _symmetry_equiv_pos_site_id
 _symmetry_equiv_pos_as_xyz
  1  'x, y, z'
loop_
 _atom_site_type_symbol
 _atom_site_label
 _atom_site_symmetry_multiplicity
 _atom_site_fract_x
 _atom_site_fract_y
 _atom_site_fract_z
 _atom_site_occupancy
  Hf  Hf0  1  0.155652  0.616506  0.620054  1
  Hf  Hf1  1  0.616506  0.155652  0.620054  1
  Hf  Hf2  1  0.814269  0.814269  0.187403  1
  Hf  Hf3  1  0.183158  0.183158  0.818096  1
  Hf  Hf4  1  0.816003  0.184199  0.818398  1
  Hf  Hf5  1  0.184907  0.814537  0.185492  1
  Hf  Hf6  1  0.184199  0.816003  0.818398  1
  Hf  Hf7  1  0.814537  0.184907  0.185492  1
  Zr  Zr8  1  0.438336  0.438336  0.056845  1
  Zr  Zr9  1  0.063063  0.063063  0.436893  1
  Zr  Zr10  1  0.437520  0.055789  0.440461  1
  Zr  Zr11  1  0.061388  0.436061  0.064332  1
  Zr  Zr12  1  0.055789  0.437520  0.440461  1
  Zr  Zr13  1  0.436061  0.061388  0.064332  1
  Nb  Nb14  1  0.621156  0.621156  0.146207  1
  Nb  Nb15  1  0.608335  0.608335  0.612690  1
  Co  Co16  1  0.784464  0.414583  0.395134  1
  Co  Co17  1  0.414583  0.784464  0.395134  1
  Co  Co18  1  0.402184  0.402184  0.800157  1
  Ir  Ir19  1  0.410768  0.410768  0.397206  1
  Ir  Ir20  1  0.501996  0.831123  0.830279  1
  Ir  Ir21  1  0.831123  0.501996  0.830279  1
  Ir  Ir22  1  0.831557  0.831557  0.500381  1
  Ir  Ir23  1  0.834960  0.834960  0.832634  1
  N  N24  1  0.631824  0.121465  0.124024  1
  N  N25  1  0.121465  0.631824  0.124024  1
  N  N26  1  0.122673  0.122673  0.631362  1
  N  N27  1  0.121527  0.121527  0.123776  1
