# generated using pymatgen
data_Sr3WCl2O5
_symmetry_space_group_name_H-M   'P 1'
_cell_length_a   7.13814623
_cell_length_b   7.13814544
_cell_length_c   11.32464400
_cell_angle_alpha   90.00000000
_cell_angle_beta   90.00000000
_cell_angle_gamma   132.60423706
_symmetry_Int_Tables_number   1
_chemical_formula_structural   Sr3WCl2O5
_chemical_formula_sum   'Sr6 W2 Cl4 O10'
_cell_volume   424.71828235
_cell_formula_units_Z   2
loop_
 _symmetry_equiv_pos_site_id
 _symmetry_equiv_pos_as_xyz
  1  'x, y, z'
loop_
 _atom_site_type_symbol
 _atom_site_label
 _atom_site_symmetry_multiplicity
 _atom_site_fract_x
 _atom_site_fract_y
 _atom_site_fract_z
 _atom_site_occupancy
  Sr  Sr0  1  0.906690  0.093310  0.750000  1
  Sr  Sr1  1  0.658186  0.341814  0.540944  1
  Sr  Sr2  1  0.341814  0.658186  0.459056  1
  Sr  Sr3  1  0.658186  0.341814  0.959056  1
  Sr  Sr4  1  0.341814  0.658186  0.040944  1
  Sr  Sr5  1  0.093310  0.906690  0.250000  1
  W  W6  1  0.754818  0.245182  0.250000  1
  W  W7  1  0.245182  0.754818  0.750000  1
  Cl  Cl8  1  0.498598  0.501402  0.250000  1
  Cl  Cl9  1  0.501402  0.498598  0.750000  1
  Cl  Cl10  1  0.000000  0.000000  0.500000  1
  Cl  Cl11  1  0.000000  0.000000  0.000000  1
  O  O12  1  0.109326  0.890674  0.750000  1
  O  O13  1  0.051323  0.487023  0.632961  1
  O  O14  1  0.487023  0.051323  0.367039  1
  O  O15  1  0.512977  0.948677  0.632961  1
  O  O16  1  0.948677  0.512977  0.367039  1
  O  O17  1  0.890674  0.109326  0.250000  1
  O  O18  1  0.051323  0.487023  0.867039  1
  O  O19  1  0.512977  0.948677  0.867039  1
  O  O20  1  0.948677  0.512977  0.132961  1
  O  O21  1  0.487023  0.051323  0.132961  1
