# generated using pymatgen
data_Ho4HfPd13Pt2
_symmetry_space_group_name_H-M   'P 1'
_cell_length_a   4.09845300
_cell_length_b   4.09521700
_cell_length_c   20.47237400
_cell_angle_alpha   90.00000000
_cell_angle_beta   90.00000000
_cell_angle_gamma   90.00000000
_symmetry_Int_Tables_number   1
_chemical_formula_structural   Ho4HfPd13Pt2
_chemical_formula_sum   'Ho4 Hf1 Pd13 Pt2'
_cell_volume   343.60943890
_cell_formula_units_Z   1
loop_
 _symmetry_equiv_pos_site_id
 _symmetry_equiv_pos_as_xyz
  1  'x, y, z'
loop_
 _atom_site_type_symbol
 _atom_site_label
 _atom_site_symmetry_multiplicity
 _atom_site_fract_x
 _atom_site_fract_y
 _atom_site_fract_z
 _atom_site_occupancy
  Ho  Ho0  1  0.000000  0.000000  0.198178  1
  Ho  Ho1  1  0.000000  0.000000  0.398627  1
  Ho  Ho2  1  0.000000  0.000000  0.601377  1
  Ho  Ho3  1  0.000000  0.000000  0.801732  1
  Hf  Hf4  1  0.000000  0.000000  0.000521  1
  Pd  Pd5  1  0.500000  0.500000  0.196756  1
  Pd  Pd6  1  0.500000  0.500000  0.399205  1
  Pd  Pd7  1  0.500000  0.500000  0.600802  1
  Pd  Pd8  1  0.500000  0.500000  0.803197  1
  Pd  Pd9  1  0.500000  0.000000  0.297984  1
  Pd  Pd10  1  0.500000  0.000000  0.499988  1
  Pd  Pd11  1  0.500000  0.000000  0.702015  1
  Pd  Pd12  1  0.500000  0.000000  0.905210  1
  Pd  Pd13  1  0.000000  0.500000  0.094977  1
  Pd  Pd14  1  0.000000  0.500000  0.298088  1
  Pd  Pd15  1  0.000000  0.500000  0.500016  1
  Pd  Pd16  1  0.000000  0.500000  0.701982  1
  Pd  Pd17  1  0.000000  0.500000  0.905051  1
  Pt  Pt18  1  0.500000  0.500000  0.999824  1
  Pt  Pt19  1  0.500000  0.000000  0.094467  1
