# generated using pymatgen
data_Rb2NaGa3F12
_symmetry_space_group_name_H-M   'P 1'
_cell_length_a   7.41637900
_cell_length_b   7.31022640
_cell_length_c   10.30557987
_cell_angle_alpha   90.97218525
_cell_angle_beta   90.00000000
_cell_angle_gamma   90.00000000
_symmetry_Int_Tables_number   1
_chemical_formula_structural   Rb2NaGa3F12
_chemical_formula_sum   'Rb4 Na2 Ga6 F24'
_cell_volume   558.64080585
_cell_formula_units_Z   2
loop_
 _symmetry_equiv_pos_site_id
 _symmetry_equiv_pos_as_xyz
  1  'x, y, z'
loop_
 _atom_site_type_symbol
 _atom_site_label
 _atom_site_symmetry_multiplicity
 _atom_site_fract_x
 _atom_site_fract_y
 _atom_site_fract_z
 _atom_site_occupancy
  Rb  Rb0  1  0.750000  0.988292  0.110376  1
  Rb  Rb1  1  0.250000  0.011708  0.889624  1
  Rb  Rb2  1  0.250000  0.478071  0.635780  1
  Rb  Rb3  1  0.750000  0.521929  0.364220  1
  Na  Na4  1  0.750000  0.213713  0.753661  1
  Na  Na5  1  0.250000  0.786287  0.246339  1
  Ga  Ga6  1  0.500000  0.000000  0.500000  1
  Ga  Ga7  1  0.000000  0.000000  0.500000  1
  Ga  Ga8  1  0.000000  0.500000  0.000000  1
  Ga  Ga9  1  0.500000  0.500000  0.000000  1
  Ga  Ga10  1  0.750000  0.702596  0.724661  1
  Ga  Ga11  1  0.250000  0.297404  0.275339  1
  F  F12  1  0.750000  0.087059  0.500113  1
  F  F13  1  0.250000  0.912941  0.499887  1
  F  F14  1  0.750000  0.479539  0.635877  1
  F  F15  1  0.250000  0.520461  0.364123  1
  F  F16  1  0.250000  0.466288  0.938519  1
  F  F17  1  0.750000  0.533712  0.061481  1
  F  F18  1  0.250000  0.083678  0.178828  1
  F  F19  1  0.750000  0.916322  0.821172  1
  F  F20  1  0.962891  0.861444  0.349410  1
  F  F21  1  0.462891  0.138556  0.650590  1
  F  F22  1  0.037109  0.138556  0.650590  1
  F  F23  1  0.537109  0.861444  0.349410  1
  F  F24  1  0.939038  0.785109  0.604616  1
  F  F25  1  0.439038  0.214891  0.395384  1
  F  F26  1  0.060962  0.214891  0.395384  1
  F  F27  1  0.560962  0.785109  0.604616  1
  F  F28  1  0.051239  0.731389  0.066398  1
  F  F29  1  0.551239  0.268611  0.933602  1
  F  F30  1  0.948761  0.268611  0.933602  1
  F  F31  1  0.448761  0.731389  0.066398  1
  F  F32  1  0.449232  0.393104  0.169265  1
  F  F33  1  0.949232  0.606896  0.830735  1
  F  F34  1  0.550768  0.606896  0.830735  1
  F  F35  1  0.050768  0.393104  0.169265  1
