# generated using pymatgen
data_Tb4Sc3Cr4B24W
_symmetry_space_group_name_H-M   'P 1'
_cell_length_a   3.44782300
_cell_length_b   8.97046912
_cell_length_c   11.35503415
_cell_angle_alpha   89.98136650
_cell_angle_beta   90.00000000
_cell_angle_gamma   90.00000000
_symmetry_Int_Tables_number   1
_chemical_formula_structural   Tb4Sc3Cr4B24W
_chemical_formula_sum   'Tb4 Sc3 Cr4 B24 W1'
_cell_volume   351.19517423
_cell_formula_units_Z   1
loop_
 _symmetry_equiv_pos_site_id
 _symmetry_equiv_pos_as_xyz
  1  'x, y, z'
loop_
 _atom_site_type_symbol
 _atom_site_label
 _atom_site_symmetry_multiplicity
 _atom_site_fract_x
 _atom_site_fract_y
 _atom_site_fract_z
 _atom_site_occupancy
  Tb  Tb0  1  0.000000  0.822102  0.084943  1
  Tb  Tb1  1  0.000000  0.178331  0.914808  1
  Tb  Tb2  1  0.000000  0.322013  0.414490  1
  Tb  Tb3  1  0.000000  0.677304  0.585338  1
  Sc  Sc4  1  0.000000  0.555347  0.872353  1
  Sc  Sc5  1  0.000000  0.944146  0.369194  1
  Sc  Sc6  1  0.000000  0.055909  0.629961  1
  Cr  Cr7  1  0.000000  0.148338  0.181209  1
  Cr  Cr8  1  0.000000  0.857069  0.819181  1
  Cr  Cr9  1  0.000000  0.636976  0.312523  1
  Cr  Cr10  1  0.000000  0.358525  0.683541  1
  B  B11  1  0.500000  0.056669  0.068132  1
  B  B12  1  0.500000  0.945747  0.932120  1
  B  B13  1  0.500000  0.554564  0.431228  1
  B  B14  1  0.500000  0.445126  0.568781  1
  B  B15  1  0.500000  0.256604  0.082460  1
  B  B16  1  0.500000  0.746679  0.917238  1
  B  B17  1  0.500000  0.751841  0.415682  1
  B  B18  1  0.500000  0.246854  0.583713  1
  B  B19  1  0.500000  0.296511  0.235711  1
  B  B20  1  0.500000  0.705242  0.765185  1
  B  B21  1  0.500000  0.794426  0.263826  1
  B  B22  1  0.500000  0.205068  0.735599  1
  B  B23  1  0.500000  0.130087  0.316365  1
  B  B24  1  0.500000  0.870104  0.683917  1
  B  B25  1  0.500000  0.627038  0.181620  1
  B  B26  1  0.500000  0.370872  0.816520  1
  B  B27  1  0.500000  0.480588  0.285943  1
  B  B28  1  0.500000  0.517740  0.714345  1
  B  B29  1  0.500000  0.984269  0.213032  1
  B  B30  1  0.500000  0.016961  0.786193  1
  B  B31  1  0.500000  0.096508  0.473793  1
  B  B32  1  0.500000  0.902602  0.525263  1
  B  B33  1  0.500000  0.594867  0.028793  1
  B  B34  1  0.500000  0.402245  0.977344  1
  W  W35  1  0.000000  0.444725  0.129656  1
