# generated using pymatgen
data_La4Nd6Ga4IrRu5
_symmetry_space_group_name_H-M   'P 1'
_cell_length_a   8.50730176
_cell_length_b   8.60353068
_cell_length_c   8.61014361
_cell_angle_alpha   109.55209423
_cell_angle_beta   109.43372979
_cell_angle_gamma   109.00181142
_symmetry_Int_Tables_number   1
_chemical_formula_structural   La4Nd6Ga4IrRu5
_chemical_formula_sum   'La4 Nd6 Ga4 Ir1 Ru5'
_cell_volume   487.65344528
_cell_formula_units_Z   1
loop_
 _symmetry_equiv_pos_site_id
 _symmetry_equiv_pos_as_xyz
  1  'x, y, z'
loop_
 _atom_site_type_symbol
 _atom_site_label
 _atom_site_symmetry_multiplicity
 _atom_site_fract_x
 _atom_site_fract_y
 _atom_site_fract_z
 _atom_site_occupancy
  La  La0  1  0.253412  0.691682  0.443148  1
  La  La1  1  0.752493  0.812339  0.057543  1
  La  La2  1  0.445968  0.251120  0.687525  1
  La  La3  1  0.690794  0.441045  0.251766  1
  Nd  Nd4  1  0.061440  0.747816  0.814035  1
  Nd  Nd5  1  0.817865  0.063208  0.751117  1
  Nd  Nd6  1  0.218334  0.222557  0.219895  1
  Nd  Nd7  1  0.499737  0.995232  0.280473  1
  Nd  Nd8  1  0.283853  0.503624  0.000636  1
  Nd  Nd9  1  0.999597  0.283501  0.503393  1
  Ga  Ga10  1  0.592117  0.590527  0.590777  1
  Ga  Ga11  1  0.498720  0.001216  0.912064  1
  Ga  Ga12  1  0.916387  0.497861  0.000123  1
  Ga  Ga13  1  0.999358  0.911676  0.497679  1
  Ir  Ir14  1  0.244256  0.122878  0.865513  1
  Ru  Ru15  1  0.739886  0.369977  0.629096  1
  Ru  Ru16  1  0.863960  0.253536  0.125595  1
  Ru  Ru17  1  0.117242  0.868037  0.244238  1
  Ru  Ru18  1  0.627622  0.738773  0.374345  1
  Ru  Ru19  1  0.376958  0.633396  0.751038  1
