# generated using pymatgen
data_CsMn7GaO16
_symmetry_space_group_name_H-M   'P 1'
_cell_length_a   5.86112265
_cell_length_b   7.13544031
_cell_length_c   7.25021600
_cell_angle_alpha   88.56716716
_cell_angle_beta   78.36138066
_cell_angle_gamma   78.06300496
_symmetry_Int_Tables_number   1
_chemical_formula_structural   CsMn7GaO16
_chemical_formula_sum   'Cs1 Mn7 Ga1 O16'
_cell_volume   290.51572350
_cell_formula_units_Z   1
loop_
 _symmetry_equiv_pos_site_id
 _symmetry_equiv_pos_as_xyz
  1  'x, y, z'
loop_
 _atom_site_type_symbol
 _atom_site_label
 _atom_site_symmetry_multiplicity
 _atom_site_fract_x
 _atom_site_fract_y
 _atom_site_fract_z
 _atom_site_occupancy
  Cs  Cs0  1  0.999403  0.000221  0.000904  1
  Mn  Mn1  1  0.082761  0.507307  0.180286  1
  Mn  Mn2  1  0.172022  0.816797  0.516549  1
  Mn  Mn3  1  0.669491  0.818607  0.518841  1
  Mn  Mn4  1  0.336856  0.185225  0.481382  1
  Mn  Mn5  1  0.837988  0.184543  0.484859  1
  Mn  Mn6  1  0.429116  0.488827  0.818437  1
  Mn  Mn7  1  0.925333  0.491309  0.818535  1
  Ga  Ga8  1  0.579063  0.511314  0.189223  1
  O  O9  1  0.839869  0.636713  0.050585  1
  O  O10  1  0.324533  0.636779  0.050166  1
  O  O11  1  0.982996  0.703085  0.380396  1
  O  O12  1  0.482541  0.703990  0.388610  1
  O  O13  1  0.855379  0.955092  0.639264  1
  O  O14  1  0.355816  0.957041  0.640124  1
  O  O15  1  0.336239  0.366980  0.288764  1
  O  O16  1  0.846172  0.364148  0.287570  1
  O  O17  1  0.168127  0.630930  0.712509  1
  O  O18  1  0.666818  0.633782  0.716457  1
  O  O19  1  0.153429  0.043792  0.362905  1
  O  O20  1  0.651979  0.044878  0.363015  1
  O  O21  1  0.026026  0.297175  0.618856  1
  O  O22  1  0.525184  0.302144  0.612706  1
  O  O23  1  0.179805  0.358973  0.943684  1
  O  O24  1  0.680155  0.360343  0.935365  1
