# generated using pymatgen
data_Cd(ClO4)2
_symmetry_space_group_name_H-M   'P 1'
_cell_length_a   5.12777746
_cell_length_b   7.41009161
_cell_length_c   9.12061079
_cell_angle_alpha   89.88643110
_cell_angle_beta   89.73981890
_cell_angle_gamma   98.09206872
_symmetry_Int_Tables_number   1
_chemical_formula_structural   Cd(ClO4)2
_chemical_formula_sum   'Cd2 Cl4 O16'
_cell_volume   343.10322017
_cell_formula_units_Z   2
loop_
 _symmetry_equiv_pos_site_id
 _symmetry_equiv_pos_as_xyz
  1  'x, y, z'
loop_
 _atom_site_type_symbol
 _atom_site_label
 _atom_site_symmetry_multiplicity
 _atom_site_fract_x
 _atom_site_fract_y
 _atom_site_fract_z
 _atom_site_occupancy
  Cd  Cd0  1  0.000000  0.000000  0.000000  1
  Cd  Cd1  1  0.500000  0.500000  0.500000  1
  Cl  Cl2  1  0.556378  0.249466  0.169899  1
  Cl  Cl3  1  0.944075  0.251257  0.669709  1
  Cl  Cl4  1  0.443622  0.750534  0.830101  1
  Cl  Cl5  1  0.055925  0.748743  0.330291  1
  O  O6  1  0.563898  0.275267  0.329703  1
  O  O7  1  0.934878  0.225088  0.829547  1
  O  O8  1  0.436102  0.724733  0.670297  1
  O  O9  1  0.065122  0.774912  0.170453  1
  O  O10  1  0.278664  0.227971  0.123398  1
  O  O11  1  0.222648  0.272626  0.622658  1
  O  O12  1  0.721336  0.772029  0.876602  1
  O  O13  1  0.777352  0.727374  0.377342  1
  O  O14  1  0.657013  0.074226  0.142076  1
  O  O15  1  0.843822  0.426432  0.641510  1
  O  O16  1  0.342987  0.925774  0.857924  1
  O  O17  1  0.156178  0.573568  0.358490  1
  O  O18  1  0.708904  0.397520  0.094681  1
  O  O19  1  0.792786  0.103179  0.595105  1
  O  O20  1  0.291096  0.602480  0.905319  1
  O  O21  1  0.207214  0.896821  0.404895  1
