# generated using pymatgen
data_Nd5Nb3(P3Ir4)4
_symmetry_space_group_name_H-M   'P 1'
_cell_length_a   12.83458600
_cell_length_b   12.83458591
_cell_length_c   4.04077600
_cell_angle_alpha   90.00000000
_cell_angle_beta   90.00000000
_cell_angle_gamma   119.99999507
_symmetry_Int_Tables_number   1
_chemical_formula_structural   Nd5Nb3(P3Ir4)4
_chemical_formula_sum   'Nd5 Nb3 P12 Ir16'
_cell_volume   576.44669709
_cell_formula_units_Z   1
loop_
 _symmetry_equiv_pos_site_id
 _symmetry_equiv_pos_as_xyz
  1  'x, y, z'
loop_
 _atom_site_type_symbol
 _atom_site_label
 _atom_site_symmetry_multiplicity
 _atom_site_fract_x
 _atom_site_fract_y
 _atom_site_fract_z
 _atom_site_occupancy
  Nd  Nd0  1  0.333333  0.666667  0.500000  1
  Nd  Nd1  1  0.666667  0.333333  0.500000  1
  Nd  Nd2  1  0.000000  0.813864  0.000000  1
  Nd  Nd3  1  0.186136  0.186136  0.000000  1
  Nd  Nd4  1  0.813864  0.000000  0.000000  1
  Nb  Nb5  1  0.000000  0.451736  0.500000  1
  Nb  Nb6  1  0.548264  0.548264  0.500000  1
  Nb  Nb7  1  0.451736  0.000000  0.500000  1
  P  P8  1  0.000000  0.640244  0.500000  1
  P  P9  1  0.359756  0.359756  0.500000  1
  P  P10  1  0.640244  0.000000  0.500000  1
  P  P11  1  0.518216  0.684709  0.000000  1
  P  P12  1  0.315291  0.833507  0.000000  1
  P  P13  1  0.166493  0.481784  0.000000  1
  P  P14  1  0.481784  0.166493  0.000000  1
  P  P15  1  0.684709  0.518216  0.000000  1
  P  P16  1  0.833507  0.315291  0.000000  1
  P  P17  1  0.000000  0.178351  0.500000  1
  P  P18  1  0.821649  0.821649  0.500000  1
  P  P19  1  0.178351  0.000000  0.500000  1
  Ir  Ir20  1  0.509396  0.866099  0.000000  1
  Ir  Ir21  1  0.133901  0.643299  0.000000  1
  Ir  Ir22  1  0.356701  0.490604  0.000000  1
  Ir  Ir23  1  0.490604  0.356701  0.000000  1
  Ir  Ir24  1  0.866099  0.509396  0.000000  1
  Ir  Ir25  1  0.643299  0.133901  0.000000  1
  Ir  Ir26  1  0.000000  0.284546  0.000000  1
  Ir  Ir27  1  0.715454  0.715454  0.000000  1
  Ir  Ir28  1  0.284546  0.000000  0.000000  1
  Ir  Ir29  1  0.625731  0.803444  0.500000  1
  Ir  Ir30  1  0.196556  0.822287  0.500000  1
  Ir  Ir31  1  0.177713  0.374269  0.500000  1
  Ir  Ir32  1  0.374269  0.177713  0.500000  1
  Ir  Ir33  1  0.803444  0.625731  0.500000  1
  Ir  Ir34  1  0.822287  0.196556  0.500000  1
  Ir  Ir35  1  0.000000  0.000000  0.500000  1
