# generated using pymatgen
data_Eu10Si4SnBi
_symmetry_space_group_name_H-M   'P 1'
_cell_length_a   9.58598055
_cell_length_b   9.58597879
_cell_length_c   9.58598000
_cell_angle_alpha   130.77915808
_cell_angle_beta   130.77915693
_cell_angle_gamma   72.16419054
_symmetry_Int_Tables_number   1
_chemical_formula_structural   Eu10Si4SnBi
_chemical_formula_sum   'Eu10 Si4 Sn1 Bi1'
_cell_volume   493.84663761
_cell_formula_units_Z   1
loop_
 _symmetry_equiv_pos_site_id
 _symmetry_equiv_pos_as_xyz
  1  'x, y, z'
loop_
 _atom_site_type_symbol
 _atom_site_label
 _atom_site_symmetry_multiplicity
 _atom_site_fract_x
 _atom_site_fract_y
 _atom_site_fract_z
 _atom_site_occupancy
  Eu  Eu0  1  0.810100  0.314470  0.850146  1
  Eu  Eu1  1  0.185530  0.689900  0.149854  1
  Eu  Eu2  1  0.464324  0.959955  0.149854  1
  Eu  Eu3  1  0.314470  0.464324  0.504369  1
  Eu  Eu4  1  0.035676  0.185530  0.495631  1
  Eu  Eu5  1  0.540045  0.035676  0.850146  1
  Eu  Eu6  1  0.689900  0.540045  0.504369  1
  Eu  Eu7  1  0.959955  0.810100  0.495631  1
  Eu  Eu8  1  0.998828  0.998828  0.000000  1
  Eu  Eu9  1  0.501172  0.501172  0.000000  1
  Si  Si10  1  0.110845  0.610845  0.721691  1
  Si  Si11  1  0.889155  0.389155  0.278309  1
  Si  Si12  1  0.610845  0.889155  0.500000  1
  Si  Si13  1  0.389155  0.110845  0.500000  1
  Sn  Sn14  1  0.750000  0.750000  0.000000  1
  Bi  Bi15  1  0.250000  0.250000  0.000000  1
