# generated using pymatgen
data_Dy6Ho3Zr3Ga20
_symmetry_space_group_name_H-M   'P 1'
_cell_length_a   6.05482743
_cell_length_b   9.50829727
_cell_length_c   11.34217800
_cell_angle_alpha   90.00090991
_cell_angle_beta   90.13346382
_cell_angle_gamma   90.02963304
_symmetry_Int_Tables_number   1
_chemical_formula_structural   Dy6Ho3Zr3Ga20
_chemical_formula_sum   'Dy6 Ho3 Zr3 Ga20'
_cell_volume   652.97979480
_cell_formula_units_Z   1
loop_
 _symmetry_equiv_pos_site_id
 _symmetry_equiv_pos_as_xyz
  1  'x, y, z'
loop_
 _atom_site_type_symbol
 _atom_site_label
 _atom_site_symmetry_multiplicity
 _atom_site_fract_x
 _atom_site_fract_y
 _atom_site_fract_z
 _atom_site_occupancy
  Dy  Dy0  1  0.111584  0.010703  0.648631  1
  Dy  Dy1  1  0.388755  0.488983  0.147246  1
  Dy  Dy2  1  0.111691  0.489330  0.648394  1
  Dy  Dy3  1  0.388628  0.011004  0.147043  1
  Dy  Dy4  1  0.887261  0.989006  0.352547  1
  Dy  Dy5  1  0.613745  0.512541  0.853623  1
  Ho  Ho6  1  0.348454  0.249945  0.423809  1
  Ho  Ho7  1  0.887311  0.510971  0.352608  1
  Ho  Ho8  1  0.613641  0.987457  0.853679  1
  Zr  Zr9  1  0.858100  0.750040  0.074771  1
  Zr  Zr10  1  0.642363  0.749980  0.577246  1
  Zr  Zr11  1  0.144542  0.250051  0.924519  1
  Ga  Ga12  1  0.874147  0.049843  0.086903  1
  Ga  Ga13  1  0.624515  0.451167  0.591115  1
  Ga  Ga14  1  0.126012  0.552221  0.911930  1
  Ga  Ga15  1  0.375293  0.940810  0.411045  1
  Ga  Ga16  1  0.126436  0.948085  0.911825  1
  Ga  Ga17  1  0.374913  0.558829  0.410946  1
  Ga  Ga18  1  0.874211  0.450166  0.087464  1
  Ga  Ga19  1  0.624566  0.048886  0.591716  1
  Ga  Ga20  1  0.166989  0.749693  0.250419  1
  Ga  Ga21  1  0.332379  0.750330  0.751381  1
  Ga  Ga22  1  0.832804  0.249604  0.751263  1
  Ga  Ga23  1  0.677221  0.250401  0.247456  1
  Ga  Ga24  1  0.383131  0.750140  0.004843  1
  Ga  Ga25  1  0.111779  0.749884  0.506205  1
  Ga  Ga26  1  0.620245  0.249682  0.992220  1
  Ga  Ga27  1  0.871211  0.250354  0.498020  1
  Ga  Ga28  1  0.604196  0.749521  0.291277  1
  Ga  Ga29  1  0.899608  0.750476  0.794504  1
  Ga  Ga30  1  0.402474  0.249943  0.710179  1
  Ga  Ga31  1  0.101796  0.249953  0.195179  1
