# generated using pymatgen
data_Ho12HgPt7
_symmetry_space_group_name_H-M   'P 1'
_cell_length_a   10.91300144
_cell_length_b   10.91300149
_cell_length_c   10.91300200
_cell_angle_alpha   96.63195943
_cell_angle_beta   116.24780999
_cell_angle_gamma   116.24780412
_symmetry_Int_Tables_number   1
_chemical_formula_structural   Ho12HgPt7
_chemical_formula_sum   'Ho24 Hg2 Pt14'
_cell_volume   964.12848014
_cell_formula_units_Z   2
loop_
 _symmetry_equiv_pos_site_id
 _symmetry_equiv_pos_as_xyz
  1  'x, y, z'
loop_
 _atom_site_type_symbol
 _atom_site_label
 _atom_site_symmetry_multiplicity
 _atom_site_fract_x
 _atom_site_fract_y
 _atom_site_fract_z
 _atom_site_occupancy
  Ho  Ho0  1  0.132558  0.850446  0.571117  1
  Ho  Ho1  1  0.132558  0.561442  0.282111  1
  Ho  Ho2  1  0.867442  0.149554  0.428883  1
  Ho  Ho3  1  0.720670  0.938558  0.071117  1
  Ho  Ho4  1  0.720670  0.282111  0.149554  1
  Ho  Ho5  1  0.279330  0.428883  0.561442  1
  Ho  Ho6  1  0.720670  0.649554  0.782112  1
  Ho  Ho7  1  0.132558  0.782112  0.061442  1
  Ho  Ho8  1  0.867442  0.928883  0.649554  1
  Ho  Ho9  1  0.867442  0.438558  0.717888  1
  Ho  Ho10  1  0.853101  0.676551  0.176551  1
  Ho  Ho11  1  0.279330  0.061442  0.928883  1
  Ho  Ho12  1  0.279330  0.717888  0.850446  1
  Ho  Ho13  1  0.720670  0.571117  0.438558  1
  Ho  Ho14  1  0.500000  0.633437  0.133437  1
  Ho  Ho15  1  0.500000  0.133437  0.633437  1
  Ho  Ho16  1  0.500000  0.866563  0.366563  1
  Ho  Ho17  1  0.500000  0.366563  0.866563  1
  Ho  Ho18  1  0.500000  0.176551  0.323449  1
  Ho  Ho19  1  0.867442  0.217888  0.938558  1
  Ho  Ho20  1  0.500000  0.823449  0.676551  1
  Ho  Ho21  1  0.146899  0.323449  0.823449  1
  Ho  Ho22  1  0.279330  0.350446  0.217888  1
  Ho  Ho23  1  0.132558  0.071117  0.350446  1
  Hg  Hg24  1  0.000000  0.500000  0.500000  1
  Hg  Hg25  1  0.000000  0.000000  0.000000  1
  Pt  Pt26  1  0.500000  0.020626  0.863587  1
  Pt  Pt27  1  0.500000  0.979374  0.136413  1
  Pt  Pt28  1  0.500000  0.636413  0.479374  1
  Pt  Pt29  1  0.157039  0.520626  0.020626  1
  Pt  Pt30  1  0.157039  0.136413  0.636413  1
  Pt  Pt31  1  0.842961  0.479374  0.979374  1
  Pt  Pt32  1  0.756492  0.128246  0.628246  1
  Pt  Pt33  1  0.500000  0.628246  0.871754  1
  Pt  Pt34  1  0.500000  0.371754  0.128246  1
  Pt  Pt35  1  0.243508  0.871754  0.371754  1
  Pt  Pt36  1  0.000000  0.250000  0.250000  1
  Pt  Pt37  1  0.000000  0.750000  0.750000  1
  Pt  Pt38  1  0.500000  0.363587  0.520626  1
  Pt  Pt39  1  0.842961  0.863587  0.363587  1
