# generated using pymatgen
data_TbGd(SeI)2
_symmetry_space_group_name_H-M   'P 1'
_cell_length_a   4.30323600
_cell_length_b   5.66739700
_cell_length_c   10.24867100
_cell_angle_alpha   90.00000000
_cell_angle_beta   90.00000000
_cell_angle_gamma   90.00000000
_symmetry_Int_Tables_number   1
_chemical_formula_structural   TbGd(SeI)2
_chemical_formula_sum   'Tb1 Gd1 Se2 I2'
_cell_volume   249.94609282
_cell_formula_units_Z   1
loop_
 _symmetry_equiv_pos_site_id
 _symmetry_equiv_pos_as_xyz
  1  'x, y, z'
loop_
 _atom_site_type_symbol
 _atom_site_label
 _atom_site_symmetry_multiplicity
 _atom_site_fract_x
 _atom_site_fract_y
 _atom_site_fract_z
 _atom_site_occupancy
  Tb  Tb0  1  0.500000  0.500000  0.882470  1
  Gd  Gd1  1  0.000000  0.000000  0.117871  1
  Se  Se2  1  0.500000  0.000000  0.927015  1
  Se  Se3  1  0.000000  0.500000  0.070970  1
  I  I4  1  0.000000  0.500000  0.667755  1
  I  I5  1  0.500000  0.000000  0.333919  1
