# generated using pymatgen
data_Tm12Fe2RuAu2
_symmetry_space_group_name_H-M   'P 1'
_cell_length_a   8.13910631
_cell_length_b   8.13910712
_cell_length_c   8.13910600
_cell_angle_alpha   108.63574506
_cell_angle_beta   108.63573958
_cell_angle_gamma   111.15542208
_symmetry_Int_Tables_number   1
_chemical_formula_structural   Tm12Fe2RuAu2
_chemical_formula_sum   'Tm12 Fe2 Ru1 Au2'
_cell_volume   414.78764974
_cell_formula_units_Z   1
loop_
 _symmetry_equiv_pos_site_id
 _symmetry_equiv_pos_as_xyz
  1  'x, y, z'
loop_
 _atom_site_type_symbol
 _atom_site_label
 _atom_site_symmetry_multiplicity
 _atom_site_fract_x
 _atom_site_fract_y
 _atom_site_fract_z
 _atom_site_occupancy
  Tm  Tm0  1  0.189846  0.434905  0.245058  1
  Tm  Tm1  1  0.810154  0.565095  0.754942  1
  Tm  Tm2  1  0.189849  0.944792  0.754942  1
  Tm  Tm3  1  0.944789  0.189853  0.754938  1
  Tm  Tm4  1  0.810151  0.055208  0.245058  1
  Tm  Tm5  1  0.055211  0.810147  0.245062  1
  Tm  Tm6  1  0.434916  0.189853  0.245065  1
  Tm  Tm7  1  0.565084  0.810147  0.754935  1
  Tm  Tm8  1  0.310555  0.310525  0.621079  1
  Tm  Tm9  1  0.689445  0.689475  0.378921  1
  Tm  Tm10  1  0.689446  0.310525  0.999971  1
  Tm  Tm11  1  0.310554  0.689475  0.000029  1
  Fe  Fe12  1  0.379214  0.379215  0.000002  1
  Fe  Fe13  1  0.620786  0.620785  0.999998  1
  Ru  Ru14  1  0.000000  0.000000  0.000000  1
  Au  Au15  1  0.000000  0.500000  0.500000  1
  Au  Au16  1  0.500000  0.000000  0.500000  1
