# generated using pymatgen
data_Y3Tm4Co6Sn22Hg
_symmetry_space_group_name_H-M   'P 1'
_cell_length_a   9.65370002
_cell_length_b   9.65317011
_cell_length_c   10.00109203
_cell_angle_alpha   89.99999883
_cell_angle_beta   90.00735762
_cell_angle_gamma   119.99819026
_symmetry_Int_Tables_number   1
_chemical_formula_structural   Y3Tm4Co6Sn22Hg
_chemical_formula_sum   'Y3 Tm4 Co6 Sn22 Hg1'
_cell_volume   807.14159609
_cell_formula_units_Z   1
loop_
 _symmetry_equiv_pos_site_id
 _symmetry_equiv_pos_as_xyz
  1  'x, y, z'
loop_
 _atom_site_type_symbol
 _atom_site_label
 _atom_site_symmetry_multiplicity
 _atom_site_fract_x
 _atom_site_fract_y
 _atom_site_fract_z
 _atom_site_occupancy
  Y  Y0  1  0.999797  0.999899  0.000365  1
  Y  Y1  1  0.521680  0.043681  0.692674  1
  Y  Y2  1  0.521680  0.477999  0.692674  1
  Tm  Tm3  1  0.041518  0.520759  0.306391  1
  Tm  Tm4  1  0.479252  0.958596  0.306225  1
  Tm  Tm5  1  0.479252  0.520656  0.306225  1
  Tm  Tm6  1  0.958299  0.479149  0.693319  1
  Co  Co7  1  0.167197  0.830548  0.803030  1
  Co  Co8  1  0.664326  0.832163  0.803289  1
  Co  Co9  1  0.167197  0.336648  0.803030  1
  Co  Co10  1  0.831575  0.168461  0.197559  1
  Co  Co11  1  0.336943  0.168472  0.197398  1
  Co  Co12  1  0.831575  0.663115  0.197559  1
  Sn  Sn13  1  0.117531  0.882452  0.270390  1
  Sn  Sn14  1  0.764974  0.882488  0.270546  1
  Sn  Sn15  1  0.117531  0.235081  0.270390  1
  Sn  Sn16  1  0.883359  0.117653  0.729977  1
  Sn  Sn17  1  0.232993  0.116496  0.730087  1
  Sn  Sn18  1  0.883359  0.765704  0.729977  1
  Sn  Sn19  1  0.346490  0.999776  0.000239  1
  Sn  Sn20  1  0.653362  0.653323  0.000350  1
  Sn  Sn21  1  0.999833  0.346776  0.000157  1
  Sn  Sn22  1  0.346490  0.346714  0.000239  1
  Sn  Sn23  1  0.999833  0.653057  0.000157  1
  Sn  Sn24  1  0.653362  0.000038  0.000350  1
  Sn  Sn25  1  0.783015  0.564587  0.452248  1
  Sn  Sn26  1  0.783015  0.218427  0.452248  1
  Sn  Sn27  1  0.435235  0.217617  0.451380  1
  Sn  Sn28  1  0.216400  0.435424  0.546357  1
  Sn  Sn29  1  0.216400  0.780976  0.546357  1
  Sn  Sn30  1  0.564488  0.782244  0.545900  1
  Sn  Sn31  1  0.666655  0.333327  0.182458  1
  Sn  Sn32  1  0.332746  0.666373  0.817721  1
  Sn  Sn33  1  0.669335  0.334667  0.881419  1
  Sn  Sn34  1  0.333372  0.666686  0.121536  1
  Hg  Hg35  1  0.999935  0.999967  0.499783  1
