# generated using pymatgen
data_La5IrOsRh
_symmetry_space_group_name_H-M   'P 1'
_cell_length_a   11.44397000
_cell_length_b   11.44397000
_cell_length_c   6.66328000
_cell_angle_alpha   90.00000000
_cell_angle_beta   90.00000000
_cell_angle_gamma   90.00000000
_symmetry_Int_Tables_number   1
_chemical_formula_structural   La5IrOsRh
_chemical_formula_sum   'La20 Ir4 Os4 Rh4'
_cell_volume   872.65279614
_cell_formula_units_Z   4
loop_
 _symmetry_equiv_pos_site_id
 _symmetry_equiv_pos_as_xyz
  1  'x, y, z'
loop_
 _atom_site_type_symbol
 _atom_site_label
 _atom_site_symmetry_multiplicity
 _atom_site_fract_x
 _atom_site_fract_y
 _atom_site_fract_z
 _atom_site_occupancy
  La  La0  1  0.296213  0.090240  0.386126  1
  La  La1  1  0.296213  0.909760  0.886126  1
  La  La2  1  0.703787  0.090240  0.886126  1
  La  La3  1  0.703787  0.909760  0.386126  1
  La  La4  1  0.588550  0.794843  0.887678  1
  La  La5  1  0.588550  0.205157  0.387678  1
  La  La6  1  0.411450  0.794843  0.387678  1
  La  La7  1  0.411450  0.205157  0.887678  1
  La  La8  1  0.205157  0.411450  0.612322  1
  La  La9  1  0.205157  0.588550  0.112322  1
  La  La10  1  0.794843  0.411450  0.112322  1
  La  La11  1  0.794843  0.588550  0.612322  1
  La  La12  1  0.909760  0.703787  0.113874  1
  La  La13  1  0.909760  0.296213  0.613874  1
  La  La14  1  0.090240  0.703787  0.613874  1
  La  La15  1  0.090240  0.296213  0.113874  1
  La  La16  1  0.000000  0.000000  0.500000  1
  La  La17  1  0.000000  0.000000  0.000000  1
  La  La18  1  0.500000  0.500000  0.000000  1
  La  La19  1  0.500000  0.500000  0.500000  1
  Ir  Ir20  1  0.652253  0.347747  0.750000  1
  Ir  Ir21  1  0.652253  0.652253  0.250000  1
  Ir  Ir22  1  0.347747  0.347747  0.250000  1
  Ir  Ir23  1  0.347747  0.652253  0.750000  1
  Os  Os24  1  0.500000  0.000000  0.124737  1
  Os  Os25  1  0.500000  0.000000  0.624737  1
  Os  Os26  1  0.000000  0.500000  0.875263  1
  Os  Os27  1  0.000000  0.500000  0.375263  1
  Rh  Rh28  1  0.849133  0.150867  0.250000  1
  Rh  Rh29  1  0.849133  0.849133  0.750000  1
  Rh  Rh30  1  0.150867  0.150867  0.750000  1
  Rh  Rh31  1  0.150867  0.849133  0.250000  1
