# generated using pymatgen
data_Co4TcB4Mo2W
_symmetry_space_group_name_H-M   'P 1'
_cell_length_a   3.23197500
_cell_length_b   5.73590181
_cell_length_c   6.59530517
_cell_angle_alpha   90.34987380
_cell_angle_beta   90.00000000
_cell_angle_gamma   90.00000000
_symmetry_Int_Tables_number   1
_chemical_formula_structural   Co4TcB4Mo2W
_chemical_formula_sum   'Co4 Tc1 B4 Mo2 W1'
_cell_volume   122.26340865
_cell_formula_units_Z   1
loop_
 _symmetry_equiv_pos_site_id
 _symmetry_equiv_pos_as_xyz
  1  'x, y, z'
loop_
 _atom_site_type_symbol
 _atom_site_label
 _atom_site_symmetry_multiplicity
 _atom_site_fract_x
 _atom_site_fract_y
 _atom_site_fract_z
 _atom_site_occupancy
  Co  Co0  1  0.750000  0.856160  0.556541  1
  Co  Co1  1  0.250000  0.146671  0.444606  1
  Co  Co2  1  0.750000  0.353391  0.943723  1
  Co  Co3  1  0.250000  0.643493  0.056388  1
  Tc  Tc4  1  0.250000  0.529638  0.671764  1
  B  B5  1  0.250000  0.772419  0.377067  1
  B  B6  1  0.750000  0.229470  0.627313  1
  B  B7  1  0.250000  0.273125  0.125036  1
  B  B8  1  0.750000  0.723890  0.871343  1
  Mo  Mo9  1  0.250000  0.026957  0.826453  1
  Mo  Mo10  1  0.750000  0.972022  0.172926  1
  W  W11  1  0.750000  0.472763  0.326839  1
