# generated using pymatgen
data_Ti2NbGaC2
_symmetry_space_group_name_H-M   'P 1'
_cell_length_a   3.12272800
_cell_length_b   3.12272683
_cell_length_c   18.43266200
_cell_angle_alpha   90.00000000
_cell_angle_beta   90.00000000
_cell_angle_gamma   119.99999124
_symmetry_Int_Tables_number   1
_chemical_formula_structural   Ti2NbGaC2
_chemical_formula_sum   'Ti4 Nb2 Ga2 C4'
_cell_volume   155.66353229
_cell_formula_units_Z   2
loop_
 _symmetry_equiv_pos_site_id
 _symmetry_equiv_pos_as_xyz
  1  'x, y, z'
loop_
 _atom_site_type_symbol
 _atom_site_label
 _atom_site_symmetry_multiplicity
 _atom_site_fract_x
 _atom_site_fract_y
 _atom_site_fract_z
 _atom_site_occupancy
  Ti  Ti0  1  0.666667  0.333333  0.371651  1
  Ti  Ti1  1  0.333333  0.666667  0.871651  1
  Ti  Ti2  1  0.000000  0.000000  0.499546  1
  Ti  Ti3  1  0.000000  0.000000  0.999546  1
  Nb  Nb4  1  0.333333  0.666667  0.631152  1
  Nb  Nb5  1  0.666667  0.333333  0.131152  1
  Ga  Ga6  1  0.000000  0.000000  0.752578  1
  Ga  Ga7  1  0.000000  0.000000  0.252578  1
  C  C8  1  0.333333  0.666667  0.428508  1
  C  C9  1  0.666667  0.333333  0.928508  1
  C  C10  1  0.333333  0.666667  0.066567  1
  C  C11  1  0.666667  0.333333  0.566567  1
