# generated using pymatgen
data_Zr6Zn18PPt5
_symmetry_space_group_name_H-M   'P 1'
_cell_length_a   8.72706108
_cell_length_b   8.72706041
_cell_length_c   8.72706000
_cell_angle_alpha   60.09910344
_cell_angle_beta   60.09910599
_cell_angle_gamma   60.09911190
_symmetry_Int_Tables_number   1
_chemical_formula_structural   Zr6Zn18PPt5
_chemical_formula_sum   'Zr6 Zn18 P1 Pt5'
_cell_volume   471.04578189
_cell_formula_units_Z   1
loop_
 _symmetry_equiv_pos_site_id
 _symmetry_equiv_pos_as_xyz
  1  'x, y, z'
loop_
 _atom_site_type_symbol
 _atom_site_label
 _atom_site_symmetry_multiplicity
 _atom_site_fract_x
 _atom_site_fract_y
 _atom_site_fract_z
 _atom_site_occupancy
  Zr  Zr0  1  0.709776  0.291232  0.291232  1
  Zr  Zr1  1  0.290224  0.708768  0.708768  1
  Zr  Zr2  1  0.291232  0.709776  0.291232  1
  Zr  Zr3  1  0.708768  0.290224  0.708768  1
  Zr  Zr4  1  0.291232  0.291232  0.709776  1
  Zr  Zr5  1  0.708768  0.708768  0.290224  1
  Zn  Zn6  1  0.120703  0.120703  0.632970  1
  Zn  Zn7  1  0.120703  0.632970  0.120703  1
  Zn  Zn8  1  0.879297  0.879297  0.367030  1
  Zn  Zn9  1  0.879297  0.367030  0.879297  1
  Zn  Zn10  1  0.632970  0.120703  0.120703  1
  Zn  Zn11  1  0.367030  0.879297  0.879297  1
  Zn  Zn12  1  0.500000  0.000000  0.000000  1
  Zn  Zn13  1  0.000000  0.500000  0.000000  1
  Zn  Zn14  1  0.000000  0.000000  0.500000  1
  Zn  Zn15  1  0.334973  0.334973  0.334973  1
  Zn  Zn16  1  0.665027  0.665027  0.665027  1
  Zn  Zn17  1  0.331660  0.331660  0.996049  1
  Zn  Zn18  1  0.331660  0.996049  0.331660  1
  Zn  Zn19  1  0.668340  0.668340  0.003951  1
  Zn  Zn20  1  0.668340  0.003951  0.668340  1
  Zn  Zn21  1  0.996049  0.331660  0.331660  1
  Zn  Zn22  1  0.003951  0.668340  0.668340  1
  Zn  Zn23  1  0.000000  0.000000  0.000000  1
  P  P24  1  0.500000  0.500000  0.500000  1
  Pt  Pt25  1  0.117697  0.117697  0.117697  1
  Pt  Pt26  1  0.882303  0.882303  0.882303  1
  Pt  Pt27  1  0.000000  0.500000  0.500000  1
  Pt  Pt28  1  0.500000  0.000000  0.500000  1
  Pt  Pt29  1  0.500000  0.500000  0.000000  1
