# generated using pymatgen
data_Tb7Eu(Ho3Pb4)4
_symmetry_space_group_name_H-M   'P 1'
_cell_length_a   8.21159903
_cell_length_b   8.29428403
_cell_length_c   15.64786500
_cell_angle_alpha   89.97763925
_cell_angle_beta   89.95080918
_cell_angle_gamma   90.01767874
_symmetry_Int_Tables_number   1
_chemical_formula_structural   Tb7Eu(Ho3Pb4)4
_chemical_formula_sum   'Tb7 Eu1 Ho12 Pb16'
_cell_volume   1065.76514895
_cell_formula_units_Z   1
loop_
 _symmetry_equiv_pos_site_id
 _symmetry_equiv_pos_as_xyz
  1  'x, y, z'
loop_
 _atom_site_type_symbol
 _atom_site_label
 _atom_site_symmetry_multiplicity
 _atom_site_fract_x
 _atom_site_fract_y
 _atom_site_fract_z
 _atom_site_occupancy
  Tb  Tb0  1  0.033674  0.177265  0.598151  1
  Tb  Tb1  1  0.465609  0.676725  0.400050  1
  Tb  Tb2  1  0.966310  0.822405  0.099974  1
  Tb  Tb3  1  0.466020  0.678190  0.099690  1
  Tb  Tb4  1  0.965793  0.823429  0.400097  1
  Tb  Tb5  1  0.533344  0.322733  0.599024  1
  Tb  Tb6  1  0.033755  0.176048  0.900791  1
  Eu  Eu7  1  0.532133  0.321278  0.903559  1
  Ho  Ho8  1  0.375951  0.841999  0.879271  1
  Ho  Ho9  1  0.876280  0.658137  0.620443  1
  Ho  Ho10  1  0.624163  0.158393  0.379096  1
  Ho  Ho11  1  0.124740  0.341450  0.121855  1
  Ho  Ho12  1  0.625472  0.158212  0.121059  1
  Ho  Ho13  1  0.123886  0.341575  0.378708  1
  Ho  Ho14  1  0.376136  0.842036  0.619424  1
  Ho  Ho15  1  0.875624  0.657761  0.878876  1
  Ho  Ho16  1  0.209123  0.504484  0.749893  1
  Ho  Ho17  1  0.708475  0.994842  0.749688  1
  Ho  Ho18  1  0.791821  0.495434  0.250385  1
  Ho  Ho19  1  0.291639  0.004363  0.249520  1
  Pb  Pb20  1  0.281927  0.033383  0.043729  1
  Pb  Pb21  1  0.783009  0.465484  0.457070  1
  Pb  Pb22  1  0.717437  0.965325  0.542455  1
  Pb  Pb23  1  0.211737  0.539571  0.958567  1
  Pb  Pb24  1  0.718645  0.961203  0.957994  1
  Pb  Pb25  1  0.217206  0.534637  0.542398  1
  Pb  Pb26  1  0.283044  0.034917  0.456710  1
  Pb  Pb27  1  0.788568  0.468495  0.045966  1
  Pb  Pb28  1  0.570941  0.628167  0.747979  1
  Pb  Pb29  1  0.071334  0.873951  0.749379  1
  Pb  Pb30  1  0.429146  0.373226  0.250036  1
  Pb  Pb31  1  0.928878  0.126406  0.250726  1
  Pb  Pb32  1  0.341569  0.150322  0.748004  1
  Pb  Pb33  1  0.847605  0.347532  0.748912  1
  Pb  Pb34  1  0.654284  0.847641  0.250132  1
  Pb  Pb35  1  0.154717  0.652984  0.250390  1
