# generated using pymatgen
data_Pr12Ru3Rh
_symmetry_space_group_name_H-M   'P 1'
_cell_length_a   6.55089002
_cell_length_b   7.49060202
_cell_length_c   9.93849400
_cell_angle_alpha   90.00000000
_cell_angle_beta   90.00000000
_cell_angle_gamma   90.00821717
_symmetry_Int_Tables_number   1
_chemical_formula_structural   Pr12Ru3Rh
_chemical_formula_sum   'Pr12 Ru3 Rh1'
_cell_volume   487.68298868
_cell_formula_units_Z   1
loop_
 _symmetry_equiv_pos_site_id
 _symmetry_equiv_pos_as_xyz
  1  'x, y, z'
loop_
 _atom_site_type_symbol
 _atom_site_label
 _atom_site_symmetry_multiplicity
 _atom_site_fract_x
 _atom_site_fract_y
 _atom_site_fract_z
 _atom_site_occupancy
  Pr  Pr0  1  0.331115  0.674204  0.067174  1
  Pr  Pr1  1  0.171584  0.178206  0.433461  1
  Pr  Pr2  1  0.672758  0.323492  0.568575  1
  Pr  Pr3  1  0.826276  0.824296  0.929835  1
  Pr  Pr4  1  0.672758  0.323492  0.931425  1
  Pr  Pr5  1  0.826276  0.824296  0.570165  1
  Pr  Pr6  1  0.331115  0.674204  0.432826  1
  Pr  Pr7  1  0.171584  0.178206  0.066539  1
  Pr  Pr8  1  0.852021  0.537537  0.250000  1
  Pr  Pr9  1  0.644341  0.042215  0.250000  1
  Pr  Pr10  1  0.146450  0.460717  0.750000  1
  Pr  Pr11  1  0.351787  0.960392  0.750000  1
  Ru  Ru12  1  0.443671  0.383505  0.250000  1
  Ru  Ru13  1  0.947008  0.115234  0.750000  1
  Ru  Ru14  1  0.554570  0.616803  0.750000  1
  Rh  Rh15  1  0.056686  0.883199  0.250000  1
