# generated using pymatgen
data_Sr(GaCl4)2
_symmetry_space_group_name_H-M   'P 1'
_cell_length_a   7.15269200
_cell_length_b   7.59404860
_cell_length_c   12.98889404
_cell_angle_alpha   85.56725437
_cell_angle_beta   90.00000000
_cell_angle_gamma   90.00000000
_symmetry_Int_Tables_number   1
_chemical_formula_structural   Sr(GaCl4)2
_chemical_formula_sum   'Sr2 Ga4 Cl16'
_cell_volume   703.41890677
_cell_formula_units_Z   2
loop_
 _symmetry_equiv_pos_site_id
 _symmetry_equiv_pos_as_xyz
  1  'x, y, z'
loop_
 _atom_site_type_symbol
 _atom_site_label
 _atom_site_symmetry_multiplicity
 _atom_site_fract_x
 _atom_site_fract_y
 _atom_site_fract_z
 _atom_site_occupancy
  Sr  Sr0  1  0.840881  0.500000  0.750000  1
  Sr  Sr1  1  0.159119  0.500000  0.250000  1
  Ga  Ga2  1  0.260986  0.325853  0.918440  1
  Ga  Ga3  1  0.739014  0.674147  0.081560  1
  Ga  Ga4  1  0.260986  0.674147  0.581560  1
  Ga  Ga5  1  0.739014  0.325853  0.418440  1
  Cl  Cl6  1  0.307382  0.265941  0.085537  1
  Cl  Cl7  1  0.176802  0.602946  0.882448  1
  Cl  Cl8  1  0.026251  0.170882  0.861977  1
  Cl  Cl9  1  0.823198  0.602946  0.382448  1
  Cl  Cl10  1  0.525398  0.740919  0.656802  1
  Cl  Cl11  1  0.474602  0.740919  0.156802  1
  Cl  Cl12  1  0.692618  0.265941  0.585537  1
  Cl  Cl13  1  0.307382  0.734059  0.414463  1
  Cl  Cl14  1  0.525398  0.259081  0.843198  1
  Cl  Cl15  1  0.474602  0.259081  0.343198  1
  Cl  Cl16  1  0.176802  0.397054  0.617552  1
  Cl  Cl17  1  0.823198  0.397054  0.117552  1
  Cl  Cl18  1  0.692618  0.734059  0.914463  1
  Cl  Cl19  1  0.973749  0.829118  0.138023  1
  Cl  Cl20  1  0.973749  0.170882  0.361977  1
  Cl  Cl21  1  0.026251  0.829118  0.638023  1
