# generated using pymatgen
data_B3Ir5
_symmetry_space_group_name_H-M   'P 1'
_cell_length_a   4.00003631
_cell_length_b   2.83372703
_cell_length_c   10.10106727
_cell_angle_alpha   90.00485211
_cell_angle_beta   68.19384622
_cell_angle_gamma   110.75252604
_symmetry_Int_Tables_number   1
_chemical_formula_structural   B3Ir5
_chemical_formula_sum   'B3 Ir5'
_cell_volume   98.25858580
_cell_formula_units_Z   1
loop_
 _symmetry_equiv_pos_site_id
 _symmetry_equiv_pos_as_xyz
  1  'x, y, z'
loop_
 _atom_site_type_symbol
 _atom_site_label
 _atom_site_symmetry_multiplicity
 _atom_site_fract_x
 _atom_site_fract_y
 _atom_site_fract_z
 _atom_site_occupancy
  B  B0  1  0.780144  0.386557  0.256149  1
  B  B1  1  0.503311  0.245502  0.981451  1
  B  B2  1  0.201213  0.592198  0.644085  1
  Ir  Ir3  1  0.042300  0.515398  0.016525  1
  Ir  Ir4  1  0.248545  0.120302  0.214133  1
  Ir  Ir5  1  0.844610  0.915011  0.813618  1
  Ir  Ir6  1  0.444103  0.717511  0.413419  1
  Ir  Ir7  1  0.657498  0.320846  0.609511  1
