# generated using pymatgen
data_Ce3ErTi2(AlIr2)2
_symmetry_space_group_name_H-M   'P 1'
_cell_length_a   7.03396063
_cell_length_b   4.28761600
_cell_length_c   7.99186124
_cell_angle_alpha   90.00000000
_cell_angle_beta   89.98288699
_cell_angle_gamma   90.00000000
_symmetry_Int_Tables_number   1
_chemical_formula_structural   Ce3ErTi2(AlIr2)2
_chemical_formula_sum   'Ce3 Er1 Ti2 Al2 Ir4'
_cell_volume   241.02591031
_cell_formula_units_Z   1
loop_
 _symmetry_equiv_pos_site_id
 _symmetry_equiv_pos_as_xyz
  1  'x, y, z'
loop_
 _atom_site_type_symbol
 _atom_site_label
 _atom_site_symmetry_multiplicity
 _atom_site_fract_x
 _atom_site_fract_y
 _atom_site_fract_z
 _atom_site_occupancy
  Ce  Ce0  1  0.471391  0.250000  0.319543  1
  Ce  Ce1  1  0.037588  0.750000  0.819485  1
  Ce  Ce2  1  0.539295  0.750000  0.685409  1
  Er  Er3  1  0.971262  0.250000  0.181221  1
  Ti  Ti4  1  0.119511  0.750000  0.436477  1
  Ti  Ti5  1  0.627758  0.750000  0.059079  1
  Al  Al6  1  0.863158  0.250000  0.560691  1
  Al  Al7  1  0.362218  0.250000  0.937704  1
  Ir  Ir8  1  0.738261  0.250000  0.892681  1
  Ir  Ir9  1  0.235862  0.250000  0.603349  1
  Ir  Ir10  1  0.267827  0.750000  0.125394  1
  Ir  Ir11  1  0.765868  0.750000  0.378966  1
