# generated using pymatgen
data_Gd2TmLu5(WO6)4
_symmetry_space_group_name_H-M   'P 1'
_cell_length_a   5.35376800
_cell_length_b   7.64386792
_cell_length_c   11.37410632
_cell_angle_alpha   75.31869271
_cell_angle_beta   90.00000000
_cell_angle_gamma   90.00000000
_symmetry_Int_Tables_number   1
_chemical_formula_structural   Gd2TmLu5(WO6)4
_chemical_formula_sum   'Gd2 Tm1 Lu5 W4 O24'
_cell_volume   450.27088012
_cell_formula_units_Z   1
loop_
 _symmetry_equiv_pos_site_id
 _symmetry_equiv_pos_as_xyz
  1  'x, y, z'
loop_
 _atom_site_type_symbol
 _atom_site_label
 _atom_site_symmetry_multiplicity
 _atom_site_fract_x
 _atom_site_fract_y
 _atom_site_fract_z
 _atom_site_occupancy
  Gd  Gd0  1  0.314650  0.500000  0.750000  1
  Gd  Gd1  1  0.685652  0.500000  0.250000  1
  Tm  Tm2  1  0.256812  0.000000  0.750000  1
  Lu  Lu3  1  0.183881  0.796227  0.078428  1
  Lu  Lu4  1  0.183881  0.203773  0.421572  1
  Lu  Lu5  1  0.742751  0.000000  0.250000  1
  Lu  Lu6  1  0.815916  0.203938  0.921935  1
  Lu  Lu7  1  0.815916  0.796062  0.578065  1
  W  W8  1  0.744404  0.726672  0.884947  1
  W  W9  1  0.255657  0.727111  0.384730  1
  W  W10  1  0.744404  0.273328  0.615053  1
  W  W11  1  0.255657  0.272889  0.115270  1
  O  O12  1  0.541676  0.154318  0.069327  1
  O  O13  1  0.041940  0.056402  0.104425  1
  O  O14  1  0.017808  0.717911  0.768669  1
  O  O15  1  0.458636  0.154954  0.568762  1
  O  O16  1  0.352119  0.489102  0.386569  1
  O  O17  1  0.956582  0.056623  0.603630  1
  O  O18  1  0.543480  0.796538  0.724544  1
  O  O19  1  0.457802  0.797587  0.224544  1
  O  O20  1  0.144701  0.638786  0.548241  1
  O  O21  1  0.041940  0.943598  0.395575  1
  O  O22  1  0.458636  0.845046  0.931238  1
  O  O23  1  0.457802  0.202413  0.275456  1
  O  O24  1  0.855607  0.361632  0.451606  1
  O  O25  1  0.647693  0.488770  0.886787  1
  O  O26  1  0.352119  0.510898  0.113431  1
  O  O27  1  0.956582  0.943377  0.896370  1
  O  O28  1  0.541676  0.845682  0.430673  1
  O  O29  1  0.982167  0.281629  0.231448  1
  O  O30  1  0.543480  0.203462  0.775456  1
  O  O31  1  0.855607  0.638368  0.048394  1
  O  O32  1  0.017808  0.282089  0.731331  1
  O  O33  1  0.144701  0.361214  0.951759  1
  O  O34  1  0.982167  0.718371  0.268552  1
  O  O35  1  0.647693  0.511230  0.613213  1
