# generated using pymatgen
data_Pr16CdHg3Pt3Rh
_symmetry_space_group_name_H-M   'P 1'
_cell_length_a   10.05216993
_cell_length_b   10.07805680
_cell_length_c   10.07805713
_cell_angle_alpha   60.01159929
_cell_angle_beta   59.96883246
_cell_angle_gamma   59.96883799
_symmetry_Int_Tables_number   1
_chemical_formula_structural   Pr16CdHg3Pt3Rh
_chemical_formula_sum   'Pr16 Cd1 Hg3 Pt3 Rh1'
_cell_volume   721.65848949
_cell_formula_units_Z   1
loop_
 _symmetry_equiv_pos_site_id
 _symmetry_equiv_pos_as_xyz
  1  'x, y, z'
loop_
 _atom_site_type_symbol
 _atom_site_label
 _atom_site_symmetry_multiplicity
 _atom_site_fract_x
 _atom_site_fract_y
 _atom_site_fract_z
 _atom_site_occupancy
  Pr  Pr0  1  0.350924  0.350503  0.350503  1
  Pr  Pr1  1  0.350156  0.349846  0.946867  1
  Pr  Pr2  1  0.350156  0.946867  0.349846  1
  Pr  Pr3  1  0.944004  0.350945  0.350945  1
  Pr  Pr4  1  0.813370  0.191052  0.191052  1
  Pr  Pr5  1  0.189854  0.808942  0.808942  1
  Pr  Pr6  1  0.189699  0.814068  0.190831  1
  Pr  Pr7  1  0.807663  0.191598  0.808021  1
  Pr  Pr8  1  0.189699  0.190831  0.814068  1
  Pr  Pr9  1  0.807663  0.808021  0.191598  1
  Pr  Pr10  1  0.938071  0.563165  0.563165  1
  Pr  Pr11  1  0.560826  0.936820  0.936820  1
  Pr  Pr12  1  0.562365  0.938858  0.563177  1
  Pr  Pr13  1  0.936396  0.561686  0.936564  1
  Pr  Pr14  1  0.562365  0.563177  0.938858  1
  Pr  Pr15  1  0.936396  0.936564  0.561686  1
  Cd  Cd16  1  0.262158  0.579226  0.579226  1
  Hg  Hg17  1  0.582720  0.585041  0.585041  1
  Hg  Hg18  1  0.582787  0.585552  0.246137  1
  Hg  Hg19  1  0.582787  0.246137  0.585552  1
  Pt  Pt20  1  0.143195  0.143630  0.570484  1
  Pt  Pt21  1  0.143195  0.570484  0.143630  1
  Pt  Pt22  1  0.570789  0.143442  0.143442  1
  Rh  Rh23  1  0.142763  0.143541  0.143541  1
