# generated using pymatgen
data_SrPrY2(Si5Pt3)2
_symmetry_space_group_name_H-M   'P 1'
_cell_length_a   8.24407245
_cell_length_b   8.25139172
_cell_length_c   8.25139026
_cell_angle_alpha   136.67207092
_cell_angle_beta   104.91979159
_cell_angle_gamma   90.87878574
_symmetry_Int_Tables_number   1
_chemical_formula_structural   SrPrY2(Si5Pt3)2
_chemical_formula_sum   'Sr1 Pr1 Y2 Si10 Pt6'
_cell_volume   354.36045187
_cell_formula_units_Z   1
loop_
 _symmetry_equiv_pos_site_id
 _symmetry_equiv_pos_as_xyz
  1  'x, y, z'
loop_
 _atom_site_type_symbol
 _atom_site_label
 _atom_site_symmetry_multiplicity
 _atom_site_fract_x
 _atom_site_fract_y
 _atom_site_fract_z
 _atom_site_occupancy
  Sr  Sr0  1  0.862057  0.628487  0.233571  1
  Pr  Pr1  1  0.604434  0.871856  0.732577  1
  Y  Y2  1  0.141102  0.371735  0.769366  1
  Y  Y3  1  0.397088  0.128068  0.269020  1
  Si  Si4  1  0.498469  0.749397  0.249157  1
  Si  Si5  1  0.498469  0.249312  0.749074  1
  Si  Si6  1  0.228785  0.979928  0.749670  1
  Si  Si7  1  0.770936  0.521742  0.749677  1
  Si  Si8  1  0.770936  0.021260  0.249194  1
  Si  Si9  1  0.228785  0.479115  0.248857  1
  Si  Si10  1  0.040265  0.890123  0.150142  1
  Si  Si11  1  0.963744  0.114152  0.849592  1
  Si  Si12  1  0.735309  0.385078  0.350231  1
  Si  Si13  1  0.260142  0.609735  0.650407  1
  Pt  Pt14  1  0.002321  0.750249  0.752359  1
  Pt  Pt15  1  0.002321  0.249961  0.252072  1
  Pt  Pt16  1  0.251760  0.864899  0.386862  1
  Pt  Pt17  1  0.748774  0.138583  0.610190  1
  Pt  Pt18  1  0.472844  0.361602  0.111241  1
  Pt  Pt19  1  0.521461  0.634717  0.886742  1
