# generated using pymatgen
data_Ti4MnFe(Co5B2)2
_symmetry_space_group_name_H-M   'P 1'
_cell_length_a   8.39419900
_cell_length_b   8.39419900
_cell_length_c   3.00282500
_cell_angle_alpha   90.00000000
_cell_angle_beta   90.00000000
_cell_angle_gamma   90.00000000
_symmetry_Int_Tables_number   1
_chemical_formula_structural   Ti4MnFe(Co5B2)2
_chemical_formula_sum   'Ti4 Mn1 Fe1 Co10 B4'
_cell_volume   211.58678733
_cell_formula_units_Z   1
loop_
 _symmetry_equiv_pos_site_id
 _symmetry_equiv_pos_as_xyz
  1  'x, y, z'
loop_
 _atom_site_type_symbol
 _atom_site_label
 _atom_site_symmetry_multiplicity
 _atom_site_fract_x
 _atom_site_fract_y
 _atom_site_fract_z
 _atom_site_occupancy
  Ti  Ti0  1  0.675441  0.176480  0.000000  1
  Ti  Ti1  1  0.324559  0.823520  0.000000  1
  Ti  Ti2  1  0.176480  0.324559  0.000000  1
  Ti  Ti3  1  0.823520  0.675441  0.000000  1
  Mn  Mn4  1  0.500000  0.500000  0.000000  1
  Fe  Fe5  1  0.000000  0.000000  0.000000  1
  Co  Co6  1  0.571234  0.719335  0.500000  1
  Co  Co7  1  0.428766  0.280665  0.500000  1
  Co  Co8  1  0.068822  0.783562  0.500000  1
  Co  Co9  1  0.931178  0.216438  0.500000  1
  Co  Co10  1  0.280665  0.571234  0.500000  1
  Co  Co11  1  0.719335  0.428766  0.500000  1
  Co  Co12  1  0.216438  0.068822  0.500000  1
  Co  Co13  1  0.783562  0.931178  0.500000  1
  Co  Co14  1  0.500000  0.000000  0.500000  1
  Co  Co15  1  0.000000  0.500000  0.500000  1
  B  B16  1  0.120965  0.621542  0.000000  1
  B  B17  1  0.879035  0.378458  0.000000  1
  B  B18  1  0.621542  0.879035  0.000000  1
  B  B19  1  0.378458  0.120965  0.000000  1
