# generated using pymatgen
data_Nd2SmZr(Co4P3)2
_symmetry_space_group_name_H-M   'P 1'
_cell_length_a   3.76967900
_cell_length_b   10.79907200
_cell_length_c   12.60472500
_cell_angle_alpha   90.00000000
_cell_angle_beta   90.00000000
_cell_angle_gamma   90.00000000
_symmetry_Int_Tables_number   1
_chemical_formula_structural   Nd2SmZr(Co4P3)2
_chemical_formula_sum   'Nd4 Sm2 Zr2 Co16 P12'
_cell_volume   513.12619041
_cell_formula_units_Z   2
loop_
 _symmetry_equiv_pos_site_id
 _symmetry_equiv_pos_as_xyz
  1  'x, y, z'
loop_
 _atom_site_type_symbol
 _atom_site_label
 _atom_site_symmetry_multiplicity
 _atom_site_fract_x
 _atom_site_fract_y
 _atom_site_fract_z
 _atom_site_occupancy
  Nd  Nd0  1  0.000000  0.500000  0.529124  1
  Nd  Nd1  1  0.500000  0.000000  0.470021  1
  Nd  Nd2  1  0.000000  0.679053  0.794676  1
  Nd  Nd3  1  0.000000  0.320947  0.794676  1
  Sm  Sm4  1  0.500000  0.821042  0.205025  1
  Sm  Sm5  1  0.500000  0.178958  0.205025  1
  Zr  Zr6  1  0.500000  0.500000  0.156786  1
  Zr  Zr7  1  0.000000  0.000000  0.843730  1
  Co  Co8  1  0.500000  0.500000  0.704744  1
  Co  Co9  1  0.000000  0.000000  0.294383  1
  Co  Co10  1  0.000000  0.500000  0.987533  1
  Co  Co11  1  0.500000  0.000000  0.014731  1
  Co  Co12  1  0.500000  0.331752  0.994668  1
  Co  Co13  1  0.500000  0.668248  0.994668  1
  Co  Co14  1  0.000000  0.167558  0.007507  1
  Co  Co15  1  0.000000  0.832442  0.007507  1
  Co  Co16  1  0.500000  0.295134  0.432004  1
  Co  Co17  1  0.500000  0.704866  0.432004  1
  Co  Co18  1  0.000000  0.204416  0.565934  1
  Co  Co19  1  0.000000  0.795584  0.565934  1
  Co  Co20  1  0.500000  0.880244  0.700633  1
  Co  Co21  1  0.500000  0.119756  0.700633  1
  Co  Co22  1  0.000000  0.620513  0.297930  1
  Co  Co23  1  0.000000  0.379487  0.297930  1
  P  P24  1  0.500000  0.500000  0.887239  1
  P  P25  1  0.000000  0.000000  0.115201  1
  P  P26  1  0.500000  0.500000  0.359305  1
  P  P27  1  0.000000  0.000000  0.640466  1
  P  P28  1  0.500000  0.304547  0.612681  1
  P  P29  1  0.500000  0.695453  0.612681  1
  P  P30  1  0.000000  0.194528  0.385036  1
  P  P31  1  0.000000  0.805472  0.385036  1
  P  P32  1  0.500000  0.840446  0.898367  1
  P  P33  1  0.500000  0.159554  0.898367  1
  P  P34  1  0.000000  0.660543  0.103905  1
  P  P35  1  0.000000  0.339457  0.103905  1
