# generated using pymatgen
data_NaTb(BeB14)2
_symmetry_space_group_name_H-M   'P 1'
_cell_length_a   7.20480771
_cell_length_b   7.20480809
_cell_length_c   7.20480718
_cell_angle_alpha   132.96826882
_cell_angle_beta   110.43324089
_cell_angle_gamma   88.24022053
_symmetry_Int_Tables_number   1
_chemical_formula_structural   NaTb(BeB14)2
_chemical_formula_sum   'Na1 Tb1 Be2 B28'
_cell_volume   244.45181089
_cell_formula_units_Z   1
loop_
 _symmetry_equiv_pos_site_id
 _symmetry_equiv_pos_as_xyz
  1  'x, y, z'
loop_
 _atom_site_type_symbol
 _atom_site_label
 _atom_site_symmetry_multiplicity
 _atom_site_fract_x
 _atom_site_fract_y
 _atom_site_fract_z
 _atom_site_occupancy
  Na  Na0  1  0.607435  0.250000  0.357435  1
  Tb  Tb1  1  0.391685  0.750000  0.641685  1
  Be  Be2  1  0.995692  0.006755  0.502448  1
  Be  Be3  1  0.995692  0.493245  0.988937  1
  B  B4  1  0.634295  0.665491  0.968805  1
  B  B5  1  0.366780  0.334230  0.032550  1
  B  B6  1  0.198319  0.165770  0.032550  1
  B  B7  1  0.803315  0.834509  0.968805  1
  B  B8  1  0.788702  0.155750  0.632952  1
  B  B9  1  0.209601  0.844114  0.365488  1
  B  B10  1  0.021372  0.655886  0.365488  1
  B  B11  1  0.977203  0.344250  0.632952  1
  B  B12  1  0.922827  0.090838  0.831990  1
  B  B13  1  0.078921  0.910327  0.168594  1
  B  B14  1  0.758266  0.589673  0.168594  1
  B  B15  1  0.241152  0.409162  0.831990  1
  B  B16  1  0.398059  0.396883  0.678616  1
  B  B17  1  0.603073  0.279812  0.999875  1
  B  B18  1  0.220064  0.896803  0.999875  1
  B  B19  1  0.781733  0.780557  0.678616  1
  B  B20  1  0.603073  0.603197  0.323261  1
  B  B21  1  0.398059  0.719443  0.001177  1
  B  B22  1  0.781733  0.103117  0.001177  1
  B  B23  1  0.220064  0.220188  0.323261  1
  B  B24  1  0.033855  0.827087  0.700427  1
  B  B25  1  0.965641  0.663761  0.792367  1
  B  B26  1  0.628606  0.326725  0.792367  1
  B  B27  1  0.373339  0.166573  0.700427  1
  B  B28  1  0.965641  0.173275  0.301880  1
  B  B29  1  0.033855  0.333427  0.206767  1
  B  B30  1  0.373339  0.672913  0.206767  1
  B  B31  1  0.628606  0.836239  0.301880  1
