# generated using pymatgen
data_KAgP2Se5
_symmetry_space_group_name_H-M   'P 1'
_cell_length_a   8.35945100
_cell_length_b   10.84409822
_cell_length_c   13.77311980
_cell_angle_alpha   59.21835939
_cell_angle_beta   90.00000000
_cell_angle_gamma   90.00000000
_symmetry_Int_Tables_number   1
_chemical_formula_structural   KAgP2Se5
_chemical_formula_sum   'K4 Ag4 P8 Se20'
_cell_volume   1072.65321557
_cell_formula_units_Z   4
loop_
 _symmetry_equiv_pos_site_id
 _symmetry_equiv_pos_as_xyz
  1  'x, y, z'
loop_
 _atom_site_type_symbol
 _atom_site_label
 _atom_site_symmetry_multiplicity
 _atom_site_fract_x
 _atom_site_fract_y
 _atom_site_fract_z
 _atom_site_occupancy
  K  K0  1  0.634055  0.616859  0.782190  1
  K  K1  1  0.365945  0.383141  0.217810  1
  K  K2  1  0.865945  0.616859  0.282190  1
  K  K3  1  0.134055  0.383141  0.717810  1
  Ag  Ag4  1  0.339203  0.848213  0.331799  1
  Ag  Ag5  1  0.839203  0.151787  0.168201  1
  Ag  Ag6  1  0.160797  0.848213  0.831799  1
  Ag  Ag7  1  0.660797  0.151787  0.668201  1
  P  P8  1  0.643939  0.198004  0.919004  1
  P  P9  1  0.939312  0.822458  0.461112  1
  P  P10  1  0.060688  0.177542  0.538888  1
  P  P11  1  0.856061  0.198004  0.419004  1
  P  P12  1  0.356061  0.801996  0.080996  1
  P  P13  1  0.143939  0.801996  0.580996  1
  P  P14  1  0.560688  0.822458  0.961112  1
  P  P15  1  0.439312  0.177542  0.038888  1
  Se  Se16  1  0.688535  0.622020  0.037467  1
  Se  Se17  1  0.548531  0.313131  0.748503  1
  Se  Se18  1  0.142071  0.707382  0.053625  1
  Se  Se19  1  0.474128  0.912787  0.786849  1
  Se  Se20  1  0.188535  0.377980  0.462533  1
  Se  Se21  1  0.357929  0.707382  0.553625  1
  Se  Se22  1  0.311465  0.377980  0.962533  1
  Se  Se23  1  0.974128  0.087213  0.713151  1
  Se  Se24  1  0.737116  0.966772  0.986766  1
  Se  Se25  1  0.237116  0.033228  0.513234  1
  Se  Se26  1  0.857929  0.292618  0.946375  1
  Se  Se27  1  0.762884  0.966772  0.486766  1
  Se  Se28  1  0.048531  0.686869  0.751497  1
  Se  Se29  1  0.025872  0.912787  0.286849  1
  Se  Se30  1  0.642071  0.292618  0.446375  1
  Se  Se31  1  0.451469  0.686869  0.251497  1
  Se  Se32  1  0.951469  0.313131  0.248503  1
  Se  Se33  1  0.525872  0.087213  0.213151  1
  Se  Se34  1  0.262884  0.033228  0.013234  1
  Se  Se35  1  0.811465  0.622020  0.537467  1
