# generated using pymatgen
data_Dy2TmIn3Ni2Ag
_symmetry_space_group_name_H-M   'P 1'
_cell_length_a   7.60877411
_cell_length_b   7.61271944
_cell_length_c   3.79917100
_cell_angle_alpha   90.00000000
_cell_angle_beta   90.00000000
_cell_angle_gamma   120.04174662
_symmetry_Int_Tables_number   1
_chemical_formula_structural   Dy2TmIn3Ni2Ag
_chemical_formula_sum   'Dy2 Tm1 In3 Ni2 Ag1'
_cell_volume   190.49831634
_cell_formula_units_Z   1
loop_
 _symmetry_equiv_pos_site_id
 _symmetry_equiv_pos_as_xyz
  1  'x, y, z'
loop_
 _atom_site_type_symbol
 _atom_site_label
 _atom_site_symmetry_multiplicity
 _atom_site_fract_x
 _atom_site_fract_y
 _atom_site_fract_z
 _atom_site_occupancy
  Dy  Dy0  1  0.581881  0.976295  0.500000  1
  Dy  Dy1  1  0.023750  0.604796  0.500000  1
  Tm  Tm2  1  0.393628  0.418576  0.500000  1
  In  In3  1  0.749867  0.750151  0.000000  1
  In  In4  1  0.000760  0.250105  0.000000  1
  In  In5  1  0.249809  0.001237  0.000000  1
  Ni  Ni6  1  0.333899  0.663174  0.000000  1
  Ni  Ni7  1  0.001489  0.001596  0.500000  1
  Ag  Ag8  1  0.664916  0.334073  0.000000  1
