# generated using pymatgen
data_TiCo4Si2Mo3P2
_symmetry_space_group_name_H-M   'P 1'
_cell_length_a   3.63729900
_cell_length_b   6.03095028
_cell_length_c   6.88539668
_cell_angle_alpha   90.41055297
_cell_angle_beta   90.00000000
_cell_angle_gamma   90.00000000
_symmetry_Int_Tables_number   1
_chemical_formula_structural   TiCo4Si2Mo3P2
_chemical_formula_sum   'Ti1 Co4 Si2 Mo3 P2'
_cell_volume   151.03672768
_cell_formula_units_Z   1
loop_
 _symmetry_equiv_pos_site_id
 _symmetry_equiv_pos_as_xyz
  1  'x, y, z'
loop_
 _atom_site_type_symbol
 _atom_site_label
 _atom_site_symmetry_multiplicity
 _atom_site_fract_x
 _atom_site_fract_y
 _atom_site_fract_z
 _atom_site_occupancy
  Ti  Ti0  1  0.250000  0.477174  0.179430  1
  Co  Co1  1  0.750000  0.639380  0.429549  1
  Co  Co2  1  0.250000  0.855472  0.945626  1
  Co  Co3  1  0.750000  0.143142  0.066945  1
  Co  Co4  1  0.250000  0.352786  0.553172  1
  Si  Si5  1  0.250000  0.726753  0.623540  1
  Si  Si6  1  0.250000  0.228050  0.875347  1
  Mo  Mo7  1  0.250000  0.974222  0.327390  1
  Mo  Mo8  1  0.750000  0.030429  0.669317  1
  Mo  Mo9  1  0.750000  0.529067  0.830099  1
  P  P10  1  0.750000  0.269684  0.379976  1
  P  P11  1  0.750000  0.773842  0.119609  1
