# generated using pymatgen
data_La8Ga(Si4Rh)3
_symmetry_space_group_name_H-M   'P 1'
_cell_length_a   8.28836200
_cell_length_b   8.28836146
_cell_length_c   8.86829500
_cell_angle_alpha   90.00000000
_cell_angle_beta   90.00000000
_cell_angle_gamma   119.99999418
_symmetry_Int_Tables_number   1
_chemical_formula_structural   La8Ga(Si4Rh)3
_chemical_formula_sum   'La8 Ga1 Si12 Rh3'
_cell_volume   527.60412452
_cell_formula_units_Z   1
loop_
 _symmetry_equiv_pos_site_id
 _symmetry_equiv_pos_as_xyz
  1  'x, y, z'
loop_
 _atom_site_type_symbol
 _atom_site_label
 _atom_site_symmetry_multiplicity
 _atom_site_fract_x
 _atom_site_fract_y
 _atom_site_fract_z
 _atom_site_occupancy
  La  La0  1  0.000000  0.000000  0.247553  1
  La  La1  1  0.000000  0.000000  0.752737  1
  La  La2  1  0.501293  0.498707  0.245758  1
  La  La3  1  0.501293  0.002587  0.245758  1
  La  La4  1  0.997413  0.498707  0.245758  1
  La  La5  1  0.500718  0.499282  0.754135  1
  La  La6  1  0.500718  0.001436  0.754135  1
  La  La7  1  0.998564  0.499282  0.754135  1
  Ga  Ga8  1  0.333333  0.666667  0.497269  1
  Si  Si9  1  0.160784  0.839216  0.500613  1
  Si  Si10  1  0.160784  0.321571  0.500613  1
  Si  Si11  1  0.678429  0.839216  0.500613  1
  Si  Si12  1  0.830689  0.169311  0.499420  1
  Si  Si13  1  0.830689  0.661375  0.499420  1
  Si  Si14  1  0.338625  0.169311  0.499420  1
  Si  Si15  1  0.833640  0.166360  0.000189  1
  Si  Si16  1  0.833640  0.667278  0.000189  1
  Si  Si17  1  0.332722  0.166360  0.000189  1
  Si  Si18  1  0.166875  0.833125  0.999911  1
  Si  Si19  1  0.166875  0.333751  0.999911  1
  Si  Si20  1  0.666249  0.833125  0.999911  1
  Rh  Rh21  1  0.666667  0.333333  0.502083  1
  Rh  Rh22  1  0.666667  0.333333  0.998738  1
  Rh  Rh23  1  0.333333  0.666667  0.001537  1
