# generated using pymatgen
data_Dy2Y8IrOs3
_symmetry_space_group_name_H-M   'P 1'
_cell_length_a   6.44068954
_cell_length_b   7.36687985
_cell_length_c   8.49807732
_cell_angle_alpha   96.78994812
_cell_angle_beta   112.48065487
_cell_angle_gamma   90.15424421
_symmetry_Int_Tables_number   1
_chemical_formula_structural   Dy2Y8IrOs3
_chemical_formula_sum   'Dy2 Y8 Ir1 Os3'
_cell_volume   369.45649787
_cell_formula_units_Z   1
loop_
 _symmetry_equiv_pos_site_id
 _symmetry_equiv_pos_as_xyz
  1  'x, y, z'
loop_
 _atom_site_type_symbol
 _atom_site_label
 _atom_site_symmetry_multiplicity
 _atom_site_fract_x
 _atom_site_fract_y
 _atom_site_fract_z
 _atom_site_occupancy
  Dy  Dy0  1  0.425812  0.251115  0.001238  1
  Dy  Dy1  1  0.575724  0.749796  0.000059  1
  Y  Y2  1  0.792779  0.085397  0.818474  1
  Y  Y3  1  0.975519  0.415859  0.182915  1
  Y  Y4  1  0.208419  0.915961  0.186576  1
  Y  Y5  1  0.024512  0.582642  0.818796  1
  Y  Y6  1  0.208736  0.184316  0.562239  1
  Y  Y7  1  0.646519  0.317561  0.437156  1
  Y  Y8  1  0.789267  0.816936  0.434666  1
  Y  Y9  1  0.355784  0.680878  0.561947  1
  Ir  Ir10  1  0.176684  0.924239  0.779006  1
  Os  Os11  1  0.604659  0.423815  0.782929  1
  Os  Os12  1  0.822104  0.074617  0.217750  1
  Os  Os13  1  0.393483  0.576865  0.216249  1
