# generated using pymatgen
data_Hf16InCo4Re3
_symmetry_space_group_name_H-M   'P 1'
_cell_length_a   8.69449424
_cell_length_b   8.67959123
_cell_length_c   8.67959200
_cell_angle_alpha   60.00000469
_cell_angle_beta   60.05668962
_cell_angle_gamma   60.05668670
_symmetry_Int_Tables_number   1
_chemical_formula_structural   Hf16InCo4Re3
_chemical_formula_sum   'Hf16 In1 Co4 Re3'
_cell_volume   463.55312739
_cell_formula_units_Z   1
loop_
 _symmetry_equiv_pos_site_id
 _symmetry_equiv_pos_as_xyz
  1  'x, y, z'
loop_
 _atom_site_type_symbol
 _atom_site_label
 _atom_site_symmetry_multiplicity
 _atom_site_fract_x
 _atom_site_fract_y
 _atom_site_fract_z
 _atom_site_occupancy
  Hf  Hf0  1  0.695570  0.101476  0.101476  1
  Hf  Hf1  1  0.105020  0.700580  0.097199  1
  Hf  Hf2  1  0.105020  0.097199  0.700580  1
  Hf  Hf3  1  0.105020  0.097199  0.097199  1
  Hf  Hf4  1  0.312353  0.314418  0.686614  1
  Hf  Hf5  1  0.672209  0.700844  0.313473  1
  Hf  Hf6  1  0.312353  0.686614  0.314418  1
  Hf  Hf7  1  0.672209  0.313473  0.700844  1
  Hf  Hf8  1  0.672209  0.313473  0.313473  1
  Hf  Hf9  1  0.312353  0.686614  0.686614  1
  Hf  Hf10  1  0.952321  0.936876  0.555402  1
  Hf  Hf11  1  0.547099  0.545695  0.953603  1
  Hf  Hf12  1  0.952321  0.555402  0.936876  1
  Hf  Hf13  1  0.547099  0.953603  0.545695  1
  Hf  Hf14  1  0.547099  0.953603  0.953603  1
  Hf  Hf15  1  0.952321  0.555402  0.555402  1
  In  In16  1  0.010506  0.329831  0.329831  1
  Co  Co17  1  0.329977  0.890007  0.890007  1
  Co  Co18  1  0.892882  0.327048  0.890034  1
  Co  Co19  1  0.892882  0.890034  0.327048  1
  Co  Co20  1  0.892882  0.890034  0.890034  1
  Re  Re21  1  0.339431  0.996437  0.332066  1
  Re  Re22  1  0.339431  0.332066  0.996437  1
  Re  Re23  1  0.339431  0.332066  0.332066  1
