# generated using pymatgen
data_KRb7(SnI6)2
_symmetry_space_group_name_H-M   'P 1'
_cell_length_a   10.23220677
_cell_length_b   10.23220708
_cell_length_c   10.23220717
_cell_angle_alpha   90.46275025
_cell_angle_beta   90.46275140
_cell_angle_gamma   90.46275124
_symmetry_Int_Tables_number   1
_chemical_formula_structural   KRb7(SnI6)2
_chemical_formula_sum   'K1 Rb7 Sn2 I12'
_cell_volume   1071.18683711
_cell_formula_units_Z   1
loop_
 _symmetry_equiv_pos_site_id
 _symmetry_equiv_pos_as_xyz
  1  'x, y, z'
loop_
 _atom_site_type_symbol
 _atom_site_label
 _atom_site_symmetry_multiplicity
 _atom_site_fract_x
 _atom_site_fract_y
 _atom_site_fract_z
 _atom_site_occupancy
  K  K0  1  0.250000  0.250000  0.250000  1
  Rb  Rb1  1  0.750000  0.750000  0.750000  1
  Rb  Rb2  1  0.750000  0.131487  0.368513  1
  Rb  Rb3  1  0.368513  0.750000  0.131487  1
  Rb  Rb4  1  0.131487  0.368513  0.750000  1
  Rb  Rb5  1  0.250000  0.868765  0.631235  1
  Rb  Rb6  1  0.631235  0.250000  0.868765  1
  Rb  Rb7  1  0.868765  0.631235  0.250000  1
  Sn  Sn8  1  0.000211  0.000211  0.000211  1
  Sn  Sn9  1  0.499789  0.499789  0.499789  1
  I  I10  1  0.442273  0.571297  0.800410  1
  I  I11  1  0.800410  0.442273  0.571297  1
  I  I12  1  0.571297  0.800410  0.442273  1
  I  I13  1  0.057727  0.699590  0.928703  1
  I  I14  1  0.928703  0.057727  0.699590  1
  I  I15  1  0.699590  0.928703  0.057727  1
  I  I16  1  0.553091  0.425704  0.199811  1
  I  I17  1  0.199811  0.553091  0.425704  1
  I  I18  1  0.425704  0.199811  0.553091  1
  I  I19  1  0.946909  0.300189  0.074296  1
  I  I20  1  0.300189  0.074296  0.946909  1
  I  I21  1  0.074296  0.946909  0.300189  1
