# generated using pymatgen
data_Pa2Mn(Al2Pt)8
_symmetry_space_group_name_H-M   'P 1'
_cell_length_a   11.13726314
_cell_length_b   11.13726319
_cell_length_c   11.13726400
_cell_angle_alpha   158.64139618
_cell_angle_beta   115.86319035
_cell_angle_gamma   68.43583711
_symmetry_Int_Tables_number   1
_chemical_formula_structural   Pa2Mn(Al2Pt)8
_chemical_formula_sum   'Pa2 Mn1 Al16 Pt8'
_cell_volume   449.56451299
_cell_formula_units_Z   1
loop_
 _symmetry_equiv_pos_site_id
 _symmetry_equiv_pos_as_xyz
  1  'x, y, z'
loop_
 _atom_site_type_symbol
 _atom_site_label
 _atom_site_symmetry_multiplicity
 _atom_site_fract_x
 _atom_site_fract_y
 _atom_site_fract_z
 _atom_site_occupancy
  Pa  Pa0  1  0.229390  0.229570  0.999819  1
  Pa  Pa1  1  0.770249  0.770430  0.999819  1
  Mn  Mn2  1  0.777841  0.500000  0.277841  1
  Al  Al3  1  0.275181  0.391277  0.883903  1
  Al  Al4  1  0.090155  0.926170  0.163985  1
  Al  Al5  1  0.502027  0.198895  0.303132  1
  Al  Al6  1  0.237816  0.073830  0.163985  1
  Al  Al7  1  0.908234  0.416681  0.491553  1
  Al  Al8  1  0.729688  0.601340  0.128347  1
  Al  Al9  1  0.900252  0.208157  0.692096  1
  Al  Al10  1  0.483939  0.791843  0.692096  1
  Al  Al11  1  0.394485  0.000000  0.394485  1
  Al  Al12  1  0.624877  0.000000  0.624877  1
  Al  Al13  1  0.492628  0.608723  0.883903  1
  Al  Al14  1  0.104239  0.801105  0.303132  1
  Al  Al15  1  0.903569  0.085084  0.818485  1
  Al  Al16  1  0.733402  0.914916  0.818485  1
  Al  Al17  1  0.527006  0.398660  0.128347  1
  Al  Al18  1  0.074872  0.583319  0.491553  1
  Pt  Pt19  1  0.019426  0.342988  0.676439  1
  Pt  Pt20  1  0.634782  0.130973  0.503809  1
  Pt  Pt21  1  0.261718  0.500000  0.761718  1
  Pt  Pt22  1  0.372834  0.869027  0.503809  1
  Pt  Pt23  1  0.979626  0.000000  0.979626  1
  Pt  Pt24  1  0.652462  0.333305  0.319156  1
  Pt  Pt25  1  0.333452  0.657012  0.676439  1
  Pt  Pt26  1  0.985851  0.666695  0.319156  1
