# generated using pymatgen
data_Dy7Tm4Cd9Ni4
_symmetry_space_group_name_H-M   'P 1'
_cell_length_a   3.57441000
_cell_length_b   12.99217555
_cell_length_c   12.99217394
_cell_angle_alpha   112.52170183
_cell_angle_beta   90.00000000
_cell_angle_gamma   90.00000000
_symmetry_Int_Tables_number   1
_chemical_formula_structural   Dy7Tm4Cd9Ni4
_chemical_formula_sum   'Dy7 Tm4 Cd9 Ni4'
_cell_volume   557.33362471
_cell_formula_units_Z   1
loop_
 _symmetry_equiv_pos_site_id
 _symmetry_equiv_pos_as_xyz
  1  'x, y, z'
loop_
 _atom_site_type_symbol
 _atom_site_label
 _atom_site_symmetry_multiplicity
 _atom_site_fract_x
 _atom_site_fract_y
 _atom_site_fract_z
 _atom_site_occupancy
  Dy  Dy0  1  0.000000  0.160640  0.839360  1
  Dy  Dy1  1  0.000000  0.839360  0.160640  1
  Dy  Dy2  1  0.000000  0.372933  0.627067  1
  Dy  Dy3  1  0.000000  0.627067  0.372933  1
  Dy  Dy4  1  0.000000  0.688283  0.688283  1
  Dy  Dy5  1  0.000000  0.311717  0.311717  1
  Dy  Dy6  1  0.000000  0.000000  0.000000  1
  Tm  Tm7  1  0.000000  0.917652  0.582410  1
  Tm  Tm8  1  0.000000  0.082348  0.417590  1
  Tm  Tm9  1  0.000000  0.582410  0.917652  1
  Tm  Tm10  1  0.000000  0.417590  0.082348  1
  Cd  Cd11  1  0.500000  0.155093  0.632247  1
  Cd  Cd12  1  0.500000  0.844907  0.367753  1
  Cd  Cd13  1  0.500000  0.632247  0.155093  1
  Cd  Cd14  1  0.500000  0.367753  0.844907  1
  Cd  Cd15  1  0.500000  0.922953  0.779878  1
  Cd  Cd16  1  0.500000  0.077047  0.220122  1
  Cd  Cd17  1  0.500000  0.779878  0.922953  1
  Cd  Cd18  1  0.500000  0.220122  0.077047  1
  Cd  Cd19  1  0.500000  0.500000  0.500000  1
  Ni  Ni20  1  0.500000  0.750305  0.548504  1
  Ni  Ni21  1  0.500000  0.249695  0.451496  1
  Ni  Ni22  1  0.500000  0.548504  0.750305  1
  Ni  Ni23  1  0.500000  0.451496  0.249695  1
