# generated using pymatgen
data_Nd3Sm3(BiO7)2
_symmetry_space_group_name_H-M   'P 1'
_cell_length_a   6.71800998
_cell_length_b   6.72551724
_cell_length_c   7.91525512
_cell_angle_alpha   106.93264750
_cell_angle_beta   89.82946133
_cell_angle_gamma   98.54470245
_symmetry_Int_Tables_number   1
_chemical_formula_structural   Nd3Sm3(BiO7)2
_chemical_formula_sum   'Nd3 Sm3 Bi2 O14'
_cell_volume   338.01925838
_cell_formula_units_Z   1
loop_
 _symmetry_equiv_pos_site_id
 _symmetry_equiv_pos_as_xyz
  1  'x, y, z'
loop_
 _atom_site_type_symbol
 _atom_site_label
 _atom_site_symmetry_multiplicity
 _atom_site_fract_x
 _atom_site_fract_y
 _atom_site_fract_z
 _atom_site_occupancy
  Nd  Nd0  1  0.731032  0.463138  0.116770  1
  Nd  Nd1  1  0.738026  0.479279  0.616398  1
  Nd  Nd2  1  0.260920  0.521143  0.385058  1
  Sm  Sm3  1  0.460886  0.004335  0.252197  1
  Sm  Sm4  1  0.538262  0.995151  0.747610  1
  Sm  Sm5  1  0.269636  0.537425  0.882766  1
  Bi  Bi6  1  0.000544  0.000973  0.500742  1
  Bi  Bi7  1  0.001134  0.000010  0.999349  1
  O  O8  1  0.441358  0.646816  0.164695  1
  O  O9  1  0.552563  0.352259  0.832775  1
  O  O10  1  0.299195  0.926261  0.953786  1
  O  O11  1  0.702106  0.071285  0.046207  1
  O  O12  1  0.295748  0.928183  0.511997  1
  O  O13  1  0.705053  0.071799  0.487637  1
  O  O14  1  0.546960  0.361519  0.345116  1
  O  O15  1  0.451111  0.638670  0.657355  1
  O  O16  1  0.928778  0.671374  0.954886  1
  O  O17  1  0.076074  0.327632  0.041140  1
  O  O18  1  0.073091  0.340111  0.619087  1
  O  O19  1  0.928268  0.661253  0.384153  1
  O  O20  1  0.882588  0.911601  0.727230  1
  O  O21  1  0.116668  0.089783  0.273044  1
