# generated using pymatgen
data_Nd8In2PdRu
_symmetry_space_group_name_H-M   'P 1'
_cell_length_a   9.96347678
_cell_length_b   10.00684115
_cell_length_c   10.00548426
_cell_angle_alpha   60.42784071
_cell_angle_beta   60.11007489
_cell_angle_gamma   60.11532259
_symmetry_Int_Tables_number   1
_chemical_formula_structural   Nd8In2PdRu
_chemical_formula_sum   'Nd16 In4 Pd2 Ru2'
_cell_volume   708.85618709
_cell_formula_units_Z   2
loop_
 _symmetry_equiv_pos_site_id
 _symmetry_equiv_pos_as_xyz
  1  'x, y, z'
loop_
 _atom_site_type_symbol
 _atom_site_label
 _atom_site_symmetry_multiplicity
 _atom_site_fract_x
 _atom_site_fract_y
 _atom_site_fract_z
 _atom_site_occupancy
  Nd  Nd0  1  0.443581  0.434044  0.058146  1
  Nd  Nd1  1  0.651064  0.639992  0.056238  1
  Nd  Nd2  1  0.184109  0.808264  0.198941  1
  Nd  Nd3  1  0.063036  0.433905  0.059568  1
  Nd  Nd4  1  0.192144  0.807559  0.807555  1
  Nd  Nd5  1  0.059757  0.439503  0.439496  1
  Nd  Nd6  1  0.811129  0.189953  0.189952  1
  Nd  Nd7  1  0.654096  0.651042  0.651047  1
  Nd  Nd8  1  0.810008  0.198880  0.807147  1
  Nd  Nd9  1  0.184103  0.198950  0.808264  1
  Nd  Nd10  1  0.047044  0.648929  0.648933  1
  Nd  Nd11  1  0.441010  0.059036  0.059044  1
  Nd  Nd12  1  0.063038  0.059558  0.433908  1
  Nd  Nd13  1  0.651066  0.056238  0.639992  1
  Nd  Nd14  1  0.810006  0.807152  0.198865  1
  Nd  Nd15  1  0.443589  0.058136  0.434048  1
  In  In16  1  0.417065  0.419238  0.419261  1
  In  In17  1  0.418802  0.420860  0.742011  1
  In  In18  1  0.418804  0.742015  0.420862  1
  In  In19  1  0.744517  0.419321  0.419326  1
  Pd  Pd20  1  0.428296  0.860215  0.860201  1
  Pd  Pd21  1  0.850969  0.860017  0.860003  1
  Ru  Ru22  1  0.856382  0.425917  0.861278  1
  Ru  Ru23  1  0.856383  0.861278  0.425915  1
