# generated using pymatgen
data_Sm2Ho4PtI10
_symmetry_space_group_name_H-M   'P 1'
_cell_length_a   7.75371027
_cell_length_b   9.76850481
_cell_length_c   9.87386740
_cell_angle_alpha   107.31774225
_cell_angle_beta   96.82514728
_cell_angle_gamma   104.95470118
_symmetry_Int_Tables_number   1
_chemical_formula_structural   Sm2Ho4PtI10
_chemical_formula_sum   'Sm2 Ho4 Pt1 I10'
_cell_volume   674.08566590
_cell_formula_units_Z   1
loop_
 _symmetry_equiv_pos_site_id
 _symmetry_equiv_pos_as_xyz
  1  'x, y, z'
loop_
 _atom_site_type_symbol
 _atom_site_label
 _atom_site_symmetry_multiplicity
 _atom_site_fract_x
 _atom_site_fract_y
 _atom_site_fract_z
 _atom_site_occupancy
  Sm  Sm0  1  0.882774  0.958191  0.243675  1
  Sm  Sm1  1  0.117226  0.041809  0.756325  1
  Ho  Ho2  1  0.346979  0.125682  0.164192  1
  Ho  Ho3  1  0.653021  0.874318  0.835808  1
  Ho  Ho4  1  0.972355  0.285309  0.086613  1
  Ho  Ho5  1  0.027645  0.714691  0.913387  1
  Pt  Pt6  1  0.000000  0.000000  0.000000  1
  I  I7  1  0.353923  0.451386  0.271209  1
  I  I8  1  0.646077  0.548614  0.728791  1
  I  I9  1  0.916293  0.623671  0.175673  1
  I  I10  1  0.083707  0.376329  0.824327  1
  I  I11  1  0.449359  0.817251  0.088673  1
  I  I12  1  0.550641  0.182749  0.911327  1
  I  I13  1  0.266441  0.089475  0.459852  1
  I  I14  1  0.733559  0.910525  0.540148  1
  I  I15  1  0.777783  0.262214  0.344659  1
  I  I16  1  0.222217  0.737786  0.655341  1
