# generated using pymatgen
data_K3Ba3LuAs4
_symmetry_space_group_name_H-M   'P 1'
_cell_length_a   10.80280100
_cell_length_b   10.80280067
_cell_length_c   8.11593200
_cell_angle_alpha   90.00000000
_cell_angle_beta   90.00000000
_cell_angle_gamma   119.99999796
_symmetry_Int_Tables_number   1
_chemical_formula_structural   K3Ba3LuAs4
_chemical_formula_sum   'K6 Ba6 Lu2 As8'
_cell_volume   820.24157573
_cell_formula_units_Z   2
loop_
 _symmetry_equiv_pos_site_id
 _symmetry_equiv_pos_as_xyz
  1  'x, y, z'
loop_
 _atom_site_type_symbol
 _atom_site_label
 _atom_site_symmetry_multiplicity
 _atom_site_fract_x
 _atom_site_fract_y
 _atom_site_fract_z
 _atom_site_occupancy
  K  K0  1  0.730536  0.865268  0.171665  1
  K  K1  1  0.865268  0.134732  0.671665  1
  K  K2  1  0.865268  0.730536  0.671665  1
  K  K3  1  0.134732  0.269464  0.171665  1
  K  K4  1  0.134732  0.865268  0.171665  1
  K  K5  1  0.269464  0.134732  0.671665  1
  Ba  Ba6  1  0.059741  0.529871  0.495881  1
  Ba  Ba7  1  0.470129  0.940259  0.495881  1
  Ba  Ba8  1  0.470129  0.529871  0.495881  1
  Ba  Ba9  1  0.529871  0.470129  0.995881  1
  Ba  Ba10  1  0.529871  0.059741  0.995881  1
  Ba  Ba11  1  0.940259  0.470129  0.995881  1
  Lu  Lu12  1  0.333333  0.666667  0.887264  1
  Lu  Lu13  1  0.666667  0.333333  0.387264  1
  As  As14  1  0.666667  0.333333  0.730584  1
  As  As15  1  0.608445  0.804223  0.769571  1
  As  As16  1  0.804223  0.195777  0.269571  1
  As  As17  1  0.804223  0.608445  0.269571  1
  As  As18  1  0.333333  0.666667  0.230584  1
  As  As19  1  0.195777  0.391555  0.769571  1
  As  As20  1  0.195777  0.804223  0.769571  1
  As  As21  1  0.391555  0.195777  0.269571  1
