# generated using pymatgen
data_Li6Nb5SnRh12
_symmetry_space_group_name_H-M   'P 1'
_cell_length_a   4.38252300
_cell_length_b   6.13823100
_cell_length_c   13.10279900
_cell_angle_alpha   90.00000000
_cell_angle_beta   90.00052773
_cell_angle_gamma   90.00000000
_symmetry_Int_Tables_number   1
_chemical_formula_structural   Li6Nb5SnRh12
_chemical_formula_sum   'Li6 Nb5 Sn1 Rh12'
_cell_volume   352.47759069
_cell_formula_units_Z   1
loop_
 _symmetry_equiv_pos_site_id
 _symmetry_equiv_pos_as_xyz
  1  'x, y, z'
loop_
 _atom_site_type_symbol
 _atom_site_label
 _atom_site_symmetry_multiplicity
 _atom_site_fract_x
 _atom_site_fract_y
 _atom_site_fract_z
 _atom_site_occupancy
  Li  Li0  1  0.999988  0.499999  0.000230  1
  Li  Li1  1  0.499851  0.000000  0.166303  1
  Li  Li2  1  0.999838  0.499999  0.333352  1
  Li  Li3  1  0.499993  0.000000  0.500364  1
  Li  Li4  1  0.000150  0.499999  0.666430  1
  Li  Li5  1  0.500168  0.000000  0.833356  1
  Nb  Nb6  1  0.000004  0.000000  0.998987  1
  Nb  Nb7  1  0.499822  0.499999  0.167032  1
  Nb  Nb8  1  0.999829  0.000000  0.333347  1
  Nb  Nb9  1  0.499995  0.499999  0.499643  1
  Nb  Nb10  1  0.000169  0.000000  0.667669  1
  Sn  Sn11  1  0.500217  0.499999  0.833307  1
  Rh  Rh12  1  0.499984  0.248460  0.002041  1
  Rh  Rh13  1  0.499984  0.751540  0.002041  1
  Rh  Rh14  1  0.999835  0.250198  0.166967  1
  Rh  Rh15  1  0.999835  0.749802  0.166967  1
  Rh  Rh16  1  0.499831  0.249748  0.333345  1
  Rh  Rh17  1  0.499831  0.750252  0.333345  1
  Rh  Rh18  1  0.999991  0.250190  0.499707  1
  Rh  Rh19  1  0.999991  0.749810  0.499707  1
  Rh  Rh20  1  0.500149  0.248437  0.664607  1
  Rh  Rh21  1  0.500149  0.751563  0.664607  1
  Rh  Rh22  1  0.000198  0.244711  0.833322  1
  Rh  Rh23  1  0.000198  0.755289  0.833322  1
