# generated using pymatgen
data_La2CdSi4(PPd10)2
_symmetry_space_group_name_H-M   'P 1'
_cell_length_a   8.74730369
_cell_length_b   8.74730345
_cell_length_c   8.75295500
_cell_angle_alpha   59.97862898
_cell_angle_beta   59.97862989
_cell_angle_gamma   60.04274389
_symmetry_Int_Tables_number   1
_chemical_formula_structural   La2CdSi4(PPd10)2
_chemical_formula_sum   'La2 Cd1 Si4 P2 Pd20'
_cell_volume   473.57388106
_cell_formula_units_Z   1
loop_
 _symmetry_equiv_pos_site_id
 _symmetry_equiv_pos_as_xyz
  1  'x, y, z'
loop_
 _atom_site_type_symbol
 _atom_site_label
 _atom_site_symmetry_multiplicity
 _atom_site_fract_x
 _atom_site_fract_y
 _atom_site_fract_z
 _atom_site_occupancy
  La  La0  1  0.250000  0.250000  0.250000  1
  La  La1  1  0.750000  0.750000  0.750000  1
  Cd  Cd2  1  0.000000  0.000000  0.000000  1
  Si  Si3  1  0.735236  0.264764  0.264764  1
  Si  Si4  1  0.264764  0.735236  0.735236  1
  Si  Si5  1  0.264764  0.735236  0.264764  1
  Si  Si6  1  0.735236  0.264764  0.735236  1
  P  P7  1  0.265493  0.265493  0.734507  1
  P  P8  1  0.734507  0.734507  0.265493  1
  Pd  Pd9  1  0.385508  0.385508  0.387097  1
  Pd  Pd10  1  0.614492  0.614492  0.612903  1
  Pd  Pd11  1  0.385508  0.385508  0.841886  1
  Pd  Pd12  1  0.387097  0.841886  0.385508  1
  Pd  Pd13  1  0.614492  0.614492  0.158114  1
  Pd  Pd14  1  0.612903  0.158114  0.614492  1
  Pd  Pd15  1  0.841886  0.387097  0.385508  1
  Pd  Pd16  1  0.158114  0.612903  0.614492  1
  Pd  Pd17  1  0.343707  0.002067  0.997933  1
  Pd  Pd18  1  0.656293  0.997933  0.002067  1
  Pd  Pd19  1  0.002067  0.343707  0.656293  1
  Pd  Pd20  1  0.997933  0.656293  0.343707  1
  Pd  Pd21  1  0.002067  0.343707  0.997933  1
  Pd  Pd22  1  0.656293  0.997933  0.343707  1
  Pd  Pd23  1  0.997933  0.656293  0.002067  1
  Pd  Pd24  1  0.343707  0.002067  0.656293  1
  Pd  Pd25  1  0.000000  0.000000  0.345376  1
  Pd  Pd26  1  0.000000  0.000000  0.654624  1
  Pd  Pd27  1  0.654624  0.345376  0.000000  1
  Pd  Pd28  1  0.345376  0.654624  0.000000  1
