# generated using pymatgen
data_NaYbPO4
_symmetry_space_group_name_H-M   'P 1'
_cell_length_a   5.08098500
_cell_length_b   6.58749600
_cell_length_c   11.14743500
_cell_angle_alpha   90.00000000
_cell_angle_beta   90.00000000
_cell_angle_gamma   90.00000000
_symmetry_Int_Tables_number   1
_chemical_formula_structural   NaYbPO4
_chemical_formula_sum   'Na4 Yb4 P4 O16'
_cell_volume   373.11544422
_cell_formula_units_Z   4
loop_
 _symmetry_equiv_pos_site_id
 _symmetry_equiv_pos_as_xyz
  1  'x, y, z'
loop_
 _atom_site_type_symbol
 _atom_site_label
 _atom_site_symmetry_multiplicity
 _atom_site_fract_x
 _atom_site_fract_y
 _atom_site_fract_z
 _atom_site_occupancy
  Na  Na0  1  0.000000  0.000000  0.000000  1
  Na  Na1  1  0.000000  0.500000  0.000000  1
  Na  Na2  1  0.500000  0.500000  0.500000  1
  Na  Na3  1  0.500000  0.000000  0.500000  1
  Yb  Yb4  1  0.503856  0.250000  0.217156  1
  Yb  Yb5  1  0.496144  0.750000  0.782844  1
  Yb  Yb6  1  0.996144  0.250000  0.717156  1
  Yb  Yb7  1  0.003856  0.750000  0.282844  1
  P  P8  1  0.071198  0.250000  0.397645  1
  P  P9  1  0.428802  0.250000  0.897645  1
  P  P10  1  0.928802  0.750000  0.602355  1
  P  P11  1  0.571198  0.750000  0.102355  1
  O  O12  1  0.192704  0.061645  0.331161  1
  O  O13  1  0.807296  0.561645  0.668839  1
  O  O14  1  0.307296  0.061645  0.831161  1
  O  O15  1  0.692704  0.561645  0.168839  1
  O  O16  1  0.326245  0.250000  0.029039  1
  O  O17  1  0.673755  0.750000  0.970961  1
  O  O18  1  0.173755  0.250000  0.529039  1
  O  O19  1  0.826245  0.750000  0.470961  1
  O  O20  1  0.807296  0.938355  0.668839  1
  O  O21  1  0.192704  0.438355  0.331161  1
  O  O22  1  0.692704  0.938355  0.168839  1
  O  O23  1  0.307296  0.438355  0.831161  1
  O  O24  1  0.267556  0.750000  0.108533  1
  O  O25  1  0.732444  0.250000  0.891467  1
  O  O26  1  0.232444  0.750000  0.608533  1
  O  O27  1  0.767556  0.250000  0.391467  1
