# generated using pymatgen
data_Y3ZnIn4Ir
_symmetry_space_group_name_H-M   'P 1'
_cell_length_a   7.92218900
_cell_length_b   7.92218845
_cell_length_c   3.87766100
_cell_angle_alpha   90.00000000
_cell_angle_beta   90.00000000
_cell_angle_gamma   120.00000649
_symmetry_Int_Tables_number   1
_chemical_formula_structural   Y3ZnIn4Ir
_chemical_formula_sum   'Y3 Zn1 In4 Ir1'
_cell_volume   210.76127154
_cell_formula_units_Z   1
loop_
 _symmetry_equiv_pos_site_id
 _symmetry_equiv_pos_as_xyz
  1  'x, y, z'
loop_
 _atom_site_type_symbol
 _atom_site_label
 _atom_site_symmetry_multiplicity
 _atom_site_fract_x
 _atom_site_fract_y
 _atom_site_fract_z
 _atom_site_occupancy
  Y  Y0  1  0.045625  0.297927  0.500000  1
  Y  Y1  1  0.702073  0.747697  0.500000  1
  Y  Y2  1  0.252303  0.954375  0.500000  1
  Zn  Zn3  1  0.666667  0.333333  0.500000  1
  In  In4  1  0.665722  0.071081  0.000000  1
  In  In5  1  0.928919  0.594642  0.000000  1
  In  In6  1  0.405358  0.334278  0.000000  1
  In  In7  1  0.333333  0.666667  0.000000  1
  Ir  Ir8  1  0.000000  0.000000  0.000000  1
