# generated using pymatgen
data_Tb8MnCo19B8
_symmetry_space_group_name_H-M   'P 1'
_cell_length_a   5.10284700
_cell_length_b   5.10284577
_cell_length_c   19.89158900
_cell_angle_alpha   90.00000000
_cell_angle_beta   90.00000000
_cell_angle_gamma   120.00000150
_symmetry_Int_Tables_number   1
_chemical_formula_structural   Tb8MnCo19B8
_chemical_formula_sum   'Tb8 Mn1 Co19 B8'
_cell_volume   448.56469781
_cell_formula_units_Z   1
loop_
 _symmetry_equiv_pos_site_id
 _symmetry_equiv_pos_as_xyz
  1  'x, y, z'
loop_
 _atom_site_type_symbol
 _atom_site_label
 _atom_site_symmetry_multiplicity
 _atom_site_fract_x
 _atom_site_fract_y
 _atom_site_fract_z
 _atom_site_occupancy
  Tb  Tb0  1  0.666667  0.333333  0.824855  1
  Tb  Tb1  1  0.666667  0.333333  0.976355  1
  Tb  Tb2  1  0.333333  0.666667  0.478305  1
  Tb  Tb3  1  0.333333  0.666667  0.023645  1
  Tb  Tb4  1  0.333333  0.666667  0.175145  1
  Tb  Tb5  1  0.666667  0.333333  0.521695  1
  Tb  Tb6  1  0.666667  0.333333  0.674617  1
  Tb  Tb7  1  0.333333  0.666667  0.325383  1
  Mn  Mn8  1  0.000000  0.000000  0.000000  1
  Co  Co9  1  0.164485  0.328968  0.894494  1
  Co  Co10  1  0.162318  0.837682  0.606162  1
  Co  Co11  1  0.837682  0.162318  0.393838  1
  Co  Co12  1  0.334465  0.167233  0.249589  1
  Co  Co13  1  0.324635  0.162318  0.393838  1
  Co  Co14  1  0.835515  0.671032  0.105506  1
  Co  Co15  1  0.837682  0.675365  0.393838  1
  Co  Co16  1  0.832767  0.665535  0.249589  1
  Co  Co17  1  0.675365  0.837682  0.606162  1
  Co  Co18  1  0.665535  0.832767  0.750411  1
  Co  Co19  1  0.835515  0.164485  0.105506  1
  Co  Co20  1  0.671032  0.835515  0.894494  1
  Co  Co21  1  0.167233  0.334465  0.750411  1
  Co  Co22  1  0.167233  0.832767  0.750411  1
  Co  Co23  1  0.832767  0.167233  0.249589  1
  Co  Co24  1  0.328968  0.164485  0.105506  1
  Co  Co25  1  0.000000  0.000000  0.500000  1
  Co  Co26  1  0.164485  0.835515  0.894494  1
  Co  Co27  1  0.162318  0.324635  0.606162  1
  B  B28  1  0.333333  0.666667  0.825123  1
  B  B29  1  0.333333  0.666667  0.674745  1
  B  B30  1  0.666667  0.333333  0.325255  1
  B  B31  1  0.000000  0.000000  0.823687  1
  B  B32  1  0.666667  0.333333  0.174877  1
  B  B33  1  0.000000  0.000000  0.677495  1
  B  B34  1  0.000000  0.000000  0.322505  1
  B  B35  1  0.000000  0.000000  0.176313  1
