# generated using pymatgen
data_Rb3NaAs2O7
_symmetry_space_group_name_H-M   'P 1'
_cell_length_a   6.18326800
_cell_length_b   6.18326710
_cell_length_c   15.01208000
_cell_angle_alpha   90.00000000
_cell_angle_beta   90.00000000
_cell_angle_gamma   119.49448102
_symmetry_Int_Tables_number   1
_chemical_formula_structural   Rb3NaAs2O7
_chemical_formula_sum   'Rb6 Na2 As4 O14'
_cell_volume   499.57119455
_cell_formula_units_Z   2
loop_
 _symmetry_equiv_pos_site_id
 _symmetry_equiv_pos_as_xyz
  1  'x, y, z'
loop_
 _atom_site_type_symbol
 _atom_site_label
 _atom_site_symmetry_multiplicity
 _atom_site_fract_x
 _atom_site_fract_y
 _atom_site_fract_z
 _atom_site_occupancy
  Rb  Rb0  1  0.116391  0.116391  0.000000  1
  Rb  Rb1  1  0.883609  0.883609  0.500000  1
  Rb  Rb2  1  0.758336  0.455729  0.113635  1
  Rb  Rb3  1  0.455729  0.758336  0.886365  1
  Rb  Rb4  1  0.241664  0.544271  0.613635  1
  Rb  Rb5  1  0.544271  0.241664  0.386365  1
  Na  Na6  1  0.006444  0.993556  0.250000  1
  Na  Na7  1  0.993556  0.006444  0.750000  1
  As  As8  1  0.429602  0.802678  0.151065  1
  As  As9  1  0.802678  0.429602  0.848935  1
  As  As10  1  0.570398  0.197322  0.651065  1
  As  As11  1  0.197322  0.570398  0.348935  1
  O  O12  1  0.338399  0.015711  0.174030  1
  O  O13  1  0.015711  0.338399  0.825970  1
  O  O14  1  0.661601  0.984289  0.674030  1
  O  O15  1  0.984289  0.661601  0.325970  1
  O  O16  1  0.742083  0.935191  0.133960  1
  O  O17  1  0.935191  0.742083  0.866040  1
  O  O18  1  0.257917  0.064809  0.633960  1
  O  O19  1  0.064809  0.257917  0.366040  1
  O  O20  1  0.263137  0.601171  0.068388  1
  O  O21  1  0.601171  0.263137  0.931612  1
  O  O22  1  0.736863  0.398829  0.568388  1
  O  O23  1  0.398829  0.736863  0.431612  1
  O  O24  1  0.387397  0.612603  0.250000  1
  O  O25  1  0.612603  0.387397  0.750000  1
