# generated using pymatgen
data_Tm8ReB24OsW2
_symmetry_space_group_name_H-M   'P 1'
_cell_length_a   3.60652000
_cell_length_b   9.16711718
_cell_length_c   11.54468303
_cell_angle_alpha   90.06752541
_cell_angle_beta   90.00000000
_cell_angle_gamma   90.00000000
_symmetry_Int_Tables_number   1
_chemical_formula_structural   Tm8ReB24OsW2
_chemical_formula_sum   'Tm8 Re1 B24 Os1 W2'
_cell_volume   381.68301983
_cell_formula_units_Z   1
loop_
 _symmetry_equiv_pos_site_id
 _symmetry_equiv_pos_as_xyz
  1  'x, y, z'
loop_
 _atom_site_type_symbol
 _atom_site_label
 _atom_site_symmetry_multiplicity
 _atom_site_fract_x
 _atom_site_fract_y
 _atom_site_fract_z
 _atom_site_occupancy
  Tm  Tm0  1  0.000000  0.321631  0.413679  1
  Tm  Tm1  1  0.000000  0.680482  0.587295  1
  Tm  Tm2  1  0.000000  0.821674  0.083744  1
  Tm  Tm3  1  0.000000  0.176819  0.913114  1
  Tm  Tm4  1  0.000000  0.940976  0.371606  1
  Tm  Tm5  1  0.000000  0.054186  0.628850  1
  Tm  Tm6  1  0.000000  0.445113  0.129103  1
  Tm  Tm7  1  0.000000  0.558893  0.872429  1
  Re  Re8  1  0.000000  0.861228  0.820509  1
  B  B9  1  0.500000  0.554123  0.432387  1
  B  B10  1  0.500000  0.449793  0.563821  1
  B  B11  1  0.500000  0.050429  0.064111  1
  B  B12  1  0.500000  0.946849  0.932450  1
  B  B13  1  0.500000  0.748459  0.418849  1
  B  B14  1  0.500000  0.247163  0.578145  1
  B  B15  1  0.500000  0.252266  0.078031  1
  B  B16  1  0.500000  0.751493  0.919053  1
  B  B17  1  0.500000  0.790381  0.265545  1
  B  B18  1  0.500000  0.204755  0.736087  1
  B  B19  1  0.500000  0.295482  0.237073  1
  B  B20  1  0.500000  0.708556  0.765881  1
  B  B21  1  0.500000  0.630920  0.185424  1
  B  B22  1  0.500000  0.369893  0.817258  1
  B  B23  1  0.500000  0.130269  0.318108  1
  B  B24  1  0.500000  0.869175  0.685489  1
  B  B25  1  0.500000  0.976493  0.212348  1
  B  B26  1  0.500000  0.017863  0.787765  1
  B  B27  1  0.500000  0.482888  0.288165  1
  B  B28  1  0.500000  0.523655  0.712544  1
  B  B29  1  0.500000  0.602154  0.029094  1
  B  B30  1  0.500000  0.400073  0.972271  1
  B  B31  1  0.500000  0.099095  0.472046  1
  B  B32  1  0.500000  0.897285  0.528167  1
  Os  Os33  1  0.000000  0.638408  0.320820  1
  W  W34  1  0.000000  0.362201  0.678779  1
  W  W35  1  0.000000  0.138878  0.179957  1
