# generated using pymatgen
data_Hf3Sc5(Co4P3)4
_symmetry_space_group_name_H-M   'P 1'
_cell_length_a   12.13163034
_cell_length_b   12.10431500
_cell_length_c   3.63898000
_cell_angle_alpha   90.00000000
_cell_angle_beta   90.00000000
_cell_angle_gamma   120.04758632
_symmetry_Int_Tables_number   1
_chemical_formula_structural   Hf3Sc5(Co4P3)4
_chemical_formula_sum   'Hf3 Sc5 Co16 P12'
_cell_volume   462.55271780
_cell_formula_units_Z   1
loop_
 _symmetry_equiv_pos_site_id
 _symmetry_equiv_pos_as_xyz
  1  'x, y, z'
loop_
 _atom_site_type_symbol
 _atom_site_label
 _atom_site_symmetry_multiplicity
 _atom_site_fract_x
 _atom_site_fract_y
 _atom_site_fract_z
 _atom_site_occupancy
  Hf  Hf0  1  0.818361  0.819167  0.500000  1
  Hf  Hf1  1  0.442896  0.443473  0.000000  1
  Hf  Hf2  1  0.556668  0.000209  0.000000  1
  Sc  Sc3  1  0.000520  0.182241  0.500000  1
  Sc  Sc4  1  0.333186  0.666947  0.000000  1
  Sc  Sc5  1  0.666435  0.333635  0.000000  1
  Sc  Sc6  1  0.999277  0.556451  0.000000  1
  Sc  Sc7  1  0.182007  0.001420  0.500000  1
  Co  Co8  1  0.629767  0.822860  0.000000  1
  Co  Co9  1  0.371615  0.194299  0.000000  1
  Co  Co10  1  0.999218  0.722034  0.500000  1
  Co  Co11  1  0.278233  0.277570  0.500000  1
  Co  Co12  1  0.873783  0.355483  0.500000  1
  Co  Co13  1  0.722023  0.998313  0.500000  1
  Co  Co14  1  0.822420  0.629298  0.000000  1
  Co  Co15  1  0.177464  0.805417  0.000000  1
  Co  Co16  1  0.355325  0.874112  0.500000  1
  Co  Co17  1  0.125380  0.480496  0.500000  1
  Co  Co18  1  0.645823  0.520852  0.500000  1
  Co  Co19  1  0.998380  0.997562  0.000000  1
  Co  Co20  1  0.519773  0.645518  0.500000  1
  Co  Co21  1  0.481489  0.125660  0.500000  1
  Co  Co22  1  0.194004  0.370922  0.000000  1
  Co  Co23  1  0.806409  0.177057  0.000000  1
  P  P24  1  0.000371  0.348786  0.000000  1
  P  P25  1  0.826741  0.516747  0.500000  1
  P  P26  1  0.691803  0.174289  0.500000  1
  P  P27  1  0.173615  0.173690  0.000000  1
  P  P28  1  0.653888  0.653395  0.000000  1
  P  P29  1  0.825972  0.000836  0.000000  1
  P  P30  1  0.516372  0.825932  0.500000  1
  P  P31  1  0.172751  0.689777  0.500000  1
  P  P32  1  0.345955  0.999508  0.000000  1
  P  P33  1  0.483311  0.309102  0.500000  1
  P  P34  1  0.000634  0.824124  0.000000  1
  P  P35  1  0.308130  0.482818  0.500000  1
