# generated using pymatgen
data_Ho6ZrCo14(P4Ru)3
_symmetry_space_group_name_H-M   'P 1'
_cell_length_a   3.74755200
_cell_length_b   10.63271400
_cell_length_c   12.38900700
_cell_angle_alpha   90.00000000
_cell_angle_beta   90.00000000
_cell_angle_gamma   90.00000000
_symmetry_Int_Tables_number   1
_chemical_formula_structural   Ho6ZrCo14(P4Ru)3
_chemical_formula_sum   'Ho6 Zr1 Co14 P12 Ru3'
_cell_volume   493.66040863
_cell_formula_units_Z   1
loop_
 _symmetry_equiv_pos_site_id
 _symmetry_equiv_pos_as_xyz
  1  'x, y, z'
loop_
 _atom_site_type_symbol
 _atom_site_label
 _atom_site_symmetry_multiplicity
 _atom_site_fract_x
 _atom_site_fract_y
 _atom_site_fract_z
 _atom_site_occupancy
  Ho  Ho0  1  0.000000  0.500000  0.527820  1
  Ho  Ho1  1  0.500000  0.000000  0.474347  1
  Ho  Ho2  1  0.500000  0.818942  0.201127  1
  Ho  Ho3  1  0.500000  0.181058  0.201127  1
  Ho  Ho4  1  0.000000  0.678653  0.795154  1
  Ho  Ho5  1  0.000000  0.321347  0.795154  1
  Zr  Zr6  1  0.000000  0.000000  0.846720  1
  Co  Co7  1  0.000000  0.500000  0.987314  1
  Co  Co8  1  0.500000  0.000000  0.016365  1
  Co  Co9  1  0.000000  0.203476  0.570225  1
  Co  Co10  1  0.000000  0.796524  0.570225  1
  Co  Co11  1  0.500000  0.877170  0.706614  1
  Co  Co12  1  0.500000  0.122830  0.706614  1
  Co  Co13  1  0.000000  0.619793  0.287857  1
  Co  Co14  1  0.000000  0.380207  0.287857  1
  Co  Co15  1  0.500000  0.337294  0.993153  1
  Co  Co16  1  0.500000  0.662706  0.993153  1
  Co  Co17  1  0.000000  0.172756  0.011195  1
  Co  Co18  1  0.000000  0.827244  0.011195  1
  Co  Co19  1  0.500000  0.500000  0.704038  1
  Co  Co20  1  0.000000  0.000000  0.296165  1
  P  P21  1  0.500000  0.309641  0.619056  1
  P  P22  1  0.500000  0.690359  0.619056  1
  P  P23  1  0.000000  0.184896  0.380770  1
  P  P24  1  0.000000  0.815104  0.380770  1
  P  P25  1  0.500000  0.500000  0.882019  1
  P  P26  1  0.000000  0.000000  0.117299  1
  P  P27  1  0.500000  0.836288  0.898634  1
  P  P28  1  0.500000  0.163712  0.898634  1
  P  P29  1  0.000000  0.651326  0.108623  1
  P  P30  1  0.000000  0.348674  0.108623  1
  P  P31  1  0.500000  0.500000  0.346183  1
  P  P32  1  0.000000  0.000000  0.639996  1
  Ru  Ru33  1  0.500000  0.296663  0.428975  1
  Ru  Ru34  1  0.500000  0.703337  0.428975  1
  Ru  Ru35  1  0.500000  0.500000  0.158966  1
