# generated using pymatgen
data_Zn22CoPd2
_symmetry_space_group_name_H-M   'P 1'
_cell_length_a   7.78922685
_cell_length_b   7.78922693
_cell_length_c   7.81930391
_cell_angle_alpha   71.69501670
_cell_angle_beta   71.69501460
_cell_angle_gamma   57.64435837
_symmetry_Int_Tables_number   1
_chemical_formula_structural   Zn22CoPd2
_chemical_formula_sum   'Zn22 Co1 Pd2'
_cell_volume   374.12106432
_cell_formula_units_Z   1
loop_
 _symmetry_equiv_pos_site_id
 _symmetry_equiv_pos_as_xyz
  1  'x, y, z'
loop_
 _atom_site_type_symbol
 _atom_site_label
 _atom_site_symmetry_multiplicity
 _atom_site_fract_x
 _atom_site_fract_y
 _atom_site_fract_z
 _atom_site_occupancy
  Zn  Zn0  1  0.335552  0.743365  0.318143  1
  Zn  Zn1  1  0.664448  0.256635  0.681857  1
  Zn  Zn2  1  0.256635  0.664447  0.681858  1
  Zn  Zn3  1  0.743365  0.335553  0.318142  1
  Zn  Zn4  1  0.683022  0.316978  0.000000  1
  Zn  Zn5  1  0.316978  0.683022  0.000000  1
  Zn  Zn6  1  0.834554  0.834554  0.776075  1
  Zn  Zn7  1  0.165446  0.165446  0.223925  1
  Zn  Zn8  1  0.977666  0.977666  0.177650  1
  Zn  Zn9  1  0.022334  0.022334  0.822350  1
  Zn  Zn10  1  0.351768  0.351768  0.277585  1
  Zn  Zn11  1  0.648232  0.648232  0.722415  1
  Zn  Zn12  1  0.684832  0.684832  0.381374  1
  Zn  Zn13  1  0.315168  0.315168  0.618626  1
  Zn  Zn14  1  0.663444  0.022418  0.463507  1
  Zn  Zn15  1  0.336556  0.977582  0.536493  1
  Zn  Zn16  1  0.977582  0.336556  0.536493  1
  Zn  Zn17  1  0.022418  0.663444  0.463507  1
  Zn  Zn18  1  0.623807  0.997170  0.105598  1
  Zn  Zn19  1  0.376193  0.002830  0.894402  1
  Zn  Zn20  1  0.002830  0.376193  0.894402  1
  Zn  Zn21  1  0.997170  0.623807  0.105598  1
  Co  Co22  1  0.000000  0.000000  0.500000  1
  Pd  Pd23  1  0.657490  0.657490  0.055977  1
  Pd  Pd24  1  0.342510  0.342510  0.944023  1
