# generated using pymatgen
data_Tb16Yb3YIr12
_symmetry_space_group_name_H-M   'P 1'
_cell_length_a   6.33817000
_cell_length_b   10.95593300
_cell_length_c   10.95593300
_cell_angle_alpha   90.00000000
_cell_angle_beta   90.00000000
_cell_angle_gamma   90.00000000
_symmetry_Int_Tables_number   1
_chemical_formula_structural   Tb16Yb3YIr12
_chemical_formula_sum   'Tb16 Yb3 Y1 Ir12'
_cell_volume   760.78618707
_cell_formula_units_Z   1
loop_
 _symmetry_equiv_pos_site_id
 _symmetry_equiv_pos_as_xyz
  1  'x, y, z'
loop_
 _atom_site_type_symbol
 _atom_site_label
 _atom_site_symmetry_multiplicity
 _atom_site_fract_x
 _atom_site_fract_y
 _atom_site_fract_z
 _atom_site_occupancy
  Tb  Tb0  1  0.380316  0.840291  0.541788  1
  Tb  Tb1  1  0.879632  0.662692  0.538989  1
  Tb  Tb2  1  0.879632  0.837308  0.961011  1
  Tb  Tb3  1  0.380316  0.659709  0.958212  1
  Tb  Tb4  1  0.879946  0.540245  0.836698  1
  Tb  Tb5  1  0.380751  0.960256  0.839530  1
  Tb  Tb6  1  0.380751  0.539744  0.660470  1
  Tb  Tb7  1  0.879946  0.959755  0.663302  1
  Tb  Tb8  1  0.619249  0.160470  0.460257  1
  Tb  Tb9  1  0.120054  0.336698  0.459756  1
  Tb  Tb10  1  0.120054  0.163302  0.040245  1
  Tb  Tb11  1  0.619249  0.339530  0.039744  1
  Tb  Tb12  1  0.120368  0.461012  0.162692  1
  Tb  Tb13  1  0.619684  0.041788  0.159709  1
  Tb  Tb14  1  0.619684  0.458213  0.340291  1
  Tb  Tb15  1  0.120368  0.038989  0.337308  1
  Yb  Yb16  1  0.000000  0.750000  0.250000  1
  Yb  Yb17  1  0.000000  0.250000  0.750000  1
  Yb  Yb18  1  0.500000  0.250000  0.750000  1
  Y  Y19  1  0.500000  0.750000  0.250000  1
  Ir  Ir20  1  0.253191  0.905490  0.093917  1
  Ir  Ir21  1  0.746809  0.593917  0.094510  1
  Ir  Ir22  1  0.746809  0.906083  0.405490  1
  Ir  Ir23  1  0.253191  0.594510  0.406083  1
  Ir  Ir24  1  0.752541  0.091314  0.907444  1
  Ir  Ir25  1  0.247459  0.407444  0.908686  1
  Ir  Ir26  1  0.247459  0.092556  0.591314  1
  Ir  Ir27  1  0.752541  0.408686  0.592556  1
  Ir  Ir28  1  0.119724  0.750000  0.750000  1
  Ir  Ir29  1  0.620309  0.750000  0.750000  1
  Ir  Ir30  1  0.880276  0.250000  0.250000  1
  Ir  Ir31  1  0.379691  0.250000  0.250000  1
