# generated using pymatgen
data_TmLu4CdAu4
_symmetry_space_group_name_H-M   'P 1'
_cell_length_a   7.90181600
_cell_length_b   7.90181600
_cell_length_c   3.72557800
_cell_angle_alpha   90.00000000
_cell_angle_beta   90.00000000
_cell_angle_gamma   90.00000000
_symmetry_Int_Tables_number   1
_chemical_formula_structural   TmLu4CdAu4
_chemical_formula_sum   'Tm1 Lu4 Cd1 Au4'
_cell_volume   232.62023253
_cell_formula_units_Z   1
loop_
 _symmetry_equiv_pos_site_id
 _symmetry_equiv_pos_as_xyz
  1  'x, y, z'
loop_
 _atom_site_type_symbol
 _atom_site_label
 _atom_site_symmetry_multiplicity
 _atom_site_fract_x
 _atom_site_fract_y
 _atom_site_fract_z
 _atom_site_occupancy
  Tm  Tm0  1  0.000000  0.000000  0.000000  1
  Lu  Lu1  1  0.637724  0.185938  0.500000  1
  Lu  Lu2  1  0.362276  0.814062  0.500000  1
  Lu  Lu3  1  0.185938  0.362276  0.500000  1
  Lu  Lu4  1  0.814062  0.637724  0.500000  1
  Cd  Cd5  1  0.500000  0.500000  0.000000  1
  Au  Au6  1  0.121817  0.647302  0.000000  1
  Au  Au7  1  0.878183  0.352698  0.000000  1
  Au  Au8  1  0.647302  0.878183  0.000000  1
  Au  Au9  1  0.352698  0.121817  0.000000  1
