# generated using pymatgen
data_Tb10Dy2Co4BiOs
_symmetry_space_group_name_H-M   'P 1'
_cell_length_a   8.36207750
_cell_length_b   8.36207691
_cell_length_c   8.36638417
_cell_angle_alpha   106.85152540
_cell_angle_beta   110.28670070
_cell_angle_gamma   111.28833485
_symmetry_Int_Tables_number   1
_chemical_formula_structural   Tb10Dy2Co4BiOs
_chemical_formula_sum   'Tb10 Dy2 Co4 Bi1 Os1'
_cell_volume   449.72003317
_cell_formula_units_Z   1
loop_
 _symmetry_equiv_pos_site_id
 _symmetry_equiv_pos_as_xyz
  1  'x, y, z'
loop_
 _atom_site_type_symbol
 _atom_site_label
 _atom_site_symmetry_multiplicity
 _atom_site_fract_x
 _atom_site_fract_y
 _atom_site_fract_z
 _atom_site_occupancy
  Tb  Tb0  1  0.464822  0.283621  0.180784  1
  Tb  Tb1  1  0.102837  0.284037  0.819216  1
  Tb  Tb2  1  0.897163  0.715963  0.180784  1
  Tb  Tb3  1  0.535178  0.716379  0.819216  1
  Tb  Tb4  1  0.308420  0.621190  0.311803  1
  Tb  Tb5  1  0.309387  0.996618  0.688197  1
  Tb  Tb6  1  0.691580  0.378810  0.688197  1
  Tb  Tb7  1  0.690613  0.003382  0.311803  1
  Tb  Tb8  1  0.195695  0.212305  0.408001  1
  Tb  Tb9  1  0.804305  0.787695  0.591999  1
  Dy  Dy10  1  0.195797  0.787721  0.983517  1
  Dy  Dy11  1  0.804203  0.212279  0.016483  1
  Co  Co12  1  0.499343  0.610829  0.110172  1
  Co  Co13  1  0.500657  0.389171  0.889828  1
  Co  Co14  1  0.376133  0.999605  0.375738  1
  Co  Co15  1  0.623867  0.000395  0.624262  1
  Bi  Bi16  1  0.000000  0.500000  0.500000  1
  Os  Os17  1  0.000000  0.000000  0.000000  1
