# generated using pymatgen
data_Dy4Al5ReTc2
_symmetry_space_group_name_H-M   'P 1'
_cell_length_a   5.51730858
_cell_length_b   5.57772914
_cell_length_c   8.76922700
_cell_angle_alpha   90.00000000
_cell_angle_beta   90.00000000
_cell_angle_gamma   120.36290381
_symmetry_Int_Tables_number   1
_chemical_formula_structural   Dy4Al5ReTc2
_chemical_formula_sum   'Dy4 Al5 Re1 Tc2'
_cell_volume   232.85032112
_cell_formula_units_Z   1
loop_
 _symmetry_equiv_pos_site_id
 _symmetry_equiv_pos_as_xyz
  1  'x, y, z'
loop_
 _atom_site_type_symbol
 _atom_site_label
 _atom_site_symmetry_multiplicity
 _atom_site_fract_x
 _atom_site_fract_y
 _atom_site_fract_z
 _atom_site_occupancy
  Dy  Dy0  1  0.338064  0.669032  0.443560  1
  Dy  Dy1  1  0.664224  0.332111  0.555485  1
  Dy  Dy2  1  0.664224  0.332111  0.944515  1
  Dy  Dy3  1  0.338064  0.669032  0.056440  1
  Al  Al4  1  0.838210  0.162425  0.250000  1
  Al  Al5  1  0.838210  0.675785  0.250000  1
  Al  Al6  1  0.323412  0.161706  0.250000  1
  Al  Al7  1  0.183575  0.841225  0.750000  1
  Al  Al8  1  0.183575  0.342351  0.750000  1
  Re  Re9  1  0.677163  0.838580  0.750000  1
  Tc  Tc10  1  0.975641  0.987821  0.511032  1
  Tc  Tc11  1  0.975641  0.987821  0.988968  1
