# generated using pymatgen
data_LaPr9C4I15
_symmetry_space_group_name_H-M   'P 1'
_cell_length_a   9.86293987
_cell_length_b   10.74103450
_cell_length_c   11.89765692
_cell_angle_alpha   93.78425563
_cell_angle_beta   114.45691415
_cell_angle_gamma   109.26334606
_symmetry_Int_Tables_number   1
_chemical_formula_structural   LaPr9C4I15
_chemical_formula_sum   'La1 Pr9 C4 I15'
_cell_volume   1052.55723520
_cell_formula_units_Z   1
loop_
 _symmetry_equiv_pos_site_id
 _symmetry_equiv_pos_as_xyz
  1  'x, y, z'
loop_
 _atom_site_type_symbol
 _atom_site_label
 _atom_site_symmetry_multiplicity
 _atom_site_fract_x
 _atom_site_fract_y
 _atom_site_fract_z
 _atom_site_occupancy
  La  La0  1  0.401258  0.459209  0.655609  1
  Pr  Pr1  1  0.777257  0.883506  0.257371  1
  Pr  Pr2  1  0.222992  0.116165  0.743442  1
  Pr  Pr3  1  0.528938  0.186214  0.101825  1
  Pr  Pr4  1  0.471258  0.814697  0.898213  1
  Pr  Pr5  1  0.704501  0.567336  0.044481  1
  Pr  Pr6  1  0.295703  0.432043  0.955970  1
  Pr  Pr7  1  0.656208  0.254596  0.836459  1
  Pr  Pr8  1  0.343806  0.745602  0.163405  1
  Pr  Pr9  1  0.597884  0.541680  0.341627  1
  C  C10  1  0.546615  0.636633  0.164430  1
  C  C11  1  0.452813  0.363194  0.833998  1
  C  C12  1  0.482435  0.301805  0.937529  1
  C  C13  1  0.517479  0.698337  0.061809  1
  I  I14  1  0.895324  0.811552  0.531572  1
  I  I15  1  0.101805  0.185041  0.467563  1
  I  I16  1  0.793165  0.093616  0.062640  1
  I  I17  1  0.206995  0.906933  0.937817  1
  I  I18  1  0.715058  0.735477  0.823734  1
  I  I19  1  0.287334  0.266273  0.178489  1
  I  I20  1  0.848892  0.445184  0.296193  1
  I  I21  1  0.149734  0.555518  0.705556  1
  I  I22  1  0.405932  0.970035  0.649037  1
  I  I23  1  0.593879  0.029687  0.351021  1
  I  I24  1  0.052801  0.832213  0.220577  1
  I  I25  1  0.947327  0.167434  0.779746  1
  I  I26  1  0.000167  0.499924  0.000225  1
  I  I27  1  0.641806  0.367598  0.587591  1
  I  I28  1  0.360639  0.632500  0.412074  1
