# generated using pymatgen
data_Dy7Co2Sn23Os4
_symmetry_space_group_name_H-M   'P 1'
_cell_length_a   9.80781556
_cell_length_b   9.85548219
_cell_length_c   10.07881566
_cell_angle_alpha   90.00000291
_cell_angle_beta   89.83021749
_cell_angle_gamma   120.16089997
_symmetry_Int_Tables_number   1
_chemical_formula_structural   Dy7Co2Sn23Os4
_chemical_formula_sum   'Dy7 Co2 Sn23 Os4'
_cell_volume   842.32817627
_cell_formula_units_Z   1
loop_
 _symmetry_equiv_pos_site_id
 _symmetry_equiv_pos_as_xyz
  1  'x, y, z'
loop_
 _atom_site_type_symbol
 _atom_site_label
 _atom_site_symmetry_multiplicity
 _atom_site_fract_x
 _atom_site_fract_y
 _atom_site_fract_z
 _atom_site_occupancy
  Dy  Dy0  1  0.000000  0.000000  0.000000  1
  Dy  Dy1  1  0.483491  0.519248  0.306122  1
  Dy  Dy2  1  0.516509  0.480752  0.693878  1
  Dy  Dy3  1  0.483491  0.964244  0.306122  1
  Dy  Dy4  1  0.516509  0.035756  0.693878  1
  Dy  Dy5  1  0.035585  0.517793  0.304538  1
  Dy  Dy6  1  0.964415  0.482207  0.695462  1
  Co  Co7  1  0.338835  0.169417  0.199182  1
  Co  Co8  1  0.661165  0.830583  0.800818  1
  Sn  Sn9  1  0.349326  0.002654  0.004648  1
  Sn  Sn10  1  0.650674  0.997346  0.995352  1
  Sn  Sn11  1  0.000000  0.349594  0.000000  1
  Sn  Sn12  1  0.000000  0.650406  0.000000  1
  Sn  Sn13  1  0.650674  0.653327  0.995352  1
  Sn  Sn14  1  0.349326  0.346673  0.004648  1
  Sn  Sn15  1  0.336006  0.668004  0.820700  1
  Sn  Sn16  1  0.663994  0.331996  0.179300  1
  Sn  Sn17  1  0.000000  0.000000  0.500000  1
  Sn  Sn18  1  0.780866  0.219787  0.460954  1
  Sn  Sn19  1  0.219134  0.780213  0.539046  1
  Sn  Sn20  1  0.780866  0.561080  0.460954  1
  Sn  Sn21  1  0.219134  0.438920  0.539046  1
  Sn  Sn22  1  0.436811  0.218405  0.454013  1
  Sn  Sn23  1  0.563189  0.781595  0.545987  1
  Sn  Sn24  1  0.335038  0.667519  0.123164  1
  Sn  Sn25  1  0.664962  0.332481  0.876836  1
  Sn  Sn26  1  0.120835  0.889162  0.275040  1
  Sn  Sn27  1  0.879165  0.110838  0.724960  1
  Sn  Sn28  1  0.120835  0.231673  0.275040  1
  Sn  Sn29  1  0.879165  0.768327  0.724960  1
  Sn  Sn30  1  0.763925  0.881962  0.276063  1
  Sn  Sn31  1  0.236075  0.118038  0.723937  1
  Os  Os32  1  0.829447  0.168027  0.200793  1
  Os  Os33  1  0.170553  0.831973  0.799207  1
  Os  Os34  1  0.829447  0.661420  0.200793  1
  Os  Os35  1  0.170553  0.338580  0.799207  1
