# generated using pymatgen
data_Tb4CeY(Al3Ru)8
_symmetry_space_group_name_H-M   'P 1'
_cell_length_a   8.83307512
_cell_length_b   8.82747686
_cell_length_c   9.57724900
_cell_angle_alpha   90.00000000
_cell_angle_beta   90.00000000
_cell_angle_gamma   120.00241455
_symmetry_Int_Tables_number   1
_chemical_formula_structural   Tb4CeY(Al3Ru)8
_chemical_formula_sum   'Tb4 Ce1 Y1 Al24 Ru8'
_cell_volume   646.70966973
_cell_formula_units_Z   1
loop_
 _symmetry_equiv_pos_site_id
 _symmetry_equiv_pos_as_xyz
  1  'x, y, z'
loop_
 _atom_site_type_symbol
 _atom_site_label
 _atom_site_symmetry_multiplicity
 _atom_site_fract_x
 _atom_site_fract_y
 _atom_site_fract_z
 _atom_site_occupancy
  Tb  Tb0  1  0.807739  0.615494  0.750000  1
  Tb  Tb1  1  0.192069  0.805224  0.250000  1
  Tb  Tb2  1  0.386485  0.192938  0.750000  1
  Tb  Tb3  1  0.806461  0.192910  0.750000  1
  Ce  Ce4  1  0.193921  0.387902  0.250000  1
  Y  Y5  1  0.613018  0.805198  0.250000  1
  Al  Al6  1  0.334552  0.669031  0.486944  1
  Al  Al7  1  0.666812  0.333654  0.985364  1
  Al  Al8  1  0.666812  0.333654  0.514636  1
  Al  Al9  1  0.334552  0.669031  0.013056  1
  Al  Al10  1  0.161977  0.323916  0.578954  1
  Al  Al11  1  0.676001  0.837913  0.578164  1
  Al  Al12  1  0.161922  0.837928  0.578179  1
  Al  Al13  1  0.836594  0.161078  0.077744  1
  Al  Al14  1  0.836594  0.161078  0.422256  1
  Al  Al15  1  0.837723  0.675510  0.076952  1
  Al  Al16  1  0.324483  0.161105  0.077760  1
  Al  Al17  1  0.676001  0.837913  0.921836  1
  Al  Al18  1  0.161977  0.323916  0.921046  1
  Al  Al19  1  0.837723  0.675510  0.423048  1
  Al  Al20  1  0.999639  0.999173  0.250000  1
  Al  Al21  1  0.000633  0.001244  0.750000  1
  Al  Al22  1  0.560571  0.121082  0.250000  1
  Al  Al23  1  0.439514  0.560895  0.750000  1
  Al  Al24  1  0.121374  0.560881  0.750000  1
  Al  Al25  1  0.875006  0.438149  0.250000  1
  Al  Al26  1  0.563121  0.438237  0.250000  1
  Al  Al27  1  0.439033  0.878048  0.750000  1
  Al  Al28  1  0.161922  0.837928  0.921821  1
  Al  Al29  1  0.324483  0.161105  0.422240  1
  Ru  Ru30  1  0.999680  0.999416  0.500156  1
  Ru  Ru31  1  0.999680  0.999416  0.999844  1
  Ru  Ru32  1  0.500619  0.001161  0.500989  1
  Ru  Ru33  1  0.499751  0.500305  0.001107  1
  Ru  Ru34  1  0.000595  0.500295  0.001117  1
  Ru  Ru35  1  0.000595  0.500295  0.498883  1
  Ru  Ru36  1  0.499751  0.500305  0.498893  1
  Ru  Ru37  1  0.500619  0.001161  0.999011  1
