# generated using pymatgen
data_Li2Mg(SiRh2)3
_symmetry_space_group_name_H-M   'P 1'
_cell_length_a   4.14817000
_cell_length_b   5.88313100
_cell_length_c   12.46828800
_cell_angle_alpha   90.00000000
_cell_angle_beta   89.99997700
_cell_angle_gamma   90.00000000
_symmetry_Int_Tables_number   1
_chemical_formula_structural   Li2Mg(SiRh2)3
_chemical_formula_sum   'Li4 Mg2 Si6 Rh12'
_cell_volume   304.27893714
_cell_formula_units_Z   2
loop_
 _symmetry_equiv_pos_site_id
 _symmetry_equiv_pos_as_xyz
  1  'x, y, z'
loop_
 _atom_site_type_symbol
 _atom_site_label
 _atom_site_symmetry_multiplicity
 _atom_site_fract_x
 _atom_site_fract_y
 _atom_site_fract_z
 _atom_site_occupancy
  Li  Li0  1  0.000007  0.500000  0.002440  1
  Li  Li1  1  0.499925  0.000000  0.167458  1
  Li  Li2  1  0.999928  0.500000  0.332542  1
  Li  Li3  1  0.500007  0.000000  0.497558  1
  Mg  Mg4  1  0.000067  0.500000  0.664575  1
  Mg  Mg5  1  0.500068  0.000000  0.835427  1
  Si  Si6  1  0.000011  0.000000  0.008394  1
  Si  Si7  1  0.499930  0.500000  0.170652  1
  Si  Si8  1  0.999932  0.000000  0.329347  1
  Si  Si9  1  0.500010  0.500000  0.491606  1
  Si  Si10  1  0.000071  0.000000  0.660806  1
  Si  Si11  1  0.500072  0.500000  0.839194  1
  Rh  Rh12  1  0.500003  0.252941  0.004552  1
  Rh  Rh13  1  0.500003  0.747059  0.004552  1
  Rh  Rh14  1  0.999935  0.251436  0.167980  1
  Rh  Rh15  1  0.999935  0.748564  0.167980  1
  Rh  Rh16  1  0.499932  0.248565  0.332020  1
  Rh  Rh17  1  0.499932  0.751435  0.332020  1
  Rh  Rh18  1  0.000004  0.247061  0.495450  1
  Rh  Rh19  1  0.000004  0.752939  0.495450  1
  Rh  Rh20  1  0.500056  0.246513  0.663255  1
  Rh  Rh21  1  0.500056  0.753487  0.663255  1
  Rh  Rh22  1  0.000054  0.253486  0.836744  1
  Rh  Rh23  1  0.000054  0.746514  0.836744  1
