# generated using pymatgen
data_Be6TcNi2W3
_symmetry_space_group_name_H-M   'P 1'
_cell_length_a   4.53557000
_cell_length_b   4.53556927
_cell_length_c   7.17907800
_cell_angle_alpha   90.00000000
_cell_angle_beta   90.00000000
_cell_angle_gamma   120.00000531
_symmetry_Int_Tables_number   1
_chemical_formula_structural   Be6TcNi2W3
_chemical_formula_sum   'Be6 Tc1 Ni2 W3'
_cell_volume   127.89776602
_cell_formula_units_Z   1
loop_
 _symmetry_equiv_pos_site_id
 _symmetry_equiv_pos_as_xyz
  1  'x, y, z'
loop_
 _atom_site_type_symbol
 _atom_site_label
 _atom_site_symmetry_multiplicity
 _atom_site_fract_x
 _atom_site_fract_y
 _atom_site_fract_z
 _atom_site_occupancy
  Be  Be0  1  0.829981  0.170019  0.251357  1
  Be  Be1  1  0.829981  0.659962  0.251357  1
  Be  Be2  1  0.340038  0.170019  0.251357  1
  Be  Be3  1  0.170395  0.829605  0.749747  1
  Be  Be4  1  0.170395  0.340789  0.749747  1
  Be  Be5  1  0.659211  0.829605  0.749747  1
  Tc  Tc6  1  0.333333  0.666667  0.426534  1
  Ni  Ni7  1  0.000000  0.000000  0.501447  1
  Ni  Ni8  1  0.000000  0.000000  0.002874  1
  W  W9  1  0.666667  0.333333  0.564709  1
  W  W10  1  0.666667  0.333333  0.929627  1
  W  W11  1  0.333333  0.666667  0.071499  1
