# generated using pymatgen
data_CaDy7(Si4W3)4
_symmetry_space_group_name_H-M   'P 1'
_cell_length_a   6.77350854
_cell_length_b   6.95897265
_cell_length_c   12.94647300
_cell_angle_alpha   90.04474836
_cell_angle_beta   89.96131789
_cell_angle_gamma   90.06540315
_symmetry_Int_Tables_number   1
_chemical_formula_structural   CaDy7(Si4W3)4
_chemical_formula_sum   'Ca1 Dy7 Si16 W12'
_cell_volume   610.25278283
_cell_formula_units_Z   1
loop_
 _symmetry_equiv_pos_site_id
 _symmetry_equiv_pos_as_xyz
  1  'x, y, z'
loop_
 _atom_site_type_symbol
 _atom_site_label
 _atom_site_symmetry_multiplicity
 _atom_site_fract_x
 _atom_site_fract_y
 _atom_site_fract_z
 _atom_site_occupancy
  Ca  Ca0  1  0.996917  0.166693  0.091178  1
  Dy  Dy1  1  0.497687  0.331977  0.094080  1
  Dy  Dy2  1  0.997331  0.168542  0.406124  1
  Dy  Dy3  1  0.503569  0.668064  0.593502  1
  Dy  Dy4  1  0.002968  0.833244  0.907464  1
  Dy  Dy5  1  0.503055  0.667542  0.906785  1
  Dy  Dy6  1  0.003760  0.832429  0.593731  1
  Dy  Dy7  1  0.496984  0.331847  0.405745  1
  Si  Si8  1  0.662043  0.042567  0.546235  1
  Si  Si9  1  0.160239  0.457267  0.952962  1
  Si  Si10  1  0.339409  0.958726  0.047336  1
  Si  Si11  1  0.838320  0.543231  0.454148  1
  Si  Si12  1  0.337890  0.957705  0.453483  1
  Si  Si13  1  0.839899  0.541001  0.047214  1
  Si  Si14  1  0.659656  0.042428  0.953258  1
  Si  Si15  1  0.161737  0.456531  0.545902  1
  Si  Si16  1  0.534011  0.369602  0.750045  1
  Si  Si17  1  0.034541  0.131048  0.750652  1
  Si  Si18  1  0.465365  0.629726  0.250491  1
  Si  Si19  1  0.965403  0.870638  0.249854  1
  Si  Si20  1  0.803408  0.633496  0.750300  1
  Si  Si21  1  0.302685  0.868033  0.750179  1
  Si  Si22  1  0.195296  0.365993  0.248733  1
  Si  Si23  1  0.699222  0.131000  0.248670  1
  W  W24  1  0.829775  0.337661  0.625469  1
  W  W25  1  0.331689  0.163428  0.874201  1
  W  W26  1  0.170181  0.664616  0.126508  1
  W  W27  1  0.668551  0.835978  0.374054  1
  W  W28  1  0.170158  0.661762  0.375151  1
  W  W29  1  0.667459  0.832877  0.125461  1
  W  W30  1  0.828633  0.338438  0.873494  1
  W  W31  1  0.331256  0.164098  0.625944  1
  W  W32  1  0.665850  0.000969  0.749376  1
  W  W33  1  0.164593  0.498120  0.749829  1
  W  W34  1  0.334828  0.998092  0.251244  1
  W  W35  1  0.835632  0.504632  0.251194  1
