# generated using pymatgen
data_TmTh(Fe4B)2
_symmetry_space_group_name_H-M   'P 1'
_cell_length_a   5.07012100
_cell_length_b   5.06969157
_cell_length_c   7.07331100
_cell_angle_alpha   90.00000000
_cell_angle_beta   90.00000000
_cell_angle_gamma   120.00279557
_symmetry_Int_Tables_number   1
_chemical_formula_structural   TmTh(Fe4B)2
_chemical_formula_sum   'Tm1 Th1 Fe8 B2'
_cell_volume   157.44940098
_cell_formula_units_Z   1
loop_
 _symmetry_equiv_pos_site_id
 _symmetry_equiv_pos_as_xyz
  1  'x, y, z'
loop_
 _atom_site_type_symbol
 _atom_site_label
 _atom_site_symmetry_multiplicity
 _atom_site_fract_x
 _atom_site_fract_y
 _atom_site_fract_z
 _atom_site_occupancy
  Tm  Tm0  1  0.999983  0.000000  0.500000  1
  Th  Th1  1  0.999982  0.000000  0.000000  1
  Fe  Fe2  1  0.333322  0.666682  0.000000  1
  Fe  Fe3  1  0.666639  0.333318  0.000000  1
  Fe  Fe4  1  0.499984  0.000000  0.290772  1
  Fe  Fe5  1  0.499983  0.499999  0.290820  1
  Fe  Fe6  1  0.999985  0.500001  0.290820  1
  Fe  Fe7  1  0.499984  0.000000  0.709228  1
  Fe  Fe8  1  0.499983  0.499999  0.709180  1
  Fe  Fe9  1  0.999985  0.500001  0.709180  1
  B  B10  1  0.333331  0.666690  0.500000  1
  B  B11  1  0.666640  0.333310  0.500000  1
