# generated using pymatgen
data_Tb8Dy11LuPb16
_symmetry_space_group_name_H-M   'P 1'
_cell_length_a   8.22195400
_cell_length_b   8.30746905
_cell_length_c   15.67762600
_cell_angle_alpha   90.00000000
_cell_angle_beta   90.00000000
_cell_angle_gamma   90.00644170
_symmetry_Int_Tables_number   1
_chemical_formula_structural   Tb8Dy11LuPb16
_chemical_formula_sum   'Tb8 Dy11 Lu1 Pb16'
_cell_volume   1070.83873383
_cell_formula_units_Z   1
loop_
 _symmetry_equiv_pos_site_id
 _symmetry_equiv_pos_as_xyz
  1  'x, y, z'
loop_
 _atom_site_type_symbol
 _atom_site_label
 _atom_site_symmetry_multiplicity
 _atom_site_fract_x
 _atom_site_fract_y
 _atom_site_fract_z
 _atom_site_occupancy
  Tb  Tb0  1  0.534221  0.323299  0.899956  1
  Tb  Tb1  1  0.034135  0.176748  0.599944  1
  Tb  Tb2  1  0.465605  0.677005  0.399942  1
  Tb  Tb3  1  0.966034  0.823485  0.100114  1
  Tb  Tb4  1  0.465605  0.677005  0.100058  1
  Tb  Tb5  1  0.966034  0.823485  0.399886  1
  Tb  Tb6  1  0.534221  0.323299  0.600044  1
  Tb  Tb7  1  0.034135  0.176748  0.900056  1
  Dy  Dy8  1  0.376542  0.841010  0.879456  1
  Dy  Dy9  1  0.876582  0.658923  0.620706  1
  Dy  Dy10  1  0.622989  0.158717  0.379142  1
  Dy  Dy11  1  0.123719  0.340890  0.120844  1
  Dy  Dy12  1  0.622989  0.158717  0.120858  1
  Dy  Dy13  1  0.123719  0.340890  0.379156  1
  Dy  Dy14  1  0.376542  0.841010  0.620544  1
  Dy  Dy15  1  0.876582  0.658923  0.879294  1
  Dy  Dy16  1  0.208506  0.504088  0.750000  1
  Dy  Dy17  1  0.708468  0.996030  0.750000  1
  Dy  Dy18  1  0.791584  0.496060  0.250000  1
  Lu  Lu19  1  0.291303  0.004448  0.250000  1
  Pb  Pb20  1  0.281944  0.033609  0.043527  1
  Pb  Pb21  1  0.782110  0.466097  0.457100  1
  Pb  Pb22  1  0.718118  0.965940  0.542674  1
  Pb  Pb23  1  0.217948  0.533851  0.957354  1
  Pb  Pb24  1  0.718118  0.965940  0.957326  1
  Pb  Pb25  1  0.217948  0.533851  0.542646  1
  Pb  Pb26  1  0.281944  0.033609  0.456473  1
  Pb  Pb27  1  0.782110  0.466097  0.042900  1
  Pb  Pb28  1  0.572123  0.626492  0.750000  1
  Pb  Pb29  1  0.072187  0.873671  0.750000  1
  Pb  Pb30  1  0.427737  0.372927  0.250000  1
  Pb  Pb31  1  0.929011  0.125913  0.250000  1
  Pb  Pb32  1  0.345230  0.152049  0.750000  1
  Pb  Pb33  1  0.845257  0.347680  0.750000  1
  Pb  Pb34  1  0.653968  0.847898  0.250000  1
  Pb  Pb35  1  0.154734  0.653593  0.250000  1
