# generated using pymatgen
data_RbHo2LuSe5
_symmetry_space_group_name_H-M   'P 1'
_cell_length_a   4.11474700
_cell_length_b   12.28674900
_cell_length_c   21.95033600
_cell_angle_alpha   90.00000000
_cell_angle_beta   90.00000000
_cell_angle_gamma   90.00000000
_symmetry_Int_Tables_number   1
_chemical_formula_structural   RbHo2LuSe5
_chemical_formula_sum   'Rb4 Ho8 Lu4 Se20'
_cell_volume   1109.74014285
_cell_formula_units_Z   4
loop_
 _symmetry_equiv_pos_site_id
 _symmetry_equiv_pos_as_xyz
  1  'x, y, z'
loop_
 _atom_site_type_symbol
 _atom_site_label
 _atom_site_symmetry_multiplicity
 _atom_site_fract_x
 _atom_site_fract_y
 _atom_site_fract_z
 _atom_site_occupancy
  Rb  Rb0  1  0.250000  0.851800  0.093235  1
  Rb  Rb1  1  0.750000  0.148200  0.906765  1
  Rb  Rb2  1  0.750000  0.351800  0.406765  1
  Rb  Rb3  1  0.250000  0.648200  0.593235  1
  Ho  Ho4  1  0.750000  0.798062  0.826091  1
  Ho  Ho5  1  0.250000  0.201938  0.173909  1
  Ho  Ho6  1  0.250000  0.298062  0.673909  1
  Ho  Ho7  1  0.750000  0.701938  0.326091  1
  Ho  Ho8  1  0.250000  0.956527  0.697777  1
  Ho  Ho9  1  0.750000  0.043473  0.302223  1
  Ho  Ho10  1  0.750000  0.456527  0.802223  1
  Ho  Ho11  1  0.250000  0.543473  0.197777  1
  Lu  Lu12  1  0.750000  0.391704  0.053788  1
  Lu  Lu13  1  0.250000  0.608296  0.946212  1
  Lu  Lu14  1  0.250000  0.891704  0.446212  1
  Lu  Lu15  1  0.750000  0.108296  0.553788  1
  Se  Se16  1  0.250000  0.948565  0.568091  1
  Se  Se17  1  0.750000  0.051435  0.431909  1
  Se  Se18  1  0.750000  0.448565  0.931909  1
  Se  Se19  1  0.250000  0.551435  0.068091  1
  Se  Se20  1  0.750000  0.763755  0.954216  1
  Se  Se21  1  0.250000  0.236245  0.045784  1
  Se  Se22  1  0.250000  0.263755  0.545784  1
  Se  Se23  1  0.750000  0.736245  0.454216  1
  Se  Se24  1  0.250000  0.953432  0.826980  1
  Se  Se25  1  0.750000  0.046568  0.173020  1
  Se  Se26  1  0.750000  0.453432  0.673020  1
  Se  Se27  1  0.250000  0.546568  0.326980  1
  Se  Se28  1  0.750000  0.126258  0.684038  1
  Se  Se29  1  0.250000  0.873742  0.315962  1
  Se  Se30  1  0.250000  0.626258  0.815962  1
  Se  Se31  1  0.750000  0.373742  0.184038  1
  Se  Se32  1  0.750000  0.697187  0.196813  1
  Se  Se33  1  0.250000  0.302813  0.803187  1
  Se  Se34  1  0.250000  0.197187  0.303187  1
  Se  Se35  1  0.750000  0.802813  0.696813  1
