# generated using pymatgen
data_Er6Al24Os7Rh
_symmetry_space_group_name_H-M   'P 1'
_cell_length_a   8.80611802
_cell_length_b   8.80611751
_cell_length_c   9.53046527
_cell_angle_alpha   89.72613962
_cell_angle_beta   90.27385955
_cell_angle_gamma   119.73379333
_symmetry_Int_Tables_number   1
_chemical_formula_structural   Er6Al24Os7Rh
_chemical_formula_sum   'Er6 Al24 Os7 Rh1'
_cell_volume   641.74992375
_cell_formula_units_Z   1
loop_
 _symmetry_equiv_pos_site_id
 _symmetry_equiv_pos_as_xyz
  1  'x, y, z'
loop_
 _atom_site_type_symbol
 _atom_site_label
 _atom_site_symmetry_multiplicity
 _atom_site_fract_x
 _atom_site_fract_y
 _atom_site_fract_z
 _atom_site_occupancy
  Er  Er0  1  0.191101  0.387921  0.251924  1
  Er  Er1  1  0.808899  0.612079  0.748076  1
  Er  Er2  1  0.612079  0.808899  0.251924  1
  Er  Er3  1  0.387921  0.191101  0.748076  1
  Er  Er4  1  0.195230  0.804770  0.251358  1
  Er  Er5  1  0.804770  0.195230  0.748642  1
  Al  Al6  1  0.332971  0.667029  0.018721  1
  Al  Al7  1  0.667029  0.332971  0.981279  1
  Al  Al8  1  0.666718  0.333282  0.516991  1
  Al  Al9  1  0.333282  0.666718  0.483009  1
  Al  Al10  1  0.163863  0.325350  0.577250  1
  Al  Al11  1  0.836137  0.674650  0.422750  1
  Al  Al12  1  0.674650  0.836137  0.577250  1
  Al  Al13  1  0.839184  0.675418  0.077640  1
  Al  Al14  1  0.325350  0.163863  0.422750  1
  Al  Al15  1  0.160816  0.324582  0.922360  1
  Al  Al16  1  0.163397  0.836603  0.576056  1
  Al  Al17  1  0.324582  0.160816  0.077640  1
  Al  Al18  1  0.836603  0.163397  0.423944  1
  Al  Al19  1  0.675418  0.839184  0.922360  1
  Al  Al20  1  0.836912  0.163088  0.076160  1
  Al  Al21  1  0.163088  0.836912  0.923840  1
  Al  Al22  1  0.560065  0.121666  0.249645  1
  Al  Al23  1  0.439935  0.878334  0.750355  1
  Al  Al24  1  0.878334  0.439935  0.249645  1
  Al  Al25  1  0.121666  0.560065  0.750355  1
  Al  Al26  1  0.560273  0.439727  0.249937  1
  Al  Al27  1  0.439727  0.560273  0.750063  1
  Al  Al28  1  0.999549  0.000451  0.250158  1
  Al  Al29  1  0.000451  0.999549  0.749842  1
  Os  Os30  1  0.500000  0.000000  0.000000  1
  Os  Os31  1  0.000000  0.500000  0.000000  1
  Os  Os32  1  0.500000  0.000000  0.500000  1
  Os  Os33  1  0.000000  0.500000  0.500000  1
  Os  Os34  1  0.500000  0.500000  0.500000  1
  Os  Os35  1  0.000000  0.000000  0.000000  1
  Os  Os36  1  0.000000  0.000000  0.500000  1
  Rh  Rh37  1  0.500000  0.500000  0.000000  1
