# generated using pymatgen
data_Dy20SnBi7Ir4
_symmetry_space_group_name_H-M   'P 1'
_cell_length_a   7.99691221
_cell_length_b   9.00887484
_cell_length_c   12.48062419
_cell_angle_alpha   90.04617629
_cell_angle_beta   90.01918014
_cell_angle_gamma   90.01768650
_symmetry_Int_Tables_number   1
_chemical_formula_structural   Dy20SnBi7Ir4
_chemical_formula_sum   'Dy20 Sn1 Bi7 Ir4'
_cell_volume   899.14348425
_cell_formula_units_Z   1
loop_
 _symmetry_equiv_pos_site_id
 _symmetry_equiv_pos_as_xyz
  1  'x, y, z'
loop_
 _atom_site_type_symbol
 _atom_site_label
 _atom_site_symmetry_multiplicity
 _atom_site_fract_x
 _atom_site_fract_y
 _atom_site_fract_z
 _atom_site_occupancy
  Dy  Dy0  1  0.837246  0.746775  0.792586  1
  Dy  Dy1  1  0.159528  0.250144  0.206687  1
  Dy  Dy2  1  0.343227  0.253419  0.708652  1
  Dy  Dy3  1  0.659124  0.750135  0.292817  1
  Dy  Dy4  1  0.379788  0.746666  0.695385  1
  Dy  Dy5  1  0.623307  0.250196  0.306194  1
  Dy  Dy6  1  0.872370  0.252802  0.806480  1
  Dy  Dy7  1  0.123542  0.749840  0.193956  1
  Dy  Dy8  1  0.946527  0.750209  0.501500  1
  Dy  Dy9  1  0.054230  0.249887  0.498654  1
  Dy  Dy10  1  0.448244  0.253314  0.996221  1
  Dy  Dy11  1  0.553988  0.746717  0.999575  1
  Dy  Dy12  1  0.676993  0.042477  0.566141  1
  Dy  Dy13  1  0.323261  0.957456  0.434019  1
  Dy  Dy14  1  0.176230  0.957952  0.933825  1
  Dy  Dy15  1  0.323467  0.542046  0.433792  1
  Dy  Dy16  1  0.823132  0.041653  0.065987  1
  Dy  Dy17  1  0.674829  0.458252  0.569503  1
  Dy  Dy18  1  0.822126  0.457900  0.063876  1
  Dy  Dy19  1  0.180253  0.541368  0.933190  1
  Sn  Sn20  1  0.568590  0.491792  0.828392  1
  Bi  Bi21  1  0.430645  0.509280  0.173158  1
  Bi  Bi22  1  0.069200  0.509166  0.672148  1
  Bi  Bi23  1  0.430893  0.991018  0.172113  1
  Bi  Bi24  1  0.931026  0.490826  0.327547  1
  Bi  Bi25  1  0.568787  0.008785  0.827535  1
  Bi  Bi26  1  0.931025  0.009212  0.327264  1
  Bi  Bi27  1  0.068839  0.991072  0.673055  1
  Ir  Ir28  1  0.571496  0.750066  0.509169  1
  Ir  Ir29  1  0.428450  0.249719  0.490459  1
  Ir  Ir30  1  0.070504  0.249718  0.990569  1
  Ir  Ir31  1  0.929133  0.750142  0.009551  1
