# generated using pymatgen
data_Hf3Al3Cu2Tc
_symmetry_space_group_name_H-M   'P 1'
_cell_length_a   7.18180000
_cell_length_b   7.18180065
_cell_length_c   3.38239600
_cell_angle_alpha   90.00000000
_cell_angle_beta   90.00000000
_cell_angle_gamma   119.99999699
_symmetry_Int_Tables_number   1
_chemical_formula_structural   Hf3Al3Cu2Tc
_chemical_formula_sum   'Hf3 Al3 Cu2 Tc1'
_cell_volume   151.08513945
_cell_formula_units_Z   1
loop_
 _symmetry_equiv_pos_site_id
 _symmetry_equiv_pos_as_xyz
  1  'x, y, z'
loop_
 _atom_site_type_symbol
 _atom_site_label
 _atom_site_symmetry_multiplicity
 _atom_site_fract_x
 _atom_site_fract_y
 _atom_site_fract_z
 _atom_site_occupancy
  Hf  Hf0  1  0.403707  0.009125  0.500001  1
  Hf  Hf1  1  0.990875  0.394581  0.500001  1
  Hf  Hf2  1  0.605418  0.596294  0.500001  1
  Al  Al3  1  0.737904  0.996684  0.000000  1
  Al  Al4  1  0.258780  0.262096  0.000000  1
  Al  Al5  1  0.003316  0.741221  0.000000  1
  Cu  Cu6  1  0.333333  0.666667  0.000000  1
  Cu  Cu7  1  0.000000  0.000000  0.500001  1
  Tc  Tc8  1  0.666667  0.333333  0.000000  1
