# generated using pymatgen
data_Rb8Sn(MoO4)6
_symmetry_space_group_name_H-M   'P 1'
_cell_length_a   10.96620126
_cell_length_b   10.96620206
_cell_length_c   8.13493961
_cell_angle_alpha   81.10180943
_cell_angle_beta   81.10181161
_cell_angle_gamma   123.72810166
_symmetry_Int_Tables_number   1
_chemical_formula_structural   Rb8Sn(MoO4)6
_chemical_formula_sum   'Rb8 Sn1 Mo6 O24'
_cell_volume   768.60951705
_cell_formula_units_Z   1
loop_
 _symmetry_equiv_pos_site_id
 _symmetry_equiv_pos_as_xyz
  1  'x, y, z'
loop_
 _atom_site_type_symbol
 _atom_site_label
 _atom_site_symmetry_multiplicity
 _atom_site_fract_x
 _atom_site_fract_y
 _atom_site_fract_z
 _atom_site_occupancy
  Rb  Rb0  1  0.215282  0.215282  0.353933  1
  Rb  Rb1  1  0.784718  0.784718  0.646067  1
  Rb  Rb2  1  0.664229  0.335771  0.500000  1
  Rb  Rb3  1  0.335771  0.664229  0.500000  1
  Rb  Rb4  1  0.866892  0.519271  0.890750  1
  Rb  Rb5  1  0.519271  0.866892  0.890750  1
  Rb  Rb6  1  0.133108  0.480729  0.109250  1
  Rb  Rb7  1  0.480729  0.133108  0.109250  1
  Sn  Sn8  1  0.000000  0.000000  0.000000  1
  Mo  Mo9  1  0.949582  0.259950  0.712835  1
  Mo  Mo10  1  0.259950  0.949582  0.712835  1
  Mo  Mo11  1  0.050418  0.740050  0.287165  1
  Mo  Mo12  1  0.740050  0.050418  0.287165  1
  Mo  Mo13  1  0.381938  0.381938  0.795784  1
  Mo  Mo14  1  0.618062  0.618062  0.204216  1
  O  O15  1  0.939777  0.087306  0.809683  1
  O  O16  1  0.087306  0.939777  0.809683  1
  O  O17  1  0.060223  0.912694  0.190317  1
  O  O18  1  0.912694  0.060223  0.190317  1
  O  O19  1  0.764268  0.218879  0.767366  1
  O  O20  1  0.218879  0.764268  0.767366  1
  O  O21  1  0.235732  0.781121  0.232634  1
  O  O22  1  0.781121  0.235732  0.232634  1
  O  O23  1  0.064222  0.412312  0.797210  1
  O  O24  1  0.412312  0.064222  0.797210  1
  O  O25  1  0.935778  0.587688  0.202790  1
  O  O26  1  0.587688  0.935778  0.202790  1
  O  O27  1  0.032410  0.324078  0.482509  1
  O  O28  1  0.324078  0.032410  0.482509  1
  O  O29  1  0.967590  0.675922  0.517491  1
  O  O30  1  0.675922  0.967590  0.517491  1
  O  O31  1  0.406061  0.554720  0.809223  1
  O  O32  1  0.554720  0.406061  0.809223  1
  O  O33  1  0.593939  0.445280  0.190777  1
  O  O34  1  0.445280  0.593939  0.190777  1
  O  O35  1  0.210727  0.210727  0.973315  1
  O  O36  1  0.789273  0.789273  0.026685  1
  O  O37  1  0.350400  0.350400  0.595124  1
  O  O38  1  0.649600  0.649600  0.404876  1
