# generated using pymatgen
data_Tm9LuRu4
_symmetry_space_group_name_H-M   'P 1'
_cell_length_a   6.23924169
_cell_length_b   7.21072323
_cell_length_c   8.35388087
_cell_angle_alpha   96.83526532
_cell_angle_beta   111.92753650
_cell_angle_gamma   89.99999863
_symmetry_Int_Tables_number   1
_chemical_formula_structural   Tm9LuRu4
_chemical_formula_sum   'Tm9 Lu1 Ru4'
_cell_volume   345.76601418
_cell_formula_units_Z   1
loop_
 _symmetry_equiv_pos_site_id
 _symmetry_equiv_pos_as_xyz
  1  'x, y, z'
loop_
 _atom_site_type_symbol
 _atom_site_label
 _atom_site_symmetry_multiplicity
 _atom_site_fract_x
 _atom_site_fract_y
 _atom_site_fract_z
 _atom_site_occupancy
  Tm  Tm0  1  0.522706  0.083235  0.813659  1
  Tm  Tm1  1  0.477655  0.916050  0.186368  1
  Tm  Tm2  1  0.709047  0.416765  0.186341  1
  Tm  Tm3  1  0.291287  0.583950  0.813632  1
  Tm  Tm4  1  0.297300  0.314110  0.434435  1
  Tm  Tm5  1  0.702659  0.686178  0.565898  1
  Tm  Tm6  1  0.862866  0.185890  0.565565  1
  Tm  Tm7  1  0.136759  0.813822  0.434102  1
  Tm  Tm8  1  0.080742  0.250000  0.000000  1
  Lu  Lu9  1  0.920409  0.750000  0.000000  1
  Ru  Ru10  1  0.321803  0.576631  0.220065  1
  Ru  Ru11  1  0.677676  0.424300  0.780323  1
  Ru  Ru12  1  0.101740  0.923369  0.779935  1
  Ru  Ru13  1  0.897352  0.075700  0.219677  1
