# generated using pymatgen
data_Sc(FeI4)2
_symmetry_space_group_name_H-M   'P 1'
_cell_length_a   8.75655756
_cell_length_b   8.75655784
_cell_length_c   6.86768607
_cell_angle_alpha   92.46413797
_cell_angle_beta   92.46413788
_cell_angle_gamma   83.88769433
_symmetry_Int_Tables_number   1
_chemical_formula_structural   Sc(FeI4)2
_chemical_formula_sum   'Sc1 Fe2 I8'
_cell_volume   522.72653473
_cell_formula_units_Z   1
loop_
 _symmetry_equiv_pos_site_id
 _symmetry_equiv_pos_as_xyz
  1  'x, y, z'
loop_
 _atom_site_type_symbol
 _atom_site_label
 _atom_site_symmetry_multiplicity
 _atom_site_fract_x
 _atom_site_fract_y
 _atom_site_fract_z
 _atom_site_occupancy
  Sc  Sc0  1  0.000000  0.000000  0.000000  1
  Fe  Fe1  1  0.808872  0.808872  0.347092  1
  Fe  Fe2  1  0.191127  0.191127  0.652908  1
  I  I3  1  0.728318  0.083717  0.221876  1
  I  I4  1  0.083717  0.728318  0.221876  1
  I  I5  1  0.623862  0.623862  0.230068  1
  I  I6  1  0.187324  0.187324  0.270827  1
  I  I7  1  0.812676  0.812676  0.729172  1
  I  I8  1  0.376139  0.376139  0.769932  1
  I  I9  1  0.916282  0.271682  0.778124  1
  I  I10  1  0.271682  0.916282  0.778124  1
