# generated using pymatgen
data_YbZr9N9
_symmetry_space_group_name_H-M   'P 1'
_cell_length_a   5.67401545
_cell_length_b   6.55488090
_cell_length_c   7.32268989
_cell_angle_alpha   77.09462711
_cell_angle_beta   75.02656068
_cell_angle_gamma   73.16576235
_symmetry_Int_Tables_number   1
_chemical_formula_structural   YbZr9N9
_chemical_formula_sum   'Yb1 Zr9 N9'
_cell_volume   248.55727817
_cell_formula_units_Z   1
loop_
 _symmetry_equiv_pos_site_id
 _symmetry_equiv_pos_as_xyz
  1  'x, y, z'
loop_
 _atom_site_type_symbol
 _atom_site_label
 _atom_site_symmetry_multiplicity
 _atom_site_fract_x
 _atom_site_fract_y
 _atom_site_fract_z
 _atom_site_occupancy
  Yb  Yb0  1  0.500000  0.000000  0.000000  1
  Zr  Zr1  1  0.889219  0.604237  0.193528  1
  Zr  Zr2  1  0.101912  0.900098  0.798948  1
  Zr  Zr3  1  0.898088  0.099902  0.201052  1
  Zr  Zr4  1  0.110781  0.395763  0.806472  1
  Zr  Zr5  1  0.311589  0.704002  0.395758  1
  Zr  Zr6  1  0.306682  0.192938  0.392941  1
  Zr  Zr7  1  0.688411  0.295998  0.604242  1
  Zr  Zr8  1  0.500000  0.500000  0.000000  1
  Zr  Zr9  1  0.693318  0.807062  0.607059  1
  N  N10  1  0.807724  0.691605  0.900633  1
  N  N11  1  0.805972  0.205216  0.897283  1
  N  N12  1  0.194028  0.794784  0.102717  1
  N  N13  1  0.000000  0.000000  0.500000  1
  N  N14  1  0.398858  0.100537  0.693101  1
  N  N15  1  0.192276  0.308395  0.099367  1
  N  N16  1  0.599928  0.398892  0.299494  1
  N  N17  1  0.400072  0.601108  0.700506  1
  N  N18  1  0.601142  0.899463  0.306899  1
