# generated using pymatgen
data_Tm(Al3Ni)3
_symmetry_space_group_name_H-M   'P 1'
_cell_length_a   10.03338344
_cell_length_b   10.03338376
_cell_length_c   10.03338397
_cell_angle_alpha   42.35823696
_cell_angle_beta   42.35823243
_cell_angle_gamma   42.35823809
_symmetry_Int_Tables_number   1
_chemical_formula_structural   Tm(Al3Ni)3
_chemical_formula_sum   'Tm2 Al18 Ni6'
_cell_volume   415.06185732
_cell_formula_units_Z   2
loop_
 _symmetry_equiv_pos_site_id
 _symmetry_equiv_pos_as_xyz
  1  'x, y, z'
loop_
 _atom_site_type_symbol
 _atom_site_label
 _atom_site_symmetry_multiplicity
 _atom_site_fract_x
 _atom_site_fract_y
 _atom_site_fract_z
 _atom_site_occupancy
  Tm  Tm0  1  0.166905  0.166905  0.166905  1
  Tm  Tm1  1  0.833095  0.833095  0.833095  1
  Al  Al2  1  0.102726  0.432771  0.763059  1
  Al  Al3  1  0.432771  0.763059  0.102726  1
  Al  Al4  1  0.567229  0.897274  0.236941  1
  Al  Al5  1  0.947960  0.947960  0.947960  1
  Al  Al6  1  0.052040  0.052040  0.052040  1
  Al  Al7  1  0.290861  0.709139  0.500000  1
  Al  Al8  1  0.897274  0.236941  0.567229  1
  Al  Al9  1  0.387059  0.387059  0.387059  1
  Al  Al10  1  0.500000  0.290861  0.709139  1
  Al  Al11  1  0.236941  0.567229  0.897274  1
  Al  Al12  1  0.718188  0.718188  0.718188  1
  Al  Al13  1  0.612941  0.612941  0.612941  1
  Al  Al14  1  0.333986  0.000000  0.666014  1
  Al  Al15  1  0.709139  0.500000  0.290861  1
  Al  Al16  1  0.666014  0.333986  0.000000  1
  Al  Al17  1  0.281812  0.281812  0.281812  1
  Al  Al18  1  0.000000  0.666014  0.333986  1
  Al  Al19  1  0.763059  0.102726  0.432771  1
  Ni  Ni20  1  0.418512  0.078329  0.758743  1
  Ni  Ni21  1  0.581488  0.241257  0.921671  1
  Ni  Ni22  1  0.078329  0.758743  0.418512  1
  Ni  Ni23  1  0.758743  0.418512  0.078329  1
  Ni  Ni24  1  0.921671  0.581488  0.241257  1
  Ni  Ni25  1  0.241257  0.921671  0.581488  1
