# generated using pymatgen
data_Tb3Y7Si5Bi
_symmetry_space_group_name_H-M   'P 1'
_cell_length_a   8.55757503
_cell_length_b   8.61004614
_cell_length_c   6.40699902
_cell_angle_alpha   90.00581272
_cell_angle_beta   90.00226758
_cell_angle_gamma   119.78859847
_symmetry_Int_Tables_number   1
_chemical_formula_structural   Tb3Y7Si5Bi
_chemical_formula_sum   'Tb3 Y7 Si5 Bi1'
_cell_volume   409.69690833
_cell_formula_units_Z   1
loop_
 _symmetry_equiv_pos_site_id
 _symmetry_equiv_pos_as_xyz
  1  'x, y, z'
loop_
 _atom_site_type_symbol
 _atom_site_label
 _atom_site_symmetry_multiplicity
 _atom_site_fract_x
 _atom_site_fract_y
 _atom_site_fract_z
 _atom_site_occupancy
  Tb  Tb0  1  0.676794  0.346170  0.005143  1
  Tb  Tb1  1  0.676774  0.346104  0.494832  1
  Tb  Tb2  1  0.330626  0.653815  0.005049  1
  Y  Y3  1  0.985223  0.744495  0.749980  1
  Y  Y4  1  0.998014  0.243592  0.250038  1
  Y  Y5  1  0.754391  0.756436  0.250047  1
  Y  Y6  1  0.767117  0.999942  0.749961  1
  Y  Y7  1  0.240662  0.255470  0.749972  1
  Y  Y8  1  0.241016  0.999963  0.250029  1
  Y  Y9  1  0.330637  0.653944  0.494994  1
  Si  Si10  1  0.392378  0.389961  0.250132  1
  Si  Si11  1  0.002730  0.610199  0.250106  1
  Si  Si12  1  0.998788  0.393903  0.749882  1
  Si  Si13  1  0.604746  0.606290  0.749870  1
  Si  Si14  1  0.607417  0.999897  0.250089  1
  Bi  Bi15  1  0.392686  0.999820  0.749876  1
