# generated using pymatgen
data_TbTh7(CoSi3)4
_symmetry_space_group_name_H-M   'P 1'
_cell_length_a   8.05797200
_cell_length_b   8.05796241
_cell_length_c   8.36902100
_cell_angle_alpha   90.00000000
_cell_angle_beta   90.00000000
_cell_angle_gamma   119.99997369
_symmetry_Int_Tables_number   1
_chemical_formula_structural   TbTh7(CoSi3)4
_chemical_formula_sum   'Tb1 Th7 Co4 Si12'
_cell_volume   470.60484660
_cell_formula_units_Z   1
loop_
 _symmetry_equiv_pos_site_id
 _symmetry_equiv_pos_as_xyz
  1  'x, y, z'
loop_
 _atom_site_type_symbol
 _atom_site_label
 _atom_site_symmetry_multiplicity
 _atom_site_fract_x
 _atom_site_fract_y
 _atom_site_fract_z
 _atom_site_occupancy
  Tb  Tb0  1  0.000000  0.000000  0.750000  1
  Th  Th1  1  0.500155  0.000309  0.250000  1
  Th  Th2  1  0.499851  0.999702  0.750000  1
  Th  Th3  1  0.999689  0.499845  0.250000  1
  Th  Th4  1  0.000299  0.500149  0.750000  1
  Th  Th5  1  0.500155  0.499845  0.250000  1
  Th  Th6  1  0.499851  0.500150  0.750000  1
  Th  Th7  1  0.000001  0.000000  0.250000  1
  Co  Co8  1  0.333333  0.666666  0.001568  1
  Co  Co9  1  0.666667  0.333333  0.998340  1
  Co  Co10  1  0.666667  0.333333  0.501660  1
  Co  Co11  1  0.333333  0.666666  0.498432  1
  Si  Si12  1  0.170589  0.341178  0.998525  1
  Si  Si13  1  0.829455  0.658910  0.997921  1
  Si  Si14  1  0.658822  0.829411  0.998525  1
  Si  Si15  1  0.829455  0.658910  0.502079  1
  Si  Si16  1  0.341091  0.170545  0.997921  1
  Si  Si17  1  0.170589  0.341178  0.501475  1
  Si  Si18  1  0.170589  0.829411  0.998525  1
  Si  Si19  1  0.341091  0.170545  0.502079  1
  Si  Si20  1  0.829455  0.170545  0.997921  1
  Si  Si21  1  0.658822  0.829411  0.501475  1
  Si  Si22  1  0.829455  0.170545  0.502079  1
  Si  Si23  1  0.170589  0.829411  0.501475  1
