# generated using pymatgen
data_DyGePRu2
_symmetry_space_group_name_H-M   'P 1'
_cell_length_a   5.69220377
_cell_length_b   5.69220352
_cell_length_c   5.69220318
_cell_angle_alpha   137.21089605
_cell_angle_beta   137.21088298
_cell_angle_gamma   62.11372948
_symmetry_Int_Tables_number   1
_chemical_formula_structural   DyGePRu2
_chemical_formula_sum   'Dy1 Ge1 P1 Ru2'
_cell_volume   84.09871778
_cell_formula_units_Z   1
loop_
 _symmetry_equiv_pos_site_id
 _symmetry_equiv_pos_as_xyz
  1  'x, y, z'
loop_
 _atom_site_type_symbol
 _atom_site_label
 _atom_site_symmetry_multiplicity
 _atom_site_fract_x
 _atom_site_fract_y
 _atom_site_fract_z
 _atom_site_occupancy
  Dy  Dy0  1  0.001424  0.001424  0.000000  1
  Ge  Ge1  1  0.378378  0.378378  0.000000  1
  P  P2  1  0.635003  0.635003  0.000000  1
  Ru  Ru3  1  0.242597  0.742597  0.500000  1
  Ru  Ru4  1  0.742597  0.242597  0.500000  1
