# generated using pymatgen
data_DyTm5(SiRh2)6
_symmetry_space_group_name_H-M   'P 1'
_cell_length_a   5.54451100
_cell_length_b   5.54451042
_cell_length_c   14.96840300
_cell_angle_alpha   90.00000000
_cell_angle_beta   90.00000000
_cell_angle_gamma   119.99999748
_symmetry_Int_Tables_number   1
_chemical_formula_structural   DyTm5(SiRh2)6
_chemical_formula_sum   'Dy1 Tm5 Si6 Rh12'
_cell_volume   398.50388872
_cell_formula_units_Z   1
loop_
 _symmetry_equiv_pos_site_id
 _symmetry_equiv_pos_as_xyz
  1  'x, y, z'
loop_
 _atom_site_type_symbol
 _atom_site_label
 _atom_site_symmetry_multiplicity
 _atom_site_fract_x
 _atom_site_fract_y
 _atom_site_fract_z
 _atom_site_occupancy
  Dy  Dy0  1  0.333333  0.666667  0.250000  1
  Tm  Tm1  1  0.666667  0.333333  0.962912  1
  Tm  Tm2  1  0.666667  0.333333  0.537088  1
  Tm  Tm3  1  0.333333  0.666667  0.036753  1
  Tm  Tm4  1  0.666667  0.333333  0.750000  1
  Tm  Tm5  1  0.333333  0.666667  0.463247  1
  Si  Si6  1  0.666667  0.333333  0.250000  1
  Si  Si7  1  0.000000  0.000000  0.500095  1
  Si  Si8  1  0.000000  0.000000  0.250000  1
  Si  Si9  1  0.000000  0.000000  0.750000  1
  Si  Si10  1  0.333333  0.666667  0.750000  1
  Si  Si11  1  0.000000  0.000000  0.999905  1
  Rh  Rh12  1  0.167028  0.334054  0.870173  1
  Rh  Rh13  1  0.167028  0.334054  0.629827  1
  Rh  Rh14  1  0.665946  0.832972  0.870173  1
  Rh  Rh15  1  0.334136  0.167068  0.370731  1
  Rh  Rh16  1  0.832932  0.665864  0.370731  1
  Rh  Rh17  1  0.832932  0.167068  0.370731  1
  Rh  Rh18  1  0.832932  0.167068  0.129269  1
  Rh  Rh19  1  0.334136  0.167068  0.129269  1
  Rh  Rh20  1  0.665946  0.832972  0.629827  1
  Rh  Rh21  1  0.167028  0.832972  0.629827  1
  Rh  Rh22  1  0.832932  0.665864  0.129269  1
  Rh  Rh23  1  0.167028  0.832972  0.870173  1
