# generated using pymatgen
data_TiNb7(SiSb2)2
_symmetry_space_group_name_H-M   'P 1'
_cell_length_a   7.80455726
_cell_length_b   7.80457207
_cell_length_c   7.78643921
_cell_angle_alpha   95.88113545
_cell_angle_beta   95.63278084
_cell_angle_gamma   143.11508410
_symmetry_Int_Tables_number   1
_chemical_formula_structural   TiNb7(SiSb2)2
_chemical_formula_sum   'Ti1 Nb7 Si2 Sb4'
_cell_volume   269.97846831
_cell_formula_units_Z   1
loop_
 _symmetry_equiv_pos_site_id
 _symmetry_equiv_pos_as_xyz
  1  'x, y, z'
loop_
 _atom_site_type_symbol
 _atom_site_label
 _atom_site_symmetry_multiplicity
 _atom_site_fract_x
 _atom_site_fract_y
 _atom_site_fract_z
 _atom_site_occupancy
  Ti  Ti0  1  0.915606  0.794921  0.710519  1
  Nb  Nb1  1  0.794404  0.084459  0.878865  1
  Nb  Nb2  1  0.415458  0.705371  0.120838  1
  Nb  Nb3  1  0.584687  0.294557  0.879241  1
  Nb  Nb4  1  0.705069  0.584950  0.290024  1
  Nb  Nb5  1  0.294971  0.415734  0.710699  1
  Nb  Nb6  1  0.204795  0.915090  0.119886  1
  Nb  Nb7  1  0.085300  0.205448  0.290752  1
  Si  Si8  1  0.248560  0.247605  0.997814  1
  Si  Si9  1  0.750211  0.749255  0.997815  1
  Sb  Sb10  1  0.641036  0.859658  0.500687  1
  Sb  Sb11  1  0.139547  0.641612  0.781161  1
  Sb  Sb12  1  0.860238  0.360123  0.220357  1
  Sb  Sb13  1  0.360119  0.141217  0.501342  1
