# generated using pymatgen
data_Nd7Ho3(Pb3Se)2
_symmetry_space_group_name_H-M   'P 1'
_cell_length_a   9.40758300
_cell_length_b   9.40758300
_cell_length_c   6.86538800
_cell_angle_alpha   90.00000000
_cell_angle_beta   90.00000000
_cell_angle_gamma   120.00001055
_symmetry_Int_Tables_number   1
_chemical_formula_structural   Nd7Ho3(Pb3Se)2
_chemical_formula_sum   'Nd7 Ho3 Pb6 Se2'
_cell_volume   526.20114577
_cell_formula_units_Z   1
loop_
 _symmetry_equiv_pos_site_id
 _symmetry_equiv_pos_as_xyz
  1  'x, y, z'
loop_
 _atom_site_type_symbol
 _atom_site_label
 _atom_site_symmetry_multiplicity
 _atom_site_fract_x
 _atom_site_fract_y
 _atom_site_fract_z
 _atom_site_occupancy
  Nd  Nd0  1  0.747314  0.747939  0.751241  1
  Nd  Nd1  1  0.252061  0.999375  0.751241  1
  Nd  Nd2  1  0.000625  0.252686  0.751241  1
  Nd  Nd3  1  0.252061  0.252686  0.248759  1
  Nd  Nd4  1  0.747314  0.999375  0.248759  1
  Nd  Nd5  1  0.000625  0.747939  0.248759  1
  Nd  Nd6  1  0.666667  0.333333  0.500000  1
  Ho  Ho7  1  0.666667  0.333333  0.000000  1
  Ho  Ho8  1  0.333333  0.666667  0.000000  1
  Ho  Ho9  1  0.333333  0.666667  0.500000  1
  Pb  Pb10  1  0.395168  0.398990  0.754443  1
  Pb  Pb11  1  0.601010  0.996178  0.754443  1
  Pb  Pb12  1  0.003822  0.604832  0.754443  1
  Pb  Pb13  1  0.601010  0.604832  0.245557  1
  Pb  Pb14  1  0.395168  0.996178  0.245557  1
  Pb  Pb15  1  0.003822  0.398990  0.245557  1
  Se  Se16  1  0.000000  0.000000  0.000000  1
  Se  Se17  1  0.000000  0.000000  0.500000  1
