# generated using pymatgen
data_TbLuTcB6
_symmetry_space_group_name_H-M   'P 1'
_cell_length_a   3.65196400
_cell_length_b   9.10900600
_cell_length_c   11.50706300
_cell_angle_alpha   90.00000000
_cell_angle_beta   90.00000000
_cell_angle_gamma   90.00000000
_symmetry_Int_Tables_number   1
_chemical_formula_structural   TbLuTcB6
_chemical_formula_sum   'Tb4 Lu4 Tc4 B24'
_cell_volume   382.79121894
_cell_formula_units_Z   4
loop_
 _symmetry_equiv_pos_site_id
 _symmetry_equiv_pos_as_xyz
  1  'x, y, z'
loop_
 _atom_site_type_symbol
 _atom_site_label
 _atom_site_symmetry_multiplicity
 _atom_site_fract_x
 _atom_site_fract_y
 _atom_site_fract_z
 _atom_site_occupancy
  Tb  Tb0  1  0.000000  0.323312  0.414345  1
  Tb  Tb1  1  0.000000  0.676688  0.585655  1
  Tb  Tb2  1  0.000000  0.823312  0.085655  1
  Tb  Tb3  1  0.000000  0.176688  0.914345  1
  Lu  Lu4  1  0.000000  0.943244  0.369971  1
  Lu  Lu5  1  0.000000  0.056756  0.630029  1
  Lu  Lu6  1  0.000000  0.443244  0.130029  1
  Lu  Lu7  1  0.000000  0.556756  0.869971  1
  Tc  Tc8  1  0.000000  0.639611  0.319393  1
  Tc  Tc9  1  0.000000  0.360389  0.680607  1
  Tc  Tc10  1  0.000000  0.139611  0.180607  1
  Tc  Tc11  1  0.000000  0.860389  0.819393  1
  B  B12  1  0.500000  0.553927  0.432208  1
  B  B13  1  0.500000  0.446073  0.567792  1
  B  B14  1  0.500000  0.053927  0.067792  1
  B  B15  1  0.500000  0.946073  0.932208  1
  B  B16  1  0.500000  0.750632  0.417946  1
  B  B17  1  0.500000  0.249368  0.582054  1
  B  B18  1  0.500000  0.250632  0.082054  1
  B  B19  1  0.500000  0.749368  0.917946  1
  B  B20  1  0.500000  0.792967  0.265304  1
  B  B21  1  0.500000  0.207033  0.734696  1
  B  B22  1  0.500000  0.292967  0.234696  1
  B  B23  1  0.500000  0.707033  0.765304  1
  B  B24  1  0.500000  0.629950  0.184799  1
  B  B25  1  0.500000  0.370050  0.815201  1
  B  B26  1  0.500000  0.129950  0.315201  1
  B  B27  1  0.500000  0.870050  0.684799  1
  B  B28  1  0.500000  0.981849  0.212811  1
  B  B29  1  0.500000  0.018151  0.787189  1
  B  B30  1  0.500000  0.481849  0.287189  1
  B  B31  1  0.500000  0.518151  0.712811  1
  B  B32  1  0.500000  0.597906  0.027072  1
  B  B33  1  0.500000  0.402094  0.972928  1
  B  B34  1  0.500000  0.097906  0.472928  1
  B  B35  1  0.500000  0.902094  0.527072  1
