# generated using pymatgen
data_Tc2SeF18
_symmetry_space_group_name_H-M   'P 1'
_cell_length_a   9.12645600
_cell_length_b   9.12645536
_cell_length_c   5.27927900
_cell_angle_alpha   90.00000000
_cell_angle_beta   90.00000000
_cell_angle_gamma   120.00000233
_symmetry_Int_Tables_number   1
_chemical_formula_structural   Tc2SeF18
_chemical_formula_sum   'Tc2 Se1 F18'
_cell_volume   380.81104300
_cell_formula_units_Z   1
loop_
 _symmetry_equiv_pos_site_id
 _symmetry_equiv_pos_as_xyz
  1  'x, y, z'
loop_
 _atom_site_type_symbol
 _atom_site_label
 _atom_site_symmetry_multiplicity
 _atom_site_fract_x
 _atom_site_fract_y
 _atom_site_fract_z
 _atom_site_occupancy
  Tc  Tc0  1  0.666667  0.333333  0.446622  1
  Tc  Tc1  1  0.333333  0.666667  0.553378  1
  Se  Se2  1  0.000000  0.000000  0.000000  1
  F  F3  1  0.237325  0.762675  0.350180  1
  F  F4  1  0.237325  0.474653  0.350180  1
  F  F5  1  0.525347  0.762675  0.350180  1
  F  F6  1  0.089785  0.910215  0.809710  1
  F  F7  1  0.089785  0.179568  0.809710  1
  F  F8  1  0.820432  0.910215  0.809710  1
  F  F9  1  0.179568  0.089785  0.190290  1
  F  F10  1  0.910215  0.820432  0.190290  1
  F  F11  1  0.910215  0.089785  0.190290  1
  F  F12  1  0.429350  0.570650  0.756576  1
  F  F13  1  0.429350  0.858700  0.756576  1
  F  F14  1  0.141300  0.570650  0.756576  1
  F  F15  1  0.858700  0.429350  0.243424  1
  F  F16  1  0.570650  0.141300  0.243424  1
  F  F17  1  0.570650  0.429350  0.243424  1
  F  F18  1  0.762675  0.237325  0.649820  1
  F  F19  1  0.762675  0.525347  0.649820  1
  F  F20  1  0.474653  0.237325  0.649820  1
