# generated using pymatgen
data_TbHo2Fe2Co9B4
_symmetry_space_group_name_H-M   'P 1'
_cell_length_a   5.04428900
_cell_length_b   5.04444526
_cell_length_c   9.71379600
_cell_angle_alpha   89.99991847
_cell_angle_beta   90.00015858
_cell_angle_gamma   120.02955535
_symmetry_Int_Tables_number   1
_chemical_formula_structural   TbHo2Fe2Co9B4
_chemical_formula_sum   'Tb1 Ho2 Fe2 Co9 B4'
_cell_volume   213.99497074
_cell_formula_units_Z   1
loop_
 _symmetry_equiv_pos_site_id
 _symmetry_equiv_pos_as_xyz
  1  'x, y, z'
loop_
 _atom_site_type_symbol
 _atom_site_label
 _atom_site_symmetry_multiplicity
 _atom_site_fract_x
 _atom_site_fract_y
 _atom_site_fract_z
 _atom_site_occupancy
  Tb  Tb0  1  0.999981  0.000000  0.000042  1
  Ho  Ho1  1  0.999995  0.999999  0.341772  1
  Ho  Ho2  1  0.000005  0.000001  0.658228  1
  Fe  Fe3  1  0.333340  0.666665  0.999995  1
  Fe  Fe4  1  0.666622  0.333335  0.999995  1
  Co  Co5  1  0.499999  0.000001  0.499995  1
  Co  Co6  1  0.499999  0.500001  0.500003  1
  Co  Co7  1  0.999997  0.499999  0.499996  1
  Co  Co8  1  0.500006  0.000028  0.202313  1
  Co  Co9  1  0.500003  0.499989  0.202298  1
  Co  Co10  1  0.999961  0.499984  0.202297  1
  Co  Co11  1  0.500017  0.000026  0.797717  1
  Co  Co12  1  0.500017  0.499987  0.797679  1
  Co  Co13  1  0.999975  0.499986  0.797706  1
  B  B14  1  0.333298  0.666703  0.349530  1
  B  B15  1  0.666684  0.333296  0.349531  1
  B  B16  1  0.666708  0.333338  0.650451  1
  B  B17  1  0.333293  0.666661  0.650451  1
