# generated using pymatgen
data_K6CrIO5
_symmetry_space_group_name_H-M   'P 1'
_cell_length_a   7.70252424
_cell_length_b   7.70277467
_cell_length_c   7.73804600
_cell_angle_alpha   59.84841056
_cell_angle_beta   59.84732844
_cell_angle_gamma   60.28836594
_symmetry_Int_Tables_number   1
_chemical_formula_structural   K6CrIO5
_chemical_formula_sum   'K6 Cr1 I1 O5'
_cell_volume   324.58409430
_cell_formula_units_Z   1
loop_
 _symmetry_equiv_pos_site_id
 _symmetry_equiv_pos_as_xyz
  1  'x, y, z'
loop_
 _atom_site_type_symbol
 _atom_site_label
 _atom_site_symmetry_multiplicity
 _atom_site_fract_x
 _atom_site_fract_y
 _atom_site_fract_z
 _atom_site_occupancy
  K  K0  1  0.486571  0.013412  0.013418  1
  K  K1  1  0.013431  0.486553  0.013421  1
  K  K2  1  0.486606  0.486583  0.013404  1
  K  K3  1  0.013380  0.013367  0.486625  1
  K  K4  1  0.486571  0.013412  0.486597  1
  K  K5  1  0.013431  0.486553  0.486592  1
  Cr  Cr6  1  0.499971  0.500054  0.499987  1
  I  I7  1  0.000000  0.999981  0.000010  1
  O  O8  1  0.590158  0.590165  0.223489  1
  O  O9  1  0.250002  0.249978  0.250010  1
  O  O10  1  0.596138  0.223631  0.590115  1
  O  O11  1  0.223580  0.596143  0.590139  1
  O  O12  1  0.590158  0.590165  0.596189  1
