# generated using pymatgen
data_SiSe31
_symmetry_space_group_name_H-M   'P 1'
_cell_length_a   15.19502619
_cell_length_b   14.12382921
_cell_length_c   6.59490727
_cell_angle_alpha   89.42759799
_cell_angle_beta   96.30348775
_cell_angle_gamma   93.49734442
_symmetry_Int_Tables_number   1
_chemical_formula_structural   SiSe31
_chemical_formula_sum   'Si1 Se31'
_cell_volume   1404.16144787
_cell_formula_units_Z   1
loop_
 _symmetry_equiv_pos_site_id
 _symmetry_equiv_pos_as_xyz
  1  'x, y, z'
loop_
 _atom_site_type_symbol
 _atom_site_label
 _atom_site_symmetry_multiplicity
 _atom_site_fract_x
 _atom_site_fract_y
 _atom_site_fract_z
 _atom_site_occupancy
  Si  Si0  1  0.543315  0.411324  0.941823  1
  Se  Se1  1  0.197629  0.678543  0.272598  1
  Se  Se2  1  0.662094  0.328442  0.877985  1
  Se  Se3  1  0.313918  0.171632  0.768497  1
  Se  Se4  1  0.838468  0.652920  0.659005  1
  Se  Se5  1  0.331894  0.764273  0.415479  1
  Se  Se6  1  0.650471  0.262967  0.213325  1
  Se  Se7  1  0.261037  0.247378  0.016787  1
  Se  Se8  1  0.788144  0.712267  0.950989  1
  Se  Se9  1  0.570576  0.573202  0.929708  1
  Se  Se10  1  0.408997  0.408745  0.726367  1
  Se  Se11  1  0.105586  0.797481  0.146916  1
  Se  Se12  1  0.972239  0.104910  0.266991  1
  Se  Se13  1  0.853148  0.047028  0.727721  1
  Se  Se14  1  0.136565  0.965727  0.601301  1
  Se  Se15  1  0.445762  0.703202  0.266534  1
  Se  Se16  1  0.507943  0.336213  0.233830  1
  Se  Se17  1  0.047733  0.553487  0.546044  1
  Se  Se18  1  0.976960  0.409386  0.367751  1
  Se  Se19  1  0.043095  0.409738  0.078490  1
  Se  Se20  1  0.968831  0.571165  0.820750  1
  Se  Se21  1  0.407431  0.941171  0.006595  1
  Se  Se22  1  0.532206  0.048054  0.111758  1
  Se  Se23  1  0.531708  0.076422  0.462355  1
  Se  Se24  1  0.605109  0.951130  0.639692  1
  Se  Se25  1  0.713544  0.591422  0.124386  1
  Se  Se26  1  0.331612  0.416858  0.008288  1
  Se  Se27  1  0.040039  0.850143  0.434057  1
  Se  Se28  1  0.888204  0.172759  0.505257  1
  Se  Se29  1  0.747947  0.942274  0.537914  1
  Se  Se30  1  0.121724  0.107408  0.392251  1
  Se  Se31  1  0.456072  0.792328  0.948559  1
