# generated using pymatgen
data_TeAuSeCl
_symmetry_space_group_name_H-M   'P 1'
_cell_length_a   6.55611439
_cell_length_b   6.55611356
_cell_length_c   8.52907900
_cell_angle_alpha   90.00000000
_cell_angle_beta   90.00000000
_cell_angle_gamma   144.62558084
_symmetry_Int_Tables_number   1
_chemical_formula_structural   TeAuSeCl
_chemical_formula_sum   'Te2 Au2 Se2 Cl2'
_cell_volume   212.23234274
_cell_formula_units_Z   2
loop_
 _symmetry_equiv_pos_site_id
 _symmetry_equiv_pos_as_xyz
  1  'x, y, z'
loop_
 _atom_site_type_symbol
 _atom_site_label
 _atom_site_symmetry_multiplicity
 _atom_site_fract_x
 _atom_site_fract_y
 _atom_site_fract_z
 _atom_site_occupancy
  Te  Te0  1  0.377893  0.622107  0.953251  1
  Te  Te1  1  0.622107  0.377893  0.453251  1
  Au  Au2  1  0.921313  0.078687  0.750096  1
  Au  Au3  1  0.078687  0.921313  0.250096  1
  Se  Se4  1  0.424149  0.575851  0.557454  1
  Se  Se5  1  0.575851  0.424149  0.057454  1
  Cl  Cl6  1  0.180536  0.819464  0.739199  1
  Cl  Cl7  1  0.819464  0.180536  0.239199  1
