# generated using pymatgen
data_Zr4Al6CuAu
_symmetry_space_group_name_H-M   'P 1'
_cell_length_a   5.37085300
_cell_length_b   5.37085226
_cell_length_c   8.39901100
_cell_angle_alpha   90.00000000
_cell_angle_beta   90.00000000
_cell_angle_gamma   120.00001069
_symmetry_Int_Tables_number   1
_chemical_formula_structural   Zr4Al6CuAu
_chemical_formula_sum   'Zr4 Al6 Cu1 Au1'
_cell_volume   209.81919058
_cell_formula_units_Z   1
loop_
 _symmetry_equiv_pos_site_id
 _symmetry_equiv_pos_as_xyz
  1  'x, y, z'
loop_
 _atom_site_type_symbol
 _atom_site_label
 _atom_site_symmetry_multiplicity
 _atom_site_fract_x
 _atom_site_fract_y
 _atom_site_fract_z
 _atom_site_occupancy
  Zr  Zr0  1  0.666667  0.333333  0.069477  1
  Zr  Zr1  1  0.666667  0.333333  0.430276  1
  Zr  Zr2  1  0.333333  0.666666  0.569725  1
  Zr  Zr3  1  0.333333  0.666666  0.930522  1
  Al  Al4  1  0.170463  0.340927  0.255659  1
  Al  Al5  1  0.170463  0.829536  0.255659  1
  Al  Al6  1  0.659072  0.829536  0.255659  1
  Al  Al7  1  0.340927  0.170463  0.744341  1
  Al  Al8  1  0.829537  0.170463  0.744341  1
  Al  Al9  1  0.829537  0.659072  0.744341  1
  Cu  Cu10  1  0.000000  0.000000  0.500001  1
  Au  Au11  1  0.000000  0.000000  0.000000  1
