# generated using pymatgen
data_Tb16In4OsPt3
_symmetry_space_group_name_H-M   'P 1'
_cell_length_a   9.74888548
_cell_length_b   9.74888539
_cell_length_c   9.74888539
_cell_angle_alpha   59.98350775
_cell_angle_beta   59.98350784
_cell_angle_gamma   59.98351123
_symmetry_Int_Tables_number   1
_chemical_formula_structural   Tb16In4OsPt3
_chemical_formula_sum   'Tb16 In4 Os1 Pt3'
_cell_volume   654.91882442
_cell_formula_units_Z   1
loop_
 _symmetry_equiv_pos_site_id
 _symmetry_equiv_pos_as_xyz
  1  'x, y, z'
loop_
 _atom_site_type_symbol
 _atom_site_label
 _atom_site_symmetry_multiplicity
 _atom_site_fract_x
 _atom_site_fract_y
 _atom_site_fract_z
 _atom_site_occupancy
  Tb  Tb0  1  0.350681  0.350681  0.350681  1
  Tb  Tb1  1  0.348800  0.348800  0.950399  1
  Tb  Tb2  1  0.348800  0.950399  0.348800  1
  Tb  Tb3  1  0.950399  0.348800  0.348800  1
  Tb  Tb4  1  0.814102  0.189970  0.189970  1
  Tb  Tb5  1  0.191006  0.808364  0.808364  1
  Tb  Tb6  1  0.189970  0.814102  0.189970  1
  Tb  Tb7  1  0.808364  0.191006  0.808364  1
  Tb  Tb8  1  0.189970  0.189970  0.814102  1
  Tb  Tb9  1  0.808364  0.808364  0.191006  1
  Tb  Tb10  1  0.936026  0.562949  0.562949  1
  Tb  Tb11  1  0.555763  0.940032  0.940032  1
  Tb  Tb12  1  0.562949  0.936026  0.562949  1
  Tb  Tb13  1  0.940032  0.555763  0.940032  1
  Tb  Tb14  1  0.562949  0.562949  0.936026  1
  Tb  Tb15  1  0.940032  0.940032  0.555763  1
  In  In16  1  0.583209  0.583209  0.583209  1
  In  In17  1  0.582677  0.582677  0.252255  1
  In  In18  1  0.582677  0.252255  0.582677  1
  In  In19  1  0.252255  0.582677  0.582677  1
  Os  Os20  1  0.142060  0.142060  0.142060  1
  Pt  Pt21  1  0.142687  0.142687  0.573545  1
  Pt  Pt22  1  0.142687  0.573545  0.142687  1
  Pt  Pt23  1  0.573545  0.142687  0.142687  1
