# generated using pymatgen
data_Rb2NaBSe3
_symmetry_space_group_name_H-M   'P 1'
_cell_length_a   8.20435078
_cell_length_b   8.20435110
_cell_length_c   10.72775079
_cell_angle_alpha   58.00873884
_cell_angle_beta   58.00874356
_cell_angle_gamma   57.91081312
_symmetry_Int_Tables_number   1
_chemical_formula_structural   Rb2NaBSe3
_chemical_formula_sum   'Rb4 Na2 B2 Se6'
_cell_volume   486.89231860
_cell_formula_units_Z   2
loop_
 _symmetry_equiv_pos_site_id
 _symmetry_equiv_pos_as_xyz
  1  'x, y, z'
loop_
 _atom_site_type_symbol
 _atom_site_label
 _atom_site_symmetry_multiplicity
 _atom_site_fract_x
 _atom_site_fract_y
 _atom_site_fract_z
 _atom_site_occupancy
  Rb  Rb0  1  0.371476  0.818515  0.986843  1
  Rb  Rb1  1  0.818515  0.371476  0.486843  1
  Rb  Rb2  1  0.628524  0.181485  0.013157  1
  Rb  Rb3  1  0.181485  0.628524  0.513157  1
  Na  Na4  1  0.000000  0.500000  0.000000  1
  Na  Na5  1  0.500000  0.000000  0.500000  1
  B  B6  1  0.899219  0.100781  0.250000  1
  B  B7  1  0.100781  0.899219  0.750000  1
  Se  Se8  1  0.110072  0.156111  0.717029  1
  Se  Se9  1  0.843889  0.889928  0.782971  1
  Se  Se10  1  0.889928  0.843889  0.282971  1
  Se  Se11  1  0.156111  0.110072  0.217029  1
  Se  Se12  1  0.352045  0.647955  0.750000  1
  Se  Se13  1  0.647955  0.352045  0.250000  1
