# generated using pymatgen
data_K6TcIO5
_symmetry_space_group_name_H-M   'P 1'
_cell_length_a   7.85387630
_cell_length_b   7.85391877
_cell_length_c   7.85394100
_cell_angle_alpha   59.99991058
_cell_angle_beta   59.99973168
_cell_angle_gamma   59.99997612
_symmetry_Int_Tables_number   1
_chemical_formula_structural   K6TcIO5
_chemical_formula_sum   'K6 Tc1 I1 O5'
_cell_volume   342.56409842
_cell_formula_units_Z   1
loop_
 _symmetry_equiv_pos_site_id
 _symmetry_equiv_pos_as_xyz
  1  'x, y, z'
loop_
 _atom_site_type_symbol
 _atom_site_label
 _atom_site_symmetry_multiplicity
 _atom_site_fract_x
 _atom_site_fract_y
 _atom_site_fract_z
 _atom_site_occupancy
  K  K0  1  0.485899  0.014101  0.014102  1
  K  K1  1  0.014101  0.485899  0.014103  1
  K  K2  1  0.485896  0.485898  0.014102  1
  K  K3  1  0.014101  0.014103  0.485897  1
  K  K4  1  0.485899  0.014101  0.485896  1
  K  K5  1  0.014101  0.485899  0.485894  1
  Tc  Tc6  1  0.500002  0.499999  0.499999  1
  I  I7  1  0.000001  0.000000  0.999999  1
  O  O8  1  0.596802  0.596805  0.209584  1
  O  O9  1  0.249997  0.249996  0.250003  1
  O  O10  1  0.596804  0.209587  0.596804  1
  O  O11  1  0.209591  0.596802  0.596803  1
  O  O12  1  0.596802  0.596805  0.596809  1
