# generated using pymatgen
data_Lu4HfRe3F28
_symmetry_space_group_name_H-M   'P 1'
_cell_length_a   5.51211127
_cell_length_b   8.80685337
_cell_length_c   11.93498079
_cell_angle_alpha   62.71525064
_cell_angle_beta   90.01590350
_cell_angle_gamma   90.03572220
_symmetry_Int_Tables_number   1
_chemical_formula_structural   Lu4HfRe3F28
_chemical_formula_sum   'Lu4 Hf1 Re3 F28'
_cell_volume   514.91406804
_cell_formula_units_Z   1
loop_
 _symmetry_equiv_pos_site_id
 _symmetry_equiv_pos_as_xyz
  1  'x, y, z'
loop_
 _atom_site_type_symbol
 _atom_site_label
 _atom_site_symmetry_multiplicity
 _atom_site_fract_x
 _atom_site_fract_y
 _atom_site_fract_z
 _atom_site_occupancy
  Lu  Lu0  1  0.257525  0.816044  0.264900  1
  Lu  Lu1  1  0.741938  0.183702  0.736878  1
  Lu  Lu2  1  0.758509  0.182433  0.237149  1
  Lu  Lu3  1  0.242778  0.816254  0.763032  1
  Hf  Hf4  1  0.756830  0.725111  0.042890  1
  Re  Re5  1  0.241357  0.273453  0.957018  1
  Re  Re6  1  0.258612  0.273157  0.457531  1
  Re  Re7  1  0.741501  0.726496  0.542897  1
  F  F8  1  0.945620  0.708405  0.413497  1
  F  F9  1  0.054360  0.291384  0.586812  1
  F  F10  1  0.445544  0.291583  0.086730  1
  F  F11  1  0.550022  0.710003  0.911386  1
  F  F12  1  0.465565  0.730796  0.141661  1
  F  F13  1  0.531529  0.271658  0.859664  1
  F  F14  1  0.968150  0.270691  0.360232  1
  F  F15  1  0.031885  0.729074  0.639962  1
  F  F16  1  0.959243  0.746280  0.176039  1
  F  F17  1  0.043312  0.255567  0.824267  1
  F  F18  1  0.457331  0.254952  0.324766  1
  F  F19  1  0.542924  0.744977  0.675033  1
  F  F20  1  0.773558  0.470748  0.142985  1
  F  F21  1  0.227595  0.525417  0.857185  1
  F  F22  1  0.271909  0.525352  0.357995  1
  F  F23  1  0.728163  0.474350  0.642430  1
  F  F24  1  0.939725  0.276160  0.048553  1
  F  F25  1  0.063753  0.724501  0.950365  1
  F  F26  1  0.439771  0.723486  0.451730  1
  F  F27  1  0.560340  0.276256  0.548621  1
  F  F28  1  0.739726  0.978058  0.444664  1
  F  F29  1  0.260280  0.021641  0.555386  1
  F  F30  1  0.239714  0.021864  0.055362  1
  F  F31  1  0.760999  0.979944  0.942447  1
  F  F32  1  0.582105  0.970237  0.232103  1
  F  F33  1  0.418030  0.029768  0.767605  1
  F  F34  1  0.081977  0.029931  0.267760  1
  F  F35  1  0.917817  0.970266  0.732464  1
