# generated using pymatgen
data_Dy8InNi2Ag
_symmetry_space_group_name_H-M   'P 1'
_cell_length_a   9.51631424
_cell_length_b   9.51631400
_cell_length_c   9.49745100
_cell_angle_alpha   60.06554473
_cell_angle_beta   60.06554554
_cell_angle_gamma   59.98708053
_symmetry_Int_Tables_number   1
_chemical_formula_structural   Dy8InNi2Ag
_chemical_formula_sum   'Dy16 In2 Ni4 Ag2'
_cell_volume   608.71870657
_cell_formula_units_Z   2
loop_
 _symmetry_equiv_pos_site_id
 _symmetry_equiv_pos_as_xyz
  1  'x, y, z'
loop_
 _atom_site_type_symbol
 _atom_site_label
 _atom_site_symmetry_multiplicity
 _atom_site_fract_x
 _atom_site_fract_y
 _atom_site_fract_z
 _atom_site_occupancy
  Dy  Dy0  1  0.598240  0.598240  0.598750  1
  Dy  Dy1  1  0.598240  0.598240  0.204771  1
  Dy  Dy2  1  0.600326  0.199731  0.599972  1
  Dy  Dy3  1  0.199731  0.600326  0.599972  1
  Dy  Dy4  1  0.060800  0.439690  0.440009  1
  Dy  Dy5  1  0.439690  0.060800  0.059502  1
  Dy  Dy6  1  0.439690  0.060800  0.440009  1
  Dy  Dy7  1  0.060800  0.439690  0.059502  1
  Dy  Dy8  1  0.441111  0.441111  0.058889  1
  Dy  Dy9  1  0.062222  0.062222  0.437778  1
  Dy  Dy10  1  0.182892  0.812392  0.814828  1
  Dy  Dy11  1  0.812392  0.182892  0.189887  1
  Dy  Dy12  1  0.812392  0.182892  0.814828  1
  Dy  Dy13  1  0.182892  0.812392  0.189887  1
  Dy  Dy14  1  0.812176  0.812176  0.187824  1
  Dy  Dy15  1  0.186354  0.186354  0.813646  1
  In  In16  1  0.833059  0.509524  0.828709  1
  In  In17  1  0.509524  0.833059  0.828709  1
  Ni  Ni18  1  0.392645  0.392645  0.392864  1
  Ni  Ni19  1  0.392645  0.392645  0.821846  1
  Ni  Ni20  1  0.391716  0.822780  0.392752  1
  Ni  Ni21  1  0.822780  0.391716  0.392752  1
  Ag  Ag22  1  0.833842  0.833842  0.831722  1
  Ag  Ag23  1  0.833842  0.833842  0.500595  1
