# generated using pymatgen
data_Pr9SmSi5Sn
_symmetry_space_group_name_H-M   'P 1'
_cell_length_a   7.84145524
_cell_length_b   7.84145580
_cell_length_c   9.19984290
_cell_angle_alpha   115.22497079
_cell_angle_beta   115.22495929
_cell_angle_gamma   89.99999422
_symmetry_Int_Tables_number   1
_chemical_formula_structural   Pr9SmSi5Sn
_chemical_formula_sum   'Pr9 Sm1 Si5 Sn1'
_cell_volume   451.39739415
_cell_formula_units_Z   1
loop_
 _symmetry_equiv_pos_site_id
 _symmetry_equiv_pos_as_xyz
  1  'x, y, z'
loop_
 _atom_site_type_symbol
 _atom_site_label
 _atom_site_symmetry_multiplicity
 _atom_site_fract_x
 _atom_site_fract_y
 _atom_site_fract_z
 _atom_site_occupancy
  Pr  Pr0  1  0.974113  0.974113  0.948225  1
  Pr  Pr1  1  0.975150  0.829291  0.281010  1
  Pr  Pr2  1  0.305860  0.451719  0.281010  1
  Pr  Pr3  1  0.829291  0.305860  0.281010  1
  Pr  Pr4  1  0.451719  0.975150  0.281010  1
  Pr  Pr5  1  0.048149  0.194500  0.720075  1
  Pr  Pr6  1  0.671926  0.525574  0.720075  1
  Pr  Pr7  1  0.194500  0.671926  0.720075  1
  Pr  Pr8  1  0.525574  0.048149  0.720075  1
  Sm  Sm9  1  0.519033  0.519033  0.038068  1
  Si  Si10  1  0.253821  0.253821  0.507642  1
  Si  Si11  1  0.615246  0.883916  0.002051  1
  Si  Si12  1  0.386804  0.118134  0.002051  1
  Si  Si13  1  0.883916  0.386804  0.002051  1
  Si  Si14  1  0.118134  0.615246  0.002051  1
  Sn  Sn15  1  0.746762  0.746762  0.493524  1
