# generated using pymatgen
data_Tb4V3B16Os
_symmetry_space_group_name_H-M   'P 1'
_cell_length_a   3.51226300
_cell_length_b   5.99125925
_cell_length_c   11.58837348
_cell_angle_alpha   90.03308322
_cell_angle_beta   90.00000000
_cell_angle_gamma   90.00000000
_symmetry_Int_Tables_number   1
_chemical_formula_structural   Tb4V3B16Os
_chemical_formula_sum   'Tb4 V3 B16 Os1'
_cell_volume   243.85269093
_cell_formula_units_Z   1
loop_
 _symmetry_equiv_pos_site_id
 _symmetry_equiv_pos_as_xyz
  1  'x, y, z'
loop_
 _atom_site_type_symbol
 _atom_site_label
 _atom_site_symmetry_multiplicity
 _atom_site_fract_x
 _atom_site_fract_y
 _atom_site_fract_z
 _atom_site_occupancy
  Tb  Tb0  1  0.000000  0.123520  0.148187  1
  Tb  Tb1  1  0.000000  0.876030  0.850627  1
  Tb  Tb2  1  0.000000  0.626159  0.347218  1
  Tb  Tb3  1  0.000000  0.374016  0.653427  1
  V  V4  1  0.000000  0.869338  0.582529  1
  V  V5  1  0.000000  0.625902  0.084172  1
  V  V6  1  0.000000  0.374025  0.917946  1
  B  B7  1  0.500000  0.475106  0.192399  1
  B  B8  1  0.500000  0.524061  0.808307  1
  B  B9  1  0.500000  0.975863  0.307771  1
  B  B10  1  0.500000  0.024159  0.692092  1
  B  B11  1  0.500000  0.283238  0.314529  1
  B  B12  1  0.500000  0.715857  0.685506  1
  B  B13  1  0.500000  0.785216  0.185560  1
  B  B14  1  0.500000  0.215448  0.814839  1
  B  B15  1  0.500000  0.363885  0.468198  1
  B  B16  1  0.500000  0.635428  0.531388  1
  B  B17  1  0.500000  0.863764  0.032868  1
  B  B18  1  0.500000  0.136593  0.966978  1
  B  B19  1  0.500000  0.386875  0.046802  1
  B  B20  1  0.500000  0.613893  0.953606  1
  B  B21  1  0.500000  0.887284  0.451799  1
  B  B22  1  0.500000  0.114976  0.546779  1
  Os  Os23  1  0.000000  0.129366  0.416472  1
