# generated using pymatgen
data_Ta3GaIrN
_symmetry_space_group_name_H-M   'P 1'
_cell_length_a   7.00709300
_cell_length_b   7.00709300
_cell_length_c   7.00709300
_cell_angle_alpha   90.00000000
_cell_angle_beta   90.00000000
_cell_angle_gamma   90.00000000
_symmetry_Int_Tables_number   1
_chemical_formula_structural   Ta3GaIrN
_chemical_formula_sum   'Ta12 Ga4 Ir4 N4'
_cell_volume   344.04372788
_cell_formula_units_Z   4
loop_
 _symmetry_equiv_pos_site_id
 _symmetry_equiv_pos_as_xyz
  1  'x, y, z'
loop_
 _atom_site_type_symbol
 _atom_site_label
 _atom_site_symmetry_multiplicity
 _atom_site_fract_x
 _atom_site_fract_y
 _atom_site_fract_z
 _atom_site_occupancy
  Ta  Ta0  1  0.794924  0.954569  0.377802  1
  Ta  Ta1  1  0.705076  0.045431  0.877802  1
  Ta  Ta2  1  0.205076  0.454569  0.122198  1
  Ta  Ta3  1  0.294924  0.545431  0.622198  1
  Ta  Ta4  1  0.954569  0.377802  0.794924  1
  Ta  Ta5  1  0.045431  0.877802  0.705076  1
  Ta  Ta6  1  0.454569  0.122198  0.205076  1
  Ta  Ta7  1  0.545431  0.622198  0.294924  1
  Ta  Ta8  1  0.377802  0.794924  0.954569  1
  Ta  Ta9  1  0.877802  0.705076  0.045431  1
  Ta  Ta10  1  0.122198  0.205076  0.454569  1
  Ta  Ta11  1  0.622198  0.294924  0.545431  1
  Ga  Ga12  1  0.566585  0.433415  0.933415  1
  Ga  Ga13  1  0.433415  0.933415  0.566585  1
  Ga  Ga14  1  0.933415  0.566585  0.433415  1
  Ga  Ga15  1  0.066585  0.066585  0.066585  1
  Ir  Ir16  1  0.178950  0.821050  0.321050  1
  Ir  Ir17  1  0.321050  0.178950  0.821050  1
  Ir  Ir18  1  0.821050  0.321050  0.178950  1
  Ir  Ir19  1  0.678950  0.678950  0.678950  1
  N  N20  1  0.873190  0.126810  0.626810  1
  N  N21  1  0.626810  0.873190  0.126810  1
  N  N22  1  0.126810  0.626810  0.873190  1
  N  N23  1  0.373190  0.373190  0.373190  1
