# generated using pymatgen
data_Ce3Pr17Si15As
_symmetry_space_group_name_H-M   'P 1'
_cell_length_a   7.88322532
_cell_length_b   7.87178514
_cell_length_c   15.34620600
_cell_angle_alpha   89.91052381
_cell_angle_beta   89.67308801
_cell_angle_gamma   89.96362099
_symmetry_Int_Tables_number   1
_chemical_formula_structural   Ce3Pr17Si15As
_chemical_formula_sum   'Ce3 Pr17 Si15 As1'
_cell_volume   952.29282265
_cell_formula_units_Z   1
loop_
 _symmetry_equiv_pos_site_id
 _symmetry_equiv_pos_as_xyz
  1  'x, y, z'
loop_
 _atom_site_type_symbol
 _atom_site_label
 _atom_site_symmetry_multiplicity
 _atom_site_fract_x
 _atom_site_fract_y
 _atom_site_fract_z
 _atom_site_occupancy
  Ce  Ce0  1  0.311473  0.308353  0.000861  1
  Ce  Ce1  1  0.190599  0.806605  0.249340  1
  Ce  Ce2  1  0.801664  0.192479  0.751590  1
  Pr  Pr3  1  0.689302  0.690523  0.498619  1
  Pr  Pr4  1  0.379463  0.008280  0.442745  1
  Pr  Pr5  1  0.490644  0.881971  0.697028  1
  Pr  Pr6  1  0.510161  0.117707  0.194399  1
  Pr  Pr7  1  0.881865  0.488717  0.303061  1
  Pr  Pr8  1  0.120174  0.509198  0.805791  1
  Pr  Pr9  1  0.621947  0.989484  0.946147  1
  Pr  Pr10  1  0.005585  0.380039  0.553509  1
  Pr  Pr11  1  0.992005  0.618667  0.054749  1
  Pr  Pr12  1  0.129458  0.986881  0.876455  1
  Pr  Pr13  1  0.516641  0.627057  0.126745  1
  Pr  Pr14  1  0.481689  0.372245  0.629134  1
  Pr  Pr15  1  0.628279  0.517540  0.873761  1
  Pr  Pr16  1  0.370359  0.481819  0.372418  1
  Pr  Pr17  1  0.874501  0.019195  0.375556  1
  Pr  Pr18  1  0.984302  0.125447  0.123090  1
  Pr  Pr19  1  0.017231  0.873472  0.623741  1
  Si  Si20  1  0.329070  0.692358  0.952467  1
  Si  Si21  1  0.666840  0.305169  0.453179  1
  Si  Si22  1  0.695008  0.330589  0.047660  1
  Si  Si23  1  0.304583  0.669703  0.548088  1
  Si  Si24  1  0.809475  0.828374  0.203371  1
  Si  Si25  1  0.172436  0.189639  0.295634  1
  Si  Si26  1  0.832093  0.809591  0.796609  1
  Si  Si27  1  0.289126  0.921571  0.059151  1
  Si  Si28  1  0.576542  0.788260  0.308407  1
  Si  Si29  1  0.430326  0.212404  0.815543  1
  Si  Si30  1  0.789332  0.578211  0.690459  1
  Si  Si31  1  0.212136  0.421616  0.189651  1
  Si  Si32  1  0.709970  0.079314  0.561096  1
  Si  Si33  1  0.924596  0.289336  0.940373  1
  Si  Si34  1  0.078860  0.712904  0.439646  1
  As  As35  1  0.182267  0.175272  0.699929  1
