# generated using pymatgen
data_Be(B6N)2
_symmetry_space_group_name_H-M   'P 1'
_cell_length_a   5.23591402
_cell_length_b   5.23591408
_cell_length_c   5.23591503
_cell_angle_alpha   63.12889406
_cell_angle_beta   63.12889662
_cell_angle_gamma   63.12889884
_symmetry_Int_Tables_number   1
_chemical_formula_structural   Be(B6N)2
_chemical_formula_sum   'Be1 B12 N2'
_cell_volume   108.54258730
_cell_formula_units_Z   1
loop_
 _symmetry_equiv_pos_site_id
 _symmetry_equiv_pos_as_xyz
  1  'x, y, z'
loop_
 _atom_site_type_symbol
 _atom_site_label
 _atom_site_symmetry_multiplicity
 _atom_site_fract_x
 _atom_site_fract_y
 _atom_site_fract_z
 _atom_site_occupancy
  Be  Be0  1  0.500000  0.500000  0.500000  1
  B  B1  1  0.676615  0.197022  0.197022  1
  B  B2  1  0.197022  0.197022  0.676615  1
  B  B3  1  0.197022  0.676615  0.197022  1
  B  B4  1  0.323385  0.802978  0.802978  1
  B  B5  1  0.802978  0.802978  0.323385  1
  B  B6  1  0.802978  0.323385  0.802978  1
  B  B7  1  0.330725  0.003719  0.003719  1
  B  B8  1  0.003719  0.003719  0.330725  1
  B  B9  1  0.003719  0.330725  0.003719  1
  B  B10  1  0.669275  0.996281  0.996281  1
  B  B11  1  0.996281  0.996281  0.669275  1
  B  B12  1  0.996281  0.669275  0.996281  1
  N  N13  1  0.623659  0.623659  0.623659  1
  N  N14  1  0.376341  0.376341  0.376341  1
