# generated using pymatgen
data_PrDyCo9P6Ru
_symmetry_space_group_name_H-M   'P 1'
_cell_length_a   3.69907600
_cell_length_b   10.41756000
_cell_length_c   11.83173800
_cell_angle_alpha   90.00000000
_cell_angle_beta   90.00000000
_cell_angle_gamma   90.00000000
_symmetry_Int_Tables_number   1
_chemical_formula_structural   PrDyCo9P6Ru
_chemical_formula_sum   'Pr2 Dy2 Co18 P12 Ru2'
_cell_volume   455.94011968
_cell_formula_units_Z   2
loop_
 _symmetry_equiv_pos_site_id
 _symmetry_equiv_pos_as_xyz
  1  'x, y, z'
loop_
 _atom_site_type_symbol
 _atom_site_label
 _atom_site_symmetry_multiplicity
 _atom_site_fract_x
 _atom_site_fract_y
 _atom_site_fract_z
 _atom_site_occupancy
  Pr  Pr0  1  0.250000  0.582628  0.701945  1
  Pr  Pr1  1  0.250000  0.917372  0.201945  1
  Dy  Dy2  1  0.750000  0.413481  0.296460  1
  Dy  Dy3  1  0.750000  0.086519  0.796460  1
  Co  Co4  1  0.750000  0.285528  0.008343  1
  Co  Co5  1  0.750000  0.214472  0.508343  1
  Co  Co6  1  0.250000  0.404063  0.486398  1
  Co  Co7  1  0.250000  0.095937  0.986398  1
  Co  Co8  1  0.750000  0.590469  0.505896  1
  Co  Co9  1  0.750000  0.909531  0.005896  1
  Co  Co10  1  0.250000  0.221764  0.175963  1
  Co  Co11  1  0.250000  0.278236  0.675963  1
  Co  Co12  1  0.750000  0.779950  0.823670  1
  Co  Co13  1  0.750000  0.720050  0.323670  1
  Co  Co14  1  0.250000  0.889157  0.701920  1
  Co  Co15  1  0.250000  0.610843  0.201920  1
  Co  Co16  1  0.750000  0.119365  0.302562  1
  Co  Co17  1  0.750000  0.380635  0.802562  1
  Co  Co18  1  0.250000  0.462641  0.934824  1
  Co  Co19  1  0.250000  0.037359  0.434824  1
  Co  Co20  1  0.750000  0.529842  0.069987  1
  Co  Co21  1  0.750000  0.970158  0.569987  1
  P  P22  1  0.250000  0.416653  0.113095  1
  P  P23  1  0.250000  0.083347  0.613095  1
  P  P24  1  0.750000  0.578103  0.890831  1
  P  P25  1  0.750000  0.921897  0.390831  1
  P  P26  1  0.250000  0.271188  0.867957  1
  P  P27  1  0.250000  0.228812  0.367957  1
  P  P28  1  0.750000  0.722744  0.132282  1
  P  P29  1  0.750000  0.777256  0.632282  1
  P  P30  1  0.250000  0.595183  0.390861  1
  P  P31  1  0.250000  0.904817  0.890861  1
  P  P32  1  0.750000  0.392701  0.606481  1
  P  P33  1  0.750000  0.107299  0.106481  1
  Ru  Ru34  1  0.250000  0.713806  0.990524  1
  Ru  Ru35  1  0.250000  0.786194  0.490524  1
