# generated using pymatgen
data_Cr4Bi(AuO4)3
_symmetry_space_group_name_H-M   'P 1'
_cell_length_a   6.63546256
_cell_length_b   6.63545445
_cell_length_c   6.63547401
_cell_angle_alpha   70.52922647
_cell_angle_beta   70.52832800
_cell_angle_gamma   109.47155972
_symmetry_Int_Tables_number   1
_chemical_formula_structural   Cr4Bi(AuO4)3
_chemical_formula_sum   'Cr4 Bi1 Au3 O12'
_cell_volume   224.90033209
_cell_formula_units_Z   1
loop_
 _symmetry_equiv_pos_site_id
 _symmetry_equiv_pos_as_xyz
  1  'x, y, z'
loop_
 _atom_site_type_symbol
 _atom_site_label
 _atom_site_symmetry_multiplicity
 _atom_site_fract_x
 _atom_site_fract_y
 _atom_site_fract_z
 _atom_site_occupancy
  Cr  Cr0  1  0.000002  0.499949  0.000005  1
  Cr  Cr1  1  0.500011  0.500008  0.500032  1
  Cr  Cr2  1  0.500024  0.000011  0.999982  1
  Cr  Cr3  1  0.000009  0.999987  0.499994  1
  Bi  Bi4  1  0.999996  0.000037  0.999968  1
  Au  Au5  1  0.500004  0.000043  0.499952  1
  Au  Au6  1  0.499943  0.499932  0.000017  1
  Au  Au7  1  0.999997  0.499930  0.500082  1
  O  O8  1  0.875633  0.702020  0.826385  1
  O  O9  1  0.471645  0.298023  0.826359  1
  O  O10  1  0.528401  0.702022  0.173602  1
  O  O11  1  0.124394  0.298022  0.173622  1
  O  O12  1  0.826394  0.124366  0.702038  1
  O  O13  1  0.826452  0.528520  0.297935  1
  O  O14  1  0.173590  0.471580  0.702027  1
  O  O15  1  0.173538  0.875598  0.297951  1
  O  O16  1  0.298044  0.173615  0.528340  1
  O  O17  1  0.701934  0.173613  0.124429  1
  O  O18  1  0.298006  0.826358  0.875623  1
  O  O19  1  0.701983  0.826366  0.471655  1
