# generated using pymatgen
data_Ca5Y3(OsC2)4
_symmetry_space_group_name_H-M   'P 1'
_cell_length_a   5.15524300
_cell_length_b   6.47383745
_cell_length_c   10.23716168
_cell_angle_alpha   90.21722513
_cell_angle_beta   90.00000000
_cell_angle_gamma   90.00000000
_symmetry_Int_Tables_number   1
_chemical_formula_structural   Ca5Y3(OsC2)4
_chemical_formula_sum   'Ca5 Y3 Os4 C8'
_cell_volume   341.65467918
_cell_formula_units_Z   1
loop_
 _symmetry_equiv_pos_site_id
 _symmetry_equiv_pos_as_xyz
  1  'x, y, z'
loop_
 _atom_site_type_symbol
 _atom_site_label
 _atom_site_symmetry_multiplicity
 _atom_site_fract_x
 _atom_site_fract_y
 _atom_site_fract_z
 _atom_site_occupancy
  Ca  Ca0  1  0.250000  0.194355  0.947579  1
  Ca  Ca1  1  0.250000  0.533021  0.222335  1
  Ca  Ca2  1  0.750000  0.465682  0.778894  1
  Ca  Ca3  1  0.750000  0.966932  0.723740  1
  Ca  Ca4  1  0.250000  0.033666  0.277940  1
  Y  Y5  1  0.250000  0.685510  0.553172  1
  Y  Y6  1  0.750000  0.315380  0.442846  1
  Y  Y7  1  0.750000  0.814520  0.057905  1
  Os  Os8  1  0.250000  0.729026  0.853557  1
  Os  Os9  1  0.750000  0.272074  0.144348  1
  Os  Os10  1  0.750000  0.773371  0.357996  1
  Os  Os11  1  0.250000  0.228334  0.644065  1
  C  C12  1  0.250000  0.468174  0.754683  1
  C  C13  1  0.750000  0.536883  0.241910  1
  C  C14  1  0.750000  0.035874  0.259613  1
  C  C15  1  0.250000  0.962543  0.736305  1
  C  C16  1  0.250000  0.796224  0.032098  1
  C  C17  1  0.750000  0.187903  0.970434  1
  C  C18  1  0.750000  0.687486  0.534007  1
  C  C19  1  0.250000  0.313042  0.466571  1
