# generated using pymatgen
data_TbLu2In3CuAg2
_symmetry_space_group_name_H-M   'P 1'
_cell_length_a   7.72076500
_cell_length_b   7.75316310
_cell_length_c   3.84961700
_cell_angle_alpha   90.00000000
_cell_angle_beta   90.00000000
_cell_angle_gamma   119.86186164
_symmetry_Int_Tables_number   1
_chemical_formula_structural   TbLu2In3CuAg2
_chemical_formula_sum   'Tb1 Lu2 In3 Cu1 Ag2'
_cell_volume   199.84360453
_cell_formula_units_Z   1
loop_
 _symmetry_equiv_pos_site_id
 _symmetry_equiv_pos_as_xyz
  1  'x, y, z'
loop_
 _atom_site_type_symbol
 _atom_site_label
 _atom_site_symmetry_multiplicity
 _atom_site_fract_x
 _atom_site_fract_y
 _atom_site_fract_z
 _atom_site_occupancy
  Tb  Tb0  1  0.596658  0.000000  0.500000  1
  Lu  Lu1  1  0.999803  0.598066  0.500000  1
  Lu  Lu2  1  0.401736  0.401934  0.500000  1
  In  In3  1  0.751018  0.749417  0.000000  1
  In  In4  1  0.001600  0.250583  0.000000  1
  In  In5  1  0.249485  0.000000  0.000000  1
  Cu  Cu6  1  0.001066  0.000000  0.500000  1
  Ag  Ag7  1  0.330622  0.662611  0.000000  1
  Ag  Ag8  1  0.668012  0.337389  0.000000  1
