# generated using pymatgen
data_Si12P12Ir3Rh
_symmetry_space_group_name_H-M   'P 1'
_cell_length_a   5.91341807
_cell_length_b   6.11484758
_cell_length_c   13.05714840
_cell_angle_alpha   89.86947295
_cell_angle_beta   90.01368772
_cell_angle_gamma   90.08613098
_symmetry_Int_Tables_number   1
_chemical_formula_structural   Si12P12Ir3Rh
_chemical_formula_sum   'Si12 P12 Ir3 Rh1'
_cell_volume   472.14014675
_cell_formula_units_Z   1
loop_
 _symmetry_equiv_pos_site_id
 _symmetry_equiv_pos_as_xyz
  1  'x, y, z'
loop_
 _atom_site_type_symbol
 _atom_site_label
 _atom_site_symmetry_multiplicity
 _atom_site_fract_x
 _atom_site_fract_y
 _atom_site_fract_z
 _atom_site_occupancy
  Si  Si0  1  0.968027  0.162061  0.317831  1
  Si  Si1  1  0.466443  0.840134  0.681575  1
  Si  Si2  1  0.930911  0.628043  0.214538  1
  Si  Si3  1  0.431490  0.370151  0.786210  1
  Si  Si4  1  0.339857  0.916694  0.950463  1
  Si  Si5  1  0.839996  0.082250  0.049530  1
  Si  Si6  1  0.917229  0.529447  0.672795  1
  Si  Si7  1  0.414385  0.470019  0.327096  1
  Si  Si8  1  0.999327  0.063349  0.570099  1
  Si  Si9  1  0.497401  0.937116  0.429297  1
  Si  Si10  1  0.906852  0.623421  0.927666  1
  Si  Si11  1  0.406414  0.376046  0.072498  1
  P  P12  1  0.578863  0.027741  0.825445  1
  P  P13  1  0.078770  0.971029  0.174769  1
  P  P14  1  0.516606  0.560987  0.929751  1
  P  P15  1  0.016183  0.438718  0.070691  1
  P  P16  1  0.611869  0.113523  0.572995  1
  P  P17  1  0.110183  0.887119  0.426183  1
  P  P18  1  0.544379  0.645030  0.181328  1
  P  P19  1  0.045009  0.354618  0.819180  1
  P  P20  1  0.579348  0.132993  0.288991  1
  P  P21  1  0.079164  0.868406  0.710725  1
  P  P22  1  0.155980  0.405389  0.553047  1
  P  P23  1  0.653384  0.595547  0.446857  1
  Ir  Ir24  1  0.965455  0.985966  0.879184  1
  Ir  Ir25  1  0.465529  0.013509  0.121077  1
  Ir  Ir26  1  0.537893  0.484522  0.619655  1
  Rh  Rh27  1  0.036857  0.516174  0.380521  1
