# generated using pymatgen
data_Sc2AlTcOs2
_symmetry_space_group_name_H-M   'P 1'
_cell_length_a   5.24150287
_cell_length_b   5.22279544
_cell_length_c   8.54134700
_cell_angle_alpha   90.00000000
_cell_angle_beta   90.00000000
_cell_angle_gamma   119.88202692
_symmetry_Int_Tables_number   1
_chemical_formula_structural   Sc2AlTcOs2
_chemical_formula_sum   'Sc4 Al2 Tc2 Os4'
_cell_volume   202.73600926
_cell_formula_units_Z   2
loop_
 _symmetry_equiv_pos_site_id
 _symmetry_equiv_pos_as_xyz
  1  'x, y, z'
loop_
 _atom_site_type_symbol
 _atom_site_label
 _atom_site_symmetry_multiplicity
 _atom_site_fract_x
 _atom_site_fract_y
 _atom_site_fract_z
 _atom_site_occupancy
  Sc  Sc0  1  0.333647  0.668911  0.061806  1
  Sc  Sc1  1  0.666353  0.335262  0.561806  1
  Sc  Sc2  1  0.333647  0.668911  0.438194  1
  Sc  Sc3  1  0.666353  0.335262  0.938194  1
  Al  Al4  1  0.833471  0.173679  0.250000  1
  Al  Al5  1  0.166529  0.340209  0.750000  1
  Tc  Tc6  1  0.000000  0.986893  0.500000  1
  Tc  Tc7  1  0.000000  0.986893  0.000000  1
  Os  Os8  1  0.828332  0.660426  0.250000  1
  Os  Os9  1  0.171668  0.832096  0.750000  1
  Os  Os10  1  0.652307  0.831883  0.750000  1
  Os  Os11  1  0.347693  0.179575  0.250000  1
