# generated using pymatgen
data_Mg2Zn2CuIr
_symmetry_space_group_name_H-M   'P 1'
_cell_length_a   5.01406285
_cell_length_b   5.15831997
_cell_length_c   5.15832044
_cell_angle_alpha   121.51167393
_cell_angle_beta   117.45594820
_cell_angle_gamma   91.71878641
_symmetry_Int_Tables_number   1
_chemical_formula_structural   Mg2Zn2CuIr
_chemical_formula_sum   'Mg2 Zn2 Cu1 Ir1'
_cell_volume   94.23287200
_cell_formula_units_Z   1
loop_
 _symmetry_equiv_pos_site_id
 _symmetry_equiv_pos_as_xyz
  1  'x, y, z'
loop_
 _atom_site_type_symbol
 _atom_site_label
 _atom_site_symmetry_multiplicity
 _atom_site_fract_x
 _atom_site_fract_y
 _atom_site_fract_z
 _atom_site_occupancy
  Mg  Mg0  1  0.130177  0.864776  0.265401  1
  Mg  Mg1  1  0.869823  0.135224  0.734599  1
  Zn  Zn2  1  0.500000  0.500000  0.500000  1
  Zn  Zn3  1  0.500000  0.000000  0.000000  1
  Cu  Cu4  1  0.000000  0.500000  0.500000  1
  Ir  Ir5  1  0.500000  0.500000  0.000000  1
