# generated using pymatgen
data_Tm5ScAl24(Ir3Ru)2
_symmetry_space_group_name_H-M   'P 1'
_cell_length_a   8.77214903
_cell_length_b   8.77214831
_cell_length_c   9.45701400
_cell_angle_alpha   89.99946243
_cell_angle_beta   90.00053445
_cell_angle_gamma   120.05541231
_symmetry_Int_Tables_number   1
_chemical_formula_structural   Tm5ScAl24(Ir3Ru)2
_chemical_formula_sum   'Tm5 Sc1 Al24 Ir6 Ru2'
_cell_volume   629.87426098
_cell_formula_units_Z   1
loop_
 _symmetry_equiv_pos_site_id
 _symmetry_equiv_pos_as_xyz
  1  'x, y, z'
loop_
 _atom_site_type_symbol
 _atom_site_label
 _atom_site_symmetry_multiplicity
 _atom_site_fract_x
 _atom_site_fract_y
 _atom_site_fract_z
 _atom_site_occupancy
  Tm  Tm0  1  0.193988  0.806012  0.250151  1
  Tm  Tm1  1  0.385499  0.193082  0.749876  1
  Tm  Tm2  1  0.613489  0.806714  0.250130  1
  Tm  Tm3  1  0.806918  0.614501  0.749876  1
  Tm  Tm4  1  0.193286  0.386511  0.250130  1
  Sc  Sc5  1  0.805088  0.194912  0.749844  1
  Al  Al6  1  0.668051  0.331949  0.966284  1
  Al  Al7  1  0.333866  0.666134  0.028995  1
  Al  Al8  1  0.333897  0.666103  0.470967  1
  Al  Al9  1  0.668028  0.331972  0.533756  1
  Al  Al10  1  0.836828  0.163172  0.424809  1
  Al  Al11  1  0.163272  0.836728  0.579058  1
  Al  Al12  1  0.326814  0.163518  0.422074  1
  Al  Al13  1  0.163269  0.836731  0.920973  1
  Al  Al14  1  0.674713  0.838827  0.579546  1
  Al  Al15  1  0.836826  0.163174  0.075192  1
  Al  Al16  1  0.836482  0.673186  0.422074  1
  Al  Al17  1  0.674714  0.838773  0.920469  1
  Al  Al18  1  0.161173  0.325287  0.579546  1
  Al  Al19  1  0.326801  0.163555  0.077908  1
  Al  Al20  1  0.161227  0.325286  0.920469  1
  Al  Al21  1  0.836445  0.673199  0.077908  1
  Al  Al22  1  0.437296  0.562704  0.750001  1
  Al  Al23  1  0.562503  0.437497  0.250006  1
  Al  Al24  1  0.121656  0.559318  0.750000  1
  Al  Al25  1  0.874640  0.436597  0.250003  1
  Al  Al26  1  0.440682  0.878344  0.750000  1
  Al  Al27  1  0.563403  0.125360  0.250003  1
  Al  Al28  1  0.995930  0.004070  0.749910  1
  Al  Al29  1  0.000249  0.999751  0.250069  1
  Ir  Ir30  1  0.500810  0.499190  0.998770  1
  Ir  Ir31  1  0.000159  0.499681  0.000043  1
  Ir  Ir32  1  0.500815  0.499185  0.501238  1
  Ir  Ir33  1  0.500319  0.999841  0.000043  1
  Ir  Ir34  1  0.000161  0.499684  0.499951  1
  Ir  Ir35  1  0.500316  0.999839  0.499951  1
  Ru  Ru36  1  0.000199  0.999801  0.000097  1
  Ru  Ru37  1  0.000191  0.999809  0.499880  1
