# generated using pymatgen
data_Dy13Y(LuBi2)6
_symmetry_space_group_name_H-M   'P 1'
_cell_length_a   8.20993611
_cell_length_b   9.48419904
_cell_length_c   12.02155447
_cell_angle_alpha   89.98204156
_cell_angle_beta   89.98104268
_cell_angle_gamma   89.99718186
_symmetry_Int_Tables_number   1
_chemical_formula_structural   Dy13Y(LuBi2)6
_chemical_formula_sum   'Dy13 Y1 Lu6 Bi12'
_cell_volume   936.05425206
_cell_formula_units_Z   1
loop_
 _symmetry_equiv_pos_site_id
 _symmetry_equiv_pos_as_xyz
  1  'x, y, z'
loop_
 _atom_site_type_symbol
 _atom_site_label
 _atom_site_symmetry_multiplicity
 _atom_site_fract_x
 _atom_site_fract_y
 _atom_site_fract_z
 _atom_site_occupancy
  Dy  Dy0  1  0.186434  0.750053  0.718928  1
  Dy  Dy1  1  0.686457  0.749947  0.781134  1
  Dy  Dy2  1  0.813864  0.249656  0.281179  1
  Dy  Dy3  1  0.313850  0.250347  0.218757  1
  Dy  Dy4  1  0.692822  0.936235  0.059209  1
  Dy  Dy5  1  0.192836  0.563819  0.440784  1
  Dy  Dy6  1  0.693905  0.563107  0.059802  1
  Dy  Dy7  1  0.193919  0.936822  0.440188  1
  Dy  Dy8  1  0.306442  0.063224  0.940552  1
  Dy  Dy9  1  0.806334  0.436722  0.559535  1
  Dy  Dy10  1  0.355066  0.750459  0.216155  1
  Dy  Dy11  1  0.855146  0.749544  0.283825  1
  Dy  Dy12  1  0.645909  0.249843  0.783777  1
  Y  Y13  1  0.145957  0.250171  0.716046  1
  Lu  Lu14  1  0.025552  0.749684  0.988899  1
  Lu  Lu15  1  0.525518  0.750308  0.511103  1
  Lu  Lu16  1  0.975746  0.250458  0.010806  1
  Lu  Lu17  1  0.475765  0.249558  0.489223  1
  Lu  Lu18  1  0.306067  0.433099  0.940213  1
  Lu  Lu19  1  0.805975  0.066961  0.559857  1
  Bi  Bi20  1  0.434270  0.003564  0.671916  1
  Bi  Bi21  1  0.934118  0.496482  0.828065  1
  Bi  Bi22  1  0.566087  0.503452  0.327858  1
  Bi  Bi23  1  0.066078  0.996585  0.172193  1
  Bi  Bi24  1  0.566285  0.996327  0.328256  1
  Bi  Bi25  1  0.066264  0.503619  0.171801  1
  Bi  Bi26  1  0.433431  0.496259  0.672078  1
  Bi  Bi27  1  0.933278  0.003700  0.827898  1
  Bi  Bi28  1  0.405980  0.746148  0.957368  1
  Bi  Bi29  1  0.905984  0.753844  0.542647  1
  Bi  Bi30  1  0.592375  0.250669  0.041487  1
  Bi  Bi31  1  0.092282  0.249333  0.458460  1
