# generated using pymatgen
data_Tb2Ti3P7Ru2Rh7
_symmetry_space_group_name_H-M   'P 1'
_cell_length_a   3.81995700
_cell_length_b   9.68542009
_cell_length_c   9.68775298
_cell_angle_alpha   119.80574528
_cell_angle_beta   90.00027515
_cell_angle_gamma   90.00108924
_symmetry_Int_Tables_number   1
_chemical_formula_structural   Tb2Ti3P7Ru2Rh7
_chemical_formula_sum   'Tb2 Ti3 P7 Ru2 Rh7'
_cell_volume   311.01218614
_cell_formula_units_Z   1
loop_
 _symmetry_equiv_pos_site_id
 _symmetry_equiv_pos_as_xyz
  1  'x, y, z'
loop_
 _atom_site_type_symbol
 _atom_site_label
 _atom_site_symmetry_multiplicity
 _atom_site_fract_x
 _atom_site_fract_y
 _atom_site_fract_z
 _atom_site_occupancy
  Tb  Tb0  1  0.261805  0.666599  0.332972  1
  Tb  Tb1  1  0.761808  0.333351  0.666251  1
  Ti  Ti2  1  0.762021  0.101195  0.879832  1
  Ti  Ti3  1  0.762053  0.117080  0.220477  1
  Ti  Ti4  1  0.762071  0.780732  0.898113  1
  P  P5  1  0.262097  0.997102  0.998086  1
  P  P6  1  0.761914  0.875240  0.591853  1
  P  P7  1  0.761815  0.410022  0.287568  1
  P  P8  1  0.761842  0.717359  0.125759  1
  P  P9  1  0.261858  0.114215  0.414484  1
  P  P10  1  0.261877  0.585427  0.699491  1
  P  P11  1  0.261864  0.301214  0.884429  1
  Ru  Ru12  1  0.261846  0.882438  0.159178  1
  Ru  Ru13  1  0.262061  0.841300  0.723047  1
  Rh  Rh14  1  0.261838  0.274259  0.116341  1
  Rh  Rh15  1  0.761900  0.608635  0.557491  1
  Rh  Rh16  1  0.761871  0.443271  0.052956  1
  Rh  Rh17  1  0.761852  0.948265  0.392318  1
  Rh  Rh18  1  0.261922  0.365689  0.434247  1
  Rh  Rh19  1  0.261905  0.563917  0.928807  1
  Rh  Rh20  1  0.261780  0.072688  0.636302  1
