# generated using pymatgen
data_Nd5UPaO12
_symmetry_space_group_name_H-M   'P 1'
_cell_length_a   6.79187647
_cell_length_b   6.82632638
_cell_length_c   6.82466500
_cell_angle_alpha   99.30230977
_cell_angle_beta   99.03080420
_cell_angle_gamma   99.17767621
_symmetry_Int_Tables_number   1
_chemical_formula_structural   Nd5UPaO12
_chemical_formula_sum   'Nd5 U1 Pa1 O12'
_cell_volume   302.78535551
_cell_formula_units_Z   1
loop_
 _symmetry_equiv_pos_site_id
 _symmetry_equiv_pos_as_xyz
  1  'x, y, z'
loop_
 _atom_site_type_symbol
 _atom_site_label
 _atom_site_symmetry_multiplicity
 _atom_site_fract_x
 _atom_site_fract_y
 _atom_site_fract_z
 _atom_site_occupancy
  Nd  Nd0  1  0.857230  0.390898  0.692839  1
  Nd  Nd1  1  0.607724  0.304113  0.139595  1
  Nd  Nd2  1  0.309441  0.142400  0.608044  1
  Nd  Nd3  1  0.691206  0.863389  0.392910  1
  Nd  Nd4  1  0.390444  0.692735  0.856284  1
  U  U5  1  0.140519  0.602638  0.310098  1
  Pa  Pa6  1  0.002632  0.998374  0.001881  1
  O  O7  1  0.928606  0.055699  0.693386  1
  O  O8  1  0.952950  0.315640  0.077793  1
  O  O9  1  0.589173  0.181163  0.436462  1
  O  O10  1  0.840950  0.572453  0.406732  1
  O  O11  1  0.310288  0.068193  0.945523  1
  O  O12  1  0.564397  0.417412  0.826438  1
  O  O13  1  0.417484  0.583960  0.188979  1
  O  O14  1  0.690364  0.932354  0.055446  1
  O  O15  1  0.177834  0.435807  0.570456  1
  O  O16  1  0.403609  0.817752  0.559596  1
  O  O17  1  0.053598  0.688218  0.928556  1
  O  O18  1  0.071551  0.936804  0.308980  1
