# generated using pymatgen
data_Y4TmCo4(P4Ru5)3
_symmetry_space_group_name_H-M   'P 1'
_cell_length_a   12.46549865
_cell_length_b   12.47249703
_cell_length_c   3.86170300
_cell_angle_alpha   90.00000000
_cell_angle_beta   90.00000000
_cell_angle_gamma   120.01857641
_symmetry_Int_Tables_number   1
_chemical_formula_structural   Y4TmCo4(P4Ru5)3
_chemical_formula_sum   'Y4 Tm1 Co4 P12 Ru15'
_cell_volume   519.86579244
_cell_formula_units_Z   1
loop_
 _symmetry_equiv_pos_site_id
 _symmetry_equiv_pos_as_xyz
  1  'x, y, z'
loop_
 _atom_site_type_symbol
 _atom_site_label
 _atom_site_symmetry_multiplicity
 _atom_site_fract_x
 _atom_site_fract_y
 _atom_site_fract_z
 _atom_site_occupancy
  Y  Y0  1  0.666671  0.333563  0.000000  1
  Y  Y1  1  0.333329  0.666893  0.000000  1
  Y  Y2  1  0.181789  0.181735  0.500000  1
  Y  Y3  1  0.818211  0.999946  0.500000  1
  Tm  Tm4  1  0.000000  0.818063  0.500000  1
  Co  Co5  1  0.720211  0.719620  0.500000  1
  Co  Co6  1  0.279789  0.999409  0.500000  1
  Co  Co7  1  0.000000  0.280827  0.500000  1
  Co  Co8  1  0.000000  0.999245  0.000000  1
  P  P9  1  0.370776  0.370677  0.000000  1
  P  P10  1  0.629224  0.999901  0.000000  1
  P  P11  1  0.000000  0.629963  0.000000  1
  P  P12  1  0.837254  0.311390  0.500000  1
  P  P13  1  0.688821  0.526279  0.500000  1
  P  P14  1  0.473445  0.162342  0.500000  1
  P  P15  1  0.311179  0.837457  0.500000  1
  P  P16  1  0.526555  0.688897  0.500000  1
  P  P17  1  0.162746  0.474136  0.500000  1
  P  P18  1  0.822928  0.822047  0.000000  1
  P  P19  1  0.177072  0.999119  0.000000  1
  P  P20  1  0.000000  0.178048  0.000000  1
  Ru  Ru21  1  0.821887  0.193998  0.000000  1
  Ru  Ru22  1  0.807420  0.629079  0.000000  1
  Ru  Ru23  1  0.371584  0.177541  0.000000  1
  Ru  Ru24  1  0.192580  0.821660  0.000000  1
  Ru  Ru25  1  0.628416  0.805958  0.000000  1
  Ru  Ru26  1  0.178113  0.372112  0.000000  1
  Ru  Ru27  1  0.557486  0.556854  0.000000  1
  Ru  Ru28  1  0.442514  0.999368  0.000000  1
  Ru  Ru29  1  0.000000  0.443304  0.000000  1
  Ru  Ru30  1  0.638231  0.126413  0.500000  1
  Ru  Ru31  1  0.873552  0.512390  0.500000  1
  Ru  Ru32  1  0.487728  0.361238  0.500000  1
  Ru  Ru33  1  0.126448  0.638837  0.500000  1
  Ru  Ru34  1  0.512272  0.873509  0.500000  1
  Ru  Ru35  1  0.361769  0.488181  0.500000  1
