# generated using pymatgen
data_Tb9CeOs4
_symmetry_space_group_name_H-M   'P 1'
_cell_length_a   6.43186945
_cell_length_b   7.31366563
_cell_length_c   8.55422169
_cell_angle_alpha   96.14723273
_cell_angle_beta   112.38575263
_cell_angle_gamma   91.15797196
_symmetry_Int_Tables_number   1
_chemical_formula_structural   Tb9CeOs4
_chemical_formula_sum   'Tb9 Ce1 Os4'
_cell_volume   369.11661703
_cell_formula_units_Z   1
loop_
 _symmetry_equiv_pos_site_id
 _symmetry_equiv_pos_as_xyz
  1  'x, y, z'
loop_
 _atom_site_type_symbol
 _atom_site_label
 _atom_site_symmetry_multiplicity
 _atom_site_fract_x
 _atom_site_fract_y
 _atom_site_fract_z
 _atom_site_occupancy
  Tb  Tb0  1  0.791012  0.582325  0.811887  1
  Tb  Tb1  1  0.024454  0.083594  0.816222  1
  Tb  Tb2  1  0.206978  0.416216  0.181904  1
  Tb  Tb3  1  0.640292  0.817684  0.437507  1
  Tb  Tb4  1  0.207904  0.684133  0.566675  1
  Tb  Tb5  1  0.356696  0.185461  0.566977  1
  Tb  Tb6  1  0.793362  0.316305  0.435806  1
  Tb  Tb7  1  0.424142  0.749443  0.997694  1
  Tb  Tb8  1  0.577826  0.249891  0.001383  1
  Ce  Ce9  1  0.986867  0.904378  0.185837  1
  Os  Os10  1  0.832019  0.590615  0.218862  1
  Os  Os11  1  0.605807  0.925790  0.782467  1
  Os  Os12  1  0.177209  0.424069  0.779432  1
  Os  Os13  1  0.375430  0.070096  0.217348  1
