# generated using pymatgen
data_TbHo3Fe3Os5
_symmetry_space_group_name_H-M   'P 1'
_cell_length_a   5.26154992
_cell_length_b   5.29756953
_cell_length_c   9.14038035
_cell_angle_alpha   73.15466073
_cell_angle_beta   90.90843574
_cell_angle_gamma   120.22671096
_symmetry_Int_Tables_number   1
_chemical_formula_structural   TbHo3Fe3Os5
_chemical_formula_sum   'Tb1 Ho3 Fe3 Os5'
_cell_volume   208.06797762
_cell_formula_units_Z   1
loop_
 _symmetry_equiv_pos_site_id
 _symmetry_equiv_pos_as_xyz
  1  'x, y, z'
loop_
 _atom_site_type_symbol
 _atom_site_label
 _atom_site_symmetry_multiplicity
 _atom_site_fract_x
 _atom_site_fract_y
 _atom_site_fract_z
 _atom_site_occupancy
  Tb  Tb0  1  0.875519  0.750006  0.375506  1
  Ho  Ho1  1  0.378816  0.752549  0.873718  1
  Ho  Ho2  1  0.996225  0.997549  0.001129  1
  Ho  Ho3  1  0.499390  0.999844  0.499701  1
  Fe  Fe4  1  0.687469  0.375015  0.937441  1
  Fe  Fe5  1  0.940005  0.376022  0.187961  1
  Fe  Fe6  1  0.434935  0.373981  0.686973  1
  Os  Os7  1  0.440298  0.373936  0.183843  1
  Os  Os8  1  0.934732  0.376046  0.691126  1
  Os  Os9  1  0.440298  0.882519  0.183843  1
  Os  Os10  1  0.934732  0.867558  0.691126  1
  Os  Os11  1  0.187579  0.374974  0.437631  1
