# generated using pymatgen
data_KLa2SmB24
_symmetry_space_group_name_H-M   'P 1'
_cell_length_a   7.17558584
_cell_length_b   7.17558649
_cell_length_c   5.91481000
_cell_angle_alpha   90.00000000
_cell_angle_beta   90.00000000
_cell_angle_gamma   109.14558939
_symmetry_Int_Tables_number   1
_chemical_formula_structural   KLa2SmB24
_chemical_formula_sum   'K1 La2 Sm1 B24'
_cell_volume   287.70279442
_cell_formula_units_Z   1
loop_
 _symmetry_equiv_pos_site_id
 _symmetry_equiv_pos_as_xyz
  1  'x, y, z'
loop_
 _atom_site_type_symbol
 _atom_site_label
 _atom_site_symmetry_multiplicity
 _atom_site_fract_x
 _atom_site_fract_y
 _atom_site_fract_z
 _atom_site_occupancy
  K  K0  1  0.000000  0.000000  0.000000  1
  La  La1  1  0.751263  0.248737  0.500000  1
  La  La2  1  0.248737  0.751263  0.500000  1
  Sm  Sm3  1  0.500000  0.500000  0.000000  1
  B  B4  1  0.176249  0.326126  0.649356  1
  B  B5  1  0.923736  0.574663  0.148150  1
  B  B6  1  0.673874  0.823751  0.649356  1
  B  B7  1  0.425337  0.076264  0.148150  1
  B  B8  1  0.176249  0.326126  0.350644  1
  B  B9  1  0.923736  0.574663  0.851850  1
  B  B10  1  0.673874  0.823751  0.350644  1
  B  B11  1  0.425337  0.076264  0.851850  1
  B  B12  1  0.400355  0.400355  0.500000  1
  B  B13  1  0.148212  0.650863  0.000000  1
  B  B14  1  0.898673  0.898673  0.500000  1
  B  B15  1  0.650863  0.148212  0.000000  1
  B  B16  1  0.326126  0.176249  0.649356  1
  B  B17  1  0.076264  0.425337  0.148150  1
  B  B18  1  0.823751  0.673874  0.649356  1
  B  B19  1  0.574663  0.923736  0.148150  1
  B  B20  1  0.101327  0.101327  0.500000  1
  B  B21  1  0.851788  0.349137  0.000000  1
  B  B22  1  0.599645  0.599645  0.500000  1
  B  B23  1  0.349137  0.851788  0.000000  1
  B  B24  1  0.326126  0.176249  0.350644  1
  B  B25  1  0.076264  0.425337  0.851850  1
  B  B26  1  0.823751  0.673874  0.350644  1
  B  B27  1  0.574663  0.923736  0.851850  1
