# generated using pymatgen
data_Er4Sc3(CoSe)2
_symmetry_space_group_name_H-M   'P 1'
_cell_length_a   8.75126097
_cell_length_b   8.75126028
_cell_length_c   8.75126037
_cell_angle_alpha   155.45988597
_cell_angle_beta   118.63766369
_cell_angle_gamma   67.11146602
_symmetry_Int_Tables_number   1
_chemical_formula_structural   Er4Sc3(CoSe)2
_chemical_formula_sum   'Er4 Sc3 Co2 Se2'
_cell_volume   242.26438242
_cell_formula_units_Z   1
loop_
 _symmetry_equiv_pos_site_id
 _symmetry_equiv_pos_as_xyz
  1  'x, y, z'
loop_
 _atom_site_type_symbol
 _atom_site_label
 _atom_site_symmetry_multiplicity
 _atom_site_fract_x
 _atom_site_fract_y
 _atom_site_fract_z
 _atom_site_occupancy
  Er  Er0  1  0.561624  0.144761  0.416862  1
  Er  Er1  1  0.272101  0.855239  0.416862  1
  Er  Er2  1  0.640865  0.372317  0.268550  1
  Er  Er3  1  0.896233  0.627683  0.268550  1
  Sc  Sc4  1  0.177434  0.500000  0.677434  1
  Sc  Sc5  1  0.242159  0.181749  0.060411  1
  Sc  Sc6  1  0.878663  0.818251  0.060411  1
  Co  Co7  1  0.475746  0.736042  0.739704  1
  Co  Co8  1  0.003660  0.263958  0.739704  1
  Se  Se9  1  0.932359  0.000000  0.932359  1
  Se  Se10  1  0.513796  0.500000  0.013796  1
