# generated using pymatgen
data_Sm2Hf3Si7Pt9
_symmetry_space_group_name_H-M   'P 1'
_cell_length_a   10.04961800
_cell_length_b   10.04961844
_cell_length_c   4.02710900
_cell_angle_alpha   90.00000000
_cell_angle_beta   90.00000000
_cell_angle_gamma   119.99999854
_symmetry_Int_Tables_number   1
_chemical_formula_structural   Sm2Hf3Si7Pt9
_chemical_formula_sum   'Sm2 Hf3 Si7 Pt9'
_cell_volume   352.22741040
_cell_formula_units_Z   1
loop_
 _symmetry_equiv_pos_site_id
 _symmetry_equiv_pos_as_xyz
  1  'x, y, z'
loop_
 _atom_site_type_symbol
 _atom_site_label
 _atom_site_symmetry_multiplicity
 _atom_site_fract_x
 _atom_site_fract_y
 _atom_site_fract_z
 _atom_site_occupancy
  Sm  Sm0  1  0.000000  0.000000  0.000000  1
  Sm  Sm1  1  0.333333  0.666667  0.500000  1
  Hf  Hf2  1  0.891614  0.454952  0.500000  1
  Hf  Hf3  1  0.563338  0.108386  0.500000  1
  Hf  Hf4  1  0.545048  0.436662  0.500000  1
  Si  Si5  1  0.248699  0.199266  0.500000  1
  Si  Si6  1  0.800734  0.049435  0.500000  1
  Si  Si7  1  0.950565  0.751301  0.500000  1
  Si  Si8  1  0.559315  0.647649  0.000000  1
  Si  Si9  1  0.352351  0.911665  0.000000  1
  Si  Si10  1  0.088335  0.440685  0.000000  1
  Si  Si11  1  0.666667  0.333333  0.000000  1
  Pt  Pt12  1  0.220613  0.937641  0.500000  1
  Pt  Pt13  1  0.062359  0.282972  0.500000  1
  Pt  Pt14  1  0.717028  0.779387  0.500000  1
  Pt  Pt15  1  0.314906  0.412079  0.000000  1
  Pt  Pt16  1  0.587921  0.902827  0.000000  1
  Pt  Pt17  1  0.097173  0.685094  0.000000  1
  Pt  Pt18  1  0.388552  0.175588  0.000000  1
  Pt  Pt19  1  0.824412  0.212965  0.000000  1
  Pt  Pt20  1  0.787035  0.611448  0.000000  1
