# generated using pymatgen
data_Li8Tc(PtBr8)3
_symmetry_space_group_name_H-M   'P 1'
_cell_length_a   6.67866200
_cell_length_b   6.67866204
_cell_length_c   26.95613100
_cell_angle_alpha   90.00000000
_cell_angle_beta   90.00000000
_cell_angle_gamma   119.99999981
_symmetry_Int_Tables_number   1
_chemical_formula_structural   Li8Tc(PtBr8)3
_chemical_formula_sum   'Li8 Tc1 Pt3 Br24'
_cell_volume   1041.27903153
_cell_formula_units_Z   1
loop_
 _symmetry_equiv_pos_site_id
 _symmetry_equiv_pos_as_xyz
  1  'x, y, z'
loop_
 _atom_site_type_symbol
 _atom_site_label
 _atom_site_symmetry_multiplicity
 _atom_site_fract_x
 _atom_site_fract_y
 _atom_site_fract_z
 _atom_site_occupancy
  Li  Li0  1  0.000000  0.000000  0.250000  1
  Li  Li1  1  0.000000  0.000000  0.750000  1
  Li  Li2  1  0.333333  0.666667  0.999902  1
  Li  Li3  1  0.333333  0.666667  0.500098  1
  Li  Li4  1  0.333333  0.666667  0.250000  1
  Li  Li5  1  0.666667  0.333333  0.750000  1
  Li  Li6  1  0.666667  0.333333  0.000085  1
  Li  Li7  1  0.666667  0.333333  0.499915  1
  Tc  Tc8  1  0.666667  0.333333  0.250000  1
  Pt  Pt9  1  0.000000  0.000000  0.999967  1
  Pt  Pt10  1  0.000000  0.000000  0.500033  1
  Pt  Pt11  1  0.333333  0.666667  0.750000  1
  Br  Br12  1  0.356609  0.023193  0.304753  1
  Br  Br13  1  0.333523  0.973657  0.803970  1
  Br  Br14  1  0.000818  0.307351  0.053945  1
  Br  Br15  1  0.999197  0.306307  0.553975  1
  Br  Br16  1  0.976807  0.333417  0.304753  1
  Br  Br17  1  0.026343  0.359866  0.803970  1
  Br  Br18  1  0.356609  0.333417  0.195247  1
  Br  Br19  1  0.333523  0.359866  0.696030  1
  Br  Br20  1  0.306533  0.307351  0.446055  1
  Br  Br21  1  0.307110  0.306307  0.946025  1
  Br  Br22  1  0.692649  0.999182  0.446055  1
  Br  Br23  1  0.306533  0.999182  0.053945  1
  Br  Br24  1  0.307110  0.000803  0.553975  1
  Br  Br25  1  0.692649  0.693467  0.053945  1
  Br  Br26  1  0.693693  0.692890  0.553975  1
  Br  Br27  1  0.666583  0.643391  0.304753  1
  Br  Br28  1  0.640134  0.666477  0.803970  1
  Br  Br29  1  0.976807  0.643391  0.195247  1
  Br  Br30  1  0.026343  0.666477  0.696030  1
  Br  Br31  1  0.000818  0.693467  0.446055  1
  Br  Br32  1  0.999197  0.692890  0.946025  1
  Br  Br33  1  0.693693  0.000803  0.946025  1
  Br  Br34  1  0.666583  0.023193  0.195247  1
  Br  Br35  1  0.640134  0.973657  0.696030  1
