# generated using pymatgen
data_NaPr(AuO2)4
_symmetry_space_group_name_H-M   'P 1'
_cell_length_a   6.70233502
_cell_length_b   6.70233376
_cell_length_c   6.70233400
_cell_angle_alpha   125.25215970
_cell_angle_beta   125.25215205
_cell_angle_gamma   81.12078367
_symmetry_Int_Tables_number   1
_chemical_formula_structural   NaPr(AuO2)4
_chemical_formula_sum   'Na1 Pr1 Au4 O8'
_cell_volume   193.42922533
_cell_formula_units_Z   1
loop_
 _symmetry_equiv_pos_site_id
 _symmetry_equiv_pos_as_xyz
  1  'x, y, z'
loop_
 _atom_site_type_symbol
 _atom_site_label
 _atom_site_symmetry_multiplicity
 _atom_site_fract_x
 _atom_site_fract_y
 _atom_site_fract_z
 _atom_site_occupancy
  Na  Na0  1  0.750000  0.250000  0.500000  1
  Pr  Pr1  1  0.000000  0.000000  0.000000  1
  Au  Au2  1  0.376956  0.634103  0.759266  1
  Au  Au3  1  0.365897  0.125163  0.742854  1
  Au  Au4  1  0.874837  0.617691  0.240734  1
  Au  Au5  1  0.382309  0.623044  0.257146  1
  O  O6  1  0.053523  0.401899  0.058453  1
  O  O7  1  0.736522  0.287213  0.121354  1
  O  O8  1  0.165859  0.615167  0.878646  1
  O  O9  1  0.343445  0.995069  0.941547  1
  O  O10  1  0.712787  0.834141  0.449308  1
  O  O11  1  0.004931  0.946477  0.348376  1
  O  O12  1  0.384833  0.263478  0.550692  1
  O  O13  1  0.598101  0.656555  0.651624  1
