# generated using pymatgen
data_Eu4Ga10CuPt5
_symmetry_space_group_name_H-M   'P 1'
_cell_length_a   8.71104637
_cell_length_b   8.71104488
_cell_length_c   8.70886444
_cell_angle_alpha   139.81637833
_cell_angle_beta   106.41876994
_cell_angle_gamma   87.34200323
_symmetry_Int_Tables_number   1
_chemical_formula_structural   Eu4Ga10CuPt5
_chemical_formula_sum   'Eu4 Ga10 Cu1 Pt5'
_cell_volume   393.36736482
_cell_formula_units_Z   1
loop_
 _symmetry_equiv_pos_site_id
 _symmetry_equiv_pos_as_xyz
  1  'x, y, z'
loop_
 _atom_site_type_symbol
 _atom_site_label
 _atom_site_symmetry_multiplicity
 _atom_site_fract_x
 _atom_site_fract_y
 _atom_site_fract_z
 _atom_site_occupancy
  Eu  Eu0  1  0.094900  0.869447  0.233562  1
  Eu  Eu1  1  0.905117  0.138660  0.774548  1
  Eu  Eu2  1  0.635885  0.361338  0.266438  1
  Eu  Eu3  1  0.364112  0.630569  0.725452  1
  Ga  Ga4  1  0.000013  0.750013  0.750000  1
  Ga  Ga5  1  0.000021  0.250021  0.250000  1
  Ga  Ga6  1  0.283495  0.033495  0.750000  1
  Ga  Ga7  1  0.716492  0.466492  0.750000  1
  Ga  Ga8  1  0.719537  0.969537  0.250000  1
  Ga  Ga9  1  0.280442  0.530442  0.250000  1
  Ga  Ga10  1  0.756394  0.605981  0.164290  1
  Ga  Ga11  1  0.243601  0.407920  0.849588  1
  Ga  Ga12  1  0.441692  0.092103  0.335710  1
  Ga  Ga13  1  0.558332  0.894013  0.650412  1
  Cu  Cu14  1  0.499972  0.749972  0.250000  1
  Pt  Pt15  1  0.499968  0.249968  0.750000  1
  Pt  Pt16  1  0.034572  0.643586  0.397139  1
  Pt  Pt17  1  0.965427  0.362588  0.609006  1
  Pt  Pt18  1  0.246448  0.137434  0.102861  1
  Pt  Pt19  1  0.753581  0.856421  0.890994  1
