# generated using pymatgen
data_NaAuBr3
_symmetry_space_group_name_H-M   'P 1'
_cell_length_a   8.00266400
_cell_length_b   7.46681024
_cell_length_c   16.23274852
_cell_angle_alpha   45.14750795
_cell_angle_beta   90.00000000
_cell_angle_gamma   90.00000000
_symmetry_Int_Tables_number   1
_chemical_formula_structural   NaAuBr3
_chemical_formula_sum   'Na4 Au4 Br12'
_cell_volume   687.64133899
_cell_formula_units_Z   4
loop_
 _symmetry_equiv_pos_site_id
 _symmetry_equiv_pos_as_xyz
  1  'x, y, z'
loop_
 _atom_site_type_symbol
 _atom_site_label
 _atom_site_symmetry_multiplicity
 _atom_site_fract_x
 _atom_site_fract_y
 _atom_site_fract_z
 _atom_site_occupancy
  Na  Na0  1  0.648587  0.223721  0.745107  1
  Na  Na1  1  0.351413  0.776279  0.254893  1
  Na  Na2  1  0.148587  0.776279  0.754893  1
  Na  Na3  1  0.851413  0.223721  0.245107  1
  Au  Au4  1  0.000000  0.000000  0.000000  1
  Au  Au5  1  0.500000  0.000000  0.500000  1
  Au  Au6  1  0.000000  0.500000  0.500000  1
  Au  Au7  1  0.500000  0.500000  0.000000  1
  Br  Br8  1  0.280579  0.241832  0.506224  1
  Br  Br9  1  0.719421  0.758168  0.493776  1
  Br  Br10  1  0.780579  0.758168  0.993776  1
  Br  Br11  1  0.219421  0.241832  0.006224  1
  Br  Br12  1  0.949735  0.384469  0.791469  1
  Br  Br13  1  0.050265  0.615531  0.208531  1
  Br  Br14  1  0.449735  0.615531  0.708531  1
  Br  Br15  1  0.550265  0.384469  0.291469  1
  Br  Br16  1  0.342782  0.899076  0.866035  1
  Br  Br17  1  0.657218  0.100924  0.133965  1
  Br  Br18  1  0.842782  0.100924  0.633965  1
  Br  Br19  1  0.157218  0.899076  0.366035  1
