# generated using pymatgen
data_Zn22FeNi2
_symmetry_space_group_name_H-M   'P 1'
_cell_length_a   7.68002083
_cell_length_b   7.68002092
_cell_length_c   7.69079630
_cell_angle_alpha   71.78964357
_cell_angle_beta   71.78964723
_cell_angle_gamma   57.86273378
_symmetry_Int_Tables_number   1
_chemical_formula_structural   Zn22FeNi2
_chemical_formula_sum   'Zn22 Fe1 Ni2'
_cell_volume   358.79623866
_cell_formula_units_Z   1
loop_
 _symmetry_equiv_pos_site_id
 _symmetry_equiv_pos_as_xyz
  1  'x, y, z'
loop_
 _atom_site_type_symbol
 _atom_site_label
 _atom_site_symmetry_multiplicity
 _atom_site_fract_x
 _atom_site_fract_y
 _atom_site_fract_z
 _atom_site_occupancy
  Zn  Zn0  1  0.343661  0.741858  0.311788  1
  Zn  Zn1  1  0.656339  0.258142  0.688212  1
  Zn  Zn2  1  0.258142  0.656339  0.688212  1
  Zn  Zn3  1  0.741858  0.343661  0.311788  1
  Zn  Zn4  1  0.677123  0.322877  0.000000  1
  Zn  Zn5  1  0.322877  0.677123  0.000000  1
  Zn  Zn6  1  0.830975  0.830975  0.782885  1
  Zn  Zn7  1  0.169025  0.169025  0.217115  1
  Zn  Zn8  1  0.977338  0.977338  0.176490  1
  Zn  Zn9  1  0.022662  0.022662  0.823510  1
  Zn  Zn10  1  0.351790  0.351790  0.272488  1
  Zn  Zn11  1  0.648210  0.648210  0.727512  1
  Zn  Zn12  1  0.686080  0.686080  0.375497  1
  Zn  Zn13  1  0.313920  0.313920  0.624503  1
  Zn  Zn14  1  0.662876  0.023572  0.463394  1
  Zn  Zn15  1  0.337124  0.976428  0.536606  1
  Zn  Zn16  1  0.976428  0.337124  0.536606  1
  Zn  Zn17  1  0.023572  0.662876  0.463394  1
  Zn  Zn18  1  0.616301  0.999468  0.099471  1
  Zn  Zn19  1  0.383699  0.000532  0.900529  1
  Zn  Zn20  1  0.000532  0.383699  0.900529  1
  Zn  Zn21  1  0.999468  0.616301  0.099471  1
  Fe  Fe22  1  0.000000  0.000000  0.500000  1
  Ni  Ni23  1  0.657663  0.657663  0.055219  1
  Ni  Ni24  1  0.342337  0.342337  0.944781  1
