# generated using pymatgen
data_Zn4Rh5W
_symmetry_space_group_name_H-M   'P 1'
_cell_length_a   2.94211800
_cell_length_b   2.94211800
_cell_length_c   16.26969600
_cell_angle_alpha   90.00000000
_cell_angle_beta   90.00000000
_cell_angle_gamma   90.00000000
_symmetry_Int_Tables_number   1
_chemical_formula_structural   Zn4Rh5W
_chemical_formula_sum   'Zn4 Rh5 W1'
_cell_volume   140.83143752
_cell_formula_units_Z   1
loop_
 _symmetry_equiv_pos_site_id
 _symmetry_equiv_pos_as_xyz
  1  'x, y, z'
loop_
 _atom_site_type_symbol
 _atom_site_label
 _atom_site_symmetry_multiplicity
 _atom_site_fract_x
 _atom_site_fract_y
 _atom_site_fract_z
 _atom_site_occupancy
  Zn  Zn0  1  0.000000  0.000000  0.209057  1
  Zn  Zn1  1  0.000000  0.000000  0.402790  1
  Zn  Zn2  1  0.000000  0.000000  0.597210  1
  Zn  Zn3  1  0.000000  0.000000  0.790943  1
  Rh  Rh4  1  0.500000  0.500000  0.107302  1
  Rh  Rh5  1  0.500000  0.500000  0.304901  1
  Rh  Rh6  1  0.500000  0.500000  0.500000  1
  Rh  Rh7  1  0.500000  0.500000  0.695099  1
  Rh  Rh8  1  0.500000  0.500000  0.892698  1
  W  W9  1  0.000000  0.000000  0.000000  1
