# generated using pymatgen
data_Dy3Pa3(Sb4Pt3)2
_symmetry_space_group_name_H-M   'P 1'
_cell_length_a   8.46044815
_cell_length_b   8.44650918
_cell_length_c   8.44650940
_cell_angle_alpha   109.47607337
_cell_angle_beta   109.04554975
_cell_angle_gamma   109.82624823
_symmetry_Int_Tables_number   1
_chemical_formula_structural   Dy3Pa3(Sb4Pt3)2
_chemical_formula_sum   'Dy3 Pa3 Sb8 Pt6'
_cell_volume   465.01071157
_cell_formula_units_Z   1
loop_
 _symmetry_equiv_pos_site_id
 _symmetry_equiv_pos_as_xyz
  1  'x, y, z'
loop_
 _atom_site_type_symbol
 _atom_site_label
 _atom_site_symmetry_multiplicity
 _atom_site_fract_x
 _atom_site_fract_y
 _atom_site_fract_z
 _atom_site_occupancy
  Dy  Dy0  1  0.875137  0.249908  0.125455  1
  Dy  Dy1  1  0.624863  0.750318  0.374771  1
  Dy  Dy2  1  0.250000  0.125426  0.875426  1
  Pa  Pa3  1  0.750000  0.373941  0.623941  1
  Pa  Pa4  1  0.123479  0.874540  0.250268  1
  Pa  Pa5  1  0.376521  0.626790  0.751061  1
  Sb  Sb6  1  0.672642  0.498312  0.001401  1
  Sb  Sb7  1  0.499134  0.997086  0.675368  1
  Sb  Sb8  1  0.000866  0.676233  0.497952  1
  Sb  Sb9  1  0.827358  0.828759  0.825670  1
  Sb  Sb10  1  0.498942  0.000795  0.172256  1
  Sb  Sb11  1  0.177236  0.499305  0.001435  1
  Sb  Sb12  1  0.001058  0.173314  0.501853  1
  Sb  Sb13  1  0.322764  0.324198  0.322069  1
  Pt  Pt14  1  0.380988  0.252404  0.621414  1
  Pt  Pt15  1  0.119012  0.740426  0.871415  1
  Pt  Pt16  1  0.250000  0.625842  0.375842  1
  Pt  Pt17  1  0.750000  0.873328  0.123328  1
  Pt  Pt18  1  0.630594  0.378416  0.261253  1
  Pt  Pt19  1  0.869406  0.130659  0.747822  1
