# generated using pymatgen
data_Tb16InNi(AgRh)3
_symmetry_space_group_name_H-M   'P 1'
_cell_length_a   9.58610469
_cell_length_b   9.58947325
_cell_length_c   9.59166100
_cell_angle_alpha   59.99244944
_cell_angle_beta   59.98082098
_cell_angle_gamma   60.02430507
_symmetry_Int_Tables_number   1
_chemical_formula_structural   Tb16InNi(AgRh)3
_chemical_formula_sum   'Tb16 In1 Ni1 Ag3 Rh3'
_cell_volume   623.45864473
_cell_formula_units_Z   1
loop_
 _symmetry_equiv_pos_site_id
 _symmetry_equiv_pos_as_xyz
  1  'x, y, z'
loop_
 _atom_site_type_symbol
 _atom_site_label
 _atom_site_symmetry_multiplicity
 _atom_site_fract_x
 _atom_site_fract_y
 _atom_site_fract_z
 _atom_site_occupancy
  Tb  Tb0  1  0.810767  0.809450  0.189891  1
  Tb  Tb1  1  0.810491  0.192644  0.809139  1
  Tb  Tb2  1  0.186298  0.191129  0.811287  1
  Tb  Tb3  1  0.648733  0.053776  0.648745  1
  Tb  Tb4  1  0.066607  0.060592  0.436401  1
  Tb  Tb5  1  0.434928  0.436957  0.064057  1
  Tb  Tb6  1  0.652690  0.646090  0.652758  1
  Tb  Tb7  1  0.810491  0.192644  0.187728  1
  Tb  Tb8  1  0.188203  0.812676  0.810315  1
  Tb  Tb9  1  0.051492  0.644163  0.652173  1
  Tb  Tb10  1  0.437768  0.062372  0.063657  1
  Tb  Tb11  1  0.437768  0.062372  0.436202  1
  Tb  Tb12  1  0.068346  0.436092  0.062361  1
  Tb  Tb13  1  0.652690  0.646090  0.048463  1
  Tb  Tb14  1  0.188203  0.812676  0.188805  1
  Tb  Tb15  1  0.068346  0.436092  0.433200  1
  In  In16  1  0.739362  0.421626  0.419505  1
  Ni  Ni17  1  0.856765  0.426364  0.858436  1
  Ag  Ag18  1  0.415965  0.418276  0.417512  1
  Ag  Ag19  1  0.415965  0.418276  0.748246  1
  Ag  Ag20  1  0.416290  0.748206  0.417752  1
  Rh  Rh21  1  0.857125  0.857193  0.858004  1
  Rh  Rh22  1  0.857125  0.857193  0.427678  1
  Rh  Rh23  1  0.427580  0.857048  0.857686  1
