# generated using pymatgen
data_CsLi(SmSe2)2
_symmetry_space_group_name_H-M   'P 1'
_cell_length_a   4.33692800
_cell_length_b   7.66255636
_cell_length_c   14.91853700
_cell_angle_alpha   90.00000000
_cell_angle_beta   90.00000000
_cell_angle_gamma   73.56097157
_symmetry_Int_Tables_number   1
_chemical_formula_structural   CsLi(SmSe2)2
_chemical_formula_sum   'Cs2 Li2 Sm4 Se8'
_cell_volume   475.50569611
_cell_formula_units_Z   2
loop_
 _symmetry_equiv_pos_site_id
 _symmetry_equiv_pos_as_xyz
  1  'x, y, z'
loop_
 _atom_site_type_symbol
 _atom_site_label
 _atom_site_symmetry_multiplicity
 _atom_site_fract_x
 _atom_site_fract_y
 _atom_site_fract_z
 _atom_site_occupancy
  Cs  Cs0  1  0.892499  0.215005  0.250000  1
  Cs  Cs1  1  0.107503  0.784994  0.750000  1
  Li  Li2  1  0.168481  0.663038  0.250000  1
  Li  Li3  1  0.831520  0.336961  0.750000  1
  Sm  Sm4  1  0.633439  0.733123  0.059468  1
  Sm  Sm5  1  0.633439  0.733123  0.440532  1
  Sm  Sm6  1  0.366562  0.266878  0.559469  1
  Sm  Sm7  1  0.366562  0.266878  0.940532  1
  Se  Se8  1  0.000000  0.000000  0.000000  1
  Se  Se9  1  0.257117  0.485766  0.104599  1
  Se  Se10  1  0.583931  0.832140  0.250000  1
  Se  Se11  1  0.257117  0.485766  0.395401  1
  Se  Se12  1  0.000000  0.000000  0.500000  1
  Se  Se13  1  0.742884  0.514234  0.604599  1
  Se  Se14  1  0.416071  0.167859  0.750000  1
  Se  Se15  1  0.742884  0.514234  0.895400  1
