# generated using pymatgen
data_Tm4TcB12Ir
_symmetry_space_group_name_H-M   'P 1'
_cell_length_a   3.62950900
_cell_length_b   9.08306767
_cell_length_c   11.45981041
_cell_angle_alpha   89.76407640
_cell_angle_beta   90.00000000
_cell_angle_gamma   90.00000000
_symmetry_Int_Tables_number   1
_chemical_formula_structural   Tm4TcB12Ir
_chemical_formula_sum   'Tm8 Tc2 B24 Ir2'
_cell_volume   377.79323654
_cell_formula_units_Z   2
loop_
 _symmetry_equiv_pos_site_id
 _symmetry_equiv_pos_as_xyz
  1  'x, y, z'
loop_
 _atom_site_type_symbol
 _atom_site_label
 _atom_site_symmetry_multiplicity
 _atom_site_fract_x
 _atom_site_fract_y
 _atom_site_fract_z
 _atom_site_occupancy
  Tm  Tm0  1  0.000000  0.326049  0.417900  1
  Tm  Tm1  1  0.000000  0.673951  0.582100  1
  Tm  Tm2  1  0.000000  0.815960  0.089841  1
  Tm  Tm3  1  0.000000  0.184040  0.910159  1
  Tm  Tm4  1  0.000000  0.940797  0.374111  1
  Tm  Tm5  1  0.000000  0.059203  0.625889  1
  Tm  Tm6  1  0.000000  0.446532  0.128122  1
  Tm  Tm7  1  0.000000  0.553468  0.871878  1
  Tc  Tc8  1  0.000000  0.638244  0.319841  1
  Tc  Tc9  1  0.000000  0.361756  0.680159  1
  B  B10  1  0.500000  0.553080  0.433293  1
  B  B11  1  0.500000  0.446920  0.566707  1
  B  B12  1  0.500000  0.054065  0.065518  1
  B  B13  1  0.500000  0.945935  0.934482  1
  B  B14  1  0.500000  0.748120  0.419670  1
  B  B15  1  0.500000  0.251880  0.580330  1
  B  B16  1  0.500000  0.250118  0.078695  1
  B  B17  1  0.500000  0.749882  0.921305  1
  B  B18  1  0.500000  0.792598  0.265124  1
  B  B19  1  0.500000  0.207402  0.734876  1
  B  B20  1  0.500000  0.291469  0.234760  1
  B  B21  1  0.500000  0.708531  0.765240  1
  B  B22  1  0.500000  0.631207  0.184542  1
  B  B23  1  0.500000  0.368793  0.815458  1
  B  B24  1  0.500000  0.131007  0.316644  1
  B  B25  1  0.500000  0.868993  0.683356  1
  B  B26  1  0.500000  0.981347  0.212717  1
  B  B27  1  0.500000  0.018653  0.787283  1
  B  B28  1  0.500000  0.481829  0.287132  1
  B  B29  1  0.500000  0.518171  0.712868  1
  B  B30  1  0.500000  0.606298  0.028718  1
  B  B31  1  0.500000  0.393702  0.971282  1
  B  B32  1  0.500000  0.105992  0.470277  1
  B  B33  1  0.500000  0.894008  0.529723  1
  Ir  Ir34  1  0.000000  0.136600  0.177818  1
  Ir  Ir35  1  0.000000  0.863400  0.822182  1
