# generated using pymatgen
data_YLu5Al15Si9Os8
_symmetry_space_group_name_H-M   'P 1'
_cell_length_a   8.67438913
_cell_length_b   8.66349222
_cell_length_c   9.32723300
_cell_angle_alpha   90.00000000
_cell_angle_beta   90.00000000
_cell_angle_gamma   119.97361842
_symmetry_Int_Tables_number   1
_chemical_formula_structural   YLu5Al15Si9Os8
_chemical_formula_sum   'Y1 Lu5 Al15 Si9 Os8'
_cell_volume   607.19856778
_cell_formula_units_Z   1
loop_
 _symmetry_equiv_pos_site_id
 _symmetry_equiv_pos_as_xyz
  1  'x, y, z'
loop_
 _atom_site_type_symbol
 _atom_site_label
 _atom_site_symmetry_multiplicity
 _atom_site_fract_x
 _atom_site_fract_y
 _atom_site_fract_z
 _atom_site_occupancy
  Y  Y0  1  0.806928  0.191005  0.750000  1
  Lu  Lu1  1  0.194913  0.390193  0.250000  1
  Lu  Lu2  1  0.803968  0.608798  0.750000  1
  Lu  Lu3  1  0.608062  0.806765  0.250000  1
  Lu  Lu4  1  0.392306  0.195674  0.750000  1
  Lu  Lu5  1  0.197815  0.807231  0.250000  1
  Al  Al6  1  0.166131  0.331798  0.579984  1
  Al  Al7  1  0.835573  0.671942  0.420641  1
  Al  Al8  1  0.667222  0.833645  0.578881  1
  Al  Al9  1  0.835573  0.671942  0.079359  1
  Al  Al10  1  0.327560  0.164934  0.421160  1
  Al  Al11  1  0.166131  0.331798  0.920016  1
  Al  Al12  1  0.165926  0.834767  0.579749  1
  Al  Al13  1  0.327560  0.164934  0.078840  1
  Al  Al14  1  0.836606  0.164935  0.420063  1
  Al  Al15  1  0.667222  0.833645  0.921119  1
  Al  Al16  1  0.836606  0.164935  0.079937  1
  Al  Al17  1  0.165926  0.834767  0.920251  1
  Al  Al18  1  0.874545  0.435746  0.250000  1
  Al  Al19  1  0.560409  0.435111  0.250000  1
  Al  Al20  1  0.999173  0.000317  0.250000  1
  Si  Si21  1  0.332384  0.665649  0.043657  1
  Si  Si22  1  0.667401  0.335121  0.959902  1
  Si  Si23  1  0.667401  0.335121  0.540098  1
  Si  Si24  1  0.332384  0.665649  0.456343  1
  Si  Si25  1  0.562423  0.126057  0.250000  1
  Si  Si26  1  0.437139  0.876409  0.750000  1
  Si  Si27  1  0.124639  0.562822  0.750000  1
  Si  Si28  1  0.437376  0.561239  0.750000  1
  Si  Si29  1  0.006157  0.995773  0.750000  1
  Os  Os30  1  0.497944  0.997875  0.999856  1
  Os  Os31  1  0.002626  0.501934  0.994113  1
  Os  Os32  1  0.497944  0.997875  0.500144  1
  Os  Os33  1  0.498394  0.500678  0.993354  1
  Os  Os34  1  0.002626  0.501934  0.505887  1
  Os  Os35  1  0.498394  0.500678  0.506646  1
  Os  Os36  1  0.999306  0.000154  0.992509  1
  Os  Os37  1  0.999306  0.000154  0.507491  1
