# generated using pymatgen
data_Mn3CdP6SN12
_symmetry_space_group_name_H-M   'P 1'
_cell_length_a   7.29713852
_cell_length_b   7.27891235
_cell_length_c   7.27891285
_cell_angle_alpha   109.42044167
_cell_angle_beta   109.52195640
_cell_angle_gamma   109.52195270
_symmetry_Int_Tables_number   1
_chemical_formula_structural   Mn3CdP6SN12
_chemical_formula_sum   'Mn3 Cd1 P6 S1 N12'
_cell_volume   297.43453286
_cell_formula_units_Z   1
loop_
 _symmetry_equiv_pos_site_id
 _symmetry_equiv_pos_as_xyz
  1  'x, y, z'
loop_
 _atom_site_type_symbol
 _atom_site_label
 _atom_site_symmetry_multiplicity
 _atom_site_fract_x
 _atom_site_fract_y
 _atom_site_fract_z
 _atom_site_occupancy
  Mn  Mn0  1  0.998541  0.655849  0.000000  1
  Mn  Mn1  1  0.342693  0.344152  0.344152  1
  Mn  Mn2  1  0.998541  0.000000  0.655849  1
  Cd  Cd3  1  0.689807  0.000000  0.000000  1
  P  P4  1  0.747292  0.500836  0.250738  1
  P  P5  1  0.496554  0.749262  0.250098  1
  P  P6  1  0.747292  0.250738  0.500836  1
  P  P7  1  0.246456  0.749902  0.499164  1
  P  P8  1  0.496554  0.250098  0.749262  1
  P  P9  1  0.246456  0.499164  0.749902  1
  S  S10  1  0.027299  0.000000  0.000000  1
  N  N11  1  0.719109  0.438324  0.000000  1
  N  N12  1  0.432135  0.718718  0.000000  1
  N  N13  1  0.713418  0.281283  0.281283  1
  N  N14  1  0.273124  0.710891  0.275567  1
  N  N15  1  0.562232  0.564676  0.289110  1
  N  N16  1  0.719109  0.000000  0.438324  1
  N  N17  1  0.997557  0.724434  0.435323  1
  N  N18  1  0.562232  0.289110  0.564676  1
  N  N19  1  0.280785  0.561675  0.561675  1
  N  N20  1  0.273124  0.275567  0.710891  1
  N  N21  1  0.432135  0.000000  0.718718  1
  N  N22  1  0.997557  0.435323  0.724434  1
