# generated using pymatgen
data_NdY7(Si4W3)4
_symmetry_space_group_name_H-M   'P 1'
_cell_length_a   6.80303600
_cell_length_b   6.96337126
_cell_length_c   12.93902363
_cell_angle_alpha   89.94312345
_cell_angle_beta   90.00305072
_cell_angle_gamma   89.93506390
_symmetry_Int_Tables_number   1
_chemical_formula_structural   NdY7(Si4W3)4
_chemical_formula_sum   'Nd1 Y7 Si16 W12'
_cell_volume   612.94757679
_cell_formula_units_Z   1
loop_
 _symmetry_equiv_pos_site_id
 _symmetry_equiv_pos_as_xyz
  1  'x, y, z'
loop_
 _atom_site_type_symbol
 _atom_site_label
 _atom_site_symmetry_multiplicity
 _atom_site_fract_x
 _atom_site_fract_y
 _atom_site_fract_z
 _atom_site_occupancy
  Nd  Nd0  1  0.996951  0.833493  0.592486  1
  Y  Y1  1  0.495910  0.667360  0.593549  1
  Y  Y2  1  0.996085  0.832475  0.906360  1
  Y  Y3  1  0.504459  0.332298  0.093749  1
  Y  Y4  1  0.004631  0.167100  0.405649  1
  Y  Y5  1  0.504549  0.333289  0.405723  1
  Y  Y6  1  0.004037  0.167939  0.093628  1
  Y  Y7  1  0.495700  0.667239  0.907515  1
  Si  Si8  1  0.659285  0.957382  0.451268  1
  Si  Si9  1  0.161139  0.542973  0.047547  1
  Si  Si10  1  0.338805  0.042840  0.953256  1
  Si  Si11  1  0.837749  0.453637  0.546833  1
  Si  Si12  1  0.342666  0.045088  0.546616  1
  Si  Si13  1  0.839123  0.457602  0.952856  1
  Si  Si14  1  0.661133  0.957106  0.047510  1
  Si  Si15  1  0.161377  0.541079  0.451293  1
  Si  Si16  1  0.463530  0.369781  0.750568  1
  Si  Si17  1  0.963217  0.132835  0.751113  1
  Si  Si18  1  0.535979  0.630604  0.249456  1
  Si  Si19  1  0.036056  0.869295  0.249989  1
  Si  Si20  1  0.694396  0.868325  0.751211  1
  Si  Si21  1  0.198237  0.629739  0.751094  1
  Si  Si22  1  0.303489  0.132168  0.249741  1
  Si  Si23  1  0.803096  0.367796  0.249686  1
  W  W24  1  0.666785  0.164143  0.626586  1
  W  W25  1  0.168279  0.336765  0.875156  1
  W  W26  1  0.331629  0.836754  0.125709  1
  W  W27  1  0.831107  0.662007  0.373364  1
  W  W28  1  0.332458  0.836322  0.373548  1
  W  W29  1  0.832251  0.663132  0.125726  1
  W  W30  1  0.667501  0.163851  0.875071  1
  W  W31  1  0.168212  0.336617  0.625837  1
  W  W32  1  0.833752  0.498161  0.750418  1
  W  W33  1  0.334318  0.002941  0.750775  1
  W  W34  1  0.165931  0.501087  0.249620  1
  W  W35  1  0.666180  0.998779  0.249495  1
