# generated using pymatgen
data_HoTh5(SiIr)4
_symmetry_space_group_name_H-M   'P 1'
_cell_length_a   5.76853075
_cell_length_b   5.76853152
_cell_length_c   13.60550000
_cell_angle_alpha   90.00000000
_cell_angle_beta   90.00000000
_cell_angle_gamma   138.56960276
_symmetry_Int_Tables_number   1
_chemical_formula_structural   HoTh5(SiIr)4
_chemical_formula_sum   'Ho1 Th5 Si4 Ir4'
_cell_volume   299.57978806
_cell_formula_units_Z   1
loop_
 _symmetry_equiv_pos_site_id
 _symmetry_equiv_pos_as_xyz
  1  'x, y, z'
loop_
 _atom_site_type_symbol
 _atom_site_label
 _atom_site_symmetry_multiplicity
 _atom_site_fract_x
 _atom_site_fract_y
 _atom_site_fract_z
 _atom_site_occupancy
  Ho  Ho0  1  0.488335  0.511665  0.750000  1
  Th  Th1  1  0.775063  0.224937  0.603775  1
  Th  Th2  1  0.514664  0.485336  0.250000  1
  Th  Th3  1  0.225111  0.774889  0.401685  1
  Th  Th4  1  0.775063  0.224937  0.896225  1
  Th  Th5  1  0.225111  0.774889  0.098315  1
  Si  Si6  1  0.060269  0.939731  0.594678  1
  Si  Si7  1  0.060269  0.939731  0.905322  1
  Si  Si8  1  0.939665  0.060335  0.409728  1
  Si  Si9  1  0.939665  0.060335  0.090272  1
  Ir  Ir10  1  0.799349  0.200651  0.250000  1
  Ir  Ir11  1  0.198337  0.801663  0.750000  1
  Ir  Ir12  1  0.499549  0.500451  0.997500  1
  Ir  Ir13  1  0.499549  0.500451  0.502500  1
