# generated using pymatgen
data_CaCeAl4FeNi
_symmetry_space_group_name_H-M   'P 1'
_cell_length_a   5.24103655
_cell_length_b   5.24103605
_cell_length_c   7.17840100
_cell_angle_alpha   90.00000000
_cell_angle_beta   90.00000000
_cell_angle_gamma   132.45005343
_symmetry_Int_Tables_number   1
_chemical_formula_structural   CaCeAl4FeNi
_chemical_formula_sum   'Ca1 Ce1 Al4 Fe1 Ni1'
_cell_volume   145.49214426
_cell_formula_units_Z   1
loop_
 _symmetry_equiv_pos_site_id
 _symmetry_equiv_pos_as_xyz
  1  'x, y, z'
loop_
 _atom_site_type_symbol
 _atom_site_label
 _atom_site_symmetry_multiplicity
 _atom_site_fract_x
 _atom_site_fract_y
 _atom_site_fract_z
 _atom_site_occupancy
  Ca  Ca0  1  0.440548  0.559452  0.750000  1
  Ce  Ce1  1  0.538199  0.461801  0.250000  1
  Al  Al2  1  0.834694  0.165306  0.051652  1
  Al  Al3  1  0.159962  0.840038  0.945166  1
  Al  Al4  1  0.159962  0.840038  0.554834  1
  Al  Al5  1  0.834694  0.165306  0.448348  1
  Fe  Fe6  1  0.315564  0.684436  0.250000  1
  Ni  Ni7  1  0.716377  0.283623  0.750000  1
