# generated using pymatgen
data_CaNd2Si3As3Pd20
_symmetry_space_group_name_H-M   'P 1'
_cell_length_a   8.81330431
_cell_length_b   8.84762976
_cell_length_c   8.88429251
_cell_angle_alpha   59.60702172
_cell_angle_beta   59.98967104
_cell_angle_gamma   60.40331063
_symmetry_Int_Tables_number   1
_chemical_formula_structural   CaNd2Si3As3Pd20
_chemical_formula_sum   'Ca1 Nd2 Si3 As3 Pd20'
_cell_volume   489.81444560
_cell_formula_units_Z   1
loop_
 _symmetry_equiv_pos_site_id
 _symmetry_equiv_pos_as_xyz
  1  'x, y, z'
loop_
 _atom_site_type_symbol
 _atom_site_label
 _atom_site_symmetry_multiplicity
 _atom_site_fract_x
 _atom_site_fract_y
 _atom_site_fract_z
 _atom_site_occupancy
  Ca  Ca0  1  0.999733  0.000267  0.999733  1
  Nd  Nd1  1  0.249750  0.250250  0.249750  1
  Nd  Nd2  1  0.749750  0.750250  0.749750  1
  Si  Si3  1  0.734429  0.265571  0.734429  1
  Si  Si4  1  0.264706  0.264559  0.735441  1
  Si  Si5  1  0.735441  0.735294  0.264706  1
  As  As6  1  0.736051  0.263949  0.263283  1
  As  As7  1  0.263283  0.736717  0.736051  1
  As  As8  1  0.263163  0.736837  0.263163  1
  Pd  Pd9  1  0.349741  0.006764  0.993236  1
  Pd  Pd10  1  0.654305  0.999445  0.000555  1
  Pd  Pd11  1  0.000555  0.345695  0.654305  1
  Pd  Pd12  1  0.993236  0.650259  0.349741  1
  Pd  Pd13  1  0.006439  0.348934  0.991751  1
  Pd  Pd14  1  0.651066  0.993561  0.347124  1
  Pd  Pd15  1  0.991751  0.652876  0.006439  1
  Pd  Pd16  1  0.347124  0.008249  0.651066  1
  Pd  Pd17  1  0.000539  0.999461  0.350521  1
  Pd  Pd18  1  0.992750  0.007250  0.653528  1
  Pd  Pd19  1  0.653528  0.346472  0.992750  1
  Pd  Pd20  1  0.350521  0.649479  0.000539  1
  Pd  Pd21  1  0.382355  0.381321  0.390832  1
  Pd  Pd22  1  0.619842  0.611807  0.613042  1
  Pd  Pd23  1  0.388193  0.380158  0.844691  1
  Pd  Pd24  1  0.390832  0.845492  0.382355  1
  Pd  Pd25  1  0.618679  0.617645  0.154508  1
  Pd  Pd26  1  0.613042  0.155309  0.619842  1
  Pd  Pd27  1  0.844691  0.386958  0.388193  1
  Pd  Pd28  1  0.154508  0.609168  0.618679  1
