# generated using pymatgen
data_Ce2Ho3Co2
_symmetry_space_group_name_H-M   'P 1'
_cell_length_a   8.70651380
_cell_length_b   8.70651466
_cell_length_c   6.76173334
_cell_angle_alpha   85.89342589
_cell_angle_beta   85.89342216
_cell_angle_gamma   42.20489057
_symmetry_Int_Tables_number   1
_chemical_formula_structural   Ce2Ho3Co2
_chemical_formula_sum   'Ce4 Ho6 Co4'
_cell_volume   343.31516282
_cell_formula_units_Z   2
loop_
 _symmetry_equiv_pos_site_id
 _symmetry_equiv_pos_as_xyz
  1  'x, y, z'
loop_
 _atom_site_type_symbol
 _atom_site_label
 _atom_site_symmetry_multiplicity
 _atom_site_fract_x
 _atom_site_fract_y
 _atom_site_fract_z
 _atom_site_occupancy
  Ce  Ce0  1  0.015202  0.796920  0.398653  1
  Ce  Ce1  1  0.203080  0.984798  0.101347  1
  Ce  Ce2  1  0.984798  0.203080  0.601347  1
  Ce  Ce3  1  0.796920  0.015202  0.898653  1
  Ho  Ho4  1  0.354108  0.215998  0.326686  1
  Ho  Ho5  1  0.784002  0.645892  0.173314  1
  Ho  Ho6  1  0.645892  0.784002  0.673314  1
  Ho  Ho7  1  0.215998  0.354108  0.826686  1
  Ho  Ho8  1  0.582031  0.417969  0.250000  1
  Ho  Ho9  1  0.417969  0.582031  0.750000  1
  Co  Co10  1  0.153803  0.625424  0.096786  1
  Co  Co11  1  0.374576  0.846197  0.403214  1
  Co  Co12  1  0.846197  0.374576  0.903214  1
  Co  Co13  1  0.625424  0.153803  0.596786  1
