# generated using pymatgen
data_Sc12Mn3I16
_symmetry_space_group_name_H-M   'P 1'
_cell_length_a   8.83665043
_cell_length_b   11.92834327
_cell_length_c   12.63503099
_cell_angle_alpha   117.21185404
_cell_angle_beta   100.79495942
_cell_angle_gamma   100.29926743
_symmetry_Int_Tables_number   1
_chemical_formula_structural   Sc12Mn3I16
_chemical_formula_sum   'Sc12 Mn3 I16'
_cell_volume   1108.86965304
_cell_formula_units_Z   1
loop_
 _symmetry_equiv_pos_site_id
 _symmetry_equiv_pos_as_xyz
  1  'x, y, z'
loop_
 _atom_site_type_symbol
 _atom_site_label
 _atom_site_symmetry_multiplicity
 _atom_site_fract_x
 _atom_site_fract_y
 _atom_site_fract_z
 _atom_site_occupancy
  Sc  Sc0  1  0.089857  0.266032  0.356331  1
  Sc  Sc1  1  0.910143  0.733968  0.643669  1
  Sc  Sc2  1  0.778087  0.536501  0.327516  1
  Sc  Sc3  1  0.221913  0.463499  0.672484  1
  Sc  Sc4  1  0.280432  0.734728  0.642706  1
  Sc  Sc5  1  0.719568  0.265272  0.357294  1
  Sc  Sc6  1  0.148319  0.537165  0.326856  1
  Sc  Sc7  1  0.851681  0.462835  0.673144  1
  Sc  Sc8  1  0.413001  0.369339  0.290703  1
  Sc  Sc9  1  0.586999  0.630661  0.709297  1
  Sc  Sc10  1  0.461783  0.323450  0.519363  1
  Sc  Sc11  1  0.538217  0.676550  0.480637  1
  Mn  Mn12  1  0.000000  0.500000  0.500000  1
  Mn  Mn13  1  0.304590  0.500324  0.499724  1
  Mn  Mn14  1  0.695411  0.499676  0.500276  1
  I  I15  1  0.393042  0.739898  0.883495  1
  I  I16  1  0.606958  0.260102  0.116505  1
  I  I17  1  0.190222  0.972376  0.785612  1
  I  I18  1  0.809778  0.027624  0.214388  1
  I  I19  1  0.337045  0.096189  0.252476  1
  I  I20  1  0.662955  0.903811  0.747524  1
  I  I21  1  0.561680  0.437166  0.798520  1
  I  I22  1  0.438320  0.562834  0.201480  1
  I  I23  1  0.308105  0.828602  0.462702  1
  I  I24  1  0.691895  0.171398  0.537298  1
  I  I25  1  0.166688  0.171972  0.535479  1
  I  I26  1  0.833312  0.828028  0.464521  1
  I  I27  1  0.925920  0.580060  0.156579  1
  I  I28  1  0.074080  0.419940  0.843421  1
  I  I29  1  0.925901  0.738950  0.884180  1
  I  I30  1  0.074099  0.261050  0.115820  1
