# generated using pymatgen
data_Li8La3Ho5Pt8
_symmetry_space_group_name_H-M   'P 1'
_cell_length_a   9.42966226
_cell_length_b   7.82177497
_cell_length_c   7.06089600
_cell_angle_alpha   90.00000000
_cell_angle_beta   90.12449984
_cell_angle_gamma   114.50314047
_symmetry_Int_Tables_number   1
_chemical_formula_structural   Li8La3Ho5Pt8
_chemical_formula_sum   'Li8 La3 Ho5 Pt8'
_cell_volume   473.88404981
_cell_formula_units_Z   1
loop_
 _symmetry_equiv_pos_site_id
 _symmetry_equiv_pos_as_xyz
  1  'x, y, z'
loop_
 _atom_site_type_symbol
 _atom_site_label
 _atom_site_symmetry_multiplicity
 _atom_site_fract_x
 _atom_site_fract_y
 _atom_site_fract_z
 _atom_site_occupancy
  Li  Li0  1  0.799800  0.151702  0.621778  1
  Li  Li1  1  0.799800  0.648097  0.621778  1
  Li  Li2  1  0.308853  0.154425  0.877913  1
  Li  Li3  1  0.201315  0.849857  0.124708  1
  Li  Li4  1  0.201315  0.351460  0.124708  1
  Li  Li5  1  0.690099  0.845049  0.379528  1
  Li  Li6  1  0.691240  0.345619  0.385768  1
  Li  Li7  1  0.310922  0.655462  0.880957  1
  La  La8  1  0.930952  0.465477  0.948581  1
  La  La9  1  0.072595  0.036297  0.448874  1
  La  La10  1  0.930456  0.965228  0.951238  1
  Ho  Ho11  1  0.434786  0.470673  0.554477  1
  Ho  Ho12  1  0.434786  0.964113  0.554477  1
  Ho  Ho13  1  0.073667  0.536833  0.446324  1
  Ho  Ho14  1  0.562968  0.531087  0.055224  1
  Ho  Ho15  1  0.562968  0.031881  0.055224  1
  Pt  Pt16  1  0.865505  0.187519  0.251200  1
  Pt  Pt17  1  0.865505  0.677985  0.251200  1
  Pt  Pt18  1  0.382518  0.191259  0.259507  1
  Pt  Pt19  1  0.134879  0.810897  0.741665  1
  Pt  Pt20  1  0.134879  0.323983  0.741665  1
  Pt  Pt21  1  0.620459  0.810229  0.760067  1
  Pt  Pt22  1  0.615411  0.307706  0.760845  1
  Pt  Pt23  1  0.374320  0.687160  0.260298  1
