# generated using pymatgen
data_HfOsBr9
_symmetry_space_group_name_H-M   'P 1'
_cell_length_a   12.30052900
_cell_length_b   7.16239619
_cell_length_c   9.86305222
_cell_angle_alpha   75.29040626
_cell_angle_beta   90.00000000
_cell_angle_gamma   90.00000000
_symmetry_Int_Tables_number   1
_chemical_formula_structural   HfOsBr9
_chemical_formula_sum   'Hf2 Os2 Br18'
_cell_volume   840.46781592
_cell_formula_units_Z   2
loop_
 _symmetry_equiv_pos_site_id
 _symmetry_equiv_pos_as_xyz
  1  'x, y, z'
loop_
 _atom_site_type_symbol
 _atom_site_label
 _atom_site_symmetry_multiplicity
 _atom_site_fract_x
 _atom_site_fract_y
 _atom_site_fract_z
 _atom_site_occupancy
  Hf  Hf0  1  0.250000  0.754383  0.469899  1
  Hf  Hf1  1  0.750000  0.245617  0.530101  1
  Os  Os2  1  0.250000  0.644861  0.850411  1
  Os  Os3  1  0.750000  0.355139  0.149589  1
  Br  Br4  1  0.609955  0.445631  0.315870  1
  Br  Br5  1  0.109955  0.554369  0.684130  1
  Br  Br6  1  0.390045  0.554369  0.684130  1
  Br  Br7  1  0.890045  0.445631  0.315870  1
  Br  Br8  1  0.750000  0.683607  0.007845  1
  Br  Br9  1  0.250000  0.316393  0.992155  1
  Br  Br10  1  0.750000  0.525871  0.637020  1
  Br  Br11  1  0.250000  0.474129  0.362980  1
  Br  Br12  1  0.750000  0.025703  0.330845  1
  Br  Br13  1  0.250000  0.974297  0.669155  1
  Br  Br14  1  0.894287  0.248796  0.021281  1
  Br  Br15  1  0.394287  0.751204  0.978719  1
  Br  Br16  1  0.105713  0.751204  0.978719  1
  Br  Br17  1  0.605713  0.248796  0.021281  1
  Br  Br18  1  0.905367  0.057164  0.657710  1
  Br  Br19  1  0.405367  0.942836  0.342290  1
  Br  Br20  1  0.094633  0.942836  0.342290  1
  Br  Br21  1  0.594633  0.057164  0.657710  1
