# generated using pymatgen
data_Al4Hg15Br16
_symmetry_space_group_name_H-M   'P 1'
_cell_length_a   7.76080832
_cell_length_b   7.76080915
_cell_length_c   26.72042964
_cell_angle_alpha   86.80864533
_cell_angle_beta   86.80864517
_cell_angle_gamma   60.54225159
_symmetry_Int_Tables_number   1
_chemical_formula_structural   Al4Hg15Br16
_chemical_formula_sum   'Al4 Hg15 Br16'
_cell_volume   1398.39887702
_cell_formula_units_Z   1
loop_
 _symmetry_equiv_pos_site_id
 _symmetry_equiv_pos_as_xyz
  1  'x, y, z'
loop_
 _atom_site_type_symbol
 _atom_site_label
 _atom_site_symmetry_multiplicity
 _atom_site_fract_x
 _atom_site_fract_y
 _atom_site_fract_z
 _atom_site_occupancy
  Al  Al0  1  0.635242  0.635242  0.118631  1
  Al  Al1  1  0.364758  0.364758  0.881369  1
  Al  Al2  1  0.755761  0.755761  0.617495  1
  Al  Al3  1  0.244239  0.244239  0.382505  1
  Hg  Hg4  1  0.028235  0.028235  0.897868  1
  Hg  Hg5  1  0.768738  0.768738  0.280150  1
  Hg  Hg6  1  0.488268  0.488268  0.551129  1
  Hg  Hg7  1  0.721440  0.236368  0.726563  1
  Hg  Hg8  1  0.278560  0.763632  0.273437  1
  Hg  Hg9  1  0.763632  0.278560  0.273437  1
  Hg  Hg10  1  0.236368  0.721440  0.726563  1
  Hg  Hg11  1  0.511732  0.511732  0.448871  1
  Hg  Hg12  1  0.971765  0.971765  0.102132  1
  Hg  Hg13  1  0.000000  0.000000  0.000000  1
  Hg  Hg14  1  0.231262  0.231262  0.719850  1
  Hg  Hg15  1  0.942294  0.942294  0.204482  1
  Hg  Hg16  1  0.057706  0.057706  0.795518  1
  Hg  Hg17  1  0.590647  0.590647  0.350912  1
  Hg  Hg18  1  0.409353  0.409353  0.649088  1
  Br  Br19  1  0.531744  0.048590  0.848375  1
  Br  Br20  1  0.077863  0.077863  0.411170  1
  Br  Br21  1  0.533251  0.533251  0.853434  1
  Br  Br22  1  0.432903  0.917738  0.588969  1
  Br  Br23  1  0.741840  0.741840  0.705252  1
  Br  Br24  1  0.345788  0.345788  0.967768  1
  Br  Br25  1  0.468256  0.951410  0.151625  1
  Br  Br26  1  0.951410  0.468256  0.151625  1
  Br  Br27  1  0.466749  0.466749  0.146566  1
  Br  Br28  1  0.567097  0.082262  0.411031  1
  Br  Br29  1  0.654212  0.654212  0.032232  1
  Br  Br30  1  0.917738  0.432903  0.588969  1
  Br  Br31  1  0.258160  0.258160  0.294748  1
  Br  Br32  1  0.082262  0.567097  0.411031  1
  Br  Br33  1  0.922137  0.922137  0.588830  1
  Br  Br34  1  0.048590  0.531744  0.848375  1
