# generated using pymatgen
data_Sc3U2MoO12
_symmetry_space_group_name_H-M   'P 1'
_cell_length_a   4.91373761
_cell_length_b   4.91373761
_cell_length_c   9.87863200
_cell_angle_alpha   90.00000000
_cell_angle_beta   90.00000000
_cell_angle_gamma   89.81198883
_symmetry_Int_Tables_number   1
_chemical_formula_structural   Sc3U2MoO12
_chemical_formula_sum   'Sc3 U2 Mo1 O12'
_cell_volume   238.51648103
_cell_formula_units_Z   1
loop_
 _symmetry_equiv_pos_site_id
 _symmetry_equiv_pos_as_xyz
  1  'x, y, z'
loop_
 _atom_site_type_symbol
 _atom_site_label
 _atom_site_symmetry_multiplicity
 _atom_site_fract_x
 _atom_site_fract_y
 _atom_site_fract_z
 _atom_site_occupancy
  Sc  Sc0  1  0.000000  0.000000  0.335934  1
  Sc  Sc1  1  0.500000  0.500000  0.834265  1
  Sc  Sc2  1  0.000000  0.000000  0.664951  1
  U  U3  1  0.000000  0.000000  0.999858  1
  U  U4  1  0.500000  0.500000  0.500032  1
  Mo  Mo5  1  0.500000  0.500000  0.165826  1
  O  O6  1  0.690347  0.690347  0.663620  1
  O  O7  1  0.309653  0.309653  0.663620  1
  O  O8  1  0.693518  0.693518  0.337317  1
  O  O9  1  0.189630  0.810370  0.164845  1
  O  O10  1  0.810370  0.189630  0.164845  1
  O  O11  1  0.809657  0.190343  0.835655  1
  O  O12  1  0.303898  0.303898  0.997940  1
  O  O13  1  0.195704  0.804296  0.500191  1
  O  O14  1  0.804296  0.195704  0.500191  1
  O  O15  1  0.696102  0.696102  0.997940  1
  O  O16  1  0.306482  0.306482  0.337317  1
  O  O17  1  0.190343  0.809657  0.835655  1
