# generated using pymatgen
data_Tb4Y6In8NiPd3
_symmetry_space_group_name_H-M   'P 1'
_cell_length_a   3.61472800
_cell_length_b   8.13621172
_cell_length_c   18.25490306
_cell_angle_alpha   90.08362068
_cell_angle_beta   90.00000000
_cell_angle_gamma   90.00000000
_symmetry_Int_Tables_number   1
_chemical_formula_structural   Tb4Y6In8NiPd3
_chemical_formula_sum   'Tb4 Y6 In8 Ni1 Pd3'
_cell_volume   536.87963773
_cell_formula_units_Z   1
loop_
 _symmetry_equiv_pos_site_id
 _symmetry_equiv_pos_as_xyz
  1  'x, y, z'
loop_
 _atom_site_type_symbol
 _atom_site_label
 _atom_site_symmetry_multiplicity
 _atom_site_fract_x
 _atom_site_fract_y
 _atom_site_fract_z
 _atom_site_occupancy
  Tb  Tb0  1  0.500000  0.233097  0.777901  1
  Tb  Tb1  1  0.500000  0.759905  0.218910  1
  Tb  Tb2  1  0.500000  0.259293  0.281512  1
  Tb  Tb3  1  0.500000  0.749640  0.718281  1
  Y  Y4  1  0.500000  0.116089  0.587882  1
  Y  Y5  1  0.500000  0.881544  0.418290  1
  Y  Y6  1  0.500000  0.380313  0.082148  1
  Y  Y7  1  0.500000  0.618909  0.915755  1
  Y  Y8  1  0.500000  0.999973  0.999098  1
  Y  Y9  1  0.500000  0.500168  0.501326  1
  In  In10  1  0.000000  0.079304  0.150224  1
  In  In11  1  0.000000  0.921996  0.847374  1
  In  In12  1  0.000000  0.422018  0.650988  1
  In  In13  1  0.000000  0.580036  0.350292  1
  In  In14  1  0.000000  0.207411  0.433809  1
  In  In15  1  0.000000  0.794914  0.569208  1
  In  In16  1  0.000000  0.291980  0.930601  1
  In  In17  1  0.000000  0.707543  0.067107  1
  Ni  Ni18  1  0.000000  0.020974  0.696029  1
  Pd  Pd19  1  0.000000  0.975832  0.304337  1
  Pd  Pd20  1  0.000000  0.475739  0.196129  1
  Pd  Pd21  1  0.000000  0.523325  0.802799  1
