# generated using pymatgen
data_Ho7Tm(AlNi)2
_symmetry_space_group_name_H-M   'P 1'
_cell_length_a   9.40009306
_cell_length_b   9.40009369
_cell_length_c   9.38815200
_cell_angle_alpha   60.04202197
_cell_angle_beta   60.04201978
_cell_angle_gamma   60.01072428
_symmetry_Int_Tables_number   1
_chemical_formula_structural   Ho7Tm(AlNi)2
_chemical_formula_sum   'Ho14 Tm2 Al4 Ni4'
_cell_volume   587.00287693
_cell_formula_units_Z   2
loop_
 _symmetry_equiv_pos_site_id
 _symmetry_equiv_pos_as_xyz
  1  'x, y, z'
loop_
 _atom_site_type_symbol
 _atom_site_label
 _atom_site_symmetry_multiplicity
 _atom_site_fract_x
 _atom_site_fract_y
 _atom_site_fract_z
 _atom_site_occupancy
  Ho  Ho0  1  0.349674  0.947592  0.351367  1
  Ho  Ho1  1  0.947592  0.349674  0.351367  1
  Ho  Ho2  1  0.809127  0.192233  0.190575  1
  Ho  Ho3  1  0.192233  0.809127  0.808065  1
  Ho  Ho4  1  0.192233  0.809127  0.190575  1
  Ho  Ho5  1  0.809127  0.192233  0.808065  1
  Ho  Ho6  1  0.191431  0.191431  0.808569  1
  Ho  Ho7  1  0.808687  0.808687  0.191313  1
  Ho  Ho8  1  0.936579  0.564640  0.563658  1
  Ho  Ho9  1  0.564639  0.936579  0.935124  1
  Ho  Ho10  1  0.564640  0.936579  0.563658  1
  Ho  Ho11  1  0.936579  0.564640  0.935124  1
  Ho  Ho12  1  0.564402  0.564403  0.935597  1
  Ho  Ho13  1  0.935681  0.935681  0.564319  1
  Tm  Tm14  1  0.349332  0.349332  0.350536  1
  Tm  Tm15  1  0.349332  0.349332  0.950800  1
  Al  Al16  1  0.576500  0.576500  0.578111  1
  Al  Al17  1  0.576500  0.576500  0.268889  1
  Al  Al18  1  0.575839  0.269594  0.577283  1
  Al  Al19  1  0.269594  0.575839  0.577283  1
  Ni  Ni20  1  0.143421  0.143421  0.142961  1
  Ni  Ni21  1  0.143421  0.143421  0.570197  1
  Ni  Ni22  1  0.142342  0.571100  0.143279  1
  Ni  Ni23  1  0.571100  0.142342  0.143279  1
