# generated using pymatgen
data_ScNb3Fe3Co5P6
_symmetry_space_group_name_H-M   'P 1'
_cell_length_a   11.92340900
_cell_length_b   11.92340917
_cell_length_c   3.63215000
_cell_angle_alpha   90.00000000
_cell_angle_beta   90.00000000
_cell_angle_gamma   120.00000231
_symmetry_Int_Tables_number   1
_chemical_formula_structural   ScNb3Fe3Co5P6
_chemical_formula_sum   'Sc2 Nb6 Fe6 Co10 P12'
_cell_volume   447.19329816
_cell_formula_units_Z   2
loop_
 _symmetry_equiv_pos_site_id
 _symmetry_equiv_pos_as_xyz
  1  'x, y, z'
loop_
 _atom_site_type_symbol
 _atom_site_label
 _atom_site_symmetry_multiplicity
 _atom_site_fract_x
 _atom_site_fract_y
 _atom_site_fract_z
 _atom_site_occupancy
  Sc  Sc0  1  0.333333  0.666667  0.000000  1
  Sc  Sc1  1  0.666667  0.333333  0.000000  1
  Nb  Nb2  1  0.821077  0.999386  0.500000  1
  Nb  Nb3  1  0.000614  0.821691  0.500000  1
  Nb  Nb4  1  0.178309  0.178923  0.500000  1
  Nb  Nb5  1  0.442533  0.999544  0.000000  1
  Nb  Nb6  1  0.000456  0.442989  0.000000  1
  Nb  Nb7  1  0.557011  0.557467  0.000000  1
  Fe  Fe8  1  0.277202  0.002927  0.500000  1
  Fe  Fe9  1  0.997073  0.274276  0.500000  1
  Fe  Fe10  1  0.725724  0.722798  0.500000  1
  Fe  Fe11  1  0.630898  0.807418  0.000000  1
  Fe  Fe12  1  0.192582  0.823481  0.000000  1
  Fe  Fe13  1  0.176519  0.369102  0.000000  1
  Co  Co14  1  0.369382  0.178965  0.000000  1
  Co  Co15  1  0.809583  0.630618  0.000000  1
  Co  Co16  1  0.821035  0.190417  0.000000  1
  Co  Co17  1  0.518660  0.874861  0.500000  1
  Co  Co18  1  0.125139  0.643799  0.500000  1
  Co  Co19  1  0.356201  0.481340  0.500000  1
  Co  Co20  1  0.481624  0.354386  0.500000  1
  Co  Co21  1  0.872762  0.518376  0.500000  1
  Co  Co22  1  0.645614  0.127238  0.500000  1
  Co  Co23  1  0.000000  0.000000  0.000000  1
  P  P24  1  0.174219  0.998875  0.000000  1
  P  P25  1  0.001125  0.175345  0.000000  1
  P  P26  1  0.824655  0.825781  0.000000  1
  P  P27  1  0.520738  0.692114  0.500000  1
  P  P28  1  0.307886  0.828623  0.500000  1
  P  P29  1  0.171377  0.479262  0.500000  1
  P  P30  1  0.481660  0.171297  0.500000  1
  P  P31  1  0.689636  0.518340  0.500000  1
  P  P32  1  0.828703  0.310364  0.500000  1
  P  P33  1  0.649666  0.998167  0.000000  1
  P  P34  1  0.001833  0.651498  0.000000  1
  P  P35  1  0.348502  0.350334  0.000000  1
