# generated using pymatgen
data_Pr2InSn7IrRh3
_symmetry_space_group_name_H-M   'P 1'
_cell_length_a   4.55726000
_cell_length_b   7.20438100
_cell_length_c   18.72622200
_cell_angle_alpha   90.00000000
_cell_angle_beta   90.00000000
_cell_angle_gamma   90.00000000
_symmetry_Int_Tables_number   1
_chemical_formula_structural   Pr2InSn7IrRh3
_chemical_formula_sum   'Pr4 In2 Sn14 Ir2 Rh6'
_cell_volume   614.82376549
_cell_formula_units_Z   2
loop_
 _symmetry_equiv_pos_site_id
 _symmetry_equiv_pos_as_xyz
  1  'x, y, z'
loop_
 _atom_site_type_symbol
 _atom_site_label
 _atom_site_symmetry_multiplicity
 _atom_site_fract_x
 _atom_site_fract_y
 _atom_site_fract_z
 _atom_site_occupancy
  Pr  Pr0  1  0.250000  0.999968  0.858498  1
  Pr  Pr1  1  0.250000  0.500032  0.358498  1
  Pr  Pr2  1  0.750000  0.999710  0.141224  1
  Pr  Pr3  1  0.750000  0.500290  0.641224  1
  In  In4  1  0.250000  0.302915  0.181868  1
  In  In5  1  0.250000  0.197085  0.681868  1
  Sn  Sn6  1  0.750000  0.696448  0.818356  1
  Sn  Sn7  1  0.750000  0.803552  0.318356  1
  Sn  Sn8  1  0.250000  0.720599  0.194762  1
  Sn  Sn9  1  0.250000  0.779401  0.694762  1
  Sn  Sn10  1  0.750000  0.277772  0.802724  1
  Sn  Sn11  1  0.750000  0.222228  0.302724  1
  Sn  Sn12  1  0.250000  0.864275  0.031674  1
  Sn  Sn13  1  0.250000  0.635725  0.531674  1
  Sn  Sn14  1  0.750000  0.134305  0.968098  1
  Sn  Sn15  1  0.750000  0.365695  0.468098  1
  Sn  Sn16  1  0.250000  0.519223  0.931588  1
  Sn  Sn17  1  0.250000  0.980777  0.431588  1
  Sn  Sn18  1  0.750000  0.479551  0.069966  1
  Sn  Sn19  1  0.750000  0.020449  0.569966  1
  Ir  Ir20  1  0.250000  0.251279  0.033940  1
  Ir  Ir21  1  0.250000  0.248721  0.533940  1
  Rh  Rh22  1  0.750000  0.747206  0.965800  1
  Rh  Rh23  1  0.750000  0.752794  0.465800  1
  Rh  Rh24  1  0.250000  0.014906  0.286880  1
  Rh  Rh25  1  0.250000  0.485094  0.786880  1
  Rh  Rh26  1  0.750000  0.975927  0.714622  1
  Rh  Rh27  1  0.750000  0.524073  0.214622  1
