# generated using pymatgen
data_Tb2YGaC3
_symmetry_space_group_name_H-M   'P 1'
_cell_length_a   3.59297100
_cell_length_b   7.10300175
_cell_length_c   9.90794603
_cell_angle_alpha   89.82181456
_cell_angle_beta   90.00000000
_cell_angle_gamma   90.00000000
_symmetry_Int_Tables_number   1
_chemical_formula_structural   Tb2YGaC3
_chemical_formula_sum   'Tb4 Y2 Ga2 C6'
_cell_volume   252.85827193
_cell_formula_units_Z   2
loop_
 _symmetry_equiv_pos_site_id
 _symmetry_equiv_pos_as_xyz
  1  'x, y, z'
loop_
 _atom_site_type_symbol
 _atom_site_label
 _atom_site_symmetry_multiplicity
 _atom_site_fract_x
 _atom_site_fract_y
 _atom_site_fract_z
 _atom_site_occupancy
  Tb  Tb0  1  0.500000  0.511514  0.196002  1
  Tb  Tb1  1  0.500000  0.488486  0.803998  1
  Tb  Tb2  1  0.000000  0.749907  0.458617  1
  Tb  Tb3  1  0.000000  0.250093  0.541383  1
  Y  Y4  1  0.500000  0.989304  0.196432  1
  Y  Y5  1  0.500000  0.010696  0.803568  1
  Ga  Ga6  1  0.000000  0.752840  0.001134  1
  Ga  Ga7  1  0.000000  0.247160  0.998866  1
  C  C8  1  0.500000  0.508791  0.566578  1
  C  C9  1  0.500000  0.491209  0.433422  1
  C  C10  1  0.500000  0.990993  0.566561  1
  C  C11  1  0.500000  0.009007  0.433439  1
  C  C12  1  0.000000  0.750056  0.208754  1
  C  C13  1  0.000000  0.249944  0.791246  1
