# generated using pymatgen
data_P2Se(O3F)2
_symmetry_space_group_name_H-M   'P 1'
_cell_length_a   5.03349100
_cell_length_b   5.03349018
_cell_length_c   6.71951500
_cell_angle_alpha   90.00000000
_cell_angle_beta   90.00000000
_cell_angle_gamma   119.99999703
_symmetry_Int_Tables_number   1
_chemical_formula_structural   P2Se(O3F)2
_chemical_formula_sum   'P2 Se1 O6 F2'
_cell_volume   147.43720692
_cell_formula_units_Z   1
loop_
 _symmetry_equiv_pos_site_id
 _symmetry_equiv_pos_as_xyz
  1  'x, y, z'
loop_
 _atom_site_type_symbol
 _atom_site_label
 _atom_site_symmetry_multiplicity
 _atom_site_fract_x
 _atom_site_fract_y
 _atom_site_fract_z
 _atom_site_occupancy
  P  P0  1  0.333333  0.666666  0.231376  1
  P  P1  1  0.666667  0.333334  0.768624  1
  Se  Se2  1  0.000000  0.000000  0.000000  1
  O  O3  1  0.298093  0.355404  0.173634  1
  O  O4  1  0.057311  0.701907  0.173634  1
  O  O5  1  0.644597  0.942689  0.173634  1
  O  O6  1  0.355404  0.057311  0.826366  1
  O  O7  1  0.942689  0.298093  0.826366  1
  O  O8  1  0.701907  0.644596  0.826366  1
  F  F9  1  0.666667  0.333334  0.536290  1
  F  F10  1  0.333333  0.666666  0.463710  1
