# generated using pymatgen
data_NaLa21Fe8(SbC2)6
_symmetry_space_group_name_H-M   'P 1'
_cell_length_a   11.67762900
_cell_length_b   11.67762974
_cell_length_c   11.67762900
_cell_angle_alpha   120.00000072
_cell_angle_beta   90.00000000
_cell_angle_gamma   120.00000072
_symmetry_Int_Tables_number   1
_chemical_formula_structural   NaLa21Fe8(SbC2)6
_chemical_formula_sum   'Na1 La21 Fe8 Sb6 C12'
_cell_volume   1126.02761388
_cell_formula_units_Z   1
loop_
 _symmetry_equiv_pos_site_id
 _symmetry_equiv_pos_as_xyz
  1  'x, y, z'
loop_
 _atom_site_type_symbol
 _atom_site_label
 _atom_site_symmetry_multiplicity
 _atom_site_fract_x
 _atom_site_fract_y
 _atom_site_fract_z
 _atom_site_occupancy
  Na  Na0  1  0.000000  0.000000  0.000000  1
  La  La1  1  0.406462  0.270974  0.135487  1
  La  La2  1  0.864514  0.270974  0.135487  1
  La  La3  1  0.864514  0.729027  0.135487  1
  La  La4  1  0.500000  0.000000  0.155030  1
  La  La5  1  0.155030  0.655030  0.155030  1
  La  La6  1  0.500000  0.655030  0.155030  1
  La  La7  1  0.135487  0.270974  0.406462  1
  La  La8  1  0.844970  0.000000  0.500000  1
  La  La9  1  0.500000  0.000000  0.500000  1
  La  La10  1  0.844970  0.344970  0.500000  1
  La  La11  1  0.155030  0.000000  0.500000  1
  La  La12  1  0.500000  0.344970  0.500000  1
  La  La13  1  0.155030  0.655030  0.500000  1
  La  La14  1  0.500000  0.655030  0.500000  1
  La  La15  1  0.864514  0.729027  0.593539  1
  La  La16  1  0.500000  0.000000  0.844970  1
  La  La17  1  0.844970  0.344970  0.844970  1
  La  La18  1  0.500000  0.344970  0.844970  1
  La  La19  1  0.135487  0.270974  0.864514  1
  La  La20  1  0.135487  0.729027  0.864514  1
  La  La21  1  0.593539  0.729027  0.864514  1
  Fe  Fe22  1  0.696448  0.392896  0.089343  1
  Fe  Fe23  1  0.696448  0.392896  0.303552  1
  Fe  Fe24  1  0.696448  0.607104  0.303552  1
  Fe  Fe25  1  0.910656  0.607104  0.303552  1
  Fe  Fe26  1  0.089343  0.392896  0.696448  1
  Fe  Fe27  1  0.303552  0.392896  0.696448  1
  Fe  Fe28  1  0.303552  0.607104  0.696448  1
  Fe  Fe29  1  0.303552  0.607104  0.910656  1
  Sb  Sb30  1  0.216867  0.000000  0.216867  1
  Sb  Sb31  1  0.216867  0.433735  0.216867  1
  Sb  Sb32  1  0.783132  0.000000  0.216867  1
  Sb  Sb33  1  0.216867  0.000000  0.783132  1
  Sb  Sb34  1  0.783132  0.566264  0.783132  1
  Sb  Sb35  1  0.783133  0.000000  0.783133  1
  C  C36  1  0.889943  0.500000  0.110058  1
  C  C37  1  0.610058  0.220115  0.110058  1
  C  C38  1  0.610058  0.500000  0.110058  1
  C  C39  1  0.610058  0.500000  0.389942  1
  C  C40  1  0.889943  0.500000  0.389942  1
  C  C41  1  0.889943  0.779886  0.389942  1
  C  C42  1  0.110058  0.220115  0.610058  1
  C  C43  1  0.110058  0.500000  0.610058  1
  C  C44  1  0.389942  0.500000  0.610058  1
  C  C45  1  0.110058  0.500000  0.889943  1
  C  C46  1  0.389942  0.500000  0.889943  1
  C  C47  1  0.389942  0.779886  0.889943  1
