# generated using pymatgen
data_CeTm3(Ir2O7)2
_symmetry_space_group_name_H-M   'P 1'
_cell_length_a   7.26311027
_cell_length_b   7.18742936
_cell_length_c   7.18742900
_cell_angle_alpha   60.00000628
_cell_angle_beta   60.34409932
_cell_angle_gamma   60.34410109
_symmetry_Int_Tables_number   1
_chemical_formula_structural   CeTm3(Ir2O7)2
_chemical_formula_sum   'Ce1 Tm3 Ir4 O14'
_cell_volume   266.68226949
_cell_formula_units_Z   1
loop_
 _symmetry_equiv_pos_site_id
 _symmetry_equiv_pos_as_xyz
  1  'x, y, z'
loop_
 _atom_site_type_symbol
 _atom_site_label
 _atom_site_symmetry_multiplicity
 _atom_site_fract_x
 _atom_site_fract_y
 _atom_site_fract_z
 _atom_site_occupancy
  Ce  Ce0  1  0.625000  0.125000  0.125000  1
  Tm  Tm1  1  0.125000  0.625000  0.125000  1
  Tm  Tm2  1  0.125000  0.125000  0.625000  1
  Tm  Tm3  1  0.125000  0.125000  0.125000  1
  Ir  Ir4  1  0.125000  0.625000  0.625000  1
  Ir  Ir5  1  0.625000  0.125000  0.625000  1
  Ir  Ir6  1  0.625000  0.625000  0.125000  1
  Ir  Ir7  1  0.625000  0.625000  0.625000  1
  O  O8  1  0.724597  0.709647  0.282878  1
  O  O9  1  0.285433  0.285365  0.714601  1
  O  O10  1  0.724597  0.282878  0.709647  1
  O  O11  1  0.285433  0.714601  0.285365  1
  O  O12  1  0.285433  0.714601  0.714601  1
  O  O13  1  0.724597  0.282878  0.282878  1
  O  O14  1  0.525403  0.540353  0.967122  1
  O  O15  1  0.964567  0.964635  0.535399  1
  O  O16  1  0.525403  0.967122  0.540353  1
  O  O17  1  0.964567  0.535399  0.964635  1
  O  O18  1  0.964567  0.535399  0.535399  1
  O  O19  1  0.525403  0.967122  0.967122  1
  O  O20  1  0.246759  0.251080  0.251080  1
  O  O21  1  0.003241  0.998920  0.998920  1
