# generated using pymatgen
data_Y2Tm2MoRu7
_symmetry_space_group_name_H-M   'P 1'
_cell_length_a   5.45990446
_cell_length_b   5.19010881
_cell_length_c   9.00417469
_cell_angle_alpha   89.95820232
_cell_angle_beta   90.00854757
_cell_angle_gamma   121.94508446
_symmetry_Int_Tables_number   1
_chemical_formula_structural   Y2Tm2MoRu7
_chemical_formula_sum   'Y2 Tm2 Mo1 Ru7'
_cell_volume   216.51380655
_cell_formula_units_Z   1
loop_
 _symmetry_equiv_pos_site_id
 _symmetry_equiv_pos_as_xyz
  1  'x, y, z'
loop_
 _atom_site_type_symbol
 _atom_site_label
 _atom_site_symmetry_multiplicity
 _atom_site_fract_x
 _atom_site_fract_y
 _atom_site_fract_z
 _atom_site_occupancy
  Y  Y0  1  0.672022  0.344643  0.563815  1
  Y  Y1  1  0.334887  0.670120  0.431483  1
  Tm  Tm2  1  0.334644  0.669617  0.067558  1
  Tm  Tm3  1  0.672727  0.346180  0.937135  1
  Mo  Mo4  1  0.161429  0.323429  0.751771  1
  Ru  Ru5  1  0.008433  0.017356  0.498273  1
  Ru  Ru6  1  0.008994  0.018575  0.001783  1
  Ru  Ru7  1  0.171151  0.820772  0.752531  1
  Ru  Ru8  1  0.651068  0.821118  0.752461  1
  Ru  Ru9  1  0.821014  0.642151  0.247686  1
  Ru  Ru10  1  0.832100  0.162609  0.247721  1
  Ru  Ru11  1  0.331535  0.163430  0.247782  1
