# generated using pymatgen
data_Tb2Er6In2RuRh
_symmetry_space_group_name_H-M   'P 1'
_cell_length_a   9.59391041
_cell_length_b   9.60018406
_cell_length_c   9.64301453
_cell_angle_alpha   59.92465220
_cell_angle_beta   59.85721987
_cell_angle_gamma   59.94928862
_symmetry_Int_Tables_number   1
_chemical_formula_structural   Tb2Er6In2RuRh
_chemical_formula_sum   'Tb4 Er12 In4 Ru2 Rh2'
_cell_volume   626.74180633
_cell_formula_units_Z   2
loop_
 _symmetry_equiv_pos_site_id
 _symmetry_equiv_pos_as_xyz
  1  'x, y, z'
loop_
 _atom_site_type_symbol
 _atom_site_label
 _atom_site_symmetry_multiplicity
 _atom_site_fract_x
 _atom_site_fract_y
 _atom_site_fract_z
 _atom_site_occupancy
  Tb  Tb0  1  0.188089  0.193021  0.811902  1
  Tb  Tb1  1  0.441119  0.061481  0.060892  1
  Tb  Tb2  1  0.437297  0.064787  0.433930  1
  Tb  Tb3  1  0.062536  0.439103  0.062357  1
  Er  Er4  1  0.650074  0.042915  0.649835  1
  Er  Er5  1  0.191742  0.808792  0.808226  1
  Er  Er6  1  0.056703  0.057332  0.441274  1
  Er  Er7  1  0.810355  0.191535  0.192540  1
  Er  Er8  1  0.810439  0.809558  0.193057  1
  Er  Er9  1  0.653505  0.649624  0.046784  1
  Er  Er10  1  0.653371  0.653388  0.647337  1
  Er  Er11  1  0.059255  0.442521  0.440051  1
  Er  Er12  1  0.041930  0.649724  0.653359  1
  Er  Er13  1  0.808764  0.194130  0.806506  1
  Er  Er14  1  0.446942  0.441852  0.055820  1
  Er  Er15  1  0.191006  0.808259  0.195868  1
  In  In16  1  0.417823  0.746402  0.418442  1
  In  In17  1  0.418106  0.417927  0.745944  1
  In  In18  1  0.749838  0.415563  0.416984  1
  In  In19  1  0.417280  0.417393  0.417877  1
  Ru  Ru20  1  0.851647  0.422599  0.859597  1
  Ru  Ru21  1  0.861656  0.858248  0.420624  1
  Rh  Rh22  1  0.421980  0.852554  0.862504  1
  Rh  Rh23  1  0.858544  0.861290  0.858286  1
