# generated using pymatgen
data_ZrSc3Mn5Re3
_symmetry_space_group_name_H-M   'P 1'
_cell_length_a   5.15898400
_cell_length_b   5.04696782
_cell_length_c   8.29200600
_cell_angle_alpha   89.99975040
_cell_angle_beta   90.00000000
_cell_angle_gamma   120.73695297
_symmetry_Int_Tables_number   1
_chemical_formula_structural   ZrSc3Mn5Re3
_chemical_formula_sum   'Zr1 Sc3 Mn5 Re3'
_cell_volume   185.57169496
_cell_formula_units_Z   1
loop_
 _symmetry_equiv_pos_site_id
 _symmetry_equiv_pos_as_xyz
  1  'x, y, z'
loop_
 _atom_site_type_symbol
 _atom_site_label
 _atom_site_symmetry_multiplicity
 _atom_site_fract_x
 _atom_site_fract_y
 _atom_site_fract_z
 _atom_site_occupancy
  Zr  Zr0  1  0.332698  0.665399  0.437233  1
  Sc  Sc1  1  0.665781  0.331561  0.936405  1
  Sc  Sc2  1  0.665899  0.331797  0.565025  1
  Sc  Sc3  1  0.332818  0.665637  0.061465  1
  Mn  Mn4  1  0.654832  0.824809  0.750163  1
  Mn  Mn5  1  0.338034  0.167749  0.249861  1
  Mn  Mn6  1  0.829715  0.167749  0.249861  1
  Mn  Mn7  1  0.181992  0.363984  0.750351  1
  Mn  Mn8  1  0.169977  0.824809  0.750163  1
  Re  Re9  1  0.823977  0.647955  0.249430  1
  Re  Re10  1  0.002292  0.004584  0.509624  1
  Re  Re11  1  0.001984  0.003969  0.990419  1
