# generated using pymatgen
data_Tb6Ho4Si5P
_symmetry_space_group_name_H-M   'P 1'
_cell_length_a   8.43932400
_cell_length_b   8.44403044
_cell_length_c   6.31190000
_cell_angle_alpha   90.00000000
_cell_angle_beta   90.00000000
_cell_angle_gamma   119.98156409
_symmetry_Int_Tables_number   1
_chemical_formula_structural   Tb6Ho4Si5P
_chemical_formula_sum   'Tb6 Ho4 Si5 P1'
_cell_volume   389.60887583
_cell_formula_units_Z   1
loop_
 _symmetry_equiv_pos_site_id
 _symmetry_equiv_pos_as_xyz
  1  'x, y, z'
loop_
 _atom_site_type_symbol
 _atom_site_label
 _atom_site_symmetry_multiplicity
 _atom_site_fract_x
 _atom_site_fract_y
 _atom_site_fract_z
 _atom_site_occupancy
  Tb  Tb0  1  0.000825  0.756432  0.750000  1
  Tb  Tb1  1  0.001003  0.244672  0.250000  1
  Tb  Tb2  1  0.756331  0.755328  0.250000  1
  Tb  Tb3  1  0.754593  0.000000  0.750000  1
  Tb  Tb4  1  0.244394  0.243568  0.750000  1
  Tb  Tb5  1  0.244184  0.000000  0.250000  1
  Ho  Ho6  1  0.333818  0.667557  0.500224  1
  Ho  Ho7  1  0.666262  0.332443  0.999776  1
  Ho  Ho8  1  0.666262  0.332443  0.500224  1
  Ho  Ho9  1  0.333818  0.667557  0.999776  1
  Si  Si10  1  0.394784  0.394178  0.250000  1
  Si  Si11  1  0.000606  0.605822  0.250000  1
  Si  Si12  1  0.000136  0.394028  0.750000  1
  Si  Si13  1  0.606108  0.605972  0.750000  1
  Si  Si14  1  0.606756  0.000000  0.250000  1
  P  P15  1  0.390120  0.000000  0.750000  1
