# generated using pymatgen
data_Sc5Si8Tc3(PIr4)4
_symmetry_space_group_name_H-M   'P 1'
_cell_length_a   12.62228361
_cell_length_b   12.62228414
_cell_length_c   3.95984100
_cell_angle_alpha   90.00000000
_cell_angle_beta   90.00000000
_cell_angle_gamma   119.75181215
_symmetry_Int_Tables_number   1
_chemical_formula_structural   Sc5Si8Tc3(PIr4)4
_chemical_formula_sum   'Sc5 Si8 Tc3 P4 Ir16'
_cell_volume   547.72803651
_cell_formula_units_Z   1
loop_
 _symmetry_equiv_pos_site_id
 _symmetry_equiv_pos_as_xyz
  1  'x, y, z'
loop_
 _atom_site_type_symbol
 _atom_site_label
 _atom_site_symmetry_multiplicity
 _atom_site_fract_x
 _atom_site_fract_y
 _atom_site_fract_z
 _atom_site_occupancy
  Sc  Sc0  1  0.332973  0.666656  0.000000  1
  Sc  Sc1  1  0.666656  0.332973  0.000000  1
  Sc  Sc2  1  0.813083  0.001395  0.500000  1
  Sc  Sc3  1  0.001395  0.813083  0.500000  1
  Sc  Sc4  1  0.185439  0.185439  0.500000  1
  Si  Si5  1  0.178575  0.001619  0.000000  1
  Si  Si6  1  0.001619  0.178575  0.000000  1
  Si  Si7  1  0.167813  0.481797  0.500000  1
  Si  Si8  1  0.517689  0.685098  0.500000  1
  Si  Si9  1  0.313550  0.831590  0.500000  1
  Si  Si10  1  0.685098  0.517689  0.500000  1
  Si  Si11  1  0.831590  0.313550  0.500000  1
  Si  Si12  1  0.481797  0.167813  0.500000  1
  Tc  Tc13  1  0.447625  0.999281  0.000000  1
  Tc  Tc14  1  0.999281  0.447625  0.000000  1
  Tc  Tc15  1  0.552964  0.552964  0.000000  1
  P  P16  1  0.819632  0.819632  0.000000  1
  P  P17  1  0.632506  0.000885  0.000000  1
  P  P18  1  0.000885  0.632506  0.000000  1
  P  P19  1  0.368959  0.368959  0.000000  1
  Ir  Ir20  1  0.359810  0.487881  0.500000  1
  Ir  Ir21  1  0.511924  0.870431  0.500000  1
  Ir  Ir22  1  0.127208  0.640345  0.500000  1
  Ir  Ir23  1  0.870431  0.511924  0.500000  1
  Ir  Ir24  1  0.640345  0.127208  0.500000  1
  Ir  Ir25  1  0.487881  0.359810  0.500000  1
  Ir  Ir26  1  0.184197  0.373490  0.000000  1
  Ir  Ir27  1  0.629657  0.811917  0.000000  1
  Ir  Ir28  1  0.189377  0.816793  0.000000  1
  Ir  Ir29  1  0.811917  0.629657  0.000000  1
  Ir  Ir30  1  0.816793  0.189377  0.000000  1
  Ir  Ir31  1  0.373490  0.184197  0.000000  1
  Ir  Ir32  1  0.279050  0.000477  0.500000  1
  Ir  Ir33  1  0.000477  0.279050  0.500000  1
  Ir  Ir34  1  0.723436  0.723436  0.500000  1
  Ir  Ir35  1  0.994878  0.994878  0.000000  1
