# generated using pymatgen
data_Mg5U3(B6Os)4
_symmetry_space_group_name_H-M   'P 1'
_cell_length_a   3.54556900
_cell_length_b   8.88685878
_cell_length_c   11.19694800
_cell_angle_alpha   89.94715190
_cell_angle_beta   90.00000000
_cell_angle_gamma   90.00000000
_symmetry_Int_Tables_number   1
_chemical_formula_structural   Mg5U3(B6Os)4
_chemical_formula_sum   'Mg5 U3 B24 Os4'
_cell_volume   352.80415973
_cell_formula_units_Z   1
loop_
 _symmetry_equiv_pos_site_id
 _symmetry_equiv_pos_as_xyz
  1  'x, y, z'
loop_
 _atom_site_type_symbol
 _atom_site_label
 _atom_site_symmetry_multiplicity
 _atom_site_fract_x
 _atom_site_fract_y
 _atom_site_fract_z
 _atom_site_occupancy
  Mg  Mg0  1  0.000000  0.179604  0.913334  1
  Mg  Mg1  1  0.000000  0.949068  0.379490  1
  Mg  Mg2  1  0.000000  0.053397  0.622128  1
  Mg  Mg3  1  0.000000  0.444528  0.120692  1
  Mg  Mg4  1  0.000000  0.552447  0.877207  1
  U  U5  1  0.000000  0.319098  0.414815  1
  U  U6  1  0.000000  0.678835  0.587372  1
  U  U7  1  0.000000  0.822532  0.085147  1
  B  B8  1  0.500000  0.553338  0.433645  1
  B  B9  1  0.500000  0.446150  0.566888  1
  B  B10  1  0.500000  0.055196  0.065527  1
  B  B11  1  0.500000  0.945918  0.932771  1
  B  B12  1  0.500000  0.754340  0.420465  1
  B  B13  1  0.500000  0.245109  0.582024  1
  B  B14  1  0.500000  0.254206  0.077389  1
  B  B15  1  0.500000  0.746310  0.919968  1
  B  B16  1  0.500000  0.794704  0.263919  1
  B  B17  1  0.500000  0.205189  0.738410  1
  B  B18  1  0.500000  0.294395  0.234399  1
  B  B19  1  0.500000  0.705805  0.764370  1
  B  B20  1  0.500000  0.629703  0.180978  1
  B  B21  1  0.500000  0.369144  0.819994  1
  B  B22  1  0.500000  0.129938  0.318175  1
  B  B23  1  0.500000  0.870832  0.682013  1
  B  B24  1  0.500000  0.981513  0.212644  1
  B  B25  1  0.500000  0.020813  0.786935  1
  B  B26  1  0.500000  0.480525  0.285786  1
  B  B27  1  0.500000  0.518362  0.714849  1
  B  B28  1  0.500000  0.596297  0.026083  1
  B  B29  1  0.500000  0.401633  0.972819  1
  B  B30  1  0.500000  0.100578  0.472819  1
  B  B31  1  0.500000  0.899413  0.527497  1
  Os  Os32  1  0.000000  0.641012  0.318758  1
  Os  Os33  1  0.000000  0.359574  0.680980  1
  Os  Os34  1  0.000000  0.140794  0.180579  1
  Os  Os35  1  0.000000  0.859698  0.819129  1
