# generated using pymatgen
data_Ho12Ir3Pd
_symmetry_space_group_name_H-M   'P 1'
_cell_length_a   6.39142623
_cell_length_b   7.17956053
_cell_length_c   9.30910000
_cell_angle_alpha   90.00000000
_cell_angle_beta   90.00000000
_cell_angle_gamma   90.09593233
_symmetry_Int_Tables_number   1
_chemical_formula_structural   Ho12Ir3Pd
_chemical_formula_sum   'Ho12 Ir3 Pd1'
_cell_volume   427.17195136
_cell_formula_units_Z   1
loop_
 _symmetry_equiv_pos_site_id
 _symmetry_equiv_pos_as_xyz
  1  'x, y, z'
loop_
 _atom_site_type_symbol
 _atom_site_label
 _atom_site_symmetry_multiplicity
 _atom_site_fract_x
 _atom_site_fract_y
 _atom_site_fract_z
 _atom_site_occupancy
  Ho  Ho0  1  0.333614  0.675226  0.059813  1
  Ho  Ho1  1  0.173312  0.183089  0.440311  1
  Ho  Ho2  1  0.673899  0.321191  0.563155  1
  Ho  Ho3  1  0.824720  0.822098  0.934731  1
  Ho  Ho4  1  0.673899  0.321191  0.936845  1
  Ho  Ho5  1  0.824720  0.822098  0.565269  1
  Ho  Ho6  1  0.333614  0.675226  0.440187  1
  Ho  Ho7  1  0.173312  0.183089  0.059689  1
  Ho  Ho8  1  0.864045  0.525772  0.250000  1
  Ho  Ho9  1  0.626739  0.037010  0.250000  1
  Ho  Ho10  1  0.130781  0.466504  0.750000  1
  Ho  Ho11  1  0.368373  0.965759  0.750000  1
  Ir  Ir12  1  0.449230  0.384041  0.250000  1
  Ir  Ir13  1  0.953408  0.116833  0.750000  1
  Ir  Ir14  1  0.545641  0.616054  0.750000  1
  Pd  Pd15  1  0.050692  0.884819  0.250000  1
