# generated using pymatgen
data_Cs12Li4Si15Ge
_symmetry_space_group_name_H-M   'P 1'
_cell_length_a   8.15041366
_cell_length_b   10.16466600
_cell_length_c   13.51409726
_cell_angle_alpha   90.00021320
_cell_angle_beta   89.90992490
_cell_angle_gamma   90.00018726
_symmetry_Int_Tables_number   1
_chemical_formula_structural   Cs12Li4Si15Ge
_chemical_formula_sum   'Cs12 Li4 Si15 Ge1'
_cell_volume   1119.59066131
_cell_formula_units_Z   1
loop_
 _symmetry_equiv_pos_site_id
 _symmetry_equiv_pos_as_xyz
  1  'x, y, z'
loop_
 _atom_site_type_symbol
 _atom_site_label
 _atom_site_symmetry_multiplicity
 _atom_site_fract_x
 _atom_site_fract_y
 _atom_site_fract_z
 _atom_site_occupancy
  Cs  Cs0  1  0.647890  0.250001  0.402827  1
  Cs  Cs1  1  0.147448  0.249999  0.097458  1
  Cs  Cs2  1  0.351838  0.750001  0.596472  1
  Cs  Cs3  1  0.854541  0.749999  0.903377  1
  Cs  Cs4  1  0.654569  0.446398  0.693547  1
  Cs  Cs5  1  0.153650  0.055366  0.806804  1
  Cs  Cs6  1  0.345063  0.946408  0.306963  1
  Cs  Cs7  1  0.844696  0.553704  0.193350  1
  Cs  Cs8  1  0.345063  0.553592  0.306962  1
  Cs  Cs9  1  0.844700  0.946297  0.193353  1
  Cs  Cs10  1  0.654570  0.053599  0.693547  1
  Cs  Cs11  1  0.153647  0.444636  0.806804  1
  Li  Li12  1  0.499977  0.498935  0.001050  1
  Li  Li13  1  0.999805  0.000021  0.500157  1
  Li  Li14  1  0.499976  0.001064  0.001050  1
  Li  Li15  1  0.999800  0.499986  0.500163  1
  Si  Si16  1  0.867239  0.750000  0.588215  1
  Si  Si17  1  0.632242  0.249999  0.088216  1
  Si  Si18  1  0.132787  0.249999  0.411891  1
  Si  Si19  1  0.733945  0.632881  0.451989  1
  Si  Si20  1  0.234103  0.866985  0.048946  1
  Si  Si21  1  0.265813  0.132892  0.548232  1
  Si  Si22  1  0.766112  0.367137  0.951963  1
  Si  Si23  1  0.009198  0.250002  0.578068  1
  Si  Si24  1  0.509918  0.250000  0.921795  1
  Si  Si25  1  0.990432  0.750001  0.421847  1
  Si  Si26  1  0.490247  0.749999  0.078960  1
  Si  Si27  1  0.234101  0.633011  0.048948  1
  Si  Si28  1  0.733946  0.867120  0.451991  1
  Si  Si29  1  0.766113  0.132863  0.951962  1
  Si  Si30  1  0.265811  0.367112  0.548231  1
  Ge  Ge31  1  0.370759  0.749994  0.904864  1
