# generated using pymatgen
data_YBi5(PtO6)3
_symmetry_space_group_name_H-M   'P 1'
_cell_length_a   9.25343655
_cell_length_b   9.25097776
_cell_length_c   5.16032900
_cell_angle_alpha   89.99998142
_cell_angle_beta   90.19492563
_cell_angle_gamma   119.99117078
_symmetry_Int_Tables_number   1
_chemical_formula_structural   YBi5(PtO6)3
_chemical_formula_sum   'Y1 Bi5 Pt3 O18'
_cell_volume   382.59033354
_cell_formula_units_Z   1
loop_
 _symmetry_equiv_pos_site_id
 _symmetry_equiv_pos_as_xyz
  1  'x, y, z'
loop_
 _atom_site_type_symbol
 _atom_site_label
 _atom_site_symmetry_multiplicity
 _atom_site_fract_x
 _atom_site_fract_y
 _atom_site_fract_z
 _atom_site_occupancy
  Y  Y0  1  0.000005  0.373763  0.499995  1
  Bi  Bi1  1  0.292033  0.294513  0.000676  1
  Bi  Bi2  1  0.999997  0.703307  0.999999  1
  Bi  Bi3  1  0.626401  0.627852  0.498691  1
  Bi  Bi4  1  0.373595  0.001445  0.501300  1
  Bi  Bi5  1  0.707968  0.002484  0.999317  1
  Pt  Pt6  1  0.000000  0.000452  0.500001  1
  Pt  Pt7  1  0.332448  0.665842  0.999566  1
  Pt  Pt8  1  0.667552  0.333395  0.000432  1
  O  O9  1  0.089984  0.208850  0.715248  1
  O  O10  1  0.220469  0.455915  0.215655  1
  O  O11  1  0.125752  0.585383  0.782655  1
  O  O12  1  0.406618  0.535813  0.784917  1
  O  O13  1  0.232667  0.775666  0.214100  1
  O  O14  1  0.117695  0.912719  0.719437  1
  O  O15  1  0.542894  0.767752  0.212813  1
  O  O16  1  0.204369  0.088209  0.279349  1
  O  O17  1  0.462957  0.869876  0.783803  1
  O  O18  1  0.795635  0.883833  0.720669  1
  O  O19  1  0.457107  0.224854  0.787180  1
  O  O20  1  0.593377  0.129190  0.215070  1
  O  O21  1  0.537042  0.406918  0.216192  1
  O  O22  1  0.779542  0.235454  0.784344  1
  O  O23  1  0.910011  0.118862  0.284765  1
  O  O24  1  0.767327  0.543002  0.785904  1
  O  O25  1  0.874248  0.459629  0.217342  1
  O  O26  1  0.882311  0.795021  0.280581  1
