# generated using pymatgen
data_Ac3Tb(Er3In4)2
_symmetry_space_group_name_H-M   'P 1'
_cell_length_a   8.22535500
_cell_length_b   8.37362368
_cell_length_c   15.77952700
_cell_angle_alpha   90.05369241
_cell_angle_beta   90.00000000
_cell_angle_gamma   90.00000000
_symmetry_Int_Tables_number   1
_chemical_formula_structural   Ac3Tb(Er3In4)2
_chemical_formula_sum   'Ac6 Tb2 Er12 In16'
_cell_volume   1086.83065645
_cell_formula_units_Z   2
loop_
 _symmetry_equiv_pos_site_id
 _symmetry_equiv_pos_as_xyz
  1  'x, y, z'
loop_
 _atom_site_type_symbol
 _atom_site_label
 _atom_site_symmetry_multiplicity
 _atom_site_fract_x
 _atom_site_fract_y
 _atom_site_fract_z
 _atom_site_occupancy
  Ac  Ac0  1  0.503383  0.322071  0.906860  1
  Ac  Ac1  1  0.003383  0.177929  0.593140  1
  Ac  Ac2  1  0.495481  0.673858  0.410801  1
  Ac  Ac3  1  0.995481  0.826142  0.089199  1
  Ac  Ac4  1  0.499023  0.679926  0.088818  1
  Ac  Ac5  1  0.999023  0.820074  0.411182  1
  Tb  Tb6  1  0.508218  0.315180  0.599510  1
  Tb  Tb7  1  0.008218  0.184820  0.900490  1
  Er  Er8  1  0.344457  0.834689  0.872994  1
  Er  Er9  1  0.844457  0.665311  0.627006  1
  Er  Er10  1  0.650992  0.169039  0.375107  1
  Er  Er11  1  0.150992  0.330961  0.124893  1
  Er  Er12  1  0.652931  0.164097  0.124996  1
  Er  Er13  1  0.152931  0.335903  0.375004  1
  Er  Er14  1  0.345821  0.835267  0.627688  1
  Er  Er15  1  0.845821  0.664733  0.872312  1
  Er  Er16  1  0.181573  0.501197  0.750409  1
  Er  Er17  1  0.681573  0.998803  0.749591  1
  Er  Er18  1  0.816560  0.495354  0.249501  1
  Er  Er19  1  0.316560  0.004646  0.250499  1
  In  In20  1  0.321639  0.045490  0.037023  1
  In  In21  1  0.821639  0.454510  0.462977  1
  In  In22  1  0.668002  0.967055  0.543392  1
  In  In23  1  0.168002  0.532945  0.956608  1
  In  In24  1  0.682457  0.966160  0.954701  1
  In  In25  1  0.182457  0.533840  0.545299  1
  In  In26  1  0.332406  0.050882  0.463474  1
  In  In27  1  0.832406  0.449118  0.036526  1
  In  In28  1  0.546262  0.616581  0.747602  1
  In  In29  1  0.046262  0.883419  0.752398  1
  In  In30  1  0.451277  0.378239  0.248149  1
  In  In31  1  0.951277  0.121761  0.251851  1
  In  In32  1  0.306172  0.134162  0.749003  1
  In  In33  1  0.806172  0.365838  0.750997  1
  In  In34  1  0.693344  0.869765  0.250571  1
  In  In35  1  0.193344  0.630235  0.249429  1
