# generated using pymatgen
data_Yb4AlCdPd10
_symmetry_space_group_name_H-M   'P 1'
_cell_length_a   4.23363200
_cell_length_b   5.74976173
_cell_length_c   11.35186538
_cell_angle_alpha   88.70829871
_cell_angle_beta   90.00000000
_cell_angle_gamma   90.00000000
_symmetry_Int_Tables_number   1
_chemical_formula_structural   Yb4AlCdPd10
_chemical_formula_sum   'Yb4 Al1 Cd1 Pd10'
_cell_volume   276.26114706
_cell_formula_units_Z   1
loop_
 _symmetry_equiv_pos_site_id
 _symmetry_equiv_pos_as_xyz
  1  'x, y, z'
loop_
 _atom_site_type_symbol
 _atom_site_label
 _atom_site_symmetry_multiplicity
 _atom_site_fract_x
 _atom_site_fract_y
 _atom_site_fract_z
 _atom_site_occupancy
  Yb  Yb0  1  0.500000  0.181382  0.360873  1
  Yb  Yb1  1  0.500000  0.818618  0.639127  1
  Yb  Yb2  1  0.500000  0.696077  0.138931  1
  Yb  Yb3  1  0.500000  0.303923  0.861069  1
  Al  Al4  1  0.000000  0.500000  0.500000  1
  Cd  Cd5  1  0.000000  0.000000  0.000000  1
  Pd  Pd6  1  0.500000  0.213481  0.117677  1
  Pd  Pd7  1  0.500000  0.786519  0.882323  1
  Pd  Pd8  1  0.500000  0.683212  0.397398  1
  Pd  Pd9  1  0.500000  0.316788  0.602602  1
  Pd  Pd10  1  0.000000  0.000000  0.500000  1
  Pd  Pd11  1  0.000000  0.500000  0.000000  1
  Pd  Pd12  1  0.000000  0.943106  0.250627  1
  Pd  Pd13  1  0.000000  0.056894  0.749373  1
  Pd  Pd14  1  0.000000  0.446861  0.262145  1
  Pd  Pd15  1  0.000000  0.553139  0.737855  1
