# generated using pymatgen
data_PrYHo6(CdPt)2
_symmetry_space_group_name_H-M   'P 1'
_cell_length_a   9.71803179
_cell_length_b   9.71471478
_cell_length_c   9.69347301
_cell_angle_alpha   60.09492535
_cell_angle_beta   60.06094734
_cell_angle_gamma   59.84411966
_symmetry_Int_Tables_number   1
_chemical_formula_structural   PrYHo6(CdPt)2
_chemical_formula_sum   'Pr2 Y2 Ho12 Cd4 Pt4'
_cell_volume   647.09472744
_cell_formula_units_Z   2
loop_
 _symmetry_equiv_pos_site_id
 _symmetry_equiv_pos_as_xyz
  1  'x, y, z'
loop_
 _atom_site_type_symbol
 _atom_site_label
 _atom_site_symmetry_multiplicity
 _atom_site_fract_x
 _atom_site_fract_y
 _atom_site_fract_z
 _atom_site_occupancy
  Pr  Pr0  1  0.568293  0.568293  0.931707  1
  Pr  Pr1  1  0.931707  0.931707  0.568293  1
  Y  Y2  1  0.561705  0.938295  0.561705  1
  Y  Y3  1  0.938295  0.561705  0.938295  1
  Ho  Ho4  1  0.352730  0.351657  0.350188  1
  Ho  Ho5  1  0.351657  0.352730  0.945426  1
  Ho  Ho6  1  0.350188  0.945426  0.352730  1
  Ho  Ho7  1  0.945426  0.350188  0.351657  1
  Ho  Ho8  1  0.811252  0.188748  0.188748  1
  Ho  Ho9  1  0.188748  0.811252  0.811252  1
  Ho  Ho10  1  0.189226  0.810774  0.189226  1
  Ho  Ho11  1  0.810774  0.189226  0.810774  1
  Ho  Ho12  1  0.189551  0.189551  0.810449  1
  Ho  Ho13  1  0.810449  0.810449  0.189551  1
  Ho  Ho14  1  0.940664  0.559336  0.559336  1
  Ho  Ho15  1  0.559336  0.940664  0.940664  1
  Cd  Cd16  1  0.583071  0.582143  0.577564  1
  Cd  Cd17  1  0.582143  0.583071  0.257221  1
  Cd  Cd18  1  0.577564  0.257221  0.583071  1
  Cd  Cd19  1  0.257221  0.577564  0.582143  1
  Pt  Pt20  1  0.145469  0.143736  0.139970  1
  Pt  Pt21  1  0.143736  0.145469  0.570825  1
  Pt  Pt22  1  0.139970  0.570825  0.145469  1
  Pt  Pt23  1  0.570825  0.139970  0.143736  1
