# generated using pymatgen
data_Ca2SiPdI
_symmetry_space_group_name_H-M   'P 1'
_cell_length_a   4.19435800
_cell_length_b   4.19435836
_cell_length_c   8.82598700
_cell_angle_alpha   90.00000000
_cell_angle_beta   90.00000000
_cell_angle_gamma   119.99999714
_symmetry_Int_Tables_number   1
_chemical_formula_structural   Ca2SiPdI
_chemical_formula_sum   'Ca2 Si1 Pd1 I1'
_cell_volume   134.46986137
_cell_formula_units_Z   1
loop_
 _symmetry_equiv_pos_site_id
 _symmetry_equiv_pos_as_xyz
  1  'x, y, z'
loop_
 _atom_site_type_symbol
 _atom_site_label
 _atom_site_symmetry_multiplicity
 _atom_site_fract_x
 _atom_site_fract_y
 _atom_site_fract_z
 _atom_site_occupancy
  Ca  Ca0  1  0.000000  0.000000  0.220020  1
  Ca  Ca1  1  0.000000  0.000000  0.779980  1
  Si  Si2  1  0.333333  0.666667  0.000000  1
  Pd  Pd3  1  0.666667  0.333333  0.000000  1
  I  I4  1  0.666667  0.333333  0.500000  1
