# generated using pymatgen
data_MnFeAg(P2O7)2
_symmetry_space_group_name_H-M   'P 1'
_cell_length_a   4.94926484
_cell_length_b   6.96284422
_cell_length_c   7.97738161
_cell_angle_alpha   91.41552284
_cell_angle_beta   95.95984538
_cell_angle_gamma   103.72000965
_symmetry_Int_Tables_number   1
_chemical_formula_structural   MnFeAg(P2O7)2
_chemical_formula_sum   'Mn1 Fe1 Ag1 P4 O14'
_cell_volume   265.27418530
_cell_formula_units_Z   1
loop_
 _symmetry_equiv_pos_site_id
 _symmetry_equiv_pos_as_xyz
  1  'x, y, z'
loop_
 _atom_site_type_symbol
 _atom_site_label
 _atom_site_symmetry_multiplicity
 _atom_site_fract_x
 _atom_site_fract_y
 _atom_site_fract_z
 _atom_site_occupancy
  Mn  Mn0  1  0.500000  0.500000  0.500000  1
  Fe  Fe1  1  0.000000  0.000000  0.000000  1
  Ag  Ag2  1  0.000000  0.000000  0.500000  1
  P  P3  1  0.375573  0.767446  0.791289  1
  P  P4  1  0.624427  0.232554  0.208711  1
  P  P5  1  0.015220  0.625996  0.253892  1
  P  P6  1  0.984780  0.374004  0.746108  1
  O  O7  1  0.093729  0.789784  0.134938  1
  O  O8  1  0.906271  0.210216  0.865062  1
  O  O9  1  0.453530  0.742514  0.610425  1
  O  O10  1  0.546470  0.257486  0.389575  1
  O  O11  1  0.220082  0.549232  0.846605  1
  O  O12  1  0.779918  0.450768  0.153395  1
  O  O13  1  0.163968  0.900585  0.783959  1
  O  O14  1  0.836032  0.099415  0.216041  1
  O  O15  1  0.266386  0.540685  0.305400  1
  O  O16  1  0.733614  0.459315  0.694600  1
  O  O17  1  0.621417  0.832154  0.925097  1
  O  O18  1  0.378583  0.167846  0.074903  1
  O  O19  1  0.124180  0.307607  0.595086  1
  O  O20  1  0.875820  0.692393  0.404914  1
