# generated using pymatgen
data_DyY3Hf3O12
_symmetry_space_group_name_H-M   'P 1'
_cell_length_a   6.33110350
_cell_length_b   6.37999570
_cell_length_c   6.59577901
_cell_angle_alpha   99.93977743
_cell_angle_beta   98.13546730
_cell_angle_gamma   99.77681962
_symmetry_Int_Tables_number   1
_chemical_formula_structural   DyY3Hf3O12
_chemical_formula_sum   'Dy1 Y3 Hf3 O12'
_cell_volume   254.57304840
_cell_formula_units_Z   1
loop_
 _symmetry_equiv_pos_site_id
 _symmetry_equiv_pos_as_xyz
  1  'x, y, z'
loop_
 _atom_site_type_symbol
 _atom_site_label
 _atom_site_symmetry_multiplicity
 _atom_site_fract_x
 _atom_site_fract_y
 _atom_site_fract_z
 _atom_site_occupancy
  Dy  Dy0  1  0.697019  0.865511  0.389313  1
  Y  Y1  1  0.385151  0.699515  0.867053  1
  Y  Y2  1  0.302760  0.134400  0.610384  1
  Y  Y3  1  0.614890  0.300526  0.133011  1
  Hf  Hf4  1  0.999944  0.999954  0.999999  1
  Hf  Hf5  1  0.848084  0.398232  0.666778  1
  Hf  Hf6  1  0.151798  0.601770  0.333114  1
  O  O7  1  0.588175  0.416467  0.819286  1
  O  O8  1  0.831049  0.571674  0.426569  1
  O  O9  1  0.408122  0.809197  0.563879  1
  O  O10  1  0.412215  0.583981  0.181024  1
  O  O11  1  0.168828  0.428675  0.573464  1
  O  O12  1  0.592527  0.190571  0.435782  1
  O  O13  1  0.016866  0.679898  0.876150  1
  O  O14  1  0.919790  0.090614  0.700584  1
  O  O15  1  0.687054  0.933749  0.058953  1
  O  O16  1  0.983152  0.320105  0.123853  1
  O  O17  1  0.079636  0.909045  0.299105  1
  O  O18  1  0.312939  0.066114  0.941698  1
