# generated using pymatgen
data_Tb14Er6Si15Ru
_symmetry_space_group_name_H-M   'P 1'
_cell_length_a   7.37310769
_cell_length_b   7.76672775
_cell_length_c   14.56099822
_cell_angle_alpha   90.07293710
_cell_angle_beta   90.12922845
_cell_angle_gamma   89.96521848
_symmetry_Int_Tables_number   1
_chemical_formula_structural   Tb14Er6Si15Ru
_chemical_formula_sum   'Tb14 Er6 Si15 Ru1'
_cell_volume   833.83145183
_cell_formula_units_Z   1
loop_
 _symmetry_equiv_pos_site_id
 _symmetry_equiv_pos_as_xyz
  1  'x, y, z'
loop_
 _atom_site_type_symbol
 _atom_site_label
 _atom_site_symmetry_multiplicity
 _atom_site_fract_x
 _atom_site_fract_y
 _atom_site_fract_z
 _atom_site_occupancy
  Tb  Tb0  1  0.317910  0.819488  0.123560  1
  Tb  Tb1  1  0.817400  0.677902  0.377158  1
  Tb  Tb2  1  0.317991  0.820002  0.376537  1
  Tb  Tb3  1  0.816902  0.677639  0.122736  1
  Tb  Tb4  1  0.671680  0.185058  0.873800  1
  Tb  Tb5  1  0.194336  0.325118  0.627900  1
  Tb  Tb6  1  0.522413  0.674269  0.594816  1
  Tb  Tb7  1  0.025102  0.816902  0.903581  1
  Tb  Tb8  1  0.472734  0.314856  0.097124  1
  Tb  Tb9  1  0.973958  0.182796  0.403594  1
  Tb  Tb10  1  0.473670  0.314896  0.403188  1
  Tb  Tb11  1  0.974062  0.182785  0.096344  1
  Tb  Tb12  1  0.521195  0.673958  0.904868  1
  Tb  Tb13  1  0.025263  0.816438  0.596483  1
  Er  Er14  1  0.672466  0.184638  0.626084  1
  Er  Er15  1  0.193959  0.325723  0.872144  1
  Er  Er16  1  0.838488  0.514142  0.749880  1
  Er  Er17  1  0.354279  0.981019  0.749977  1
  Er  Er18  1  0.150397  0.483000  0.250144  1
  Er  Er19  1  0.649289  0.015221  0.250123  1
  Si  Si20  1  0.647228  0.973190  0.461178  1
  Si  Si21  1  0.150617  0.526719  0.038707  1
  Si  Si22  1  0.347698  0.026887  0.960134  1
  Si  Si23  1  0.855442  0.468710  0.540062  1
  Si  Si24  1  0.350818  0.026137  0.540188  1
  Si  Si25  1  0.859034  0.469205  0.959391  1
  Si  Si26  1  0.645731  0.972574  0.039692  1
  Si  Si27  1  0.149697  0.527344  0.460686  1
  Si  Si28  1  0.981493  0.102192  0.749790  1
  Si  Si29  1  0.521943  0.600683  0.250009  1
  Si  Si30  1  0.018100  0.896975  0.249984  1
  Si  Si31  1  0.740350  0.877106  0.749334  1
  Si  Si32  1  0.228357  0.633628  0.750969  1
  Si  Si33  1  0.266312  0.128272  0.249998  1
  Si  Si34  1  0.768849  0.371361  0.250029  1
  Ru  Ru35  1  0.484838  0.413168  0.749810  1
