# generated using pymatgen
data_Li4DyLu3Pt4
_symmetry_space_group_name_H-M   'P 1'
_cell_length_a   3.99473000
_cell_length_b   6.93180336
_cell_length_c   8.29517168
_cell_angle_alpha   89.72161988
_cell_angle_beta   90.00000000
_cell_angle_gamma   90.00000000
_symmetry_Int_Tables_number   1
_chemical_formula_structural   Li4DyLu3Pt4
_chemical_formula_sum   'Li4 Dy1 Lu3 Pt4'
_cell_volume   229.69625676
_cell_formula_units_Z   1
loop_
 _symmetry_equiv_pos_site_id
 _symmetry_equiv_pos_as_xyz
  1  'x, y, z'
loop_
 _atom_site_type_symbol
 _atom_site_label
 _atom_site_symmetry_multiplicity
 _atom_site_fract_x
 _atom_site_fract_y
 _atom_site_fract_z
 _atom_site_occupancy
  Li  Li0  1  0.250000  0.632043  0.560805  1
  Li  Li1  1  0.750000  0.367506  0.440873  1
  Li  Li2  1  0.750000  0.869529  0.059340  1
  Li  Li3  1  0.250000  0.129161  0.939500  1
  Dy  Dy4  1  0.250000  0.541980  0.180555  1
  Lu  Lu5  1  0.750000  0.457633  0.818372  1
  Lu  Lu6  1  0.750000  0.959271  0.680223  1
  Lu  Lu7  1  0.250000  0.042685  0.322204  1
  Pt  Pt8  1  0.250000  0.746374  0.872615  1
  Pt  Pt9  1  0.750000  0.248791  0.122127  1
  Pt  Pt10  1  0.750000  0.758144  0.379352  1
  Pt  Pt11  1  0.250000  0.246884  0.624033  1
