# generated using pymatgen
data_Hg4SbS2Cl5
_symmetry_space_group_name_H-M   'P 1'
_cell_length_a   8.24156337
_cell_length_b   10.70583200
_cell_length_c   9.01868454
_cell_angle_alpha   90.00000000
_cell_angle_beta   113.06605538
_cell_angle_gamma   90.00000000
_symmetry_Int_Tables_number   1
_chemical_formula_structural   Hg4SbS2Cl5
_chemical_formula_sum   'Hg8 Sb2 S4 Cl10'
_cell_volume   732.12701775
_cell_formula_units_Z   2
loop_
 _symmetry_equiv_pos_site_id
 _symmetry_equiv_pos_as_xyz
  1  'x, y, z'
loop_
 _atom_site_type_symbol
 _atom_site_label
 _atom_site_symmetry_multiplicity
 _atom_site_fract_x
 _atom_site_fract_y
 _atom_site_fract_z
 _atom_site_occupancy
  Hg  Hg0  1  0.926073  0.181278  0.329388  1
  Hg  Hg1  1  0.073927  0.681278  0.670612  1
  Hg  Hg2  1  0.950183  0.668344  0.356063  1
  Hg  Hg3  1  0.049817  0.168344  0.643937  1
  Hg  Hg4  1  0.497090  0.181211  0.986053  1
  Hg  Hg5  1  0.502910  0.681211  0.013947  1
  Hg  Hg6  1  0.805442  0.432087  0.015101  1
  Hg  Hg7  1  0.194558  0.932087  0.984899  1
  Sb  Sb8  1  0.500361  0.424409  0.510576  1
  Sb  Sb9  1  0.499639  0.924409  0.489424  1
  S  S10  1  0.802067  0.204247  0.028832  1
  S  S11  1  0.197933  0.704247  0.971168  1
  S  S12  1  0.192680  0.157729  0.944759  1
  S  S13  1  0.807320  0.657729  0.055241  1
  Cl  Cl14  1  0.831503  0.922200  0.684403  1
  Cl  Cl15  1  0.168497  0.422200  0.315597  1
  Cl  Cl16  1  0.850244  0.435023  0.709607  1
  Cl  Cl17  1  0.149756  0.935023  0.290393  1
  Cl  Cl18  1  0.405390  0.453969  0.768075  1
  Cl  Cl19  1  0.594610  0.953969  0.231925  1
  Cl  Cl20  1  0.590763  0.395407  0.267247  1
  Cl  Cl21  1  0.409237  0.895407  0.732753  1
  Cl  Cl22  1  0.498650  0.197698  0.563742  1
  Cl  Cl23  1  0.501350  0.697698  0.436258  1
