# generated using pymatgen
data_Li2Hf6TcOs3
_symmetry_space_group_name_H-M   'P 1'
_cell_length_a   4.61126300
_cell_length_b   6.54258500
_cell_length_c   13.86549000
_cell_angle_alpha   90.00000000
_cell_angle_beta   89.99994622
_cell_angle_gamma   90.00000000
_symmetry_Int_Tables_number   1
_chemical_formula_structural   Li2Hf6TcOs3
_chemical_formula_sum   'Li4 Hf12 Tc2 Os6'
_cell_volume   418.31601166
_cell_formula_units_Z   2
loop_
 _symmetry_equiv_pos_site_id
 _symmetry_equiv_pos_as_xyz
  1  'x, y, z'
loop_
 _atom_site_type_symbol
 _atom_site_label
 _atom_site_symmetry_multiplicity
 _atom_site_fract_x
 _atom_site_fract_y
 _atom_site_fract_z
 _atom_site_occupancy
  Li  Li0  1  0.000001  0.000000  0.999434  1
  Li  Li1  1  0.499978  0.500000  0.166014  1
  Li  Li2  1  0.000010  0.000000  0.333845  1
  Li  Li3  1  0.499995  0.500000  0.500551  1
  Hf  Hf4  1  0.500005  0.252620  0.997599  1
  Hf  Hf5  1  0.500005  0.747381  0.997599  1
  Hf  Hf6  1  0.999999  0.250387  0.166737  1
  Hf  Hf7  1  0.999999  0.749614  0.166737  1
  Hf  Hf8  1  0.500004  0.249601  0.333120  1
  Hf  Hf9  1  0.500004  0.750399  0.333120  1
  Hf  Hf10  1  0.999993  0.247381  0.502412  1
  Hf  Hf11  1  0.999993  0.752619  0.502412  1
  Hf  Hf12  1  0.500003  0.248838  0.668354  1
  Hf  Hf13  1  0.500003  0.751162  0.668354  1
  Hf  Hf14  1  0.000003  0.251218  0.831736  1
  Hf  Hf15  1  0.000003  0.748783  0.831736  1
  Tc  Tc16  1  0.999998  0.000000  0.666208  1
  Tc  Tc17  1  0.499996  0.500000  0.834109  1
  Os  Os18  1  0.999994  0.500000  0.003897  1
  Os  Os19  1  0.500003  0.000000  0.168256  1
  Os  Os20  1  0.000010  0.500000  0.331411  1
  Os  Os21  1  0.500007  0.000000  0.496077  1
  Os  Os22  1  0.999997  0.500000  0.663438  1
  Os  Os23  1  0.499996  0.000000  0.836846  1
