# generated using pymatgen
data_Pr3Cd3CuPtAu
_symmetry_space_group_name_H-M   'P 1'
_cell_length_a   7.97678500
_cell_length_b   7.97678523
_cell_length_c   3.90427500
_cell_angle_alpha   90.00000000
_cell_angle_beta   90.00000000
_cell_angle_gamma   119.99999492
_symmetry_Int_Tables_number   1
_chemical_formula_structural   Pr3Cd3CuPtAu
_chemical_formula_sum   'Pr3 Cd3 Cu1 Pt1 Au1'
_cell_volume   215.14281128
_cell_formula_units_Z   1
loop_
 _symmetry_equiv_pos_site_id
 _symmetry_equiv_pos_as_xyz
  1  'x, y, z'
loop_
 _atom_site_type_symbol
 _atom_site_label
 _atom_site_symmetry_multiplicity
 _atom_site_fract_x
 _atom_site_fract_y
 _atom_site_fract_z
 _atom_site_occupancy
  Pr  Pr0  1  0.582342  0.986521  0.000000  1
  Pr  Pr1  1  0.013479  0.595821  0.000000  1
  Pr  Pr2  1  0.404179  0.417658  0.000000  1
  Cd  Cd3  1  0.246211  0.002601  0.500000  1
  Cd  Cd4  1  0.997399  0.243610  0.500000  1
  Cd  Cd5  1  0.756390  0.753789  0.500000  1
  Cu  Cu6  1  0.000000  0.000000  0.000000  1
  Pt  Pt7  1  0.333333  0.666667  0.500000  1
  Au  Au8  1  0.666667  0.333333  0.500000  1
