# generated using pymatgen
data_Ce3Pr(WN3)4
_symmetry_space_group_name_H-M   'P 1'
_cell_length_a   5.56375478
_cell_length_b   5.65545425
_cell_length_c   7.93662700
_cell_angle_alpha   90.00000000
_cell_angle_beta   90.00000000
_cell_angle_gamma   89.81684715
_symmetry_Int_Tables_number   1
_chemical_formula_structural   Ce3Pr(WN3)4
_chemical_formula_sum   'Ce3 Pr1 W4 N12'
_cell_volume   249.72914184
_cell_formula_units_Z   1
loop_
 _symmetry_equiv_pos_site_id
 _symmetry_equiv_pos_as_xyz
  1  'x, y, z'
loop_
 _atom_site_type_symbol
 _atom_site_label
 _atom_site_symmetry_multiplicity
 _atom_site_fract_x
 _atom_site_fract_y
 _atom_site_fract_z
 _atom_site_occupancy
  Ce  Ce0  1  0.493343  0.450920  0.250000  1
  Ce  Ce1  1  0.006831  0.951540  0.250000  1
  Ce  Ce2  1  0.497302  0.550027  0.750000  1
  Pr  Pr3  1  0.995856  0.042864  0.750000  1
  W  W4  1  0.503030  0.001142  0.499406  1
  W  W5  1  0.997226  0.500995  0.000923  1
  W  W6  1  0.997226  0.500995  0.499077  1
  W  W7  1  0.503030  0.001142  0.000594  1
  N  N8  1  0.700430  0.298557  0.537695  1
  N  N9  1  0.298187  0.702031  0.039505  1
  N  N10  1  0.202559  0.202611  0.043642  1
  N  N11  1  0.435838  0.983575  0.750000  1
  N  N12  1  0.924058  0.517016  0.250000  1
  N  N13  1  0.298187  0.702031  0.460495  1
  N  N14  1  0.794104  0.792241  0.967727  1
  N  N15  1  0.700430  0.298557  0.962305  1
  N  N16  1  0.794104  0.792241  0.532273  1
  N  N17  1  0.076377  0.488666  0.750000  1
  N  N18  1  0.202559  0.202611  0.456358  1
  N  N19  1  0.579320  0.020234  0.250000  1
