# generated using pymatgen
data_Pr2Er18Si15As
_symmetry_space_group_name_H-M   'P 1'
_cell_length_a   7.47123627
_cell_length_b   7.63453692
_cell_length_c   14.55241571
_cell_angle_alpha   90.06726145
_cell_angle_beta   93.50379763
_cell_angle_gamma   90.09101680
_symmetry_Int_Tables_number   1
_chemical_formula_structural   Pr2Er18Si15As
_chemical_formula_sum   'Pr2 Er18 Si15 As1'
_cell_volume   828.50817570
_cell_formula_units_Z   1
loop_
 _symmetry_equiv_pos_site_id
 _symmetry_equiv_pos_as_xyz
  1  'x, y, z'
loop_
 _atom_site_type_symbol
 _atom_site_label
 _atom_site_symmetry_multiplicity
 _atom_site_fract_x
 _atom_site_fract_y
 _atom_site_fract_z
 _atom_site_occupancy
  Pr  Pr0  1  0.003549  0.816967  0.598292  1
  Pr  Pr1  1  0.502398  0.678554  0.597288  1
  Er  Er2  1  0.321192  0.823763  0.122785  1
  Er  Er3  1  0.821750  0.676278  0.123009  1
  Er  Er4  1  0.834719  0.505464  0.747276  1
  Er  Er5  1  0.471297  0.314578  0.101988  1
  Er  Er6  1  0.029316  0.814864  0.898826  1
  Er  Er7  1  0.495704  0.318924  0.400693  1
  Er  Er8  1  0.663921  0.006320  0.251271  1
  Er  Er9  1  0.529974  0.686630  0.898897  1
  Er  Er10  1  0.677311  0.177379  0.879741  1
  Er  Er11  1  0.151258  0.333827  0.622176  1
  Er  Er12  1  0.177757  0.323320  0.879741  1
  Er  Er13  1  0.848602  0.664608  0.376843  1
  Er  Er14  1  0.346438  0.833149  0.378998  1
  Er  Er15  1  0.335535  0.995191  0.746394  1
  Er  Er16  1  0.650250  0.166051  0.619998  1
  Er  Er17  1  0.165336  0.493544  0.253280  1
  Er  Er18  1  0.971823  0.185321  0.101571  1
  Er  Er19  1  0.002299  0.182707  0.400230  1
  Si  Si20  1  0.220646  0.626819  0.755960  1
  Si  Si21  1  0.298957  0.045232  0.539692  1
  Si  Si22  1  0.037052  0.891745  0.248372  1
  Si  Si23  1  0.719651  0.874457  0.755159  1
  Si  Si24  1  0.283015  0.130071  0.248545  1
  Si  Si25  1  0.807240  0.454220  0.538326  1
  Si  Si26  1  0.462134  0.388894  0.754254  1
  Si  Si27  1  0.191970  0.531107  0.454719  1
  Si  Si28  1  0.143128  0.528060  0.043495  1
  Si  Si29  1  0.960722  0.111516  0.753933  1
  Si  Si30  1  0.782151  0.368406  0.248024  1
  Si  Si31  1  0.355580  0.028325  0.958301  1
  Si  Si32  1  0.856053  0.473091  0.957683  1
  Si  Si33  1  0.644012  0.972239  0.043126  1
  Si  Si34  1  0.536796  0.609273  0.247906  1
  As  As35  1  0.700464  0.969107  0.453211  1
