# generated using pymatgen
data_Rb3Li3(TaS4)2
_symmetry_space_group_name_H-M   'P 1'
_cell_length_a   12.97982597
_cell_length_b   12.97982635
_cell_length_c   14.64046786
_cell_angle_alpha   62.36385722
_cell_angle_beta   62.36385644
_cell_angle_gamma   26.84671201
_symmetry_Int_Tables_number   1
_chemical_formula_structural   Rb3Li3(TaS4)2
_chemical_formula_sum   'Rb6 Li6 Ta4 S16'
_cell_volume   979.09326631
_cell_formula_units_Z   2
loop_
 _symmetry_equiv_pos_site_id
 _symmetry_equiv_pos_as_xyz
  1  'x, y, z'
loop_
 _atom_site_type_symbol
 _atom_site_label
 _atom_site_symmetry_multiplicity
 _atom_site_fract_x
 _atom_site_fract_y
 _atom_site_fract_z
 _atom_site_occupancy
  Rb  Rb0  1  0.626529  0.765035  0.399809  1
  Rb  Rb1  1  0.000000  0.000000  0.000000  1
  Rb  Rb2  1  0.765035  0.626529  0.899809  1
  Rb  Rb3  1  0.000000  0.000000  0.500000  1
  Rb  Rb4  1  0.234965  0.373471  0.100191  1
  Rb  Rb5  1  0.373471  0.234965  0.600191  1
  Li  Li6  1  0.307434  0.692566  0.750000  1
  Li  Li7  1  0.331020  0.914859  0.213013  1
  Li  Li8  1  0.914859  0.331020  0.713013  1
  Li  Li9  1  0.085141  0.668980  0.286987  1
  Li  Li10  1  0.692566  0.307434  0.250000  1
  Li  Li11  1  0.668980  0.085141  0.786987  1
  Ta  Ta12  1  0.581331  0.165121  0.277560  1
  Ta  Ta13  1  0.165121  0.581331  0.777560  1
  Ta  Ta14  1  0.834879  0.418669  0.222440  1
  Ta  Ta15  1  0.418669  0.834879  0.722440  1
  S  S16  1  0.464316  0.437079  0.665070  1
  S  S17  1  0.203128  0.106590  0.810674  1
  S  S18  1  0.437079  0.464316  0.165070  1
  S  S19  1  0.796872  0.893410  0.189326  1
  S  S20  1  0.562921  0.535684  0.834930  1
  S  S21  1  0.314610  0.276139  0.878896  1
  S  S22  1  0.723861  0.685390  0.621104  1
  S  S23  1  0.276139  0.314610  0.378896  1
  S  S24  1  0.893410  0.796872  0.689326  1
  S  S25  1  0.183312  0.000236  0.629071  1
  S  S26  1  0.685390  0.723861  0.121104  1
  S  S27  1  0.535684  0.562921  0.334930  1
  S  S28  1  0.999764  0.816688  0.870929  1
  S  S29  1  0.106590  0.203128  0.310674  1
  S  S30  1  0.816688  0.999764  0.370929  1
  S  S31  1  0.000236  0.183312  0.129071  1
