# generated using pymatgen
data_BaP2OsRh
_symmetry_space_group_name_H-M   'P 1'
_cell_length_a   6.89688971
_cell_length_b   6.89688958
_cell_length_c   6.89688985
_cell_angle_alpha   146.05075660
_cell_angle_beta   146.05075962
_cell_angle_gamma   48.77138308
_symmetry_Int_Tables_number   1
_chemical_formula_structural   BaP2OsRh
_chemical_formula_sum   'Ba1 P2 Os1 Rh1'
_cell_volume   101.87035437
_cell_formula_units_Z   1
loop_
 _symmetry_equiv_pos_site_id
 _symmetry_equiv_pos_as_xyz
  1  'x, y, z'
loop_
 _atom_site_type_symbol
 _atom_site_label
 _atom_site_symmetry_multiplicity
 _atom_site_fract_x
 _atom_site_fract_y
 _atom_site_fract_z
 _atom_site_occupancy
  Ba  Ba0  1  0.000000  0.000000  0.000000  1
  P  P1  1  0.652802  0.652802  0.000000  1
  P  P2  1  0.347198  0.347198  0.000000  1
  Os  Os3  1  0.750000  0.250000  0.500000  1
  Rh  Rh4  1  0.250000  0.750000  0.500000  1
