# generated using pymatgen
data_Ti17Si16Mo3
_symmetry_space_group_name_H-M   'P 1'
_cell_length_a   6.67439238
_cell_length_b   6.67439238
_cell_length_c   12.18386751
_cell_angle_alpha   89.97662422
_cell_angle_beta   90.02337578
_cell_angle_gamma   89.96890960
_symmetry_Int_Tables_number   1
_chemical_formula_structural   Ti17Si16Mo3
_chemical_formula_sum   'Ti17 Si16 Mo3'
_cell_volume   542.76083444
_cell_formula_units_Z   1
loop_
 _symmetry_equiv_pos_site_id
 _symmetry_equiv_pos_as_xyz
  1  'x, y, z'
loop_
 _atom_site_type_symbol
 _atom_site_label
 _atom_site_symmetry_multiplicity
 _atom_site_fract_x
 _atom_site_fract_y
 _atom_site_fract_z
 _atom_site_occupancy
  Ti  Ti0  1  0.996338  0.149075  0.622098  1
  Ti  Ti1  1  0.351359  0.495329  0.871532  1
  Ti  Ti2  1  0.648520  0.505074  0.371659  1
  Ti  Ti3  1  0.495329  0.351359  0.128468  1
  Ti  Ti4  1  0.505074  0.648520  0.628341  1
  Ti  Ti5  1  0.004902  0.850558  0.120880  1
  Ti  Ti6  1  0.149075  0.996338  0.377902  1
  Ti  Ti7  1  0.850558  0.004902  0.879120  1
  Ti  Ti8  1  0.001254  0.343390  0.221413  1
  Ti  Ti9  1  0.155963  0.502030  0.470742  1
  Ti  Ti10  1  0.841510  0.499278  0.971988  1
  Ti  Ti11  1  0.502030  0.155963  0.529258  1
  Ti  Ti12  1  0.499278  0.841510  0.028012  1
  Ti  Ti13  1  0.999060  0.658070  0.720702  1
  Ti  Ti14  1  0.343390  0.001254  0.778587  1
  Ti  Ti15  1  0.658070  0.999060  0.279298  1
  Ti  Ti16  1  0.829158  0.829158  0.500000  1
  Si  Si17  1  0.043873  0.302060  0.813969  1
  Si  Si18  1  0.197607  0.543248  0.063783  1
  Si  Si19  1  0.802095  0.455453  0.564035  1
  Si  Si20  1  0.543248  0.197607  0.936217  1
  Si  Si21  1  0.455453  0.802095  0.435965  1
  Si  Si22  1  0.956105  0.698729  0.314618  1
  Si  Si23  1  0.302060  0.043873  0.186031  1
  Si  Si24  1  0.698729  0.956105  0.685382  1
  Si  Si25  1  0.294205  0.358420  0.672228  1
  Si  Si26  1  0.142049  0.794401  0.922001  1
  Si  Si27  1  0.857391  0.205440  0.423704  1
  Si  Si28  1  0.794401  0.142049  0.077999  1
  Si  Si29  1  0.205440  0.857391  0.576296  1
  Si  Si30  1  0.705918  0.642112  0.172878  1
  Si  Si31  1  0.358420  0.294205  0.327772  1
  Si  Si32  1  0.642112  0.705918  0.827122  1
  Mo  Mo33  1  0.171206  0.171206  0.000000  1
  Mo  Mo34  1  0.327866  0.670956  0.249344  1
  Mo  Mo35  1  0.670956  0.327866  0.750656  1
