# generated using pymatgen
data_Li4GeP3Ir4
_symmetry_space_group_name_H-M   'P 1'
_cell_length_a   3.90014200
_cell_length_b   6.64577604
_cell_length_c   6.78770326
_cell_angle_alpha   90.85350730
_cell_angle_beta   90.00000000
_cell_angle_gamma   90.00000000
_symmetry_Int_Tables_number   1
_chemical_formula_structural   Li4GeP3Ir4
_chemical_formula_sum   'Li4 Ge1 P3 Ir4'
_cell_volume   175.91415281
_cell_formula_units_Z   1
loop_
 _symmetry_equiv_pos_site_id
 _symmetry_equiv_pos_as_xyz
  1  'x, y, z'
loop_
 _atom_site_type_symbol
 _atom_site_label
 _atom_site_symmetry_multiplicity
 _atom_site_fract_x
 _atom_site_fract_y
 _atom_site_fract_z
 _atom_site_occupancy
  Li  Li0  1  0.250000  0.027248  0.837388  1
  Li  Li1  1  0.250000  0.518463  0.659190  1
  Li  Li2  1  0.750000  0.988187  0.162589  1
  Li  Li3  1  0.750000  0.474867  0.342063  1
  Ge  Ge4  1  0.750000  0.714728  0.867742  1
  P  P5  1  0.250000  0.791914  0.369706  1
  P  P6  1  0.250000  0.285301  0.131752  1
  P  P7  1  0.750000  0.213811  0.627676  1
  Ir  Ir8  1  0.250000  0.149860  0.446966  1
  Ir  Ir9  1  0.250000  0.633499  0.071370  1
  Ir  Ir10  1  0.750000  0.862740  0.537762  1
  Ir  Ir11  1  0.750000  0.339383  0.945797  1
