# generated using pymatgen
data_Y20TcNiAg6
_symmetry_space_group_name_H-M   'P 1'
_cell_length_a   9.52838400
_cell_length_b   9.52838435
_cell_length_c   9.69918900
_cell_angle_alpha   90.00000000
_cell_angle_beta   90.00000000
_cell_angle_gamma   119.99999880
_symmetry_Int_Tables_number   1
_chemical_formula_structural   Y20TcNiAg6
_chemical_formula_sum   'Y20 Tc1 Ni1 Ag6'
_cell_volume   762.61365484
_cell_formula_units_Z   1
loop_
 _symmetry_equiv_pos_site_id
 _symmetry_equiv_pos_as_xyz
  1  'x, y, z'
loop_
 _atom_site_type_symbol
 _atom_site_label
 _atom_site_symmetry_multiplicity
 _atom_site_fract_x
 _atom_site_fract_y
 _atom_site_fract_z
 _atom_site_occupancy
  Y  Y0  1  0.000000  0.000000  0.501203  1
  Y  Y1  1  0.000000  0.000000  0.998797  1
  Y  Y2  1  0.541486  0.458514  0.250000  1
  Y  Y3  1  0.541486  0.082973  0.250000  1
  Y  Y4  1  0.917027  0.458514  0.250000  1
  Y  Y5  1  0.456997  0.543003  0.750000  1
  Y  Y6  1  0.456997  0.913993  0.750000  1
  Y  Y7  1  0.086007  0.543003  0.750000  1
  Y  Y8  1  0.208374  0.791626  0.440646  1
  Y  Y9  1  0.208374  0.416749  0.440646  1
  Y  Y10  1  0.583251  0.791626  0.440646  1
  Y  Y11  1  0.790046  0.209954  0.561577  1
  Y  Y12  1  0.790046  0.580092  0.561577  1
  Y  Y13  1  0.419908  0.209954  0.561577  1
  Y  Y14  1  0.790046  0.209954  0.938423  1
  Y  Y15  1  0.790046  0.580092  0.938423  1
  Y  Y16  1  0.419908  0.209954  0.938423  1
  Y  Y17  1  0.208374  0.791626  0.059354  1
  Y  Y18  1  0.208374  0.416749  0.059354  1
  Y  Y19  1  0.583251  0.791626  0.059354  1
  Tc  Tc20  1  0.333333  0.666667  0.250000  1
  Ni  Ni21  1  0.666667  0.333333  0.750000  1
  Ag  Ag22  1  0.883306  0.116694  0.250000  1
  Ag  Ag23  1  0.883306  0.766612  0.250000  1
  Ag  Ag24  1  0.233388  0.116694  0.250000  1
  Ag  Ag25  1  0.115973  0.884027  0.750000  1
  Ag  Ag26  1  0.115973  0.231948  0.750000  1
  Ag  Ag27  1  0.768052  0.884027  0.750000  1
