# generated using pymatgen
data_Ho7Co6Sn22Au
_symmetry_space_group_name_H-M   'P 1'
_cell_length_a   9.65608700
_cell_length_b   9.65608569
_cell_length_c   9.94742000
_cell_angle_alpha   90.00000000
_cell_angle_beta   90.00000000
_cell_angle_gamma   119.99999420
_symmetry_Int_Tables_number   1
_chemical_formula_structural   Ho7Co6Sn22Au
_chemical_formula_sum   'Ho7 Co6 Sn22 Au1'
_cell_volume   803.23642304
_cell_formula_units_Z   1
loop_
 _symmetry_equiv_pos_site_id
 _symmetry_equiv_pos_as_xyz
  1  'x, y, z'
loop_
 _atom_site_type_symbol
 _atom_site_label
 _atom_site_symmetry_multiplicity
 _atom_site_fract_x
 _atom_site_fract_y
 _atom_site_fract_z
 _atom_site_occupancy
  Ho  Ho0  1  0.000000  0.000000  0.000000  1
  Ho  Ho1  1  0.521022  0.478978  0.693204  1
  Ho  Ho2  1  0.521022  0.042042  0.693204  1
  Ho  Ho3  1  0.957958  0.478978  0.693204  1
  Ho  Ho4  1  0.042042  0.521022  0.306796  1
  Ho  Ho5  1  0.478978  0.957958  0.306796  1
  Ho  Ho6  1  0.478978  0.521022  0.306796  1
  Co  Co7  1  0.167886  0.832114  0.803137  1
  Co  Co8  1  0.167886  0.335771  0.803137  1
  Co  Co9  1  0.664229  0.832114  0.803137  1
  Co  Co10  1  0.335771  0.167886  0.196863  1
  Co  Co11  1  0.832114  0.664229  0.196863  1
  Co  Co12  1  0.832114  0.167886  0.196863  1
  Sn  Sn13  1  0.666667  0.333333  0.182366  1
  Sn  Sn14  1  0.666667  0.333333  0.880443  1
  Sn  Sn15  1  0.333333  0.666667  0.119557  1
  Sn  Sn16  1  0.346135  0.346135  0.000000  1
  Sn  Sn17  1  0.000000  0.653865  0.000000  1
  Sn  Sn18  1  0.653865  0.000000  0.000000  1
  Sn  Sn19  1  0.653865  0.653865  0.000000  1
  Sn  Sn20  1  0.333333  0.666667  0.817634  1
  Sn  Sn21  1  0.434332  0.217167  0.453031  1
  Sn  Sn22  1  0.217167  0.782833  0.546969  1
  Sn  Sn23  1  0.217167  0.434332  0.546969  1
  Sn  Sn24  1  0.565668  0.782833  0.546969  1
  Sn  Sn25  1  0.114218  0.885782  0.276831  1
  Sn  Sn26  1  0.782833  0.565668  0.453031  1
  Sn  Sn27  1  0.782833  0.217167  0.453031  1
  Sn  Sn28  1  0.346135  0.000000  0.000000  1
  Sn  Sn29  1  0.114218  0.228436  0.276831  1
  Sn  Sn30  1  0.771564  0.885782  0.276831  1
  Sn  Sn31  1  0.228436  0.114218  0.723169  1
  Sn  Sn32  1  0.885782  0.771564  0.723169  1
  Sn  Sn33  1  0.885782  0.114218  0.723169  1
  Sn  Sn34  1  0.000000  0.346135  0.000000  1
  Au  Au35  1  0.000000  0.000000  0.500000  1
