# generated using pymatgen
data_Ho6CoP12Ru11Rh6
_symmetry_space_group_name_H-M   'P 1'
_cell_length_a   3.92772600
_cell_length_b   11.07023100
_cell_length_c   12.65154300
_cell_angle_alpha   90.00000000
_cell_angle_beta   90.00000000
_cell_angle_gamma   90.00000000
_symmetry_Int_Tables_number   1
_chemical_formula_structural   Ho6CoP12Ru11Rh6
_chemical_formula_sum   'Ho6 Co1 P12 Ru11 Rh6'
_cell_volume   550.09964260
_cell_formula_units_Z   1
loop_
 _symmetry_equiv_pos_site_id
 _symmetry_equiv_pos_as_xyz
  1  'x, y, z'
loop_
 _atom_site_type_symbol
 _atom_site_label
 _atom_site_symmetry_multiplicity
 _atom_site_fract_x
 _atom_site_fract_y
 _atom_site_fract_z
 _atom_site_occupancy
  Ho  Ho0  1  0.000000  0.500000  0.520861  1
  Ho  Ho1  1  0.500000  0.000000  0.477736  1
  Ho  Ho2  1  0.500000  0.818243  0.204940  1
  Ho  Ho3  1  0.500000  0.181757  0.204940  1
  Ho  Ho4  1  0.000000  0.683090  0.795681  1
  Ho  Ho5  1  0.000000  0.316910  0.795681  1
  Co  Co6  1  0.500000  0.000000  0.015365  1
  P  P7  1  0.500000  0.306549  0.614560  1
  P  P8  1  0.500000  0.693451  0.614560  1
  P  P9  1  0.000000  0.195033  0.384148  1
  P  P10  1  0.000000  0.804967  0.384148  1
  P  P11  1  0.500000  0.500000  0.877336  1
  P  P12  1  0.000000  0.000000  0.118404  1
  P  P13  1  0.500000  0.853247  0.899351  1
  P  P14  1  0.500000  0.146753  0.899351  1
  P  P15  1  0.000000  0.653658  0.107475  1
  P  P16  1  0.000000  0.346342  0.107475  1
  P  P17  1  0.500000  0.500000  0.339804  1
  P  P18  1  0.000000  0.000000  0.654606  1
  Ru  Ru19  1  0.000000  0.500000  0.984962  1
  Ru  Ru20  1  0.500000  0.298875  0.429808  1
  Ru  Ru21  1  0.500000  0.701125  0.429808  1
  Ru  Ru22  1  0.000000  0.200372  0.572502  1
  Ru  Ru23  1  0.000000  0.799628  0.572502  1
  Ru  Ru24  1  0.000000  0.622948  0.286662  1
  Ru  Ru25  1  0.000000  0.377052  0.286662  1
  Ru  Ru26  1  0.000000  0.164775  0.011711  1
  Ru  Ru27  1  0.000000  0.835225  0.011711  1
  Ru  Ru28  1  0.500000  0.500000  0.154834  1
  Ru  Ru29  1  0.000000  0.000000  0.841299  1
  Rh  Rh30  1  0.500000  0.875449  0.716408  1
  Rh  Rh31  1  0.500000  0.124551  0.716408  1
  Rh  Rh32  1  0.500000  0.330514  0.985388  1
  Rh  Rh33  1  0.500000  0.669486  0.985388  1
  Rh  Rh34  1  0.500000  0.500000  0.693195  1
  Rh  Rh35  1  0.000000  0.000000  0.304327  1
