# generated using pymatgen
data_Pr2HoSi5PPd20
_symmetry_space_group_name_H-M   'P 1'
_cell_length_a   8.75869820
_cell_length_b   8.75870137
_cell_length_c   8.76298800
_cell_angle_alpha   59.98384042
_cell_angle_beta   59.98378293
_cell_angle_gamma   60.03238221
_symmetry_Int_Tables_number   1
_chemical_formula_structural   Pr2HoSi5PPd20
_chemical_formula_sum   'Pr2 Ho1 Si5 P1 Pd20'
_cell_volume   475.35307811
_cell_formula_units_Z   1
loop_
 _symmetry_equiv_pos_site_id
 _symmetry_equiv_pos_as_xyz
  1  'x, y, z'
loop_
 _atom_site_type_symbol
 _atom_site_label
 _atom_site_symmetry_multiplicity
 _atom_site_fract_x
 _atom_site_fract_y
 _atom_site_fract_z
 _atom_site_occupancy
  Pr  Pr0  1  0.249263  0.249262  0.250737  1
  Pr  Pr1  1  0.749264  0.749264  0.750736  1
  Ho  Ho2  1  0.000844  0.000844  0.999156  1
  Si  Si3  1  0.733687  0.264577  0.266313  1
  Si  Si4  1  0.264576  0.733687  0.735424  1
  Si  Si5  1  0.264577  0.733686  0.266313  1
  Si  Si6  1  0.733687  0.264577  0.735423  1
  Si  Si7  1  0.266357  0.266357  0.733643  1
  P  P8  1  0.735689  0.735689  0.264311  1
  Pd  Pd9  1  0.385618  0.385618  0.385324  1
  Pd  Pd10  1  0.614481  0.614484  0.612987  1
  Pd  Pd11  1  0.385619  0.385618  0.843440  1
  Pd  Pd12  1  0.387015  0.841949  0.385518  1
  Pd  Pd13  1  0.614482  0.614482  0.158051  1
  Pd  Pd14  1  0.614675  0.156560  0.614382  1
  Pd  Pd15  1  0.841949  0.387014  0.385519  1
  Pd  Pd16  1  0.156558  0.614676  0.614382  1
  Pd  Pd17  1  0.345040  0.000232  0.999767  1
  Pd  Pd18  1  0.655103  0.998277  0.001721  1
  Pd  Pd19  1  0.000232  0.345040  0.654960  1
  Pd  Pd20  1  0.998277  0.655102  0.344897  1
  Pd  Pd21  1  0.000232  0.345040  0.999768  1
  Pd  Pd22  1  0.655105  0.998278  0.344896  1
  Pd  Pd23  1  0.998276  0.655105  0.001724  1
  Pd  Pd24  1  0.345039  0.000232  0.654960  1
  Pd  Pd25  1  0.001088  0.001086  0.344270  1
  Pd  Pd26  1  0.001087  0.001089  0.653553  1
  Pd  Pd27  1  0.655730  0.346446  0.998912  1
  Pd  Pd28  1  0.346448  0.655729  0.998913  1
