# generated using pymatgen
data_NaHo6Co6Sn23
_symmetry_space_group_name_H-M   'P 1'
_cell_length_a   9.70637200
_cell_length_b   9.70637087
_cell_length_c   9.94578800
_cell_angle_alpha   90.00000000
_cell_angle_beta   90.00000000
_cell_angle_gamma   119.99999704
_symmetry_Int_Tables_number   1
_chemical_formula_structural   NaHo6Co6Sn23
_chemical_formula_sum   'Na1 Ho6 Co6 Sn23'
_cell_volume   811.49090231
_cell_formula_units_Z   1
loop_
 _symmetry_equiv_pos_site_id
 _symmetry_equiv_pos_as_xyz
  1  'x, y, z'
loop_
 _atom_site_type_symbol
 _atom_site_label
 _atom_site_symmetry_multiplicity
 _atom_site_fract_x
 _atom_site_fract_y
 _atom_site_fract_z
 _atom_site_occupancy
  Na  Na0  1  0.000000  0.000000  0.000000  1
  Ho  Ho1  1  0.520607  0.479393  0.693875  1
  Ho  Ho2  1  0.520607  0.041214  0.693875  1
  Ho  Ho3  1  0.958786  0.479393  0.693875  1
  Ho  Ho4  1  0.041214  0.520607  0.306125  1
  Ho  Ho5  1  0.479393  0.958786  0.306125  1
  Ho  Ho6  1  0.479393  0.520607  0.306125  1
  Co  Co7  1  0.170226  0.829774  0.799490  1
  Co  Co8  1  0.170226  0.340452  0.799490  1
  Co  Co9  1  0.659548  0.829774  0.799490  1
  Co  Co10  1  0.340452  0.170226  0.200510  1
  Co  Co11  1  0.829774  0.659548  0.200510  1
  Co  Co12  1  0.829774  0.170226  0.200510  1
  Sn  Sn13  1  0.666667  0.333333  0.183950  1
  Sn  Sn14  1  0.666667  0.333333  0.882103  1
  Sn  Sn15  1  0.333333  0.666667  0.117897  1
  Sn  Sn16  1  0.344099  0.344099  0.000000  1
  Sn  Sn17  1  0.000000  0.655901  0.000000  1
  Sn  Sn18  1  0.655901  0.000000  0.000000  1
  Sn  Sn19  1  0.655901  0.655901  0.000000  1
  Sn  Sn20  1  0.333333  0.666667  0.816050  1
  Sn  Sn21  1  0.436856  0.218429  0.452663  1
  Sn  Sn22  1  0.218429  0.781571  0.547337  1
  Sn  Sn23  1  0.218429  0.436856  0.547337  1
  Sn  Sn24  1  0.563144  0.781571  0.547337  1
  Sn  Sn25  1  0.116561  0.883439  0.272312  1
  Sn  Sn26  1  0.781571  0.563144  0.452663  1
  Sn  Sn27  1  0.781571  0.218429  0.452663  1
  Sn  Sn28  1  0.344099  0.000000  0.000000  1
  Sn  Sn29  1  0.116561  0.233122  0.272312  1
  Sn  Sn30  1  0.766878  0.883439  0.272312  1
  Sn  Sn31  1  0.233122  0.116561  0.727688  1
  Sn  Sn32  1  0.883439  0.766878  0.727688  1
  Sn  Sn33  1  0.883439  0.116561  0.727688  1
  Sn  Sn34  1  0.000000  0.000000  0.500000  1
  Sn  Sn35  1  0.000000  0.344099  0.000000  1
