# generated using pymatgen
data_Mn3Nb4SnRu8
_symmetry_space_group_name_H-M   'P 1'
_cell_length_a   6.26883800
_cell_length_b   4.42815900
_cell_length_c   8.88010100
_cell_angle_alpha   90.00000000
_cell_angle_beta   89.99985591
_cell_angle_gamma   90.00000000
_symmetry_Int_Tables_number   1
_chemical_formula_structural   Mn3Nb4SnRu8
_chemical_formula_sum   'Mn3 Nb4 Sn1 Ru8'
_cell_volume   246.50637701
_cell_formula_units_Z   1
loop_
 _symmetry_equiv_pos_site_id
 _symmetry_equiv_pos_as_xyz
  1  'x, y, z'
loop_
 _atom_site_type_symbol
 _atom_site_label
 _atom_site_symmetry_multiplicity
 _atom_site_fract_x
 _atom_site_fract_y
 _atom_site_fract_z
 _atom_site_occupancy
  Mn  Mn0  1  0.250020  0.750001  0.376979  1
  Mn  Mn1  1  0.749993  0.250001  0.624860  1
  Mn  Mn2  1  0.249992  0.750001  0.873415  1
  Nb  Nb3  1  0.249994  0.250001  0.124855  1
  Nb  Nb4  1  0.750002  0.750001  0.380846  1
  Nb  Nb5  1  0.249999  0.250001  0.624957  1
  Nb  Nb6  1  0.750007  0.750001  0.869272  1
  Sn  Sn7  1  0.749986  0.250001  0.124788  1
  Ru  Ru8  1  0.494211  0.750001  0.125122  1
  Ru  Ru9  1  0.005786  0.750001  0.125121  1
  Ru  Ru10  1  0.496717  0.250001  0.378900  1
  Ru  Ru11  1  0.003277  0.250001  0.378898  1
  Ru  Ru12  1  0.000160  0.750001  0.625144  1
  Ru  Ru13  1  0.499847  0.750001  0.625146  1
  Ru  Ru14  1  0.003479  0.250001  0.870849  1
  Ru  Ru15  1  0.496529  0.250001  0.870848  1
