# generated using pymatgen
data_Ho4VMoOs6
_symmetry_space_group_name_H-M   'P 1'
_cell_length_a   5.21202718
_cell_length_b   5.21202667
_cell_length_c   8.93580700
_cell_angle_alpha   90.00000000
_cell_angle_beta   90.00000000
_cell_angle_gamma   116.14887301
_symmetry_Int_Tables_number   1
_chemical_formula_structural   Ho4VMoOs6
_chemical_formula_sum   'Ho4 V1 Mo1 Os6'
_cell_volume   217.89891937
_cell_formula_units_Z   1
loop_
 _symmetry_equiv_pos_site_id
 _symmetry_equiv_pos_as_xyz
  1  'x, y, z'
loop_
 _atom_site_type_symbol
 _atom_site_label
 _atom_site_symmetry_multiplicity
 _atom_site_fract_x
 _atom_site_fract_y
 _atom_site_fract_z
 _atom_site_occupancy
  Ho  Ho0  1  0.330390  0.669610  0.434850  1
  Ho  Ho1  1  0.670688  0.329312  0.563144  1
  Ho  Ho2  1  0.670688  0.329312  0.936856  1
  Ho  Ho3  1  0.330390  0.669610  0.065150  1
  V  V4  1  0.836665  0.163335  0.250000  1
  Mo  Mo5  1  0.160579  0.839421  0.750000  1
  Os  Os6  1  0.000409  0.999591  0.495897  1
  Os  Os7  1  0.000409  0.999591  0.004103  1
  Os  Os8  1  0.823994  0.648834  0.250000  1
  Os  Os9  1  0.351166  0.176006  0.250000  1
  Os  Os10  1  0.174690  0.350066  0.750000  1
  Os  Os11  1  0.649934  0.825310  0.750000  1
