# generated using pymatgen
data_DyEr5(Sc2Pb3)2
_symmetry_space_group_name_H-M   'P 1'
_cell_length_a   8.85363800
_cell_length_b   8.85794609
_cell_length_c   6.34507500
_cell_angle_alpha   90.00000000
_cell_angle_beta   90.00000000
_cell_angle_gamma   119.98392033
_symmetry_Int_Tables_number   1
_chemical_formula_structural   DyEr5(Sc2Pb3)2
_chemical_formula_sum   'Dy1 Er5 Sc4 Pb6'
_cell_volume   431.01514547
_cell_formula_units_Z   1
loop_
 _symmetry_equiv_pos_site_id
 _symmetry_equiv_pos_as_xyz
  1  'x, y, z'
loop_
 _atom_site_type_symbol
 _atom_site_label
 _atom_site_symmetry_multiplicity
 _atom_site_fract_x
 _atom_site_fract_y
 _atom_site_fract_z
 _atom_site_occupancy
  Dy  Dy0  1  0.237760  0.000000  0.250000  1
  Er  Er1  1  0.237747  0.237831  0.750000  1
  Er  Er2  1  0.999916  0.762169  0.750000  1
  Er  Er3  1  0.999918  0.237765  0.250000  1
  Er  Er4  1  0.762153  0.762235  0.250000  1
  Er  Er5  1  0.762334  0.000000  0.750000  1
  Sc  Sc6  1  0.333347  0.666655  0.999983  1
  Sc  Sc7  1  0.666693  0.333345  0.500017  1
  Sc  Sc8  1  0.666693  0.333345  0.999983  1
  Sc  Sc9  1  0.333347  0.666655  0.500017  1
  Pb  Pb10  1  0.601459  0.000000  0.250000  1
  Pb  Pb11  1  0.601269  0.601265  0.750000  1
  Pb  Pb12  1  0.000003  0.398735  0.750000  1
  Pb  Pb13  1  0.999806  0.600973  0.250000  1
  Pb  Pb14  1  0.398833  0.399027  0.250000  1
  Pb  Pb15  1  0.398721  0.000000  0.750000  1
