# generated using pymatgen
data_Nd4In2Rh3
_symmetry_space_group_name_H-M   'P 1'
_cell_length_a   7.63774800
_cell_length_b   7.77128728
_cell_length_c   4.18796500
_cell_angle_alpha   90.00000000
_cell_angle_beta   90.00000000
_cell_angle_gamma   119.43318653
_symmetry_Int_Tables_number   1
_chemical_formula_structural   Nd4In2Rh3
_chemical_formula_sum   'Nd4 In2 Rh3'
_cell_volume   216.49319374
_cell_formula_units_Z   1
loop_
 _symmetry_equiv_pos_site_id
 _symmetry_equiv_pos_as_xyz
  1  'x, y, z'
loop_
 _atom_site_type_symbol
 _atom_site_label
 _atom_site_symmetry_multiplicity
 _atom_site_fract_x
 _atom_site_fract_y
 _atom_site_fract_z
 _atom_site_occupancy
  Nd  Nd0  1  0.619863  0.000000  0.500000  1
  Nd  Nd1  1  0.414159  0.442200  0.500000  1
  Nd  Nd2  1  0.971958  0.557800  0.500000  1
  Nd  Nd3  1  0.246794  0.000000  0.000000  1
  In  In4  1  0.749954  0.743897  0.000000  1
  In  In5  1  0.006057  0.256103  0.000000  1
  Rh  Rh6  1  0.989492  0.000000  0.500000  1
  Rh  Rh7  1  0.333897  0.666070  0.000000  1
  Rh  Rh8  1  0.667829  0.333930  0.000000  1
