# generated using pymatgen
data_Y7CoSn23IrRu4
_symmetry_space_group_name_H-M   'P 1'
_cell_length_a   9.88785400
_cell_length_b   9.87757878
_cell_length_c   10.07170321
_cell_angle_alpha   89.91641478
_cell_angle_beta   90.16613189
_cell_angle_gamma   120.31527625
_symmetry_Int_Tables_number   1
_chemical_formula_structural   Y7CoSn23IrRu4
_chemical_formula_sum   'Y7 Co1 Sn23 Ir1 Ru4'
_cell_volume   849.17219169
_cell_formula_units_Z   1
loop_
 _symmetry_equiv_pos_site_id
 _symmetry_equiv_pos_as_xyz
  1  'x, y, z'
loop_
 _atom_site_type_symbol
 _atom_site_label
 _atom_site_symmetry_multiplicity
 _atom_site_fract_x
 _atom_site_fract_y
 _atom_site_fract_z
 _atom_site_occupancy
  Y  Y0  1  0.003325  0.007717  0.995991  1
  Y  Y1  1  0.036554  0.517832  0.305814  1
  Y  Y2  1  0.481045  0.962358  0.305075  1
  Y  Y3  1  0.481521  0.517751  0.305792  1
  Y  Y4  1  0.964735  0.482593  0.694798  1
  Y  Y5  1  0.517207  0.033987  0.695118  1
  Y  Y6  1  0.518310  0.482735  0.694549  1
  Co  Co7  1  0.829380  0.659853  0.199811  1
  Sn  Sn8  1  0.999472  0.999624  0.498244  1
  Sn  Sn9  1  0.109369  0.877650  0.278490  1
  Sn  Sn10  1  0.767797  0.878526  0.272290  1
  Sn  Sn11  1  0.116329  0.234432  0.279454  1
  Sn  Sn12  1  0.882538  0.115540  0.719719  1
  Sn  Sn13  1  0.232627  0.116139  0.724439  1
  Sn  Sn14  1  0.882277  0.766268  0.724548  1
  Sn  Sn15  1  0.349684  0.998657  0.999236  1
  Sn  Sn16  1  0.656517  0.652709  0.003869  1
  Sn  Sn17  1  0.999791  0.349925  0.999988  1
  Sn  Sn18  1  0.352417  0.354117  0.999669  1
  Sn  Sn19  1  0.995585  0.652970  0.004248  1
  Sn  Sn20  1  0.652061  0.999653  0.999614  1
  Sn  Sn21  1  0.781309  0.562507  0.453748  1
  Sn  Sn22  1  0.778438  0.220217  0.459804  1
  Sn  Sn23  1  0.442048  0.220556  0.460459  1
  Sn  Sn24  1  0.221311  0.442282  0.541522  1
  Sn  Sn25  1  0.220455  0.779720  0.540512  1
  Sn  Sn26  1  0.558921  0.779437  0.540898  1
  Sn  Sn27  1  0.670415  0.336427  0.178860  1
  Sn  Sn28  1  0.332984  0.666364  0.822188  1
  Sn  Sn29  1  0.666729  0.332891  0.876463  1
  Sn  Sn30  1  0.332376  0.665536  0.123108  1
  Ir  Ir31  1  0.338645  0.168895  0.200442  1
  Ru  Ru32  1  0.167566  0.829330  0.799255  1
  Ru  Ru33  1  0.661352  0.829229  0.800476  1
  Ru  Ru34  1  0.168654  0.337297  0.799924  1
  Ru  Ru35  1  0.830259  0.168272  0.201582  1
