# generated using pymatgen
data_Nd9Tm(Ga2Sn)2
_symmetry_space_group_name_H-M   'P 1'
_cell_length_a   9.12100642
_cell_length_b   9.12100616
_cell_length_c   9.12100575
_cell_angle_alpha   127.37788806
_cell_angle_beta   127.37789528
_cell_angle_gamma   77.63501376
_symmetry_Int_Tables_number   1
_chemical_formula_structural   Nd9Tm(Ga2Sn)2
_chemical_formula_sum   'Nd9 Tm1 Ga4 Sn2'
_cell_volume   464.61513067
_cell_formula_units_Z   1
loop_
 _symmetry_equiv_pos_site_id
 _symmetry_equiv_pos_as_xyz
  1  'x, y, z'
loop_
 _atom_site_type_symbol
 _atom_site_label
 _atom_site_symmetry_multiplicity
 _atom_site_fract_x
 _atom_site_fract_y
 _atom_site_fract_z
 _atom_site_occupancy
  Nd  Nd0  1  0.500000  0.500000  0.000000  1
  Nd  Nd1  1  0.524816  0.023728  0.838417  1
  Nd  Nd2  1  0.185309  0.686396  0.161583  1
  Nd  Nd3  1  0.023728  0.185309  0.498913  1
  Nd  Nd4  1  0.686396  0.524816  0.501087  1
  Nd  Nd5  1  0.475184  0.976272  0.161583  1
  Nd  Nd6  1  0.814691  0.313604  0.838417  1
  Nd  Nd7  1  0.976272  0.814691  0.501087  1
  Nd  Nd8  1  0.313604  0.475184  0.498913  1
  Tm  Tm9  1  0.000000  0.000000  0.000000  1
  Ga  Ga10  1  0.880072  0.373141  0.253212  1
  Ga  Ga11  1  0.119928  0.626859  0.746788  1
  Ga  Ga12  1  0.373141  0.119928  0.493070  1
  Ga  Ga13  1  0.626859  0.880072  0.506930  1
  Sn  Sn14  1  0.247810  0.247810  0.000000  1
  Sn  Sn15  1  0.752190  0.752190  0.000000  1
