# generated using pymatgen
data_Tb4ZrIrRh2
_symmetry_space_group_name_H-M   'P 1'
_cell_length_a   10.88935500
_cell_length_b   10.88935500
_cell_length_c   6.28219500
_cell_angle_alpha   90.00000000
_cell_angle_beta   90.00000000
_cell_angle_gamma   90.00000000
_symmetry_Int_Tables_number   1
_chemical_formula_structural   Tb4ZrIrRh2
_chemical_formula_sum   'Tb16 Zr4 Ir4 Rh8'
_cell_volume   744.93044737
_cell_formula_units_Z   4
loop_
 _symmetry_equiv_pos_site_id
 _symmetry_equiv_pos_as_xyz
  1  'x, y, z'
loop_
 _atom_site_type_symbol
 _atom_site_label
 _atom_site_symmetry_multiplicity
 _atom_site_fract_x
 _atom_site_fract_y
 _atom_site_fract_z
 _atom_site_occupancy
  Tb  Tb0  1  0.289668  0.088740  0.374081  1
  Tb  Tb1  1  0.289668  0.911260  0.874081  1
  Tb  Tb2  1  0.710332  0.088740  0.874081  1
  Tb  Tb3  1  0.710332  0.911260  0.374081  1
  Tb  Tb4  1  0.585444  0.788238  0.875732  1
  Tb  Tb5  1  0.585444  0.211762  0.375732  1
  Tb  Tb6  1  0.414556  0.788238  0.375732  1
  Tb  Tb7  1  0.414556  0.211762  0.875732  1
  Tb  Tb8  1  0.211762  0.414556  0.624268  1
  Tb  Tb9  1  0.211762  0.585444  0.124268  1
  Tb  Tb10  1  0.788238  0.414556  0.124268  1
  Tb  Tb11  1  0.788238  0.585444  0.624268  1
  Tb  Tb12  1  0.911260  0.710332  0.125919  1
  Tb  Tb13  1  0.911260  0.289668  0.625919  1
  Tb  Tb14  1  0.088740  0.710332  0.625919  1
  Tb  Tb15  1  0.088740  0.289668  0.125919  1
  Zr  Zr16  1  0.000000  0.000000  0.500000  1
  Zr  Zr17  1  0.000000  0.000000  0.000000  1
  Zr  Zr18  1  0.500000  0.500000  0.000000  1
  Zr  Zr19  1  0.500000  0.500000  0.500000  1
  Ir  Ir20  1  0.645719  0.354281  0.750000  1
  Ir  Ir21  1  0.645719  0.645719  0.250000  1
  Ir  Ir22  1  0.354281  0.354281  0.250000  1
  Ir  Ir23  1  0.354281  0.645719  0.750000  1
  Rh  Rh24  1  0.855838  0.144162  0.250000  1
  Rh  Rh25  1  0.855838  0.855838  0.750000  1
  Rh  Rh26  1  0.144162  0.144162  0.750000  1
  Rh  Rh27  1  0.144162  0.855838  0.250000  1
  Rh  Rh28  1  0.500000  0.000000  0.117343  1
  Rh  Rh29  1  0.500000  0.000000  0.617343  1
  Rh  Rh30  1  0.000000  0.500000  0.882657  1
  Rh  Rh31  1  0.000000  0.500000  0.382657  1
