# generated using pymatgen
data_NaBi(SeO3)2
_symmetry_space_group_name_H-M   'P 1'
_cell_length_a   5.47590000
_cell_length_b   8.70769500
_cell_length_c   12.96512300
_cell_angle_alpha   90.00000000
_cell_angle_beta   90.00000000
_cell_angle_gamma   90.00000000
_symmetry_Int_Tables_number   1
_chemical_formula_structural   NaBi(SeO3)2
_chemical_formula_sum   'Na4 Bi4 Se8 O24'
_cell_volume   618.20905025
_cell_formula_units_Z   4
loop_
 _symmetry_equiv_pos_site_id
 _symmetry_equiv_pos_as_xyz
  1  'x, y, z'
loop_
 _atom_site_type_symbol
 _atom_site_label
 _atom_site_symmetry_multiplicity
 _atom_site_fract_x
 _atom_site_fract_y
 _atom_site_fract_z
 _atom_site_occupancy
  Na  Na0  1  0.790303  0.995189  0.615282  1
  Na  Na1  1  0.790303  0.504811  0.115282  1
  Na  Na2  1  0.290303  0.004811  0.384718  1
  Na  Na3  1  0.290303  0.495189  0.884718  1
  Bi  Bi4  1  0.252211  0.177648  0.088146  1
  Bi  Bi5  1  0.752211  0.822352  0.911854  1
  Bi  Bi6  1  0.752211  0.677648  0.411854  1
  Bi  Bi7  1  0.252211  0.322352  0.588146  1
  Se  Se8  1  0.753967  0.974947  0.199457  1
  Se  Se9  1  0.253967  0.474947  0.300543  1
  Se  Se10  1  0.795691  0.261436  0.413850  1
  Se  Se11  1  0.295691  0.738564  0.586150  1
  Se  Se12  1  0.753967  0.525053  0.699457  1
  Se  Se13  1  0.295691  0.761436  0.086150  1
  Se  Se14  1  0.253967  0.025053  0.800543  1
  Se  Se15  1  0.795691  0.238564  0.913850  1
  O  O16  1  0.987533  0.142355  0.481020  1
  O  O17  1  0.082385  0.856635  0.800156  1
  O  O18  1  0.175927  0.091860  0.679593  1
  O  O19  1  0.368654  0.569256  0.517809  1
  O  O20  1  0.012662  0.786054  0.537710  1
  O  O21  1  0.487533  0.857645  0.518980  1
  O  O22  1  0.548966  0.540609  0.277196  1
  O  O23  1  0.082385  0.643365  0.300156  1
  O  O24  1  0.012662  0.713946  0.037710  1
  O  O25  1  0.675927  0.908140  0.320407  1
  O  O26  1  0.048966  0.040609  0.222804  1
  O  O27  1  0.512662  0.213946  0.462290  1
  O  O28  1  0.675927  0.591860  0.820407  1
  O  O29  1  0.175927  0.408140  0.179593  1
  O  O30  1  0.987533  0.357645  0.981020  1
  O  O31  1  0.368654  0.930744  0.017809  1
  O  O32  1  0.582385  0.356635  0.699844  1
  O  O33  1  0.868654  0.430744  0.482191  1
  O  O34  1  0.487533  0.642355  0.018980  1
  O  O35  1  0.048966  0.459391  0.722804  1
  O  O36  1  0.582385  0.143365  0.199844  1
  O  O37  1  0.548966  0.959391  0.777196  1
  O  O38  1  0.512662  0.286054  0.962290  1
  O  O39  1  0.868654  0.069256  0.982191  1
