# generated using pymatgen
data_Dy3Er7In8(PtAu)2
_symmetry_space_group_name_H-M   'P 1'
_cell_length_a   3.63380900
_cell_length_b   8.14858447
_cell_length_c   18.27113814
_cell_angle_alpha   90.04569570
_cell_angle_beta   90.00000000
_cell_angle_gamma   90.00000000
_symmetry_Int_Tables_number   1
_chemical_formula_structural   Dy3Er7In8(PtAu)2
_chemical_formula_sum   'Dy3 Er7 In8 Pt2 Au2'
_cell_volume   541.01552902
_cell_formula_units_Z   1
loop_
 _symmetry_equiv_pos_site_id
 _symmetry_equiv_pos_as_xyz
  1  'x, y, z'
loop_
 _atom_site_type_symbol
 _atom_site_label
 _atom_site_symmetry_multiplicity
 _atom_site_fract_x
 _atom_site_fract_y
 _atom_site_fract_z
 _atom_site_occupancy
  Dy  Dy0  1  0.000000  0.120107  0.419049  1
  Dy  Dy1  1  0.000000  0.000011  0.999982  1
  Dy  Dy2  1  0.000000  0.500107  0.500001  1
  Er  Er3  1  0.000000  0.880153  0.581438  1
  Er  Er4  1  0.000000  0.384708  0.915650  1
  Er  Er5  1  0.000000  0.615319  0.084339  1
  Er  Er6  1  0.000000  0.252051  0.217455  1
  Er  Er7  1  0.000000  0.748001  0.782483  1
  Er  Er8  1  0.000000  0.268075  0.721189  1
  Er  Er9  1  0.000000  0.731719  0.278737  1
  In  In10  1  0.500000  0.423795  0.352314  1
  In  In11  1  0.500000  0.576653  0.647557  1
  In  In12  1  0.500000  0.077463  0.852725  1
  In  In13  1  0.500000  0.922503  0.147244  1
  In  In14  1  0.500000  0.292208  0.065833  1
  In  In15  1  0.500000  0.707736  0.934155  1
  In  In16  1  0.500000  0.209112  0.566667  1
  In  In17  1  0.500000  0.790521  0.433597  1
  Pt  Pt18  1  0.500000  0.473491  0.803533  1
  Pt  Pt19  1  0.500000  0.526629  0.196479  1
  Au  Au20  1  0.500000  0.026996  0.302021  1
  Au  Au21  1  0.500000  0.972641  0.697552  1
