# generated using pymatgen
data_Ti3V9Si9Ge
_symmetry_space_group_name_H-M   'P 1'
_cell_length_a   4.87810884
_cell_length_b   7.58280594
_cell_length_c   9.22767556
_cell_angle_alpha   65.86664477
_cell_angle_beta   74.67348931
_cell_angle_gamma   90.00000173
_symmetry_Int_Tables_number   1
_chemical_formula_structural   Ti3V9Si9Ge
_chemical_formula_sum   'Ti3 V9 Si9 Ge1'
_cell_volume   298.14443743
_cell_formula_units_Z   1
loop_
 _symmetry_equiv_pos_site_id
 _symmetry_equiv_pos_as_xyz
  1  'x, y, z'
loop_
 _atom_site_type_symbol
 _atom_site_label
 _atom_site_symmetry_multiplicity
 _atom_site_fract_x
 _atom_site_fract_y
 _atom_site_fract_z
 _atom_site_occupancy
  Ti  Ti0  1  0.858034  0.740920  0.283933  1
  Ti  Ti1  1  0.640946  0.029563  0.718109  1
  Ti  Ti2  1  0.358872  0.970993  0.282255  1
  V  V3  1  0.440823  0.687788  0.621783  1
  V  V4  1  0.058581  0.312692  0.377672  1
  V  V5  1  0.563748  0.312692  0.377672  1
  V  V6  1  0.937394  0.687788  0.621783  1
  V  V7  1  0.435252  0.681719  0.129496  1
  V  V8  1  0.565003  0.318320  0.869995  1
  V  V9  1  0.936093  0.189456  0.127816  1
  V  V10  1  0.062084  0.807793  0.875832  1
  V  V11  1  0.142473  0.262704  0.715055  1
  Si  Si12  1  0.064050  0.474994  0.871899  1
  Si  Si13  1  0.936821  0.521461  0.126358  1
  Si  Si14  1  0.563188  0.649909  0.873623  1
  Si  Si15  1  0.436518  0.349513  0.126965  1
  Si  Si16  1  0.751566  0.001529  0.998214  1
  Si  Si17  1  0.250220  0.001529  0.998214  1
  Si  Si18  1  0.285202  0.580492  0.429599  1
  Si  Si19  1  0.713353  0.416812  0.573296  1
  Si  Si20  1  0.787682  0.988777  0.424634  1
  Ge  Ge21  1  0.212099  0.012558  0.575803  1
