# generated using pymatgen
data_Ba8ErIn3(FeO5)4
_symmetry_space_group_name_H-M   'P 1'
_cell_length_a   6.03485714
_cell_length_b   7.94567569
_cell_length_c   12.61205829
_cell_angle_alpha   91.84980180
_cell_angle_beta   90.01170199
_cell_angle_gamma   90.02125065
_symmetry_Int_Tables_number   1
_chemical_formula_structural   Ba8ErIn3(FeO5)4
_chemical_formula_sum   'Ba8 Er1 In3 Fe4 O20'
_cell_volume   604.44582153
_cell_formula_units_Z   1
loop_
 _symmetry_equiv_pos_site_id
 _symmetry_equiv_pos_as_xyz
  1  'x, y, z'
loop_
 _atom_site_type_symbol
 _atom_site_label
 _atom_site_symmetry_multiplicity
 _atom_site_fract_x
 _atom_site_fract_y
 _atom_site_fract_z
 _atom_site_occupancy
  Ba  Ba0  1  0.757548  0.492487  0.350121  1
  Ba  Ba1  1  0.742381  0.990132  0.853868  1
  Ba  Ba2  1  0.245147  0.512569  0.649336  1
  Ba  Ba3  1  0.255117  0.007571  0.148156  1
  Ba  Ba4  1  0.755724  0.991279  0.376958  1
  Ba  Ba5  1  0.743449  0.494561  0.881785  1
  Ba  Ba6  1  0.246154  0.005117  0.620188  1
  Ba  Ba7  1  0.254269  0.507142  0.120870  1
  Er  Er8  1  0.751384  0.264176  0.631311  1
  In  In9  1  0.748244  0.763930  0.130769  1
  In  In10  1  0.248714  0.735823  0.368936  1
  In  In11  1  0.248662  0.236202  0.869615  1
  Fe  Fe12  1  0.740113  0.744130  0.582325  1
  Fe  Fe13  1  0.760395  0.242489  0.081944  1
  Fe  Fe14  1  0.263653  0.256627  0.416127  1
  Fe  Fe15  1  0.239197  0.757357  0.918344  1
  O  O16  1  0.759123  0.971444  0.634084  1
  O  O17  1  0.737587  0.468542  0.133764  1
  O  O18  1  0.235730  0.029947  0.364037  1
  O  O19  1  0.259970  0.532513  0.865659  1
  O  O20  1  0.737132  0.058403  0.172259  1
  O  O21  1  0.757869  0.558169  0.672009  1
  O  O22  1  0.260142  0.937944  0.825744  1
  O  O23  1  0.235563  0.441968  0.326265  1
  O  O24  1  0.529988  0.747938  0.266688  1
  O  O25  1  0.964703  0.248281  0.771294  1
  O  O26  1  0.463770  0.251549  0.734291  1
  O  O27  1  0.028810  0.751155  0.233145  1
  O  O28  1  0.533312  0.225658  0.976534  1
  O  O29  1  0.969728  0.726447  0.478580  1
  O  O30  1  0.469206  0.774472  0.022267  1
  O  O31  1  0.047011  0.274656  0.525533  1
  O  O32  1  0.041976  0.230932  0.012786  1
  O  O33  1  0.462013  0.732119  0.509916  1
  O  O34  1  0.960717  0.769516  0.990692  1
  O  O35  1  0.545497  0.266759  0.483800  1
