# generated using pymatgen
data_NaAc(BIr)4
_symmetry_space_group_name_H-M   'P 1'
_cell_length_a   7.16115357
_cell_length_b   6.19608239
_cell_length_c   5.59236051
_cell_angle_alpha   74.61681321
_cell_angle_beta   56.53644150
_cell_angle_gamma   48.84673622
_symmetry_Int_Tables_number   1
_chemical_formula_structural   NaAc(BIr)4
_chemical_formula_sum   'Na1 Ac1 B4 Ir4'
_cell_volume   153.97340202
_cell_formula_units_Z   1
loop_
 _symmetry_equiv_pos_site_id
 _symmetry_equiv_pos_as_xyz
  1  'x, y, z'
loop_
 _atom_site_type_symbol
 _atom_site_label
 _atom_site_symmetry_multiplicity
 _atom_site_fract_x
 _atom_site_fract_y
 _atom_site_fract_z
 _atom_site_occupancy
  Na  Na0  1  0.500000  0.500000  0.500000  1
  Ac  Ac1  1  0.750000  0.750000  0.750000  1
  B  B2  1  0.177874  0.822126  0.177874  1
  B  B3  1  0.077538  0.422462  0.077538  1
  B  B4  1  0.822126  0.177874  0.822126  1
  B  B5  1  0.422462  0.077538  0.422462  1
  Ir  Ir6  1  0.871498  0.871498  0.128502  1
  Ir  Ir7  1  0.128502  0.128502  0.871498  1
  Ir  Ir8  1  0.383170  0.383170  0.116830  1
  Ir  Ir9  1  0.116830  0.116830  0.383170  1
