# generated using pymatgen
data_Ca3DyEr2(Si3Os)8
_symmetry_space_group_name_H-M   'P 1'
_cell_length_a   10.16358059
_cell_length_b   10.16352370
_cell_length_c   8.16453712
_cell_angle_alpha   90.03218816
_cell_angle_beta   89.99205410
_cell_angle_gamma   132.62454272
_symmetry_Int_Tables_number   1
_chemical_formula_structural   Ca3DyEr2(Si3Os)8
_chemical_formula_sum   'Ca3 Dy1 Er2 Si24 Os8'
_cell_volume   620.56385627
_cell_formula_units_Z   1
loop_
 _symmetry_equiv_pos_site_id
 _symmetry_equiv_pos_as_xyz
  1  'x, y, z'
loop_
 _atom_site_type_symbol
 _atom_site_label
 _atom_site_symmetry_multiplicity
 _atom_site_fract_x
 _atom_site_fract_y
 _atom_site_fract_z
 _atom_site_occupancy
  Ca  Ca0  1  0.499467  0.999669  0.750224  1
  Ca  Ca1  1  0.000329  0.500525  0.249776  1
  Ca  Ca2  1  0.999898  0.000120  0.999964  1
  Dy  Dy3  1  0.499569  0.999542  0.249879  1
  Er  Er4  1  0.000355  0.500335  0.750140  1
  Er  Er5  1  0.499920  0.499957  0.500107  1
  Si  Si6  1  0.795492  0.205135  0.500309  1
  Si  Si7  1  0.704774  0.295850  0.999678  1
  Si  Si8  1  0.205087  0.794242  0.500358  1
  Si  Si9  1  0.294561  0.704762  0.999635  1
  Si  Si10  1  0.664124  0.671920  0.166414  1
  Si  Si11  1  0.170013  0.161550  0.331183  1
  Si  Si12  1  0.838527  0.829966  0.668801  1
  Si  Si13  1  0.328064  0.335940  0.833601  1
  Si  Si14  1  0.846682  0.613809  0.992101  1
  Si  Si15  1  0.111535  0.345193  0.507031  1
  Si  Si16  1  0.654752  0.888313  0.493133  1
  Si  Si17  1  0.386043  0.153268  0.007716  1
  Si  Si18  1  0.153520  0.387291  0.005503  1
  Si  Si19  1  0.889353  0.655137  0.496120  1
  Si  Si20  1  0.122226  0.888722  0.729459  1
  Si  Si21  1  0.388810  0.622722  0.771795  1
  Si  Si22  1  0.377160  0.611028  0.228292  1
  Si  Si23  1  0.111116  0.877650  0.270442  1
  Si  Si24  1  0.876086  0.109249  0.270366  1
  Si  Si25  1  0.609354  0.375517  0.228459  1
  Si  Si26  1  0.624690  0.390760  0.771636  1
  Si  Si27  1  0.890873  0.124129  0.729535  1
  Si  Si28  1  0.612782  0.846517  0.994337  1
  Si  Si29  1  0.344898  0.110726  0.504050  1
  Os  Os30  1  0.625654  0.624450  0.871651  1
  Os  Os31  1  0.128303  0.129879  0.624427  1
  Os  Os32  1  0.375626  0.374380  0.128427  1
  Os  Os33  1  0.870171  0.871782  0.375492  1
  Os  Os34  1  0.169652  0.829611  0.999590  1
  Os  Os35  1  0.331002  0.668263  0.500389  1
  Os  Os36  1  0.829370  0.171442  0.999663  1
  Os  Os37  1  0.670165  0.330646  0.500318  1
