# generated using pymatgen
data_Y3Er5Os3WC8
_symmetry_space_group_name_H-M   'P 1'
_cell_length_a   5.09031300
_cell_length_b   6.53355630
_cell_length_c   9.77855292
_cell_angle_alpha   89.60655972
_cell_angle_beta   90.00000000
_cell_angle_gamma   90.00000000
_symmetry_Int_Tables_number   1
_chemical_formula_structural   Y3Er5Os3WC8
_chemical_formula_sum   'Y3 Er5 Os3 W1 C8'
_cell_volume   325.20594528
_cell_formula_units_Z   1
loop_
 _symmetry_equiv_pos_site_id
 _symmetry_equiv_pos_as_xyz
  1  'x, y, z'
loop_
 _atom_site_type_symbol
 _atom_site_label
 _atom_site_symmetry_multiplicity
 _atom_site_fract_x
 _atom_site_fract_y
 _atom_site_fract_z
 _atom_site_occupancy
  Y  Y0  1  0.750000  0.466455  0.781229  1
  Y  Y1  1  0.750000  0.970082  0.715612  1
  Y  Y2  1  0.250000  0.030551  0.285571  1
  Er  Er3  1  0.250000  0.677800  0.554751  1
  Er  Er4  1  0.750000  0.323665  0.443869  1
  Er  Er5  1  0.750000  0.824521  0.056130  1
  Er  Er6  1  0.250000  0.179725  0.943555  1
  Er  Er7  1  0.250000  0.532061  0.213810  1
  Os  Os8  1  0.750000  0.278940  0.135393  1
  Os  Os9  1  0.750000  0.776784  0.363945  1
  Os  Os10  1  0.250000  0.224246  0.631819  1
  W  W11  1  0.250000  0.721058  0.868214  1
  C  C12  1  0.250000  0.452895  0.759701  1
  C  C13  1  0.750000  0.543121  0.241644  1
  C  C14  1  0.750000  0.044033  0.259324  1
  C  C15  1  0.250000  0.957842  0.739777  1
  C  C16  1  0.250000  0.824643  0.057925  1
  C  C17  1  0.750000  0.172820  0.950762  1
  C  C18  1  0.750000  0.671366  0.550053  1
  C  C19  1  0.250000  0.327389  0.446913  1
