# generated using pymatgen
data_DyThSi3Ag
_symmetry_space_group_name_H-M   'P 1'
_cell_length_a   4.10139138
_cell_length_b   4.21156360
_cell_length_c   7.78124786
_cell_angle_alpha   74.29867810
_cell_angle_beta   74.71958395
_cell_angle_gamma   89.99998726
_symmetry_Int_Tables_number   1
_chemical_formula_structural   DyThSi3Ag
_chemical_formula_sum   'Dy1 Th1 Si3 Ag1'
_cell_volume   124.44926773
_cell_formula_units_Z   1
loop_
 _symmetry_equiv_pos_site_id
 _symmetry_equiv_pos_as_xyz
  1  'x, y, z'
loop_
 _atom_site_type_symbol
 _atom_site_label
 _atom_site_symmetry_multiplicity
 _atom_site_fract_x
 _atom_site_fract_y
 _atom_site_fract_z
 _atom_site_occupancy
  Dy  Dy0  1  0.135197  0.385197  0.729606  1
  Th  Th1  1  0.867927  0.617927  0.264148  1
  Si  Si2  1  0.291727  0.041727  0.416547  1
  Si  Si3  1  0.454369  0.204369  0.091262  1
  Si  Si4  1  0.708906  0.958906  0.582185  1
  Ag  Ag5  1  0.541875  0.791875  0.916253  1
