# generated using pymatgen
data_Y4Sn4As2Rh7
_symmetry_space_group_name_H-M   'P 1'
_cell_length_a   7.49231350
_cell_length_b   7.49231485
_cell_length_c   7.52507759
_cell_angle_alpha   109.35552850
_cell_angle_beta   109.35553998
_cell_angle_gamma   109.52652136
_symmetry_Int_Tables_number   1
_chemical_formula_structural   Y4Sn4As2Rh7
_chemical_formula_sum   'Y4 Sn4 As2 Rh7'
_cell_volume   325.88188108
_cell_formula_units_Z   1
loop_
 _symmetry_equiv_pos_site_id
 _symmetry_equiv_pos_as_xyz
  1  'x, y, z'
loop_
 _atom_site_type_symbol
 _atom_site_label
 _atom_site_symmetry_multiplicity
 _atom_site_fract_x
 _atom_site_fract_y
 _atom_site_fract_z
 _atom_site_occupancy
  Y  Y0  1  0.456869  0.456869  0.461014  1
  Y  Y1  1  0.006834  0.506834  0.013668  1
  Y  Y2  1  0.506834  0.006834  0.013668  1
  Y  Y3  1  0.004145  0.004145  0.461014  1
  Sn  Sn4  1  0.702050  0.989892  0.691942  1
  Sn  Sn5  1  0.672389  0.672389  0.978992  1
  Sn  Sn6  1  0.306602  0.306602  0.978992  1
  Sn  Sn7  1  0.989892  0.702050  0.691942  1
  As  As8  1  0.994586  0.338730  0.333315  1
  As  As9  1  0.338730  0.994586  0.333315  1
  Rh  Rh10  1  0.501616  0.749696  0.251312  1
  Rh  Rh11  1  0.751747  0.251747  0.503493  1
  Rh  Rh12  1  0.251747  0.751747  0.503493  1
  Rh  Rh13  1  0.238332  0.503090  0.741421  1
  Rh  Rh14  1  0.024842  0.024842  0.049683  1
  Rh  Rh15  1  0.503090  0.238332  0.741421  1
  Rh  Rh16  1  0.749696  0.501616  0.251312  1
