# generated using pymatgen
data_SmIn2(SnRh)4
_symmetry_space_group_name_H-M   'P 1'
_cell_length_a   7.00413961
_cell_length_b   7.00414031
_cell_length_c   6.96823921
_cell_angle_alpha   120.40627231
_cell_angle_beta   120.40628101
_cell_angle_gamma   89.59503460
_symmetry_Int_Tables_number   1
_chemical_formula_structural   SmIn2(SnRh)4
_chemical_formula_sum   'Sm1 In2 Sn4 Rh4'
_cell_volume   239.59588130
_cell_formula_units_Z   1
loop_
 _symmetry_equiv_pos_site_id
 _symmetry_equiv_pos_as_xyz
  1  'x, y, z'
loop_
 _atom_site_type_symbol
 _atom_site_label
 _atom_site_symmetry_multiplicity
 _atom_site_fract_x
 _atom_site_fract_y
 _atom_site_fract_z
 _atom_site_occupancy
  Sm  Sm0  1  0.000370  0.000370  0.000000  1
  In  In1  1  0.463675  0.123282  0.000000  1
  In  In2  1  0.123282  0.463675  0.000000  1
  Sn  Sn3  1  0.873709  0.873709  0.336631  1
  Sn  Sn4  1  0.500953  0.000953  0.500000  1
  Sn  Sn5  1  0.000953  0.500953  0.500000  1
  Sn  Sn6  1  0.537080  0.537080  0.663370  1
  Rh  Rh7  1  0.750995  0.396699  0.000000  1
  Rh  Rh8  1  0.396699  0.750995  0.000000  1
  Rh  Rh9  1  0.611661  0.611661  0.371038  1
  Rh  Rh10  1  0.240624  0.240624  0.628962  1
