# generated using pymatgen
data_EuThN2
_symmetry_space_group_name_H-M   'P 1'
_cell_length_a   6.32138123
_cell_length_b   6.32138093
_cell_length_c   6.32138049
_cell_angle_alpha   33.89749745
_cell_angle_beta   33.89750480
_cell_angle_gamma   33.89751067
_symmetry_Int_Tables_number   1
_chemical_formula_structural   EuThN2
_chemical_formula_sum   'Eu1 Th1 N2'
_cell_volume   70.02258371
_cell_formula_units_Z   1
loop_
 _symmetry_equiv_pos_site_id
 _symmetry_equiv_pos_as_xyz
  1  'x, y, z'
loop_
 _atom_site_type_symbol
 _atom_site_label
 _atom_site_symmetry_multiplicity
 _atom_site_fract_x
 _atom_site_fract_y
 _atom_site_fract_z
 _atom_site_occupancy
  Eu  Eu0  1  0.000000  0.000000  0.000000  1
  Th  Th1  1  0.500000  0.500000  0.500000  1
  N  N2  1  0.241527  0.241527  0.241527  1
  N  N3  1  0.758473  0.758473  0.758473  1
