# generated using pymatgen
data_TbNd2CBr5
_symmetry_space_group_name_H-M   'P 1'
_cell_length_a   7.53221029
_cell_length_b   9.15906575
_cell_length_c   9.21351331
_cell_angle_alpha   107.43309324
_cell_angle_beta   95.86200700
_cell_angle_gamma   104.65498980
_symmetry_Int_Tables_number   1
_chemical_formula_structural   TbNd2CBr5
_chemical_formula_sum   'Tb2 Nd4 C2 Br10'
_cell_volume   575.69350011
_cell_formula_units_Z   2
loop_
 _symmetry_equiv_pos_site_id
 _symmetry_equiv_pos_as_xyz
  1  'x, y, z'
loop_
 _atom_site_type_symbol
 _atom_site_label
 _atom_site_symmetry_multiplicity
 _atom_site_fract_x
 _atom_site_fract_y
 _atom_site_fract_z
 _atom_site_occupancy
  Tb  Tb0  1  0.621403  0.860014  0.812301  1
  Tb  Tb1  1  0.378597  0.139986  0.187699  1
  Nd  Nd2  1  0.885375  0.956510  0.232588  1
  Nd  Nd3  1  0.114625  0.043490  0.767412  1
  Nd  Nd4  1  0.030652  0.722725  0.917246  1
  Nd  Nd5  1  0.969348  0.277275  0.082754  1
  C  C6  1  0.907768  0.968736  0.956491  1
  C  C7  1  0.092232  0.031264  0.043509  1
  Br  Br8  1  0.747127  0.915866  0.545614  1
  Br  Br9  1  0.252873  0.084134  0.454386  1
  Br  Br10  1  0.458266  0.821950  0.084920  1
  Br  Br11  1  0.541734  0.178050  0.915080  1
  Br  Br12  1  0.792712  0.260072  0.351682  1
  Br  Br13  1  0.207288  0.739928  0.648318  1
  Br  Br14  1  0.909375  0.628913  0.177875  1
  Br  Br15  1  0.090625  0.371087  0.822125  1
  Br  Br16  1  0.655169  0.551233  0.727245  1
  Br  Br17  1  0.344831  0.448767  0.272755  1
