# generated using pymatgen
data_Sc4MnCo4Si2Ni
_symmetry_space_group_name_H-M   'P 1'
_cell_length_a   5.00721104
_cell_length_b   5.02486701
_cell_length_c   7.67229100
_cell_angle_alpha   90.00000000
_cell_angle_beta   90.00000000
_cell_angle_gamma   119.60352206
_symmetry_Int_Tables_number   1
_chemical_formula_structural   Sc4MnCo4Si2Ni
_chemical_formula_sum   'Sc4 Mn1 Co4 Si2 Ni1'
_cell_volume   167.84075393
_cell_formula_units_Z   1
loop_
 _symmetry_equiv_pos_site_id
 _symmetry_equiv_pos_as_xyz
  1  'x, y, z'
loop_
 _atom_site_type_symbol
 _atom_site_label
 _atom_site_symmetry_multiplicity
 _atom_site_fract_x
 _atom_site_fract_y
 _atom_site_fract_z
 _atom_site_occupancy
  Sc  Sc0  1  0.330364  0.666740  0.558460  1
  Sc  Sc1  1  0.665069  0.334276  0.436023  1
  Sc  Sc2  1  0.665069  0.334276  0.063977  1
  Sc  Sc3  1  0.330364  0.666740  0.941540  1
  Mn  Mn4  1  0.828040  0.169289  0.750000  1
  Co  Co5  1  0.164062  0.827787  0.250000  1
  Co  Co6  1  0.833314  0.660838  0.750000  1
  Co  Co7  1  0.167460  0.340286  0.250000  1
  Co  Co8  1  0.342900  0.169039  0.750000  1
  Si  Si9  1  0.007238  0.999877  0.496708  1
  Si  Si10  1  0.007238  0.999877  0.003292  1
  Ni  Ni11  1  0.658882  0.830974  0.250000  1
