# generated using pymatgen
data_DyHo7Ti9Si16Tc3
_symmetry_space_group_name_H-M   'P 1'
_cell_length_a   6.96553529
_cell_length_b   6.96530236
_cell_length_c   12.79227257
_cell_angle_alpha   90.06705504
_cell_angle_beta   89.92909418
_cell_angle_gamma   90.01094847
_symmetry_Int_Tables_number   1
_chemical_formula_structural   DyHo7Ti9Si16Tc3
_chemical_formula_sum   'Dy1 Ho7 Ti9 Si16 Tc3'
_cell_volume   620.64253655
_cell_formula_units_Z   1
loop_
 _symmetry_equiv_pos_site_id
 _symmetry_equiv_pos_as_xyz
  1  'x, y, z'
loop_
 _atom_site_type_symbol
 _atom_site_label
 _atom_site_symmetry_multiplicity
 _atom_site_fract_x
 _atom_site_fract_y
 _atom_site_fract_z
 _atom_site_occupancy
  Dy  Dy0  1  0.340536  0.001698  0.467302  1
  Ho  Ho1  1  0.498879  0.841748  0.719382  1
  Ho  Ho2  1  0.500094  0.158592  0.217719  1
  Ho  Ho3  1  0.841829  0.498833  0.280645  1
  Ho  Ho4  1  0.158569  0.500099  0.782252  1
  Ho  Ho5  1  0.658776  0.999610  0.968379  1
  Ho  Ho6  1  0.001345  0.340743  0.532798  1
  Ho  Ho7  1  0.999583  0.658773  0.031594  1
  Ti  Ti8  1  0.674034  0.673880  0.500015  1
  Ti  Ti9  1  0.152052  0.005591  0.877193  1
  Ti  Ti10  1  0.494455  0.653495  0.124608  1
  Ti  Ti11  1  0.505126  0.347978  0.627797  1
  Ti  Ti12  1  0.653501  0.494453  0.875384  1
  Ti  Ti13  1  0.347936  0.505028  0.372254  1
  Ti  Ti14  1  0.847130  0.992292  0.375939  1
  Ti  Ti15  1  0.005524  0.152064  0.122811  1
  Ti  Ti16  1  0.992257  0.847117  0.624089  1
  Si  Si17  1  0.199902  0.129362  0.684132  1
  Si  Si18  1  0.370356  0.700560  0.933061  1
  Si  Si19  1  0.631721  0.297349  0.434434  1
  Si  Si20  1  0.700564  0.370371  0.066920  1
  Si  Si21  1  0.297066  0.631148  0.565680  1
  Si  Si22  1  0.799198  0.870099  0.183602  1
  Si  Si23  1  0.129136  0.200188  0.315817  1
  Si  Si24  1  0.870128  0.799159  0.816373  1
  Si  Si25  1  0.290560  0.952084  0.066721  1
  Si  Si26  1  0.547427  0.790207  0.315731  1
  Si  Si27  1  0.452049  0.210502  0.816847  1
  Si  Si28  1  0.790373  0.547253  0.684165  1
  Si  Si29  1  0.210472  0.452110  0.183128  1
  Si  Si30  1  0.708251  0.049240  0.567616  1
  Si  Si31  1  0.952114  0.290572  0.933264  1
  Si  Si32  1  0.048955  0.707705  0.432481  1
  Tc  Tc33  1  0.328031  0.328009  0.999968  1
  Tc  Tc34  1  0.173845  0.828153  0.248456  1
  Tc  Tc35  1  0.828225  0.173931  0.751440  1
