# generated using pymatgen
data_NbNiAsF12
_symmetry_space_group_name_H-M   'P 1'
_cell_length_a   5.45323673
_cell_length_b   10.99813750
_cell_length_c   5.46829000
_cell_angle_alpha   58.29000335
_cell_angle_beta   57.98764940
_cell_angle_gamma   58.30486111
_symmetry_Int_Tables_number   1
_chemical_formula_structural   NbNiAsF12
_chemical_formula_sum   'Nb1 Ni1 As1 F12'
_cell_volume   222.30415890
_cell_formula_units_Z   1
loop_
 _symmetry_equiv_pos_site_id
 _symmetry_equiv_pos_as_xyz
  1  'x, y, z'
loop_
 _atom_site_type_symbol
 _atom_site_label
 _atom_site_symmetry_multiplicity
 _atom_site_fract_x
 _atom_site_fract_y
 _atom_site_fract_z
 _atom_site_occupancy
  Nb  Nb0  1  0.003141  0.009735  0.984406  1
  Ni  Ni1  1  0.501821  0.740338  0.511375  1
  As  As2  1  0.987444  0.498106  0.013572  1
  F  F3  1  0.360924  0.059700  0.771646  1
  F  F4  1  0.310336  0.569568  0.778762  1
  F  F5  1  0.114096  0.399035  0.320606  1
  F  F6  1  0.165156  0.869154  0.335738  1
  F  F7  1  0.204877  0.351692  0.866077  1
  F  F8  1  0.248538  0.825012  0.849034  1
  F  F9  1  0.881109  0.111940  0.644110  1
  F  F10  1  0.861251  0.620907  0.680686  1
  F  F11  1  0.657189  0.451071  0.218757  1
  F  F12  1  0.680852  0.909724  0.249169  1
  F  F13  1  0.750213  0.167200  0.144813  1
  F  F14  1  0.773053  0.666821  0.131249  1
