# generated using pymatgen
data_Ca2Yb5YBi6
_symmetry_space_group_name_H-M   'P 1'
_cell_length_a   8.29046362
_cell_length_b   8.35524031
_cell_length_c   8.37217873
_cell_angle_alpha   109.62286319
_cell_angle_beta   109.33847999
_cell_angle_gamma   109.28382880
_symmetry_Int_Tables_number   1
_chemical_formula_structural   Ca2Yb5YBi6
_chemical_formula_sum   'Ca2 Yb5 Y1 Bi6'
_cell_volume   447.35352560
_cell_formula_units_Z   1
loop_
 _symmetry_equiv_pos_site_id
 _symmetry_equiv_pos_as_xyz
  1  'x, y, z'
loop_
 _atom_site_type_symbol
 _atom_site_label
 _atom_site_symmetry_multiplicity
 _atom_site_fract_x
 _atom_site_fract_y
 _atom_site_fract_z
 _atom_site_occupancy
  Ca  Ca0  1  0.648978  0.500367  0.000238  1
  Ca  Ca1  1  0.499875  0.000589  0.650336  1
  Yb  Yb2  1  0.354995  0.351794  0.355633  1
  Yb  Yb3  1  0.503005  0.003618  0.148149  1
  Yb  Yb4  1  0.998961  0.649750  0.499558  1
  Yb  Yb5  1  0.849599  0.849379  0.850182  1
  Yb  Yb6  1  0.999283  0.144444  0.496303  1
  Y  Y7  1  0.146700  0.500117  0.000445  1
  Bi  Bi8  1  0.370829  0.624070  0.754147  1
  Bi  Bi9  1  0.882189  0.254349  0.126593  1
  Bi  Bi10  1  0.616946  0.745616  0.370002  1
  Bi  Bi11  1  0.126772  0.871701  0.245131  1
  Bi  Bi12  1  0.246276  0.129841  0.875727  1
  Bi  Bi13  1  0.755594  0.374363  0.627556  1
