# generated using pymatgen
data_CaIn3GaIr
_symmetry_space_group_name_H-M   'P 1'
_cell_length_a   4.30089300
_cell_length_b   7.50568500
_cell_length_c   8.31838100
_cell_angle_alpha   90.00000000
_cell_angle_beta   90.00000000
_cell_angle_gamma   90.00000000
_symmetry_Int_Tables_number   1
_chemical_formula_structural   CaIn3GaIr
_chemical_formula_sum   'Ca2 In6 Ga2 Ir2'
_cell_volume   268.52688882
_cell_formula_units_Z   2
loop_
 _symmetry_equiv_pos_site_id
 _symmetry_equiv_pos_as_xyz
  1  'x, y, z'
loop_
 _atom_site_type_symbol
 _atom_site_label
 _atom_site_symmetry_multiplicity
 _atom_site_fract_x
 _atom_site_fract_y
 _atom_site_fract_z
 _atom_site_occupancy
  Ca  Ca0  1  0.000000  0.402885  0.250000  1
  Ca  Ca1  1  0.000000  0.597115  0.750000  1
  In  In2  1  0.500000  0.308052  0.558918  1
  In  In3  1  0.500000  0.073866  0.250000  1
  In  In4  1  0.500000  0.926134  0.750000  1
  In  In5  1  0.500000  0.308052  0.941082  1
  In  In6  1  0.500000  0.691948  0.058918  1
  In  In7  1  0.500000  0.691948  0.441082  1
  Ga  Ga8  1  0.000000  0.000000  0.000000  1
  Ga  Ga9  1  0.000000  0.000000  0.500000  1
  Ir  Ir10  1  0.000000  0.824028  0.250000  1
  Ir  Ir11  1  0.000000  0.175972  0.750000  1
