# generated using pymatgen
data_Rb4Hf4Zr2FeBr18
_symmetry_space_group_name_H-M   'P 1'
_cell_length_a   10.66733883
_cell_length_b   10.88321694
_cell_length_c   10.98622714
_cell_angle_alpha   118.43565085
_cell_angle_beta   100.36357911
_cell_angle_gamma   103.92174188
_symmetry_Int_Tables_number   1
_chemical_formula_structural   Rb4Hf4Zr2FeBr18
_chemical_formula_sum   'Rb4 Hf4 Zr2 Fe1 Br18'
_cell_volume   1021.78494623
_cell_formula_units_Z   1
loop_
 _symmetry_equiv_pos_site_id
 _symmetry_equiv_pos_as_xyz
  1  'x, y, z'
loop_
 _atom_site_type_symbol
 _atom_site_label
 _atom_site_symmetry_multiplicity
 _atom_site_fract_x
 _atom_site_fract_y
 _atom_site_fract_z
 _atom_site_occupancy
  Rb  Rb0  1  0.655716  0.537798  0.228004  1
  Rb  Rb1  1  0.344284  0.462202  0.771996  1
  Rb  Rb2  1  0.690485  0.227266  0.565263  1
  Rb  Rb3  1  0.309515  0.772734  0.434737  1
  Hf  Hf4  1  0.151671  0.056191  0.230237  1
  Hf  Hf5  1  0.848329  0.943809  0.769763  1
  Hf  Hf6  1  0.861200  0.125636  0.131946  1
  Hf  Hf7  1  0.138800  0.874364  0.868054  1
  Zr  Zr8  1  0.146366  0.238847  0.045234  1
  Zr  Zr9  1  0.853634  0.761153  0.954766  1
  Fe  Fe10  1  0.000000  0.000000  0.000000  1
  Br  Br11  1  0.005666  0.403858  0.195429  1
  Br  Br12  1  0.994334  0.596142  0.804571  1
  Br  Br13  1  0.328127  0.328987  0.310803  1
  Br  Br14  1  0.671873  0.671013  0.689197  1
  Br  Br15  1  0.321655  0.518033  0.100330  1
  Br  Br16  1  0.678345  0.481967  0.899670  1
  Br  Br17  1  0.007315  0.800696  0.209820  1
  Br  Br18  1  0.992685  0.199304  0.790180  1
  Br  Br19  1  0.707224  0.269308  0.282139  1
  Br  Br20  1  0.292776  0.730692  0.717861  1
  Br  Br21  1  0.314765  0.122856  0.902283  1
  Br  Br22  1  0.685235  0.877144  0.097717  1
  Br  Br23  1  0.015690  0.201123  0.401845  1
  Br  Br24  1  0.984310  0.798877  0.598155  1
  Br  Br25  1  0.318094  0.923716  0.109167  1
  Br  Br26  1  0.681906  0.076284  0.890833  1
  Br  Br27  1  0.329970  0.119795  0.493603  1
  Br  Br28  1  0.670030  0.880205  0.506397  1
