# generated using pymatgen
data_Dy13Tm7(Bi2Ru)4
_symmetry_space_group_name_H-M   'P 1'
_cell_length_a   7.93474976
_cell_length_b   8.97011794
_cell_length_c   12.49020232
_cell_angle_alpha   89.97311047
_cell_angle_beta   90.01208696
_cell_angle_gamma   90.02616983
_symmetry_Int_Tables_number   1
_chemical_formula_structural   Dy13Tm7(Bi2Ru)4
_chemical_formula_sum   'Dy13 Tm7 Bi8 Ru4'
_cell_volume   888.99794845
_cell_formula_units_Z   1
loop_
 _symmetry_equiv_pos_site_id
 _symmetry_equiv_pos_as_xyz
  1  'x, y, z'
loop_
 _atom_site_type_symbol
 _atom_site_label
 _atom_site_symmetry_multiplicity
 _atom_site_fract_x
 _atom_site_fract_y
 _atom_site_fract_z
 _atom_site_occupancy
  Dy  Dy0  1  0.843845  0.750484  0.793973  1
  Dy  Dy1  1  0.155961  0.249880  0.206120  1
  Dy  Dy2  1  0.344222  0.250018  0.705564  1
  Dy  Dy3  1  0.655930  0.749957  0.293924  1
  Dy  Dy4  1  0.375366  0.749823  0.689367  1
  Dy  Dy5  1  0.624465  0.250113  0.310504  1
  Dy  Dy6  1  0.874832  0.249345  0.810189  1
  Dy  Dy7  1  0.123868  0.750880  0.190104  1
  Dy  Dy8  1  0.946922  0.750064  0.504531  1
  Dy  Dy9  1  0.052577  0.250034  0.495273  1
  Dy  Dy10  1  0.448164  0.249114  0.995520  1
  Dy  Dy11  1  0.553910  0.750622  0.004636  1
  Dy  Dy12  1  0.176154  0.540188  0.935708  1
  Tm  Tm13  1  0.673538  0.040611  0.564311  1
  Tm  Tm14  1  0.326689  0.959267  0.435636  1
  Tm  Tm15  1  0.173384  0.959145  0.935789  1
  Tm  Tm16  1  0.326542  0.540854  0.435678  1
  Tm  Tm17  1  0.826697  0.040954  0.064491  1
  Tm  Tm18  1  0.673639  0.459387  0.564143  1
  Tm  Tm19  1  0.826183  0.459269  0.064506  1
  Bi  Bi20  1  0.568541  0.493904  0.826713  1
  Bi  Bi21  1  0.432174  0.505937  0.172708  1
  Bi  Bi22  1  0.066937  0.505801  0.672790  1
  Bi  Bi23  1  0.432650  0.994193  0.173158  1
  Bi  Bi24  1  0.932665  0.494141  0.327114  1
  Bi  Bi25  1  0.566800  0.005700  0.826766  1
  Bi  Bi26  1  0.932289  0.006127  0.327396  1
  Bi  Bi27  1  0.067450  0.994125  0.672814  1
  Ru  Ru28  1  0.570011  0.749922  0.508936  1
  Ru  Ru29  1  0.430206  0.250042  0.490924  1
  Ru  Ru30  1  0.069184  0.249187  0.991115  1
  Ru  Ru31  1  0.928203  0.750911  0.009603  1
