# generated using pymatgen
data_TbY11Co4
_symmetry_space_group_name_H-M   'P 1'
_cell_length_a   6.29163034
_cell_length_b   6.99313952
_cell_length_c   9.48298600
_cell_angle_alpha   90.00000000
_cell_angle_beta   90.00000000
_cell_angle_gamma   90.20774662
_symmetry_Int_Tables_number   1
_chemical_formula_structural   TbY11Co4
_chemical_formula_sum   'Tb1 Y11 Co4'
_cell_volume   417.23203462
_cell_formula_units_Z   1
loop_
 _symmetry_equiv_pos_site_id
 _symmetry_equiv_pos_as_xyz
  1  'x, y, z'
loop_
 _atom_site_type_symbol
 _atom_site_label
 _atom_site_symmetry_multiplicity
 _atom_site_fract_x
 _atom_site_fract_y
 _atom_site_fract_z
 _atom_site_occupancy
  Tb  Tb0  1  0.856943  0.547459  0.250000  1
  Y  Y1  1  0.322594  0.672216  0.068337  1
  Y  Y2  1  0.176261  0.173384  0.430456  1
  Y  Y3  1  0.677004  0.327306  0.568080  1
  Y  Y4  1  0.822991  0.827085  0.930981  1
  Y  Y5  1  0.677004  0.327306  0.931920  1
  Y  Y6  1  0.822991  0.827085  0.569019  1
  Y  Y7  1  0.322594  0.672216  0.431663  1
  Y  Y8  1  0.176261  0.173384  0.069544  1
  Y  Y9  1  0.641817  0.042859  0.250000  1
  Y  Y10  1  0.141476  0.454846  0.750000  1
  Y  Y11  1  0.358092  0.956529  0.750000  1
  Co  Co12  1  0.046062  0.885556  0.250000  1
  Co  Co13  1  0.460717  0.387581  0.250000  1
  Co  Co14  1  0.953191  0.112911  0.750000  1
  Co  Co15  1  0.543999  0.612276  0.750000  1
