# generated using pymatgen
data_Tb20Si15Ag
_symmetry_space_group_name_H-M   'P 1'
_cell_length_a   7.50530578
_cell_length_b   7.74622774
_cell_length_c   14.75103785
_cell_angle_alpha   90.13538556
_cell_angle_beta   90.39031789
_cell_angle_gamma   90.12073553
_symmetry_Int_Tables_number   1
_chemical_formula_structural   Tb20Si15Ag
_chemical_formula_sum   'Tb20 Si15 Ag1'
_cell_volume   857.56877640
_cell_formula_units_Z   1
loop_
 _symmetry_equiv_pos_site_id
 _symmetry_equiv_pos_as_xyz
  1  'x, y, z'
loop_
 _atom_site_type_symbol
 _atom_site_label
 _atom_site_symmetry_multiplicity
 _atom_site_fract_x
 _atom_site_fract_y
 _atom_site_fract_z
 _atom_site_occupancy
  Tb  Tb0  1  0.678387  0.177321  0.624013  1
  Tb  Tb1  1  0.180977  0.320588  0.877478  1
  Tb  Tb2  1  0.319414  0.818940  0.121830  1
  Tb  Tb3  1  0.825291  0.674719  0.376139  1
  Tb  Tb4  1  0.318223  0.822717  0.377837  1
  Tb  Tb5  1  0.819363  0.679881  0.122398  1
  Tb  Tb6  1  0.680001  0.180583  0.877514  1
  Tb  Tb7  1  0.176579  0.320704  0.623273  1
  Tb  Tb8  1  0.524455  0.677792  0.601248  1
  Tb  Tb9  1  0.028149  0.816217  0.901496  1
  Tb  Tb10  1  0.470400  0.317271  0.098594  1
  Tb  Tb11  1  0.979219  0.185176  0.398674  1
  Tb  Tb12  1  0.469606  0.323572  0.399715  1
  Tb  Tb13  1  0.971080  0.183741  0.098372  1
  Tb  Tb14  1  0.529938  0.683292  0.900424  1
  Tb  Tb15  1  0.027322  0.817033  0.600496  1
  Tb  Tb16  1  0.850681  0.510535  0.750036  1
  Tb  Tb17  1  0.349290  0.987542  0.748546  1
  Tb  Tb18  1  0.151144  0.486841  0.249911  1
  Tb  Tb19  1  0.652502  0.012132  0.249337  1
  Si  Si20  1  0.145461  0.528227  0.039968  1
  Si  Si21  1  0.353654  0.029091  0.960388  1
  Si  Si22  1  0.850909  0.472070  0.541147  1
  Si  Si23  1  0.342071  0.028508  0.542326  1
  Si  Si24  1  0.854556  0.471794  0.959701  1
  Si  Si25  1  0.644635  0.970880  0.038803  1
  Si  Si26  1  0.147838  0.529858  0.461013  1
  Si  Si27  1  0.475790  0.395708  0.750519  1
  Si  Si28  1  0.974724  0.103393  0.751845  1
  Si  Si29  1  0.524693  0.606511  0.248649  1
  Si  Si30  1  0.025850  0.896463  0.248271  1
  Si  Si31  1  0.734310  0.873318  0.751391  1
  Si  Si32  1  0.233510  0.625420  0.751208  1
  Si  Si33  1  0.268404  0.125065  0.247727  1
  Si  Si34  1  0.766067  0.375142  0.248829  1
  Ag  Ag35  1  0.655507  0.971960  0.460884  1
