# generated using pymatgen
data_ZrNp3(FeB4)4
_symmetry_space_group_name_H-M   'P 1'
_cell_length_a   3.32347600
_cell_length_b   5.88055181
_cell_length_c   11.40085088
_cell_angle_alpha   90.16208965
_cell_angle_beta   90.00000000
_cell_angle_gamma   90.00000000
_symmetry_Int_Tables_number   1
_chemical_formula_structural   ZrNp3(FeB4)4
_chemical_formula_sum   'Zr1 Np3 Fe4 B16'
_cell_volume   222.81588786
_cell_formula_units_Z   1
loop_
 _symmetry_equiv_pos_site_id
 _symmetry_equiv_pos_as_xyz
  1  'x, y, z'
loop_
 _atom_site_type_symbol
 _atom_site_label
 _atom_site_symmetry_multiplicity
 _atom_site_fract_x
 _atom_site_fract_y
 _atom_site_fract_z
 _atom_site_occupancy
  Zr  Zr0  1  0.000000  0.373864  0.149086  1
  Np  Np1  1  0.000000  0.125898  0.650483  1
  Np  Np2  1  0.000000  0.872781  0.348185  1
  Np  Np3  1  0.000000  0.626359  0.851089  1
  Fe  Fe4  1  0.000000  0.133001  0.913529  1
  Fe  Fe5  1  0.000000  0.869762  0.089400  1
  Fe  Fe6  1  0.000000  0.630871  0.587627  1
  Fe  Fe7  1  0.000000  0.367916  0.410034  1
  B  B8  1  0.500000  0.364571  0.968532  1
  B  B9  1  0.500000  0.635659  0.034440  1
  B  B10  1  0.500000  0.861958  0.532597  1
  B  B11  1  0.500000  0.137673  0.466273  1
  B  B12  1  0.500000  0.474531  0.691118  1
  B  B13  1  0.500000  0.524793  0.306485  1
  B  B14  1  0.500000  0.974656  0.810250  1
  B  B15  1  0.500000  0.028914  0.190725  1
  B  B16  1  0.500000  0.281819  0.815379  1
  B  B17  1  0.500000  0.714482  0.185272  1
  B  B18  1  0.500000  0.780773  0.685640  1
  B  B19  1  0.500000  0.218462  0.312814  1
  B  B20  1  0.500000  0.386895  0.545609  1
  B  B21  1  0.500000  0.611644  0.452909  1
  B  B22  1  0.500000  0.887419  0.955323  1
  B  B23  1  0.500000  0.115299  0.047200  1
