# generated using pymatgen
data_YHoPa(InRh)3
_symmetry_space_group_name_H-M   'P 1'
_cell_length_a   7.57725763
_cell_length_b   7.86167839
_cell_length_c   3.79596300
_cell_angle_alpha   90.00000000
_cell_angle_beta   90.00000000
_cell_angle_gamma   121.30436419
_symmetry_Int_Tables_number   1
_chemical_formula_structural   YHoPa(InRh)3
_chemical_formula_sum   'Y1 Ho1 Pa1 In3 Rh3'
_cell_volume   193.20587364
_cell_formula_units_Z   1
loop_
 _symmetry_equiv_pos_site_id
 _symmetry_equiv_pos_as_xyz
  1  'x, y, z'
loop_
 _atom_site_type_symbol
 _atom_site_label
 _atom_site_symmetry_multiplicity
 _atom_site_fract_x
 _atom_site_fract_y
 _atom_site_fract_z
 _atom_site_occupancy
  Y  Y0  1  0.596683  0.595407  0.500000  1
  Ho  Ho1  1  0.403093  0.998846  0.500000  1
  Pa  Pa2  1  0.999969  0.417312  0.500000  1
  In  In3  1  0.270877  0.259077  0.000000  1
  In  In4  1  0.000412  0.757008  0.000000  1
  In  In5  1  0.728970  0.988342  0.000000  1
  Rh  Rh6  1  0.295229  0.634493  0.000000  1
  Rh  Rh7  1  0.001044  0.012628  0.500000  1
  Rh  Rh8  1  0.703724  0.336887  0.000000  1
