# generated using pymatgen
data_YErMn3Ni9P7
_symmetry_space_group_name_H-M   'P 1'
_cell_length_a   9.12476100
_cell_length_b   9.12476053
_cell_length_c   3.66521200
_cell_angle_alpha   90.00000000
_cell_angle_beta   90.00000000
_cell_angle_gamma   120.00000532
_symmetry_Int_Tables_number   1
_chemical_formula_structural   YErMn3Ni9P7
_chemical_formula_sum   'Y1 Er1 Mn3 Ni9 P7'
_cell_volume   264.28510184
_cell_formula_units_Z   1
loop_
 _symmetry_equiv_pos_site_id
 _symmetry_equiv_pos_as_xyz
  1  'x, y, z'
loop_
 _atom_site_type_symbol
 _atom_site_label
 _atom_site_symmetry_multiplicity
 _atom_site_fract_x
 _atom_site_fract_y
 _atom_site_fract_z
 _atom_site_occupancy
  Y  Y0  1  0.333333  0.666667  0.000000  1
  Er  Er1  1  0.000000  0.000000  0.500000  1
  Mn  Mn2  1  0.788935  0.234791  0.500000  1
  Mn  Mn3  1  0.765209  0.554143  0.500000  1
  Mn  Mn4  1  0.445857  0.211065  0.500000  1
  Ni  Ni5  1  0.039098  0.270768  0.000000  1
  Ni  Ni6  1  0.729232  0.768330  0.000000  1
  Ni  Ni7  1  0.231670  0.960902  0.000000  1
  Ni  Ni8  1  0.542917  0.056206  0.000000  1
  Ni  Ni9  1  0.943794  0.486712  0.000000  1
  Ni  Ni10  1  0.513288  0.457083  0.000000  1
  Ni  Ni11  1  0.615108  0.898969  0.500000  1
  Ni  Ni12  1  0.101031  0.716139  0.500000  1
  Ni  Ni13  1  0.283861  0.384892  0.500000  1
  P  P14  1  0.780585  0.039260  0.000000  1
  P  P15  1  0.960740  0.741325  0.000000  1
  P  P16  1  0.258675  0.219415  0.000000  1
  P  P17  1  0.373516  0.927909  0.500000  1
  P  P18  1  0.072091  0.445608  0.500000  1
  P  P19  1  0.554392  0.626484  0.500000  1
  P  P20  1  0.666667  0.333333  0.000000  1
