# generated using pymatgen
data_CeHoPuSe3
_symmetry_space_group_name_H-M   'P 1'
_cell_length_a   4.14463400
_cell_length_b   4.14463458
_cell_length_c   10.09786300
_cell_angle_alpha   90.00000000
_cell_angle_beta   90.00000000
_cell_angle_gamma   119.99999539
_symmetry_Int_Tables_number   1
_chemical_formula_structural   CeHoPuSe3
_chemical_formula_sum   'Ce1 Ho1 Pu1 Se3'
_cell_volume   150.22166018
_cell_formula_units_Z   1
loop_
 _symmetry_equiv_pos_site_id
 _symmetry_equiv_pos_as_xyz
  1  'x, y, z'
loop_
 _atom_site_type_symbol
 _atom_site_label
 _atom_site_symmetry_multiplicity
 _atom_site_fract_x
 _atom_site_fract_y
 _atom_site_fract_z
 _atom_site_occupancy
  Ce  Ce0  1  0.000000  0.000000  0.002050  1
  Ho  Ho1  1  0.666667  0.333333  0.334958  1
  Pu  Pu2  1  0.333333  0.666667  0.662508  1
  Se  Se3  1  0.333333  0.666667  0.178442  1
  Se  Se4  1  0.666667  0.333333  0.826413  1
  Se  Se5  1  0.000000  0.000000  0.495629  1
