# generated using pymatgen
data_Li4TlSb3Rh8
_symmetry_space_group_name_H-M   'P 1'
_cell_length_a   6.19346600
_cell_length_b   6.20313400
_cell_length_c   6.19349200
_cell_angle_alpha   89.99815268
_cell_angle_beta   90.00033304
_cell_angle_gamma   89.99927956
_symmetry_Int_Tables_number   1
_chemical_formula_structural   Li4TlSb3Rh8
_chemical_formula_sum   'Li4 Tl1 Sb3 Rh8'
_cell_volume   237.94714684
_cell_formula_units_Z   1
loop_
 _symmetry_equiv_pos_site_id
 _symmetry_equiv_pos_as_xyz
  1  'x, y, z'
loop_
 _atom_site_type_symbol
 _atom_site_label
 _atom_site_symmetry_multiplicity
 _atom_site_fract_x
 _atom_site_fract_y
 _atom_site_fract_z
 _atom_site_occupancy
  Li  Li0  1  0.500010  0.750019  0.249935  1
  Li  Li1  1  0.000005  0.249996  0.249937  1
  Li  Li2  1  0.999982  0.750014  0.750061  1
  Li  Li3  1  0.500000  0.249988  0.750060  1
  Tl  Tl4  1  0.500006  0.249993  0.250019  1
  Sb  Sb5  1  0.999992  0.749995  0.250014  1
  Sb  Sb6  1  0.999996  0.250024  0.749986  1
  Sb  Sb7  1  0.500010  0.749988  0.749988  1
  Rh  Rh8  1  0.244257  0.994130  0.994285  1
  Rh  Rh9  1  0.755753  0.994153  0.994256  1
  Rh  Rh10  1  0.755747  0.505847  0.994271  1
  Rh  Rh11  1  0.244270  0.505877  0.994267  1
  Rh  Rh12  1  0.244252  0.505851  0.505729  1
  Rh  Rh13  1  0.244242  0.994138  0.505746  1
  Rh  Rh14  1  0.755735  0.505862  0.505703  1
  Rh  Rh15  1  0.755741  0.994125  0.505744  1
