# generated using pymatgen
data_Dy3ErFe5Si10Rh
_symmetry_space_group_name_H-M   'P 1'
_cell_length_a   8.00813164
_cell_length_b   8.00652734
_cell_length_c   8.00652750
_cell_angle_alpha   140.35104732
_cell_angle_beta   108.07277994
_cell_angle_gamma   85.39768148
_symmetry_Int_Tables_number   1
_chemical_formula_structural   Dy3ErFe5Si10Rh
_chemical_formula_sum   'Dy3 Er1 Fe5 Si10 Rh1'
_cell_volume   300.56758436
_cell_formula_units_Z   1
loop_
 _symmetry_equiv_pos_site_id
 _symmetry_equiv_pos_as_xyz
  1  'x, y, z'
loop_
 _atom_site_type_symbol
 _atom_site_label
 _atom_site_symmetry_multiplicity
 _atom_site_fract_x
 _atom_site_fract_y
 _atom_site_fract_z
 _atom_site_occupancy
  Dy  Dy0  1  0.404709  0.637163  0.767548  1
  Dy  Dy1  1  0.871277  0.138518  0.732758  1
  Dy  Dy2  1  0.135980  0.863971  0.272008  1
  Er  Er3  1  0.594340  0.362669  0.231670  1
  Fe  Fe4  1  0.996105  0.747235  0.745037  1
  Fe  Fe5  1  0.448328  0.857209  0.591121  1
  Fe  Fe6  1  0.263134  0.354750  0.908385  1
  Fe  Fe7  1  0.737542  0.644340  0.093202  1
  Fe  Fe8  1  0.996105  0.251068  0.248870  1
  Si  Si9  1  0.248584  0.091510  0.157075  1
  Si  Si10  1  0.735075  0.905951  0.829124  1
  Si  Si11  1  0.073991  0.405567  0.668424  1
  Si  Si12  1  0.924832  0.594175  0.330658  1
  Si  Si13  1  0.796640  0.034818  0.246532  1
  Si  Si14  1  0.211354  0.462951  0.250883  1
  Si  Si15  1  0.211354  0.960469  0.748402  1
  Si  Si16  1  0.502874  0.734187  0.243124  1
  Si  Si17  1  0.502874  0.259750  0.768687  1
  Si  Si18  1  0.796640  0.550108  0.761822  1
  Rh  Rh19  1  0.548262  0.143591  0.404670  1
