# generated using pymatgen
data_Th2Zr3Ge4
_symmetry_space_group_name_H-M   'P 1'
_cell_length_a   7.53150900
_cell_length_b   7.40093743
_cell_length_c   7.54894470
_cell_angle_alpha   70.24322748
_cell_angle_beta   90.00000000
_cell_angle_gamma   90.00000000
_symmetry_Int_Tables_number   1
_chemical_formula_structural   Th2Zr3Ge4
_chemical_formula_sum   'Th4 Zr6 Ge8'
_cell_volume   396.01113078
_cell_formula_units_Z   2
loop_
 _symmetry_equiv_pos_site_id
 _symmetry_equiv_pos_as_xyz
  1  'x, y, z'
loop_
 _atom_site_type_symbol
 _atom_site_label
 _atom_site_symmetry_multiplicity
 _atom_site_fract_x
 _atom_site_fract_y
 _atom_site_fract_z
 _atom_site_occupancy
  Th  Th0  1  0.671452  0.937936  0.689461  1
  Th  Th1  1  0.328548  0.062064  0.310539  1
  Th  Th2  1  0.171452  0.562064  0.310539  1
  Th  Th3  1  0.828548  0.437936  0.689461  1
  Zr  Zr4  1  0.669872  0.748378  0.248464  1
  Zr  Zr5  1  0.330128  0.251622  0.751536  1
  Zr  Zr6  1  0.169872  0.751622  0.751536  1
  Zr  Zr7  1  0.830128  0.248378  0.248464  1
  Zr  Zr8  1  0.000000  0.000000  0.000000  1
  Zr  Zr9  1  0.500000  0.500000  0.000000  1
  Ge  Ge10  1  0.960280  0.857749  0.412814  1
  Ge  Ge11  1  0.039720  0.142251  0.587186  1
  Ge  Ge12  1  0.460280  0.642251  0.587186  1
  Ge  Ge13  1  0.539720  0.357749  0.412814  1
  Ge  Ge14  1  0.867907  0.634147  0.996303  1
  Ge  Ge15  1  0.132093  0.365853  0.003697  1
  Ge  Ge16  1  0.367907  0.865853  0.003697  1
  Ge  Ge17  1  0.632093  0.134147  0.996303  1
