# generated using pymatgen
data_Dy9Lu11Sn9Pb7
_symmetry_space_group_name_H-M   'P 1'
_cell_length_a   8.00417533
_cell_length_b   8.12702024
_cell_length_c   15.35813971
_cell_angle_alpha   90.07884710
_cell_angle_beta   89.97434341
_cell_angle_gamma   90.05540677
_symmetry_Int_Tables_number   1
_chemical_formula_structural   Dy9Lu11Sn9Pb7
_chemical_formula_sum   'Dy9 Lu11 Sn9 Pb7'
_cell_volume   999.04693382
_cell_formula_units_Z   1
loop_
 _symmetry_equiv_pos_site_id
 _symmetry_equiv_pos_as_xyz
  1  'x, y, z'
loop_
 _atom_site_type_symbol
 _atom_site_label
 _atom_site_symmetry_multiplicity
 _atom_site_fract_x
 _atom_site_fract_y
 _atom_site_fract_z
 _atom_site_occupancy
  Dy  Dy0  1  0.865915  0.660272  0.877035  1
  Dy  Dy1  1  0.526002  0.323736  0.901781  1
  Dy  Dy2  1  0.024593  0.177733  0.599176  1
  Dy  Dy3  1  0.476073  0.677879  0.400235  1
  Dy  Dy4  1  0.974899  0.819785  0.100279  1
  Dy  Dy5  1  0.479984  0.674328  0.099098  1
  Dy  Dy6  1  0.975651  0.822262  0.399772  1
  Dy  Dy7  1  0.523341  0.321442  0.599034  1
  Dy  Dy8  1  0.022130  0.179524  0.901092  1
  Lu  Lu9  1  0.364422  0.839606  0.873918  1
  Lu  Lu10  1  0.865359  0.659871  0.625151  1
  Lu  Lu11  1  0.634552  0.159723  0.374330  1
  Lu  Lu12  1  0.132450  0.339911  0.124947  1
  Lu  Lu13  1  0.635165  0.162985  0.126258  1
  Lu  Lu14  1  0.134022  0.339772  0.374348  1
  Lu  Lu15  1  0.366154  0.840538  0.625220  1
  Lu  Lu16  1  0.196060  0.504698  0.749642  1
  Lu  Lu17  1  0.695477  0.995661  0.749416  1
  Lu  Lu18  1  0.803509  0.495043  0.248754  1
  Lu  Lu19  1  0.304051  0.004598  0.249936  1
  Sn  Sn20  1  0.794659  0.458284  0.043025  1
  Sn  Sn21  1  0.559715  0.621818  0.749360  1
  Sn  Sn22  1  0.060605  0.878958  0.749456  1
  Sn  Sn23  1  0.438609  0.378104  0.250657  1
  Sn  Sn24  1  0.940157  0.121627  0.249981  1
  Sn  Sn25  1  0.331995  0.151348  0.750354  1
  Sn  Sn26  1  0.831267  0.348884  0.749247  1
  Sn  Sn27  1  0.667497  0.849433  0.249783  1
  Sn  Sn28  1  0.168547  0.650309  0.249713  1
  Pb  Pb29  1  0.294020  0.039107  0.041528  1
  Pb  Pb30  1  0.793902  0.459943  0.458313  1
  Pb  Pb31  1  0.707071  0.959577  0.540839  1
  Pb  Pb32  1  0.209942  0.539628  0.959385  1
  Pb  Pb33  1  0.703011  0.963131  0.959450  1
  Pb  Pb34  1  0.205948  0.540383  0.540990  1
  Pb  Pb35  1  0.293248  0.040099  0.458499  1
