# generated using pymatgen
data_Nd2BeIrI
_symmetry_space_group_name_H-M   'P 1'
_cell_length_a   3.99324200
_cell_length_b   3.99324199
_cell_length_c   17.45306800
_cell_angle_alpha   90.00000000
_cell_angle_beta   90.00000000
_cell_angle_gamma   120.00000011
_symmetry_Int_Tables_number   1
_chemical_formula_structural   Nd2BeIrI
_chemical_formula_sum   'Nd4 Be2 Ir2 I2'
_cell_volume   241.02032685
_cell_formula_units_Z   2
loop_
 _symmetry_equiv_pos_site_id
 _symmetry_equiv_pos_as_xyz
  1  'x, y, z'
loop_
 _atom_site_type_symbol
 _atom_site_label
 _atom_site_symmetry_multiplicity
 _atom_site_fract_x
 _atom_site_fract_y
 _atom_site_fract_z
 _atom_site_occupancy
  Nd  Nd0  1  0.000000  0.000000  0.609710  1
  Nd  Nd1  1  0.000000  0.000000  0.390687  1
  Nd  Nd2  1  0.000000  0.000000  0.109710  1
  Nd  Nd3  1  0.000000  0.000000  0.890687  1
  Be  Be4  1  0.666667  0.333333  0.500275  1
  Be  Be5  1  0.333333  0.666667  0.000275  1
  Ir  Ir6  1  0.666667  0.333333  0.999789  1
  Ir  Ir7  1  0.333333  0.666667  0.499789  1
  I  I8  1  0.666667  0.333333  0.249539  1
  I  I9  1  0.333333  0.666667  0.749539  1
