# generated using pymatgen
data_Nd8CdCo2Ag
_symmetry_space_group_name_H-M   'P 1'
_cell_length_a   9.73252645
_cell_length_b   9.71815935
_cell_length_c   9.69765206
_cell_angle_alpha   60.56988461
_cell_angle_beta   60.64537667
_cell_angle_gamma   60.69175471
_symmetry_Int_Tables_number   1
_chemical_formula_structural   Nd8CdCo2Ag
_chemical_formula_sum   'Nd16 Cd2 Co4 Ag2'
_cell_volume   657.88424608
_cell_formula_units_Z   2
loop_
 _symmetry_equiv_pos_site_id
 _symmetry_equiv_pos_as_xyz
  1  'x, y, z'
loop_
 _atom_site_type_symbol
 _atom_site_label
 _atom_site_symmetry_multiplicity
 _atom_site_fract_x
 _atom_site_fract_y
 _atom_site_fract_z
 _atom_site_occupancy
  Nd  Nd0  1  0.597136  0.596963  0.597754  1
  Nd  Nd1  1  0.597652  0.597431  0.205678  1
  Nd  Nd2  1  0.596294  0.208101  0.596446  1
  Nd  Nd3  1  0.208212  0.596095  0.596501  1
  Nd  Nd4  1  0.191592  0.812476  0.810564  1
  Nd  Nd5  1  0.812169  0.191406  0.187069  1
  Nd  Nd6  1  0.812341  0.191650  0.810617  1
  Nd  Nd7  1  0.191405  0.812234  0.187079  1
  Nd  Nd8  1  0.811951  0.812119  0.188489  1
  Nd  Nd9  1  0.189542  0.189410  0.811858  1
  Nd  Nd10  1  0.060401  0.438866  0.439043  1
  Nd  Nd11  1  0.440636  0.059395  0.059894  1
  Nd  Nd12  1  0.438815  0.060580  0.439081  1
  Nd  Nd13  1  0.059079  0.440796  0.059975  1
  Nd  Nd14  1  0.439420  0.439563  0.059847  1
  Nd  Nd15  1  0.059171  0.059534  0.440741  1
  Cd  Cd16  1  0.827052  0.826986  0.829832  1
  Cd  Cd17  1  0.827551  0.827439  0.516273  1
  Co  Co18  1  0.390790  0.390682  0.389526  1
  Co  Co19  1  0.391901  0.391777  0.827076  1
  Co  Co20  1  0.391794  0.827128  0.391823  1
  Co  Co21  1  0.827036  0.391795  0.391902  1
  Ag  Ag22  1  0.831564  0.506203  0.831487  1
  Ag  Ag23  1  0.506494  0.831368  0.831446  1
