# generated using pymatgen
data_Fe5CoPt10
_symmetry_space_group_name_H-M   'P 1'
_cell_length_a   3.87211400
_cell_length_b   5.46906478
_cell_length_c   10.95839541
_cell_angle_alpha   89.78952563
_cell_angle_beta   90.00000000
_cell_angle_gamma   90.00000000
_symmetry_Int_Tables_number   1
_chemical_formula_structural   Fe5CoPt10
_chemical_formula_sum   'Fe5 Co1 Pt10'
_cell_volume   232.06264559
_cell_formula_units_Z   1
loop_
 _symmetry_equiv_pos_site_id
 _symmetry_equiv_pos_as_xyz
  1  'x, y, z'
loop_
 _atom_site_type_symbol
 _atom_site_label
 _atom_site_symmetry_multiplicity
 _atom_site_fract_x
 _atom_site_fract_y
 _atom_site_fract_z
 _atom_site_occupancy
  Fe  Fe0  1  0.500000  0.746393  0.377901  1
  Fe  Fe1  1  0.500000  0.747352  0.875588  1
  Fe  Fe2  1  0.500000  0.252648  0.124412  1
  Fe  Fe3  1  0.500000  0.253607  0.622099  1
  Fe  Fe4  1  0.000000  0.000000  0.000000  1
  Co  Co5  1  0.000000  0.500000  0.500000  1
  Pt  Pt6  1  0.000000  0.007924  0.245026  1
  Pt  Pt7  1  0.000000  0.992076  0.754974  1
  Pt  Pt8  1  0.000000  0.500000  0.000000  1
  Pt  Pt9  1  0.000000  0.507124  0.255356  1
  Pt  Pt10  1  0.000000  0.492876  0.744644  1
  Pt  Pt11  1  0.500000  0.258879  0.380974  1
  Pt  Pt12  1  0.500000  0.239143  0.881510  1
  Pt  Pt13  1  0.500000  0.760857  0.118490  1
  Pt  Pt14  1  0.500000  0.741121  0.619026  1
  Pt  Pt15  1  0.000000  0.000000  0.500000  1
