# generated using pymatgen
data_Yb3Al12(PdRh)2
_symmetry_space_group_name_H-M   'P 1'
_cell_length_a   8.85279100
_cell_length_b   8.92954335
_cell_length_c   9.57537700
_cell_angle_alpha   90.00000000
_cell_angle_beta   90.00000000
_cell_angle_gamma   119.71607753
_symmetry_Int_Tables_number   1
_chemical_formula_structural   Yb3Al12(PdRh)2
_chemical_formula_sum   'Yb6 Al24 Pd4 Rh4'
_cell_volume   657.40256113
_cell_formula_units_Z   2
loop_
 _symmetry_equiv_pos_site_id
 _symmetry_equiv_pos_as_xyz
  1  'x, y, z'
loop_
 _atom_site_type_symbol
 _atom_site_label
 _atom_site_symmetry_multiplicity
 _atom_site_fract_x
 _atom_site_fract_y
 _atom_site_fract_z
 _atom_site_occupancy
  Yb  Yb0  1  0.191821  0.383643  0.250000  1
  Yb  Yb1  1  0.808179  0.616357  0.750000  1
  Yb  Yb2  1  0.610841  0.806631  0.250000  1
  Yb  Yb3  1  0.389159  0.193369  0.750000  1
  Yb  Yb4  1  0.195790  0.806631  0.250000  1
  Yb  Yb5  1  0.804210  0.193369  0.750000  1
  Al  Al6  1  0.335383  0.670767  0.013010  1
  Al  Al7  1  0.664617  0.329233  0.986990  1
  Al  Al8  1  0.664617  0.329233  0.513010  1
  Al  Al9  1  0.335383  0.670767  0.486990  1
  Al  Al10  1  0.161057  0.322113  0.582649  1
  Al  Al11  1  0.838943  0.677887  0.417351  1
  Al  Al12  1  0.676070  0.841972  0.581822  1
  Al  Al13  1  0.838943  0.677887  0.082649  1
  Al  Al14  1  0.323930  0.158028  0.418178  1
  Al  Al15  1  0.161057  0.322113  0.917351  1
  Al  Al16  1  0.165901  0.841972  0.581822  1
  Al  Al17  1  0.323930  0.158028  0.081822  1
  Al  Al18  1  0.834099  0.158028  0.418178  1
  Al  Al19  1  0.676070  0.841972  0.918178  1
  Al  Al20  1  0.834099  0.158028  0.081822  1
  Al  Al21  1  0.165901  0.841972  0.918178  1
  Al  Al22  1  0.560969  0.121938  0.250000  1
  Al  Al23  1  0.439031  0.878062  0.750000  1
  Al  Al24  1  0.874006  0.435265  0.250000  1
  Al  Al25  1  0.125994  0.564735  0.750000  1
  Al  Al26  1  0.561259  0.435265  0.250000  1
  Al  Al27  1  0.438741  0.564735  0.750000  1
  Al  Al28  1  0.999496  0.998993  0.250000  1
  Al  Al29  1  0.000504  0.001007  0.750000  1
  Pd  Pd30  1  0.000000  0.500000  0.000000  1
  Pd  Pd31  1  0.500000  0.500000  0.000000  1
  Pd  Pd32  1  0.000000  0.500000  0.500000  1
  Pd  Pd33  1  0.500000  0.500000  0.500000  1
  Rh  Rh34  1  0.500000  0.000000  0.000000  1
  Rh  Rh35  1  0.500000  0.000000  0.500000  1
  Rh  Rh36  1  0.000000  0.000000  0.000000  1
  Rh  Rh37  1  0.000000  0.000000  0.500000  1
