# generated using pymatgen
data_Yb4GaPd12
_symmetry_space_group_name_H-M   'P 1'
_cell_length_a   7.34836981
_cell_length_b   7.34836873
_cell_length_c   7.34836800
_cell_angle_alpha   109.57499135
_cell_angle_beta   109.41935423
_cell_angle_gamma   109.41936595
_symmetry_Int_Tables_number   1
_chemical_formula_structural   Yb4GaPd12
_chemical_formula_sum   'Yb4 Ga1 Pd12'
_cell_volume   305.45686055
_cell_formula_units_Z   1
loop_
 _symmetry_equiv_pos_site_id
 _symmetry_equiv_pos_as_xyz
  1  'x, y, z'
loop_
 _atom_site_type_symbol
 _atom_site_label
 _atom_site_symmetry_multiplicity
 _atom_site_fract_x
 _atom_site_fract_y
 _atom_site_fract_z
 _atom_site_occupancy
  Yb  Yb0  1  0.500686  0.971464  0.971464  1
  Yb  Yb1  1  0.999999  0.971463  0.470780  1
  Yb  Yb2  1  0.499317  0.470781  0.470781  1
  Yb  Yb3  1  0.999999  0.470780  0.971463  1
  Ga  Ga4  1  0.000001  0.467982  0.467982  1
  Pd  Pd5  1  0.250510  0.970088  0.220597  1
  Pd  Pd6  1  0.999999  0.757062  0.757062  1
  Pd  Pd7  1  0.287689  0.759480  0.471779  1
  Pd  Pd8  1  0.712310  0.471796  0.184097  1
  Pd  Pd9  1  0.500000  0.221516  0.721510  1
  Pd  Pd10  1  0.712310  0.184097  0.471796  1
  Pd  Pd11  1  0.749491  0.719578  0.970085  1
  Pd  Pd12  1  0.749491  0.970085  0.719578  1
  Pd  Pd13  1  0.287689  0.471779  0.759480  1
  Pd  Pd14  1  0.500000  0.721510  0.221516  1
  Pd  Pd15  1  0.250510  0.220597  0.970088  1
  Pd  Pd16  1  0.999999  0.179938  0.179938  1
