# generated using pymatgen
data_Ho16ZnIn2HgRh4
_symmetry_space_group_name_H-M   'P 1'
_cell_length_a   9.57034778
_cell_length_b   9.57034759
_cell_length_c   9.57142309
_cell_angle_alpha   59.88230139
_cell_angle_beta   59.88229970
_cell_angle_gamma   59.81351340
_symmetry_Int_Tables_number   1
_chemical_formula_structural   Ho16ZnIn2HgRh4
_chemical_formula_sum   'Ho16 Zn1 In2 Hg1 Rh4'
_cell_volume   617.91450245
_cell_formula_units_Z   1
loop_
 _symmetry_equiv_pos_site_id
 _symmetry_equiv_pos_as_xyz
  1  'x, y, z'
loop_
 _atom_site_type_symbol
 _atom_site_label
 _atom_site_symmetry_multiplicity
 _atom_site_fract_x
 _atom_site_fract_y
 _atom_site_fract_z
 _atom_site_occupancy
  Ho  Ho0  1  0.186926  0.186926  0.813103  1
  Ho  Ho1  1  0.602094  0.602094  0.197126  1
  Ho  Ho2  1  0.439560  0.058858  0.441561  1
  Ho  Ho3  1  0.441186  0.441186  0.057852  1
  Ho  Ho4  1  0.813359  0.181556  0.815218  1
  Ho  Ho5  1  0.184950  0.811566  0.190264  1
  Ho  Ho6  1  0.439267  0.059644  0.059207  1
  Ho  Ho7  1  0.181556  0.813359  0.815218  1
  Ho  Ho8  1  0.059644  0.439267  0.059207  1
  Ho  Ho9  1  0.813558  0.813558  0.184804  1
  Ho  Ho10  1  0.195044  0.603186  0.602584  1
  Ho  Ho11  1  0.058858  0.439560  0.441561  1
  Ho  Ho12  1  0.060330  0.060330  0.438779  1
  Ho  Ho13  1  0.811566  0.184950  0.190264  1
  Ho  Ho14  1  0.603186  0.195044  0.602584  1
  Ho  Ho15  1  0.599577  0.599577  0.600189  1
  Zn  Zn16  1  0.833554  0.833554  0.834309  1
  In  In17  1  0.506835  0.832320  0.830805  1
  In  In18  1  0.832320  0.506835  0.830805  1
  Hg  Hg19  1  0.835958  0.835958  0.494322  1
  Rh  Rh20  1  0.392475  0.822705  0.392395  1
  Rh  Rh21  1  0.393058  0.393058  0.393258  1
  Rh  Rh22  1  0.822705  0.392475  0.392395  1
  Rh  Rh23  1  0.392435  0.392435  0.822196  1
