# generated using pymatgen
data_Dy2TmLu5Pt4
_symmetry_space_group_name_H-M   'P 1'
_cell_length_a   4.70329100
_cell_length_b   7.06586548
_cell_length_c   8.64702047
_cell_angle_alpha   90.05537477
_cell_angle_beta   90.00000000
_cell_angle_gamma   90.00000000
_symmetry_Int_Tables_number   1
_chemical_formula_structural   Dy2TmLu5Pt4
_chemical_formula_sum   'Dy2 Tm1 Lu5 Pt4'
_cell_volume   287.36475387
_cell_formula_units_Z   1
loop_
 _symmetry_equiv_pos_site_id
 _symmetry_equiv_pos_as_xyz
  1  'x, y, z'
loop_
 _atom_site_type_symbol
 _atom_site_label
 _atom_site_symmetry_multiplicity
 _atom_site_fract_x
 _atom_site_fract_y
 _atom_site_fract_z
 _atom_site_occupancy
  Dy  Dy0  1  0.750000  0.988314  0.668630  1
  Dy  Dy1  1  0.750000  0.488517  0.831340  1
  Tm  Tm2  1  0.250000  0.512238  0.170204  1
  Lu  Lu3  1  0.250000  0.143412  0.924422  1
  Lu  Lu4  1  0.250000  0.643572  0.575834  1
  Lu  Lu5  1  0.750000  0.856726  0.079015  1
  Lu  Lu6  1  0.750000  0.355576  0.421379  1
  Lu  Lu7  1  0.250000  0.011807  0.331335  1
  Pt  Pt8  1  0.250000  0.244456  0.592317  1
  Pt  Pt9  1  0.250000  0.744700  0.906541  1
  Pt  Pt10  1  0.750000  0.755420  0.402165  1
  Pt  Pt11  1  0.750000  0.255262  0.096818  1
