# generated using pymatgen
data_Er8Fe(Si4Pt)3
_symmetry_space_group_name_H-M   'P 1'
_cell_length_a   8.12795600
_cell_length_b   8.12795567
_cell_length_c   7.86503000
_cell_angle_alpha   90.00000000
_cell_angle_beta   90.00000000
_cell_angle_gamma   120.00000133
_symmetry_Int_Tables_number   1
_chemical_formula_structural   Er8Fe(Si4Pt)3
_chemical_formula_sum   'Er8 Fe1 Si12 Pt3'
_cell_volume   449.98048537
_cell_formula_units_Z   1
loop_
 _symmetry_equiv_pos_site_id
 _symmetry_equiv_pos_as_xyz
  1  'x, y, z'
loop_
 _atom_site_type_symbol
 _atom_site_label
 _atom_site_symmetry_multiplicity
 _atom_site_fract_x
 _atom_site_fract_y
 _atom_site_fract_z
 _atom_site_occupancy
  Er  Er0  1  0.000000  0.000000  0.252128  1
  Er  Er1  1  0.000000  0.000000  0.749557  1
  Er  Er2  1  0.487852  0.512148  0.254142  1
  Er  Er3  1  0.487852  0.975705  0.254142  1
  Er  Er4  1  0.024295  0.512148  0.254142  1
  Er  Er5  1  0.506988  0.493012  0.744014  1
  Er  Er6  1  0.986023  0.493012  0.744014  1
  Er  Er7  1  0.506988  0.013977  0.744014  1
  Fe  Fe8  1  0.333333  0.666667  0.538510  1
  Si  Si9  1  0.836952  0.163048  0.497458  1
  Si  Si10  1  0.836952  0.673904  0.497458  1
  Si  Si11  1  0.326096  0.163048  0.497458  1
  Si  Si12  1  0.834719  0.165281  0.000603  1
  Si  Si13  1  0.834719  0.669439  0.000603  1
  Si  Si14  1  0.330561  0.165281  0.000603  1
  Si  Si15  1  0.165009  0.834991  0.000125  1
  Si  Si16  1  0.669982  0.834991  0.000125  1
  Si  Si17  1  0.165009  0.330018  0.000125  1
  Si  Si18  1  0.173289  0.826711  0.503301  1
  Si  Si19  1  0.653422  0.826711  0.503301  1
  Si  Si20  1  0.173289  0.346578  0.503301  1
  Pt  Pt21  1  0.666667  0.333333  0.469665  1
  Pt  Pt22  1  0.666667  0.333333  0.030841  1
  Pt  Pt23  1  0.333333  0.666667  0.960374  1
