# generated using pymatgen
data_TbGdAl
_symmetry_space_group_name_H-M   'P 1'
_cell_length_a   5.14820100
_cell_length_b   6.50361800
_cell_length_c   9.49814100
_cell_angle_alpha   90.00000000
_cell_angle_beta   90.00000000
_cell_angle_gamma   90.00000000
_symmetry_Int_Tables_number   1
_chemical_formula_structural   TbGdAl
_chemical_formula_sum   'Tb4 Gd4 Al4'
_cell_volume   318.01611765
_cell_formula_units_Z   4
loop_
 _symmetry_equiv_pos_site_id
 _symmetry_equiv_pos_as_xyz
  1  'x, y, z'
loop_
 _atom_site_type_symbol
 _atom_site_label
 _atom_site_symmetry_multiplicity
 _atom_site_fract_x
 _atom_site_fract_y
 _atom_site_fract_z
 _atom_site_occupancy
  Tb  Tb0  1  0.250000  0.808747  0.926309  1
  Tb  Tb1  1  0.250000  0.308747  0.573691  1
  Tb  Tb2  1  0.750000  0.191253  0.073691  1
  Tb  Tb3  1  0.750000  0.691253  0.426309  1
  Gd  Gd4  1  0.250000  0.973511  0.290417  1
  Gd  Gd5  1  0.250000  0.473511  0.209583  1
  Gd  Gd6  1  0.750000  0.026489  0.709583  1
  Gd  Gd7  1  0.750000  0.526489  0.790417  1
  Al  Al8  1  0.250000  0.291323  0.898273  1
  Al  Al9  1  0.250000  0.791323  0.601727  1
  Al  Al10  1  0.750000  0.708677  0.101727  1
  Al  Al11  1  0.750000  0.208677  0.398273  1
