# generated using pymatgen
data_LiTm4Al3B16
_symmetry_space_group_name_H-M   'P 1'
_cell_length_a   3.49875200
_cell_length_b   5.92827642
_cell_length_c   11.46712260
_cell_angle_alpha   90.14009563
_cell_angle_beta   90.00000000
_cell_angle_gamma   90.00000000
_symmetry_Int_Tables_number   1
_chemical_formula_structural   LiTm4Al3B16
_chemical_formula_sum   'Li1 Tm4 Al3 B16'
_cell_volume   237.84540321
_cell_formula_units_Z   1
loop_
 _symmetry_equiv_pos_site_id
 _symmetry_equiv_pos_as_xyz
  1  'x, y, z'
loop_
 _atom_site_type_symbol
 _atom_site_label
 _atom_site_symmetry_multiplicity
 _atom_site_fract_x
 _atom_site_fract_y
 _atom_site_fract_z
 _atom_site_occupancy
  Li  Li0  1  0.000000  0.636004  0.088453  1
  Tm  Tm1  1  0.000000  0.629835  0.345802  1
  Tm  Tm2  1  0.000000  0.370369  0.651849  1
  Tm  Tm3  1  0.000000  0.125086  0.149185  1
  Tm  Tm4  1  0.000000  0.872296  0.851826  1
  Al  Al5  1  0.000000  0.369927  0.916759  1
  Al  Al6  1  0.000000  0.138219  0.408229  1
  Al  Al7  1  0.000000  0.860757  0.589734  1
  B  B8  1  0.500000  0.788081  0.185221  1
  B  B9  1  0.500000  0.209897  0.812918  1
  B  B10  1  0.500000  0.292086  0.311712  1
  B  B11  1  0.500000  0.709063  0.687419  1
  B  B12  1  0.500000  0.865575  0.031661  1
  B  B13  1  0.500000  0.131689  0.969460  1
  B  B14  1  0.500000  0.367066  0.469149  1
  B  B15  1  0.500000  0.632729  0.530543  1
  B  B16  1  0.500000  0.885750  0.452436  1
  B  B17  1  0.500000  0.114114  0.547073  1
  B  B18  1  0.500000  0.387888  0.047598  1
  B  B19  1  0.500000  0.614277  0.954262  1
  B  B20  1  0.500000  0.971028  0.305632  1
  B  B21  1  0.500000  0.026320  0.693702  1
  B  B22  1  0.500000  0.476466  0.192228  1
  B  B23  1  0.500000  0.525478  0.807150  1
