# generated using pymatgen
data_NaPr2Y4IrI12
_symmetry_space_group_name_H-M   'P 1'
_cell_length_a   9.90507921
_cell_length_b   9.93766067
_cell_length_c   9.93852727
_cell_angle_alpha   106.67741653
_cell_angle_beta   107.21604946
_cell_angle_gamma   106.89881496
_symmetry_Int_Tables_number   1
_chemical_formula_structural   NaPr2Y4IrI12
_chemical_formula_sum   'Na1 Pr2 Y4 Ir1 I12'
_cell_volume   816.24259956
_cell_formula_units_Z   1
loop_
 _symmetry_equiv_pos_site_id
 _symmetry_equiv_pos_as_xyz
  1  'x, y, z'
loop_
 _atom_site_type_symbol
 _atom_site_label
 _atom_site_symmetry_multiplicity
 _atom_site_fract_x
 _atom_site_fract_y
 _atom_site_fract_z
 _atom_site_occupancy
  Na  Na0  1  0.500394  0.499727  0.499419  1
  Pr  Pr1  1  0.691076  0.969066  0.898586  1
  Pr  Pr2  1  0.901797  0.694693  0.972772  1
  Y  Y3  1  0.100336  0.294964  0.028040  1
  Y  Y4  1  0.296799  0.028239  0.099253  1
  Y  Y5  1  0.030109  0.106222  0.313046  1
  Y  Y6  1  0.969222  0.899492  0.689083  1
  Ir  Ir7  1  0.998409  0.999650  0.001237  1
  I  I8  1  0.236794  0.688995  0.080313  1
  I  I9  1  0.447387  0.367298  0.141056  1
  I  I10  1  0.685228  0.079451  0.233072  1
  I  I11  1  0.929601  0.786728  0.328750  1
  I  I12  1  0.141763  0.447879  0.367267  1
  I  I13  1  0.370664  0.141907  0.447435  1
  I  I14  1  0.628253  0.853267  0.540687  1
  I  I15  1  0.859742  0.554239  0.620356  1
  I  I16  1  0.076309  0.224491  0.684397  1
  I  I17  1  0.311616  0.925977  0.779078  1
  I  I18  1  0.540122  0.617766  0.850983  1
  I  I19  1  0.784386  0.319951  0.925172  1
