# generated using pymatgen
data_Cs4P2PdS8
_symmetry_space_group_name_H-M   'P 1'
_cell_length_a   13.44091400
_cell_length_b   7.48739327
_cell_length_c   9.88995023
_cell_angle_alpha   85.34077671
_cell_angle_beta   90.00000000
_cell_angle_gamma   90.00000000
_symmetry_Int_Tables_number   1
_chemical_formula_structural   Cs4P2PdS8
_chemical_formula_sum   'Cs8 P4 Pd2 S16'
_cell_volume   992.00995025
_cell_formula_units_Z   2
loop_
 _symmetry_equiv_pos_site_id
 _symmetry_equiv_pos_as_xyz
  1  'x, y, z'
loop_
 _atom_site_type_symbol
 _atom_site_label
 _atom_site_symmetry_multiplicity
 _atom_site_fract_x
 _atom_site_fract_y
 _atom_site_fract_z
 _atom_site_occupancy
  Cs  Cs0  1  0.131980  0.822850  0.679910  1
  Cs  Cs1  1  0.631980  0.177150  0.820090  1
  Cs  Cs2  1  0.868020  0.177150  0.320090  1
  Cs  Cs3  1  0.368020  0.822850  0.179910  1
  Cs  Cs4  1  0.344396  0.277371  0.535316  1
  Cs  Cs5  1  0.844396  0.722629  0.964684  1
  Cs  Cs6  1  0.655604  0.722629  0.464684  1
  Cs  Cs7  1  0.155604  0.277371  0.035316  1
  P  P8  1  0.420144  0.760167  0.759517  1
  P  P9  1  0.920144  0.239833  0.740483  1
  P  P10  1  0.579856  0.239833  0.240483  1
  P  P11  1  0.079856  0.760167  0.259517  1
  Pd  Pd12  1  0.000000  0.500000  0.500000  1
  Pd  Pd13  1  0.500000  0.500000  0.000000  1
  S  S14  1  0.066830  0.306782  0.678682  1
  S  S15  1  0.566830  0.693218  0.821318  1
  S  S16  1  0.933170  0.693218  0.321318  1
  S  S17  1  0.433170  0.306782  0.178682  1
  S  S18  1  0.397011  0.761830  0.558133  1
  S  S19  1  0.897011  0.238170  0.941867  1
  S  S20  1  0.602989  0.238170  0.441867  1
  S  S21  1  0.102989  0.761830  0.058133  1
  S  S22  1  0.144234  0.533939  0.364698  1
  S  S23  1  0.644234  0.466061  0.135302  1
  S  S24  1  0.855766  0.466061  0.635302  1
  S  S25  1  0.355766  0.533939  0.864698  1
  S  S26  1  0.375846  0.991715  0.832632  1
  S  S27  1  0.875846  0.008285  0.667368  1
  S  S28  1  0.624154  0.008285  0.167368  1
  S  S29  1  0.124154  0.991715  0.332632  1
