# generated using pymatgen
data_RbNa(VTe)6
_symmetry_space_group_name_H-M   'P 1'
_cell_length_a   4.51578100
_cell_length_b   9.61123192
_cell_length_c   9.77617440
_cell_angle_alpha   119.92864486
_cell_angle_beta   90.00000000
_cell_angle_gamma   90.00000000
_symmetry_Int_Tables_number   1
_chemical_formula_structural   RbNa(VTe)6
_chemical_formula_sum   'Rb1 Na1 V6 Te6'
_cell_volume   367.72513779
_cell_formula_units_Z   1
loop_
 _symmetry_equiv_pos_site_id
 _symmetry_equiv_pos_as_xyz
  1  'x, y, z'
loop_
 _atom_site_type_symbol
 _atom_site_label
 _atom_site_symmetry_multiplicity
 _atom_site_fract_x
 _atom_site_fract_y
 _atom_site_fract_z
 _atom_site_occupancy
  Rb  Rb0  1  0.750000  0.669492  0.327092  1
  Na  Na1  1  0.250000  0.327776  0.667691  1
  V  V2  1  0.750000  0.958159  0.815073  1
  V  V3  1  0.750000  0.179344  0.153749  1
  V  V4  1  0.750000  0.894812  0.025684  1
  V  V5  1  0.250000  0.042149  0.190006  1
  V  V6  1  0.250000  0.816794  0.839816  1
  V  V7  1  0.250000  0.104362  0.977133  1
  Te  Te8  1  0.750000  0.633338  0.703346  1
  Te  Te9  1  0.750000  0.281964  0.940230  1
  Te  Te10  1  0.750000  0.067297  0.364066  1
  Te  Te11  1  0.250000  0.359113  0.296278  1
  Te  Te12  1  0.250000  0.716874  0.052877  1
  Te  Te13  1  0.250000  0.948527  0.646959  1
