# generated using pymatgen
data_Gd4YRu3
_symmetry_space_group_name_H-M   'P 1'
_cell_length_a   10.93721600
_cell_length_b   10.93721600
_cell_length_c   6.35548900
_cell_angle_alpha   90.00000000
_cell_angle_beta   90.00000000
_cell_angle_gamma   90.00000000
_symmetry_Int_Tables_number   1
_chemical_formula_structural   Gd4YRu3
_chemical_formula_sum   'Gd16 Y4 Ru12'
_cell_volume   760.26071479
_cell_formula_units_Z   4
loop_
 _symmetry_equiv_pos_site_id
 _symmetry_equiv_pos_as_xyz
  1  'x, y, z'
loop_
 _atom_site_type_symbol
 _atom_site_label
 _atom_site_symmetry_multiplicity
 _atom_site_fract_x
 _atom_site_fract_y
 _atom_site_fract_z
 _atom_site_occupancy
  Gd  Gd0  1  0.291674  0.087401  0.375566  1
  Gd  Gd1  1  0.291674  0.912599  0.875566  1
  Gd  Gd2  1  0.708326  0.087401  0.875566  1
  Gd  Gd3  1  0.708326  0.912599  0.375566  1
  Gd  Gd4  1  0.587401  0.791674  0.875566  1
  Gd  Gd5  1  0.587401  0.208326  0.375566  1
  Gd  Gd6  1  0.412599  0.791674  0.375566  1
  Gd  Gd7  1  0.412599  0.208326  0.875566  1
  Gd  Gd8  1  0.208326  0.412599  0.624434  1
  Gd  Gd9  1  0.208326  0.587401  0.124434  1
  Gd  Gd10  1  0.791674  0.412599  0.124434  1
  Gd  Gd11  1  0.791674  0.587401  0.624434  1
  Gd  Gd12  1  0.912599  0.708326  0.124434  1
  Gd  Gd13  1  0.912599  0.291674  0.624434  1
  Gd  Gd14  1  0.087401  0.708326  0.624434  1
  Gd  Gd15  1  0.087401  0.291674  0.124434  1
  Y  Y16  1  0.000000  0.000000  0.500000  1
  Y  Y17  1  0.000000  0.000000  0.000000  1
  Y  Y18  1  0.500000  0.500000  0.000000  1
  Y  Y19  1  0.500000  0.500000  0.500000  1
  Ru  Ru20  1  0.845871  0.154129  0.250000  1
  Ru  Ru21  1  0.845871  0.845871  0.750000  1
  Ru  Ru22  1  0.154129  0.154129  0.750000  1
  Ru  Ru23  1  0.154129  0.845871  0.250000  1
  Ru  Ru24  1  0.654129  0.345871  0.750000  1
  Ru  Ru25  1  0.654129  0.654129  0.250000  1
  Ru  Ru26  1  0.345871  0.345871  0.250000  1
  Ru  Ru27  1  0.345871  0.654129  0.750000  1
  Ru  Ru28  1  0.500000  0.000000  0.129225  1
  Ru  Ru29  1  0.500000  0.000000  0.629225  1
  Ru  Ru30  1  0.000000  0.500000  0.870775  1
  Ru  Ru31  1  0.000000  0.500000  0.370775  1
