# generated using pymatgen
data_Pm2FeNiO6
_symmetry_space_group_name_H-M   'P 1'
_cell_length_a   5.41752000
_cell_length_b   5.65525761
_cell_length_c   7.69523637
_cell_angle_alpha   90.62959789
_cell_angle_beta   90.00000000
_cell_angle_gamma   90.00000000
_symmetry_Int_Tables_number   1
_chemical_formula_structural   Pm2FeNiO6
_chemical_formula_sum   'Pm4 Fe2 Ni2 O12'
_cell_volume   235.74834865
_cell_formula_units_Z   2
loop_
 _symmetry_equiv_pos_site_id
 _symmetry_equiv_pos_as_xyz
  1  'x, y, z'
loop_
 _atom_site_type_symbol
 _atom_site_label
 _atom_site_symmetry_multiplicity
 _atom_site_fract_x
 _atom_site_fract_y
 _atom_site_fract_z
 _atom_site_occupancy
  Pm  Pm0  1  0.984464  0.061872  0.258310  1
  Pm  Pm1  1  0.515538  0.561873  0.258310  1
  Pm  Pm2  1  0.484462  0.438128  0.741689  1
  Pm  Pm3  1  0.015537  0.938128  0.741689  1
  Fe  Fe4  1  0.499999  0.000000  0.000000  1
  Fe  Fe5  1  0.000000  0.500000  0.000000  1
  Ni  Ni6  1  0.499999  0.000000  0.500000  1
  Ni  Ni7  1  0.000000  0.500000  0.500000  1
  O  O8  1  0.702277  0.297088  0.050521  1
  O  O9  1  0.797721  0.797088  0.050521  1
  O  O10  1  0.090353  0.477116  0.247722  1
  O  O11  1  0.409648  0.977115  0.247722  1
  O  O12  1  0.706776  0.301610  0.454592  1
  O  O13  1  0.793222  0.801610  0.454592  1
  O  O14  1  0.206776  0.198390  0.545408  1
  O  O15  1  0.293225  0.698391  0.545408  1
  O  O16  1  0.590353  0.022886  0.752277  1
  O  O17  1  0.909647  0.522886  0.752277  1
  O  O18  1  0.202277  0.202912  0.949479  1
  O  O19  1  0.297724  0.702913  0.949479  1
