# generated using pymatgen
data_Ce5GeTe4
_symmetry_space_group_name_H-M   'P 1'
_cell_length_a   7.68716838
_cell_length_b   7.68716681
_cell_length_c   7.68716700
_cell_angle_alpha   99.51635028
_cell_angle_beta   99.51635588
_cell_angle_gamma   132.01628786
_symmetry_Int_Tables_number   1
_chemical_formula_structural   Ce5GeTe4
_chemical_formula_sum   'Ce5 Ge1 Te4'
_cell_volume   308.33221969
_cell_formula_units_Z   1
loop_
 _symmetry_equiv_pos_site_id
 _symmetry_equiv_pos_as_xyz
  1  'x, y, z'
loop_
 _atom_site_type_symbol
 _atom_site_label
 _atom_site_symmetry_multiplicity
 _atom_site_fract_x
 _atom_site_fract_y
 _atom_site_fract_z
 _atom_site_occupancy
  Ce  Ce0  1  0.401824  0.784769  0.186592  1
  Ce  Ce1  1  0.000000  0.000000  0.000000  1
  Ce  Ce2  1  0.598176  0.215231  0.813408  1
  Ce  Ce3  1  0.215231  0.401824  0.617055  1
  Ce  Ce4  1  0.784769  0.598176  0.382945  1
  Ge  Ge5  1  0.500000  0.500000  0.000000  1
  Te  Te6  1  0.094249  0.695370  0.789618  1
  Te  Te7  1  0.695370  0.905751  0.601122  1
  Te  Te8  1  0.304630  0.094249  0.398878  1
  Te  Te9  1  0.905751  0.304630  0.210382  1
