# generated using pymatgen
data_La8YbHo11Ge16
_symmetry_space_group_name_H-M   'P 1'
_cell_length_a   7.95310203
_cell_length_b   7.95310204
_cell_length_c   14.60438400
_cell_angle_alpha   89.97089501
_cell_angle_beta   90.02910499
_cell_angle_gamma   89.92393116
_symmetry_Int_Tables_number   1
_chemical_formula_structural   La8YbHo11Ge16
_chemical_formula_sum   'La8 Yb1 Ho11 Ge16'
_cell_volume   923.75298944
_cell_formula_units_Z   1
loop_
 _symmetry_equiv_pos_site_id
 _symmetry_equiv_pos_as_xyz
  1  'x, y, z'
loop_
 _atom_site_type_symbol
 _atom_site_label
 _atom_site_symmetry_multiplicity
 _atom_site_fract_x
 _atom_site_fract_y
 _atom_site_fract_z
 _atom_site_occupancy
  La  La0  1  0.993415  0.644805  0.038901  1
  La  La1  1  0.005501  0.355650  0.539142  1
  La  La2  1  0.644805  0.993415  0.961099  1
  La  La3  1  0.145999  0.505036  0.788825  1
  La  La4  1  0.855632  0.494662  0.289812  1
  La  La5  1  0.505036  0.145999  0.211175  1
  La  La6  1  0.494662  0.855632  0.710188  1
  La  La7  1  0.355650  0.005501  0.460858  1
  Yb  Yb8  1  0.679464  0.679464  0.500000  1
  Ho  Ho9  1  0.354825  0.493491  0.375443  1
  Ho  Ho10  1  0.854767  0.004120  0.375271  1
  Ho  Ho11  1  0.993943  0.147949  0.125943  1
  Ho  Ho12  1  0.004120  0.854767  0.624729  1
  Ho  Ho13  1  0.646375  0.506626  0.876947  1
  Ho  Ho14  1  0.493491  0.354825  0.624557  1
  Ho  Ho15  1  0.506626  0.646375  0.123053  1
  Ho  Ho16  1  0.147949  0.993943  0.874057  1
  Ho  Ho17  1  0.818066  0.180498  0.750754  1
  Ho  Ho18  1  0.180498  0.818066  0.249246  1
  Ho  Ho19  1  0.319926  0.319926  0.000000  1
  Ge  Ge20  1  0.061965  0.710509  0.433314  1
  Ge  Ge21  1  0.948049  0.288259  0.933890  1
  Ge  Ge22  1  0.710509  0.061965  0.566686  1
  Ge  Ge23  1  0.210480  0.448320  0.184116  1
  Ge  Ge24  1  0.789583  0.553355  0.687249  1
  Ge  Ge25  1  0.448320  0.210480  0.815884  1
  Ge  Ge26  1  0.553355  0.789583  0.312751  1
  Ge  Ge27  1  0.288259  0.948049  0.066110  1
  Ge  Ge28  1  0.853500  0.800973  0.814750  1
  Ge  Ge29  1  0.145168  0.198346  0.316329  1
  Ge  Ge30  1  0.800973  0.853500  0.185250  1
  Ge  Ge31  1  0.293315  0.644059  0.567219  1
  Ge  Ge32  1  0.699080  0.354288  0.066611  1
  Ge  Ge33  1  0.644059  0.293315  0.432781  1
  Ge  Ge34  1  0.354288  0.699080  0.933389  1
  Ge  Ge35  1  0.198346  0.145168  0.683671  1
