# generated using pymatgen
data_Th6Ni20As3P10
_symmetry_space_group_name_H-M   'P 1'
_cell_length_a   12.90629200
_cell_length_b   12.90628999
_cell_length_c   3.90183700
_cell_angle_alpha   90.00000000
_cell_angle_beta   90.00000000
_cell_angle_gamma   120.00000002
_symmetry_Int_Tables_number   1
_chemical_formula_structural   Th6Ni20As3P10
_chemical_formula_sum   'Th6 Ni20 As3 P10'
_cell_volume   562.86294677
_cell_formula_units_Z   1
loop_
 _symmetry_equiv_pos_site_id
 _symmetry_equiv_pos_as_xyz
  1  'x, y, z'
loop_
 _atom_site_type_symbol
 _atom_site_label
 _atom_site_symmetry_multiplicity
 _atom_site_fract_x
 _atom_site_fract_y
 _atom_site_fract_z
 _atom_site_occupancy
  Th  Th0  1  0.468185  0.185341  0.000000  1
  Th  Th1  1  0.717156  0.531815  0.000000  1
  Th  Th2  1  0.814659  0.282844  0.000000  1
  Th  Th3  1  0.531131  0.811424  0.500000  1
  Th  Th4  1  0.280294  0.468869  0.500000  1
  Th  Th5  1  0.188576  0.719706  0.500000  1
  Ni  Ni6  1  0.333333  0.666667  0.000000  1
  Ni  Ni7  1  0.666667  0.333333  0.500000  1
  Ni  Ni8  1  0.191722  0.077584  0.000000  1
  Ni  Ni9  1  0.885863  0.808278  0.000000  1
  Ni  Ni10  1  0.922416  0.114137  0.000000  1
  Ni  Ni11  1  0.857970  0.933996  0.500000  1
  Ni  Ni12  1  0.076027  0.142030  0.500000  1
  Ni  Ni13  1  0.066004  0.923973  0.500000  1
  Ni  Ni14  1  0.443189  0.418686  0.000000  1
  Ni  Ni15  1  0.975497  0.556811  0.000000  1
  Ni  Ni16  1  0.581314  0.024503  0.000000  1
  Ni  Ni17  1  0.564429  0.588577  0.500000  1
  Ni  Ni18  1  0.024148  0.435571  0.500000  1
  Ni  Ni19  1  0.411423  0.975852  0.500000  1
  Ni  Ni20  1  0.074328  0.326661  0.000000  1
  Ni  Ni21  1  0.252331  0.925672  0.000000  1
  Ni  Ni22  1  0.673339  0.747669  0.000000  1
  Ni  Ni23  1  0.920016  0.683208  0.500000  1
  Ni  Ni24  1  0.763193  0.079984  0.500000  1
  Ni  Ni25  1  0.316792  0.236807  0.500000  1
  As  As26  1  0.229988  0.273082  0.000000  1
  As  As27  1  0.043095  0.770012  0.000000  1
  As  As28  1  0.726918  0.956905  0.000000  1
  P  P29  1  0.767073  0.730295  0.500000  1
  P  P30  1  0.963222  0.232927  0.500000  1
  P  P31  1  0.269705  0.036778  0.500000  1
  P  P32  1  0.477700  0.610330  0.000000  1
  P  P33  1  0.132630  0.522300  0.000000  1
  P  P34  1  0.389670  0.867370  0.000000  1
  P  P35  1  0.517601  0.385251  0.500000  1
  P  P36  1  0.867650  0.482399  0.500000  1
  P  P37  1  0.614749  0.132350  0.500000  1
  P  P38  1  0.000000  0.000000  0.000000  1
