# generated using pymatgen
data_Tb5Ho2(ErPb2)3
_symmetry_space_group_name_H-M   'P 1'
_cell_length_a   9.05739200
_cell_length_b   9.05075447
_cell_length_c   6.63437000
_cell_angle_alpha   89.99958410
_cell_angle_beta   89.99915299
_cell_angle_gamma   120.02420901
_symmetry_Int_Tables_number   1
_chemical_formula_structural   Tb5Ho2(ErPb2)3
_chemical_formula_sum   'Tb5 Ho2 Er3 Pb6'
_cell_volume   470.88219769
_cell_formula_units_Z   1
loop_
 _symmetry_equiv_pos_site_id
 _symmetry_equiv_pos_as_xyz
  1  'x, y, z'
loop_
 _atom_site_type_symbol
 _atom_site_label
 _atom_site_symmetry_multiplicity
 _atom_site_fract_x
 _atom_site_fract_y
 _atom_site_fract_z
 _atom_site_occupancy
  Tb  Tb0  1  0.238876  0.000015  0.249985  1
  Tb  Tb1  1  0.238196  0.238320  0.750023  1
  Tb  Tb2  1  0.999832  0.761657  0.750013  1
  Tb  Tb3  1  0.999796  0.238183  0.249979  1
  Tb  Tb4  1  0.761633  0.761791  0.249978  1
  Ho  Ho5  1  0.333429  0.666725  0.500056  1
  Ho  Ho6  1  0.761467  0.000022  0.750015  1
  Er  Er7  1  0.333425  0.666727  0.999949  1
  Er  Er8  1  0.666707  0.333287  0.500057  1
  Er  Er9  1  0.666704  0.333280  0.999944  1
  Pb  Pb10  1  0.604631  0.000060  0.249958  1
  Pb  Pb11  1  0.604988  0.605408  0.750047  1
  Pb  Pb12  1  0.999447  0.394523  0.750051  1
  Pb  Pb13  1  0.999831  0.604589  0.249950  1
  Pb  Pb14  1  0.395304  0.395352  0.249944  1
  Pb  Pb15  1  0.395733  0.000060  0.750051  1
