# generated using pymatgen
data_ErSi4(PdRh2)2
_symmetry_space_group_name_H-M   'P 1'
_cell_length_a   7.08752882
_cell_length_b   7.13705617
_cell_length_c   3.76758100
_cell_angle_alpha   90.00000000
_cell_angle_beta   90.00000000
_cell_angle_gamma   120.23142939
_symmetry_Int_Tables_number   1
_chemical_formula_structural   ErSi4(PdRh2)2
_chemical_formula_sum   'Er1 Si4 Pd2 Rh4'
_cell_volume   164.66058755
_cell_formula_units_Z   1
loop_
 _symmetry_equiv_pos_site_id
 _symmetry_equiv_pos_as_xyz
  1  'x, y, z'
loop_
 _atom_site_type_symbol
 _atom_site_label
 _atom_site_symmetry_multiplicity
 _atom_site_fract_x
 _atom_site_fract_y
 _atom_site_fract_z
 _atom_site_occupancy
  Er  Er0  1  0.994603  0.997302  0.000000  1
  Si  Si1  1  0.342208  0.671104  0.000000  1
  Si  Si2  1  0.403483  0.201741  0.500001  1
  Si  Si3  1  0.795999  0.195600  0.500001  1
  Si  Si4  1  0.795998  0.600397  0.500001  1
  Pd  Pd5  1  0.195554  0.391464  0.500001  1
  Pd  Pd6  1  0.195554  0.804089  0.500001  1
  Rh  Rh7  1  0.534489  0.067691  0.000000  1
  Rh  Rh8  1  0.534489  0.466798  0.000000  1
  Rh  Rh9  1  0.935509  0.467755  0.000000  1
  Rh  Rh10  1  0.605448  0.802724  0.500001  1
