# generated using pymatgen
data_Dy2Ho2Al24Pt7Au2
_symmetry_space_group_name_H-M   'P 1'
_cell_length_a   7.56966195
_cell_length_b   7.58293439
_cell_length_c   13.15802713
_cell_angle_alpha   84.53328208
_cell_angle_beta   78.99127589
_cell_angle_gamma   59.93138124
_symmetry_Int_Tables_number   1
_chemical_formula_structural   Dy2Ho2Al24Pt7Au2
_chemical_formula_sum   'Dy2 Ho2 Al24 Pt7 Au2'
_cell_volume   641.60560921
_cell_formula_units_Z   1
loop_
 _symmetry_equiv_pos_site_id
 _symmetry_equiv_pos_as_xyz
  1  'x, y, z'
loop_
 _atom_site_type_symbol
 _atom_site_label
 _atom_site_symmetry_multiplicity
 _atom_site_fract_x
 _atom_site_fract_y
 _atom_site_fract_z
 _atom_site_occupancy
  Dy  Dy0  1  0.392945  0.169265  0.808862  1
  Dy  Dy1  1  0.607055  0.830735  0.191138  1
  Ho  Ho2  1  0.733428  0.499145  0.809520  1
  Ho  Ho3  1  0.266572  0.500855  0.190480  1
  Al  Al4  1  0.683061  0.834206  0.944851  1
  Al  Al5  1  0.316939  0.165794  0.055149  1
  Al  Al6  1  0.145805  0.839301  0.562348  1
  Al  Al7  1  0.854195  0.160699  0.437652  1
  Al  Al8  1  0.488200  0.159492  0.559484  1
  Al  Al9  1  0.511800  0.840508  0.440516  1
  Al  Al10  1  0.223201  0.160648  0.325370  1
  Al  Al11  1  0.776799  0.839352  0.674630  1
  Al  Al12  1  0.439906  0.506810  0.674652  1
  Al  Al13  1  0.560094  0.493190  0.325348  1
  Al  Al14  1  0.108848  0.155081  0.673250  1
  Al  Al15  1  0.891152  0.844919  0.326750  1
  Al  Al16  1  0.353287  0.498798  0.944724  1
  Al  Al17  1  0.646713  0.501202  0.055276  1
  Al  Al18  1  0.015531  0.167679  0.953327  1
  Al  Al19  1  0.984469  0.832321  0.046673  1
  Al  Al20  1  0.195562  0.499167  0.437606  1
  Al  Al21  1  0.804438  0.500833  0.562394  1
  Al  Al22  1  0.732642  0.164531  0.183136  1
  Al  Al23  1  0.267358  0.835469  0.816864  1
  Al  Al24  1  0.060297  0.633747  0.817839  1
  Al  Al25  1  0.939703  0.366253  0.182161  1
  Al  Al26  1  0.854054  0.042755  0.816367  1
  Al  Al27  1  0.145946  0.957245  0.183633  1
  Pt  Pt28  1  0.657054  0.171623  0.999812  1
  Pt  Pt29  1  0.342946  0.828377  0.000188  1
  Pt  Pt30  1  0.537333  0.166657  0.361955  1
  Pt  Pt31  1  0.462667  0.833343  0.638045  1
  Pt  Pt32  1  0.779576  0.175544  0.636730  1
  Pt  Pt33  1  0.220424  0.824456  0.363270  1
  Pt  Pt34  1  0.000000  0.500000  0.000000  1
  Au  Au35  1  0.119869  0.490998  0.638134  1
  Au  Au36  1  0.880131  0.509002  0.361866  1
