# generated using pymatgen
data_Pr16CdHg3IrPd3
_symmetry_space_group_name_H-M   'P 1'
_cell_length_a   10.06291952
_cell_length_b   10.07497635
_cell_length_c   10.07497700
_cell_angle_alpha   60.00000114
_cell_angle_beta   59.96035893
_cell_angle_gamma   59.96035707
_symmetry_Int_Tables_number   1
_chemical_formula_structural   Pr16CdHg3IrPd3
_chemical_formula_sum   'Pr16 Cd1 Hg3 Ir1 Pd3'
_cell_volume   721.83281158
_cell_formula_units_Z   1
loop_
 _symmetry_equiv_pos_site_id
 _symmetry_equiv_pos_as_xyz
  1  'x, y, z'
loop_
 _atom_site_type_symbol
 _atom_site_label
 _atom_site_symmetry_multiplicity
 _atom_site_fract_x
 _atom_site_fract_y
 _atom_site_fract_z
 _atom_site_occupancy
  Pr  Pr0  1  0.352442  0.347737  0.347737  1
  Pr  Pr1  1  0.352442  0.347737  0.952084  1
  Pr  Pr2  1  0.352442  0.952084  0.347737  1
  Pr  Pr3  1  0.935839  0.354720  0.354720  1
  Pr  Pr4  1  0.805211  0.190938  0.190938  1
  Pr  Pr5  1  0.197509  0.805832  0.805832  1
  Pr  Pr6  1  0.197509  0.805832  0.190828  1
  Pr  Pr7  1  0.805211  0.190938  0.812914  1
  Pr  Pr8  1  0.197509  0.190828  0.805832  1
  Pr  Pr9  1  0.805211  0.812914  0.190938  1
  Pr  Pr10  1  0.936686  0.564990  0.564990  1
  Pr  Pr11  1  0.568711  0.936232  0.936232  1
  Pr  Pr12  1  0.568711  0.936232  0.558826  1
  Pr  Pr13  1  0.936686  0.564990  0.933334  1
  Pr  Pr14  1  0.568711  0.558826  0.936232  1
  Pr  Pr15  1  0.936686  0.933334  0.564990  1
  Cd  Cd16  1  0.263845  0.578718  0.578718  1
  Hg  Hg17  1  0.578676  0.585575  0.585575  1
  Hg  Hg18  1  0.578676  0.585575  0.250173  1
  Hg  Hg19  1  0.578676  0.250173  0.585575  1
  Ir  Ir20  1  0.571058  0.142980  0.142980  1
  Pd  Pd21  1  0.137183  0.145545  0.145545  1
  Pd  Pd22  1  0.137183  0.145545  0.571726  1
  Pd  Pd23  1  0.137183  0.571726  0.145545  1
