# generated using pymatgen
data_Ho3Sc3Ge2Os
_symmetry_space_group_name_H-M   'P 1'
_cell_length_a   7.42389500
_cell_length_b   7.42389417
_cell_length_c   4.27308500
_cell_angle_alpha   90.00000000
_cell_angle_beta   90.00000000
_cell_angle_gamma   119.99999922
_symmetry_Int_Tables_number   1
_chemical_formula_structural   Ho3Sc3Ge2Os
_chemical_formula_sum   'Ho3 Sc3 Ge2 Os1'
_cell_volume   203.95565918
_cell_formula_units_Z   1
loop_
 _symmetry_equiv_pos_site_id
 _symmetry_equiv_pos_as_xyz
  1  'x, y, z'
loop_
 _atom_site_type_symbol
 _atom_site_label
 _atom_site_symmetry_multiplicity
 _atom_site_fract_x
 _atom_site_fract_y
 _atom_site_fract_z
 _atom_site_occupancy
  Ho  Ho0  1  0.414119  0.000000  0.000000  1
  Ho  Ho1  1  0.000000  0.414119  0.000000  1
  Ho  Ho2  1  0.585881  0.585881  0.000000  1
  Sc  Sc3  1  0.761429  0.000000  0.499999  1
  Sc  Sc4  1  0.238572  0.238572  0.499999  1
  Sc  Sc5  1  0.000000  0.761430  0.499999  1
  Ge  Ge6  1  0.666666  0.333334  0.499999  1
  Ge  Ge7  1  0.333333  0.666666  0.499999  1
  Os  Os8  1  0.000000  0.000000  0.000000  1
