# generated using pymatgen
data_Ca2Al9Ir2Pd
_symmetry_space_group_name_H-M   'P 1'
_cell_length_a   7.57364920
_cell_length_b   7.57365719
_cell_length_c   9.62906000
_cell_angle_alpha   90.00000000
_cell_angle_beta   90.00000000
_cell_angle_gamma   119.16218830
_symmetry_Int_Tables_number   1
_chemical_formula_structural   Ca2Al9Ir2Pd
_chemical_formula_sum   'Ca4 Al18 Ir4 Pd2'
_cell_volume   482.31442952
_cell_formula_units_Z   2
loop_
 _symmetry_equiv_pos_site_id
 _symmetry_equiv_pos_as_xyz
  1  'x, y, z'
loop_
 _atom_site_type_symbol
 _atom_site_label
 _atom_site_symmetry_multiplicity
 _atom_site_fract_x
 _atom_site_fract_y
 _atom_site_fract_z
 _atom_site_occupancy
  Ca  Ca0  1  0.996159  0.673315  0.250000  1
  Ca  Ca1  1  0.003841  0.326685  0.750000  1
  Ca  Ca2  1  0.673319  0.996158  0.250000  1
  Ca  Ca3  1  0.326681  0.003842  0.750000  1
  Al  Al4  1  0.134544  0.134544  0.250000  1
  Al  Al5  1  0.865456  0.865456  0.750000  1
  Al  Al6  1  0.002707  0.339657  0.072231  1
  Al  Al7  1  0.997293  0.660343  0.927769  1
  Al  Al8  1  0.997293  0.660343  0.572231  1
  Al  Al9  1  0.339657  0.002707  0.427768  1
  Al  Al10  1  0.002707  0.339657  0.427769  1
  Al  Al11  1  0.660343  0.997293  0.572232  1
  Al  Al12  1  0.660343  0.997293  0.927768  1
  Al  Al13  1  0.339657  0.002707  0.072232  1
  Al  Al14  1  0.337867  0.337867  0.550837  1
  Al  Al15  1  0.662133  0.662133  0.449163  1
  Al  Al16  1  0.662133  0.662133  0.050837  1
  Al  Al17  1  0.337867  0.337867  0.949163  1
  Al  Al18  1  0.337279  0.548298  0.250000  1
  Al  Al19  1  0.662721  0.451702  0.750000  1
  Al  Al20  1  0.548298  0.337279  0.250000  1
  Al  Al21  1  0.451702  0.662721  0.750000  1
  Ir  Ir22  1  0.671505  0.328497  0.000000  1
  Ir  Ir23  1  0.328495  0.671503  0.000000  1
  Ir  Ir24  1  0.328495  0.671503  0.500000  1
  Ir  Ir25  1  0.671505  0.328497  0.500000  1
  Pd  Pd26  1  0.000000  0.000000  0.000000  1
  Pd  Pd27  1  0.000000  0.000000  0.500000  1
