# generated using pymatgen
data_SmTh5NiBr15
_symmetry_space_group_name_H-M   'P 1'
_cell_length_a   10.15786141
_cell_length_b   10.15786182
_cell_length_c   10.15786242
_cell_angle_alpha   109.72756400
_cell_angle_beta   109.34319645
_cell_angle_gamma   109.34320399
_symmetry_Int_Tables_number   1
_chemical_formula_structural   SmTh5NiBr15
_chemical_formula_sum   'Sm1 Th5 Ni1 Br15'
_cell_volume   806.82343934
_cell_formula_units_Z   1
loop_
 _symmetry_equiv_pos_site_id
 _symmetry_equiv_pos_as_xyz
  1  'x, y, z'
loop_
 _atom_site_type_symbol
 _atom_site_label
 _atom_site_symmetry_multiplicity
 _atom_site_fract_x
 _atom_site_fract_y
 _atom_site_fract_z
 _atom_site_occupancy
  Sm  Sm0  1  0.000000  0.243924  0.243924  1
  Th  Th1  1  0.000000  0.757684  0.757684  1
  Th  Th2  1  0.239477  0.002227  0.241704  1
  Th  Th3  1  0.760523  0.002227  0.762750  1
  Th  Th4  1  0.239477  0.241704  0.002227  1
  Th  Th5  1  0.760523  0.762750  0.002227  1
  Ni  Ni6  1  0.000000  0.994359  0.994359  1
  Br  Br7  1  0.499069  0.249225  0.249225  1
  Br  Br8  1  0.500931  0.750156  0.750156  1
  Br  Br9  1  0.000000  0.249225  0.750156  1
  Br  Br10  1  0.000000  0.750156  0.249225  1
  Br  Br11  1  0.248516  0.497111  0.248596  1
  Br  Br12  1  0.751484  0.000080  0.248596  1
  Br  Br13  1  0.750167  0.501131  0.750964  1
  Br  Br14  1  0.249833  0.000797  0.750964  1
  Br  Br15  1  0.248516  0.248596  0.497111  1
  Br  Br16  1  0.750167  0.750964  0.501131  1
  Br  Br17  1  0.751484  0.248596  0.000080  1
  Br  Br18  1  0.249833  0.750964  0.000797  1
  Br  Br19  1  0.000000  0.501034  0.501034  1
  Br  Br20  1  0.500000  0.998544  0.498544  1
  Br  Br21  1  0.500000  0.498544  0.998544  1
