# generated using pymatgen
data_Y2ErPa(Al3Ir)6
_symmetry_space_group_name_H-M   'P 1'
_cell_length_a   7.58035803
_cell_length_b   7.57600043
_cell_length_c   9.43860700
_cell_angle_alpha   90.00000000
_cell_angle_beta   90.00000000
_cell_angle_gamma   119.61161528
_symmetry_Int_Tables_number   1
_chemical_formula_structural   Y2ErPa(Al3Ir)6
_chemical_formula_sum   'Y2 Er1 Pa1 Al18 Ir6'
_cell_volume   471.25355513
_cell_formula_units_Z   1
loop_
 _symmetry_equiv_pos_site_id
 _symmetry_equiv_pos_as_xyz
  1  'x, y, z'
loop_
 _atom_site_type_symbol
 _atom_site_label
 _atom_site_symmetry_multiplicity
 _atom_site_fract_x
 _atom_site_fract_y
 _atom_site_fract_z
 _atom_site_occupancy
  Y  Y0  1  0.005027  0.329307  0.750000  1
  Y  Y1  1  0.329531  0.004604  0.750000  1
  Er  Er2  1  0.672000  0.994771  0.250000  1
  Pa  Pa3  1  0.995908  0.671296  0.250000  1
  Al  Al4  1  0.131185  0.130291  0.250000  1
  Al  Al5  1  0.872575  0.873841  0.750000  1
  Al  Al6  1  0.000548  0.332086  0.074900  1
  Al  Al7  1  0.998998  0.664801  0.922135  1
  Al  Al8  1  0.998998  0.664801  0.577865  1
  Al  Al9  1  0.338475  0.003654  0.425029  1
  Al  Al10  1  0.000548  0.332086  0.425100  1
  Al  Al11  1  0.665241  0.999789  0.574890  1
  Al  Al12  1  0.665241  0.999789  0.925110  1
  Al  Al13  1  0.338475  0.003654  0.074971  1
  Al  Al14  1  0.332844  0.332972  0.554079  1
  Al  Al15  1  0.663422  0.666114  0.448055  1
  Al  Al16  1  0.663422  0.666114  0.051945  1
  Al  Al17  1  0.332844  0.332972  0.945921  1
  Al  Al18  1  0.339289  0.546921  0.250000  1
  Al  Al19  1  0.659616  0.450301  0.750000  1
  Al  Al20  1  0.546723  0.341488  0.250000  1
  Al  Al21  1  0.451158  0.660776  0.750000  1
  Ir  Ir22  1  0.673766  0.329889  0.002329  1
  Ir  Ir23  1  0.326196  0.672046  0.002410  1
  Ir  Ir24  1  0.326196  0.672046  0.497590  1
  Ir  Ir25  1  0.673766  0.329889  0.497671  1
  Ir  Ir26  1  0.999003  0.996851  0.003360  1
  Ir  Ir27  1  0.999003  0.996851  0.496640  1
