# generated using pymatgen
data_Rb4Tb11DySe20
_symmetry_space_group_name_H-M   'P 1'
_cell_length_a   4.16699400
_cell_length_b   12.36563205
_cell_length_c   22.27398909
_cell_angle_alpha   90.01039226
_cell_angle_beta   90.00000000
_cell_angle_gamma   90.00000000
_symmetry_Int_Tables_number   1
_chemical_formula_structural   Rb4Tb11DySe20
_chemical_formula_sum   'Rb4 Tb11 Dy1 Se20'
_cell_volume   1147.72327839
_cell_formula_units_Z   1
loop_
 _symmetry_equiv_pos_site_id
 _symmetry_equiv_pos_as_xyz
  1  'x, y, z'
loop_
 _atom_site_type_symbol
 _atom_site_label
 _atom_site_symmetry_multiplicity
 _atom_site_fract_x
 _atom_site_fract_y
 _atom_site_fract_z
 _atom_site_occupancy
  Rb  Rb0  1  0.250000  0.845631  0.097777  1
  Rb  Rb1  1  0.750000  0.154368  0.902225  1
  Rb  Rb2  1  0.750000  0.345618  0.402233  1
  Rb  Rb3  1  0.250000  0.654367  0.597776  1
  Tb  Tb4  1  0.750000  0.803642  0.828590  1
  Tb  Tb5  1  0.250000  0.196357  0.171414  1
  Tb  Tb6  1  0.250000  0.303601  0.671393  1
  Tb  Tb7  1  0.750000  0.696352  0.328591  1
  Tb  Tb8  1  0.250000  0.960148  0.698678  1
  Tb  Tb9  1  0.750000  0.039880  0.301330  1
  Tb  Tb10  1  0.750000  0.460132  0.801312  1
  Tb  Tb11  1  0.250000  0.539866  0.198689  1
  Tb  Tb12  1  0.750000  0.388584  0.052578  1
  Tb  Tb13  1  0.250000  0.611414  0.947423  1
  Tb  Tb14  1  0.250000  0.888629  0.447437  1
  Dy  Dy15  1  0.750000  0.111379  0.552598  1
  Se  Se16  1  0.250000  0.948804  0.569724  1
  Se  Se17  1  0.750000  0.051734  0.430426  1
  Se  Se18  1  0.750000  0.448385  0.930239  1
  Se  Se19  1  0.250000  0.551616  0.069760  1
  Se  Se20  1  0.750000  0.769708  0.955977  1
  Se  Se21  1  0.250000  0.230293  0.044021  1
  Se  Se22  1  0.250000  0.269205  0.544016  1
  Se  Se23  1  0.750000  0.730291  0.455978  1
  Se  Se24  1  0.250000  0.958749  0.827459  1
  Se  Se25  1  0.750000  0.041253  0.172545  1
  Se  Se26  1  0.750000  0.458750  0.672542  1
  Se  Se27  1  0.250000  0.541256  0.327457  1
  Se  Se28  1  0.750000  0.130860  0.683119  1
  Se  Se29  1  0.250000  0.869126  0.316703  1
  Se  Se30  1  0.250000  0.630875  0.816703  1
  Se  Se31  1  0.750000  0.369126  0.183296  1
  Se  Se32  1  0.750000  0.693569  0.199698  1
  Se  Se33  1  0.250000  0.306430  0.800302  1
  Se  Se34  1  0.250000  0.193566  0.300297  1
  Se  Se35  1  0.750000  0.806433  0.699694  1
