# generated using pymatgen
data_LiDy16In3Co4
_symmetry_space_group_name_H-M   'P 1'
_cell_length_a   9.52474960
_cell_length_b   9.54300773
_cell_length_c   9.52475000
_cell_angle_alpha   60.06326814
_cell_angle_beta   59.99999860
_cell_angle_gamma   60.06326461
_symmetry_Int_Tables_number   1
_chemical_formula_structural   LiDy16In3Co4
_chemical_formula_sum   'Li1 Dy16 In3 Co4'
_cell_volume   612.76234201
_cell_formula_units_Z   1
loop_
 _symmetry_equiv_pos_site_id
 _symmetry_equiv_pos_as_xyz
  1  'x, y, z'
loop_
 _atom_site_type_symbol
 _atom_site_label
 _atom_site_symmetry_multiplicity
 _atom_site_fract_x
 _atom_site_fract_y
 _atom_site_fract_z
 _atom_site_occupancy
  Li  Li0  1  0.928193  0.215421  0.928193  1
  Dy  Dy1  1  0.153227  0.540318  0.153227  1
  Dy  Dy2  1  0.686136  0.314288  0.686136  1
  Dy  Dy3  1  0.686136  0.314288  0.313441  1
  Dy  Dy4  1  0.938790  0.560444  0.561976  1
  Dy  Dy5  1  0.538076  0.153222  0.154351  1
  Dy  Dy6  1  0.154351  0.153222  0.538076  1
  Dy  Dy7  1  0.938123  0.938194  0.561841  1
  Dy  Dy8  1  0.310509  0.690080  0.310509  1
  Dy  Dy9  1  0.561841  0.938194  0.938123  1
  Dy  Dy10  1  0.561841  0.938194  0.561841  1
  Dy  Dy11  1  0.688902  0.690080  0.310509  1
  Dy  Dy12  1  0.561976  0.560444  0.938790  1
  Dy  Dy13  1  0.938790  0.560444  0.938790  1
  Dy  Dy14  1  0.310509  0.690080  0.688902  1
  Dy  Dy15  1  0.154351  0.153222  0.154351  1
  Dy  Dy16  1  0.313441  0.314288  0.686136  1
  In  In17  1  0.917172  0.922673  0.917172  1
  In  In18  1  0.917172  0.922673  0.242983  1
  In  In19  1  0.242983  0.922673  0.917172  1
  Co  Co20  1  0.358883  0.361530  0.920703  1
  Co  Co21  1  0.359011  0.922967  0.359011  1
  Co  Co22  1  0.920703  0.361530  0.358883  1
  Co  Co23  1  0.358883  0.361530  0.358883  1
