# generated using pymatgen
data_Hf5VSb2
_symmetry_space_group_name_H-M   'P 1'
_cell_length_a   5.56847396
_cell_length_b   8.29554002
_cell_length_c   8.29553991
_cell_angle_alpha   83.53202190
_cell_angle_beta   70.38910996
_cell_angle_gamma   70.38910485
_symmetry_Int_Tables_number   1
_chemical_formula_structural   Hf5VSb2
_chemical_formula_sum   'Hf10 V2 Sb4'
_cell_volume   340.03331887
_cell_formula_units_Z   2
loop_
 _symmetry_equiv_pos_site_id
 _symmetry_equiv_pos_as_xyz
  1  'x, y, z'
loop_
 _atom_site_type_symbol
 _atom_site_label
 _atom_site_symmetry_multiplicity
 _atom_site_fract_x
 _atom_site_fract_y
 _atom_site_fract_z
 _atom_site_occupancy
  Hf  Hf0  1  0.072950  0.132028  0.722073  1
  Hf  Hf1  1  0.927050  0.867972  0.277927  1
  Hf  Hf2  1  0.795023  0.277927  0.132028  1
  Hf  Hf3  1  0.427050  0.277927  0.867972  1
  Hf  Hf4  1  0.204977  0.722073  0.867972  1
  Hf  Hf5  1  0.572950  0.722073  0.132028  1
  Hf  Hf6  1  0.704977  0.867972  0.722073  1
  Hf  Hf7  1  0.295023  0.132028  0.277927  1
  Hf  Hf8  1  0.250000  0.500000  0.500000  1
  Hf  Hf9  1  0.750000  0.500000  0.500000  1
  V  V10  1  0.250000  0.000000  0.000000  1
  V  V11  1  0.750000  0.000000  0.000000  1
  Sb  Sb12  1  0.163273  0.500000  0.173454  1
  Sb  Sb13  1  0.836727  0.500000  0.826546  1
  Sb  Sb14  1  0.336727  0.826546  0.500000  1
  Sb  Sb15  1  0.663273  0.173454  0.500000  1
