# generated using pymatgen
data_Tb4Pr16(Ir3Ru)3
_symmetry_space_group_name_H-M   'P 1'
_cell_length_a   11.24350400
_cell_length_b   11.24350400
_cell_length_c   6.59998200
_cell_angle_alpha   90.00000000
_cell_angle_beta   90.00000000
_cell_angle_gamma   90.00000000
_symmetry_Int_Tables_number   1
_chemical_formula_structural   Tb4Pr16(Ir3Ru)3
_chemical_formula_sum   'Tb4 Pr16 Ir9 Ru3'
_cell_volume   834.34584701
_cell_formula_units_Z   1
loop_
 _symmetry_equiv_pos_site_id
 _symmetry_equiv_pos_as_xyz
  1  'x, y, z'
loop_
 _atom_site_type_symbol
 _atom_site_label
 _atom_site_symmetry_multiplicity
 _atom_site_fract_x
 _atom_site_fract_y
 _atom_site_fract_z
 _atom_site_occupancy
  Tb  Tb0  1  0.000000  0.000000  0.498959  1
  Tb  Tb1  1  0.000000  0.000000  0.999163  1
  Tb  Tb2  1  0.500000  0.500000  0.999163  1
  Tb  Tb3  1  0.500000  0.500000  0.498959  1
  Pr  Pr4  1  0.291820  0.086728  0.381913  1
  Pr  Pr5  1  0.291951  0.913555  0.882441  1
  Pr  Pr6  1  0.708049  0.086445  0.882441  1
  Pr  Pr7  1  0.708180  0.913272  0.381913  1
  Pr  Pr8  1  0.586445  0.791951  0.882441  1
  Pr  Pr9  1  0.586728  0.208180  0.381913  1
  Pr  Pr10  1  0.413272  0.791820  0.381913  1
  Pr  Pr11  1  0.413555  0.208049  0.882441  1
  Pr  Pr12  1  0.210008  0.412381  0.619968  1
  Pr  Pr13  1  0.209653  0.587645  0.117224  1
  Pr  Pr14  1  0.790347  0.412355  0.117224  1
  Pr  Pr15  1  0.789992  0.587619  0.619968  1
  Pr  Pr16  1  0.912355  0.709653  0.117224  1
  Pr  Pr17  1  0.912381  0.289992  0.619968  1
  Pr  Pr18  1  0.087619  0.710008  0.619968  1
  Pr  Pr19  1  0.087645  0.290347  0.117224  1
  Ir  Ir20  1  0.852762  0.148425  0.249923  1
  Ir  Ir21  1  0.852229  0.851310  0.749579  1
  Ir  Ir22  1  0.147771  0.148690  0.749579  1
  Ir  Ir23  1  0.147238  0.851575  0.249923  1
  Ir  Ir24  1  0.648690  0.352229  0.749579  1
  Ir  Ir25  1  0.648425  0.647238  0.249923  1
  Ir  Ir26  1  0.351575  0.352762  0.249923  1
  Ir  Ir27  1  0.351310  0.647771  0.749579  1
  Ir  Ir28  1  0.000000  0.500000  0.381309  1
  Ru  Ru29  1  0.500000  0.000000  0.118005  1
  Ru  Ru30  1  0.500000  0.000000  0.617124  1
  Ru  Ru31  1  0.000000  0.500000  0.883122  1
