# generated using pymatgen
data_Ho6Al24FeCu3Ru4
_symmetry_space_group_name_H-M   'P 1'
_cell_length_a   8.76181798
_cell_length_b   8.79455426
_cell_length_c   9.42967213
_cell_angle_alpha   89.90877392
_cell_angle_beta   90.04477537
_cell_angle_gamma   119.23161998
_symmetry_Int_Tables_number   1
_chemical_formula_structural   Ho6Al24FeCu3Ru4
_chemical_formula_sum   'Ho6 Al24 Fe1 Cu3 Ru4'
_cell_volume   634.08217200
_cell_formula_units_Z   1
loop_
 _symmetry_equiv_pos_site_id
 _symmetry_equiv_pos_as_xyz
  1  'x, y, z'
loop_
 _atom_site_type_symbol
 _atom_site_label
 _atom_site_symmetry_multiplicity
 _atom_site_fract_x
 _atom_site_fract_y
 _atom_site_fract_z
 _atom_site_occupancy
  Ho  Ho0  1  0.191881  0.384180  0.248010  1
  Ho  Ho1  1  0.808119  0.615820  0.751990  1
  Ho  Ho2  1  0.613974  0.809138  0.252796  1
  Ho  Ho3  1  0.386026  0.190862  0.747204  1
  Ho  Ho4  1  0.196074  0.807275  0.248960  1
  Ho  Ho5  1  0.803926  0.192725  0.751040  1
  Al  Al6  1  0.335221  0.669785  0.024203  1
  Al  Al7  1  0.664779  0.330215  0.975797  1
  Al  Al8  1  0.668935  0.332176  0.522780  1
  Al  Al9  1  0.331065  0.667824  0.477220  1
  Al  Al10  1  0.153492  0.317857  0.575663  1
  Al  Al11  1  0.846508  0.682143  0.424337  1
  Al  Al12  1  0.681318  0.845090  0.576733  1
  Al  Al13  1  0.838583  0.678848  0.081410  1
  Al  Al14  1  0.318682  0.154910  0.423267  1
  Al  Al15  1  0.161417  0.321152  0.918590  1
  Al  Al16  1  0.160531  0.837822  0.576189  1
  Al  Al17  1  0.323962  0.157427  0.078715  1
  Al  Al18  1  0.839469  0.162178  0.423811  1
  Al  Al19  1  0.676038  0.842573  0.921285  1
  Al  Al20  1  0.832596  0.157672  0.081460  1
  Al  Al21  1  0.167404  0.842328  0.918540  1
  Al  Al22  1  0.562037  0.123391  0.250264  1
  Al  Al23  1  0.437963  0.876609  0.749736  1
  Al  Al24  1  0.876153  0.438233  0.251962  1
  Al  Al25  1  0.123847  0.561767  0.748038  1
  Al  Al26  1  0.561760  0.439547  0.250571  1
  Al  Al27  1  0.438240  0.560453  0.749429  1
  Al  Al28  1  0.000052  0.002576  0.256633  1
  Al  Al29  1  0.999948  0.997424  0.743367  1
  Fe  Fe30  1  0.000000  0.000000  0.500000  1
  Cu  Cu31  1  0.000000  0.500000  0.000000  1
  Cu  Cu32  1  0.500000  0.500000  0.000000  1
  Cu  Cu33  1  0.500000  0.500000  0.500000  1
  Ru  Ru34  1  0.500000  0.000000  0.000000  1
  Ru  Ru35  1  0.500000  0.000000  0.500000  1
  Ru  Ru36  1  0.000000  0.500000  0.500000  1
  Ru  Ru37  1  0.000000  0.000000  0.000000  1
