# generated using pymatgen
data_Ho2Tm3Lu3Au4
_symmetry_space_group_name_H-M   'P 1'
_cell_length_a   4.84954300
_cell_length_b   7.05041383
_cell_length_c   8.82643600
_cell_angle_alpha   90.11586167
_cell_angle_beta   90.00000000
_cell_angle_gamma   90.00000000
_symmetry_Int_Tables_number   1
_chemical_formula_structural   Ho2Tm3Lu3Au4
_chemical_formula_sum   'Ho2 Tm3 Lu3 Au4'
_cell_volume   301.78657216
_cell_formula_units_Z   1
loop_
 _symmetry_equiv_pos_site_id
 _symmetry_equiv_pos_as_xyz
  1  'x, y, z'
loop_
 _atom_site_type_symbol
 _atom_site_label
 _atom_site_symmetry_multiplicity
 _atom_site_fract_x
 _atom_site_fract_y
 _atom_site_fract_z
 _atom_site_occupancy
  Ho  Ho0  1  0.250000  0.482984  0.177574  1
  Ho  Ho1  1  0.250000  0.984147  0.322333  1
  Tm  Tm2  1  0.750000  0.648870  0.422895  1
  Tm  Tm3  1  0.750000  0.516728  0.822160  1
  Tm  Tm4  1  0.750000  0.017048  0.678309  1
  Lu  Lu5  1  0.250000  0.850906  0.922299  1
  Lu  Lu6  1  0.250000  0.351052  0.578240  1
  Lu  Lu7  1  0.750000  0.148978  0.076429  1
  Au  Au8  1  0.250000  0.254301  0.896991  1
  Au  Au9  1  0.250000  0.755163  0.603976  1
  Au  Au10  1  0.750000  0.745922  0.100126  1
  Au  Au11  1  0.750000  0.243900  0.398668  1
