# generated using pymatgen
data_Sr6TiMn(CoO5)3
_symmetry_space_group_name_H-M   'P 1'
_cell_length_a   6.95591075
_cell_length_b   6.95591207
_cell_length_c   6.95591080
_cell_angle_alpha   87.79256223
_cell_angle_beta   87.79256811
_cell_angle_gamma   87.79256353
_symmetry_Int_Tables_number   1
_chemical_formula_structural   Sr6TiMn(CoO5)3
_chemical_formula_sum   'Sr6 Ti1 Mn1 Co3 O15'
_cell_volume   335.82914355
_cell_formula_units_Z   1
loop_
 _symmetry_equiv_pos_site_id
 _symmetry_equiv_pos_as_xyz
  1  'x, y, z'
loop_
 _atom_site_type_symbol
 _atom_site_label
 _atom_site_symmetry_multiplicity
 _atom_site_fract_x
 _atom_site_fract_y
 _atom_site_fract_z
 _atom_site_occupancy
  Sr  Sr0  1  0.501071  0.862369  0.140506  1
  Sr  Sr1  1  0.140506  0.501071  0.862369  1
  Sr  Sr2  1  0.862369  0.140506  0.501071  1
  Sr  Sr3  1  0.003649  0.677484  0.319879  1
  Sr  Sr4  1  0.319879  0.003649  0.677484  1
  Sr  Sr5  1  0.677484  0.319879  0.003649  1
  Ti  Ti6  1  0.493231  0.493231  0.493231  1
  Mn  Mn7  1  0.706199  0.706199  0.706199  1
  Co  Co8  1  0.292394  0.292394  0.292394  1
  Co  Co9  1  0.904957  0.904957  0.904957  1
  Co  Co10  1  0.097761  0.097761  0.097761  1
  O  O11  1  0.374315  0.551839  0.246865  1
  O  O12  1  0.246865  0.374315  0.551839  1
  O  O13  1  0.551839  0.246865  0.374315  1
  O  O14  1  0.627200  0.749363  0.447904  1
  O  O15  1  0.447904  0.627200  0.749363  1
  O  O16  1  0.749363  0.447904  0.627200  1
  O  O17  1  0.201834  0.030879  0.341504  1
  O  O18  1  0.341504  0.201834  0.030879  1
  O  O19  1  0.030879  0.341504  0.201834  1
  O  O20  1  0.797143  0.655561  0.968022  1
  O  O21  1  0.968022  0.797143  0.655561  1
  O  O22  1  0.156661  0.850073  0.001338  1
  O  O23  1  0.850073  0.001338  0.156661  1
  O  O24  1  0.001338  0.156661  0.850073  1
  O  O25  1  0.655561  0.968022  0.797143  1
