# generated using pymatgen
data_Nb12Zn9Pt3C4
_symmetry_space_group_name_H-M   'P 1'
_cell_length_a   8.35604296
_cell_length_b   8.35604271
_cell_length_c   8.35604365
_cell_angle_alpha   60.13955886
_cell_angle_beta   60.13955745
_cell_angle_gamma   60.13956298
_symmetry_Int_Tables_number   1
_chemical_formula_structural   Nb12Zn9Pt3C4
_chemical_formula_sum   'Nb12 Zn9 Pt3 C4'
_cell_volume   413.86416008
_cell_formula_units_Z   1
loop_
 _symmetry_equiv_pos_site_id
 _symmetry_equiv_pos_as_xyz
  1  'x, y, z'
loop_
 _atom_site_type_symbol
 _atom_site_label
 _atom_site_symmetry_multiplicity
 _atom_site_fract_x
 _atom_site_fract_y
 _atom_site_fract_z
 _atom_site_occupancy
  Nb  Nb0  1  0.433156  0.433156  0.071285  1
  Nb  Nb1  1  0.065361  0.433482  0.065361  1
  Nb  Nb2  1  0.433482  0.065361  0.065361  1
  Nb  Nb3  1  0.065361  0.065361  0.433482  1
  Nb  Nb4  1  0.433156  0.071285  0.433156  1
  Nb  Nb5  1  0.071285  0.433156  0.433156  1
  Nb  Nb6  1  0.816844  0.816844  0.178715  1
  Nb  Nb7  1  0.184639  0.816518  0.184639  1
  Nb  Nb8  1  0.816518  0.184639  0.184639  1
  Nb  Nb9  1  0.184639  0.184639  0.816518  1
  Nb  Nb10  1  0.816844  0.178715  0.816844  1
  Nb  Nb11  1  0.178715  0.816844  0.816844  1
  Zn  Zn12  1  0.832645  0.832645  0.495225  1
  Zn  Zn13  1  0.832645  0.495225  0.832645  1
  Zn  Zn14  1  0.495225  0.832645  0.832645  1
  Zn  Zn15  1  0.832933  0.832933  0.832933  1
  Zn  Zn16  1  0.417355  0.417355  0.754775  1
  Zn  Zn17  1  0.417355  0.754775  0.417355  1
  Zn  Zn18  1  0.754775  0.417355  0.417355  1
  Zn  Zn19  1  0.417067  0.417067  0.417067  1
  Zn  Zn20  1  0.625000  0.625000  0.625000  1
  Pt  Pt21  1  0.625000  0.625000  0.125000  1
  Pt  Pt22  1  0.625000  0.125000  0.625000  1
  Pt  Pt23  1  0.125000  0.625000  0.625000  1
  C  C24  1  0.125000  0.125000  0.625000  1
  C  C25  1  0.125000  0.625000  0.125000  1
  C  C26  1  0.625000  0.125000  0.125000  1
  C  C27  1  0.125000  0.125000  0.125000  1
