# generated using pymatgen
data_La2TmTaO7
_symmetry_space_group_name_H-M   'P 1'
_cell_length_a   6.63909204
_cell_length_b   6.60786101
_cell_length_c   7.72968300
_cell_angle_alpha   90.00000000
_cell_angle_beta   90.00000000
_cell_angle_gamma   109.43844267
_symmetry_Int_Tables_number   1
_chemical_formula_structural   La2TmTaO7
_chemical_formula_sum   'La4 Tm2 Ta2 O14'
_cell_volume   319.77372233
_cell_formula_units_Z   2
loop_
 _symmetry_equiv_pos_site_id
 _symmetry_equiv_pos_as_xyz
  1  'x, y, z'
loop_
 _atom_site_type_symbol
 _atom_site_label
 _atom_site_symmetry_multiplicity
 _atom_site_fract_x
 _atom_site_fract_y
 _atom_site_fract_z
 _atom_site_occupancy
  La  La0  1  0.528237  0.998447  0.750981  1
  La  La1  1  0.471763  0.001553  0.250981  1
  La  La2  1  0.505117  0.502507  0.500605  1
  La  La3  1  0.494883  0.497493  0.000605  1
  Tm  Tm4  1  0.997760  0.471224  0.749184  1
  Tm  Tm5  1  0.002240  0.528776  0.249184  1
  Ta  Ta6  1  0.000543  0.000836  0.499925  1
  Ta  Ta7  1  0.999457  0.999164  0.999925  1
  O  O8  1  0.651031  0.368372  0.751121  1
  O  O9  1  0.348969  0.631628  0.251121  1
  O  O10  1  0.952732  0.070306  0.750069  1
  O  O11  1  0.047268  0.929694  0.250069  1
  O  O12  1  0.955100  0.688900  0.538336  1
  O  O13  1  0.044900  0.311100  0.038336  1
  O  O14  1  0.319568  0.089193  0.977067  1
  O  O15  1  0.680432  0.910807  0.477067  1
  O  O16  1  0.349718  0.614383  0.748936  1
  O  O17  1  0.650282  0.385617  0.248936  1
  O  O18  1  0.961632  0.692407  0.959100  1
  O  O19  1  0.038368  0.307593  0.459100  1
  O  O20  1  0.318069  0.088434  0.524678  1
  O  O21  1  0.681931  0.911566  0.024678  1
