# generated using pymatgen
data_Zr4CrCo2Os5
_symmetry_space_group_name_H-M   'P 1'
_cell_length_a   5.07414631
_cell_length_b   5.07414674
_cell_length_c   8.50175900
_cell_angle_alpha   90.00000000
_cell_angle_beta   90.00000000
_cell_angle_gamma   119.12125679
_symmetry_Int_Tables_number   1
_chemical_formula_structural   Zr4CrCo2Os5
_chemical_formula_sum   'Zr4 Cr1 Co2 Os5'
_cell_volume   191.22440287
_cell_formula_units_Z   1
loop_
 _symmetry_equiv_pos_site_id
 _symmetry_equiv_pos_as_xyz
  1  'x, y, z'
loop_
 _atom_site_type_symbol
 _atom_site_label
 _atom_site_symmetry_multiplicity
 _atom_site_fract_x
 _atom_site_fract_y
 _atom_site_fract_z
 _atom_site_occupancy
  Zr  Zr0  1  0.670076  0.329924  0.681285  1
  Zr  Zr1  1  0.333763  0.666237  0.810861  1
  Zr  Zr2  1  0.333763  0.666237  0.189139  1
  Zr  Zr3  1  0.670076  0.329924  0.318715  1
  Cr  Cr4  1  0.831435  0.168565  0.000000  1
  Co  Co5  1  0.657788  0.832381  0.500000  1
  Co  Co6  1  0.167619  0.342212  0.500000  1
  Os  Os7  1  0.171540  0.828460  0.500000  1
  Os  Os8  1  0.346390  0.169110  0.000000  1
  Os  Os9  1  0.830890  0.653610  0.000000  1
  Os  Os10  1  0.993304  0.006696  0.256479  1
  Os  Os11  1  0.993304  0.006696  0.743521  1
