# generated using pymatgen
data_PrPaPt2Pb
_symmetry_space_group_name_H-M   'P 1'
_cell_length_a   7.96856100
_cell_length_b   7.99001100
_cell_length_c   3.69963300
_cell_angle_alpha   90.00000000
_cell_angle_beta   90.00000000
_cell_angle_gamma   90.00000000
_symmetry_Int_Tables_number   1
_chemical_formula_structural   PrPaPt2Pb
_chemical_formula_sum   'Pr2 Pa2 Pt4 Pb2'
_cell_volume   235.55152668
_cell_formula_units_Z   2
loop_
 _symmetry_equiv_pos_site_id
 _symmetry_equiv_pos_as_xyz
  1  'x, y, z'
loop_
 _atom_site_type_symbol
 _atom_site_label
 _atom_site_symmetry_multiplicity
 _atom_site_fract_x
 _atom_site_fract_y
 _atom_site_fract_z
 _atom_site_occupancy
  Pr  Pr0  1  0.175629  0.673676  0.500001  1
  Pr  Pr1  1  0.675629  0.826325  0.500001  1
  Pa  Pa2  1  0.329726  0.170625  0.500001  1
  Pa  Pa3  1  0.829726  0.329376  0.500001  1
  Pt  Pt4  1  0.628519  0.149969  0.000000  1
  Pt  Pt5  1  0.128520  0.350031  0.000000  1
  Pt  Pt6  1  0.871340  0.597259  0.000000  1
  Pt  Pt7  1  0.371339  0.902741  0.000000  1
  Pb  Pb8  1  0.994788  0.994046  0.000000  1
  Pb  Pb9  1  0.494788  0.505954  0.000000  1
