# generated using pymatgen
data_TbDy(Al5Os)4
_symmetry_space_group_name_H-M   'P 1'
_cell_length_a   6.86182539
_cell_length_b   6.86182563
_cell_length_c   9.17060900
_cell_angle_alpha   90.00000000
_cell_angle_beta   90.00000000
_cell_angle_gamma   96.54136626
_symmetry_Int_Tables_number   1
_chemical_formula_structural   TbDy(Al5Os)4
_chemical_formula_sum   'Tb1 Dy1 Al20 Os4'
_cell_volume   428.98386629
_cell_formula_units_Z   1
loop_
 _symmetry_equiv_pos_site_id
 _symmetry_equiv_pos_as_xyz
  1  'x, y, z'
loop_
 _atom_site_type_symbol
 _atom_site_label
 _atom_site_symmetry_multiplicity
 _atom_site_fract_x
 _atom_site_fract_y
 _atom_site_fract_z
 _atom_site_occupancy
  Tb  Tb0  1  0.370954  0.629046  0.250000  1
  Dy  Dy1  1  0.629248  0.370752  0.750000  1
  Al  Al2  1  0.281611  0.019225  0.750000  1
  Al  Al3  1  0.019280  0.281716  0.250000  1
  Al  Al4  1  0.718284  0.980720  0.250000  1
  Al  Al5  1  0.980775  0.718389  0.750000  1
  Al  Al6  1  0.876458  0.123542  0.951611  1
  Al  Al7  1  0.123250  0.876750  0.044707  1
  Al  Al8  1  0.876458  0.123542  0.548389  1
  Al  Al9  1  0.123250  0.876750  0.455293  1
  Al  Al10  1  0.645624  0.915793  0.750000  1
  Al  Al11  1  0.914399  0.646389  0.250000  1
  Al  Al12  1  0.353611  0.085601  0.250000  1
  Al  Al13  1  0.084207  0.354376  0.750000  1
  Al  Al14  1  0.344191  0.655809  0.898691  1
  Al  Al15  1  0.657117  0.342883  0.100907  1
  Al  Al16  1  0.344191  0.655809  0.601309  1
  Al  Al17  1  0.657117  0.342883  0.399093  1
  Al  Al18  1  0.723930  0.723913  0.999614  1
  Al  Al19  1  0.723930  0.723913  0.500386  1
  Al  Al20  1  0.276087  0.276070  0.999614  1
  Al  Al21  1  0.276087  0.276070  0.500386  1
  Os  Os22  1  0.499865  0.999895  0.000002  1
  Os  Os23  1  0.000105  0.500135  0.000002  1
  Os  Os24  1  0.499865  0.999895  0.499998  1
  Os  Os25  1  0.000105  0.500135  0.499998  1
