# generated using pymatgen
data_Dy18Lu2Ir7Au5
_symmetry_space_group_name_H-M   'P 1'
_cell_length_a   11.18040210
_cell_length_b   11.18040319
_cell_length_c   6.30441900
_cell_angle_alpha   90.00779461
_cell_angle_beta   90.00778949
_cell_angle_gamma   89.54015302
_symmetry_Int_Tables_number   1
_chemical_formula_structural   Dy18Lu2Ir7Au5
_chemical_formula_sum   'Dy18 Lu2 Ir7 Au5'
_cell_volume   788.03582664
_cell_formula_units_Z   1
loop_
 _symmetry_equiv_pos_site_id
 _symmetry_equiv_pos_as_xyz
  1  'x, y, z'
loop_
 _atom_site_type_symbol
 _atom_site_label
 _atom_site_symmetry_multiplicity
 _atom_site_fract_x
 _atom_site_fract_y
 _atom_site_fract_z
 _atom_site_occupancy
  Dy  Dy0  1  0.299835  0.091096  0.362780  1
  Dy  Dy1  1  0.301374  0.907050  0.862540  1
  Dy  Dy2  1  0.697714  0.080750  0.857360  1
  Dy  Dy3  1  0.697689  0.905444  0.360375  1
  Dy  Dy4  1  0.580650  0.783436  0.876185  1
  Dy  Dy5  1  0.575965  0.207273  0.361129  1
  Dy  Dy6  1  0.417537  0.787148  0.376270  1
  Dy  Dy7  1  0.410931  0.208669  0.875115  1
  Dy  Dy8  1  0.216564  0.419350  0.623815  1
  Dy  Dy9  1  0.212852  0.582463  0.123730  1
  Dy  Dy10  1  0.792727  0.424035  0.138871  1
  Dy  Dy11  1  0.791331  0.589069  0.624885  1
  Dy  Dy12  1  0.908904  0.700165  0.137220  1
  Dy  Dy13  1  0.919250  0.302286  0.642640  1
  Dy  Dy14  1  0.092950  0.698626  0.637460  1
  Dy  Dy15  1  0.094556  0.302311  0.139625  1
  Dy  Dy16  1  0.998375  0.001093  0.499228  1
  Dy  Dy17  1  0.998907  0.001625  0.000772  1
  Lu  Lu18  1  0.495963  0.501882  0.001607  1
  Lu  Lu19  1  0.498118  0.504037  0.498393  1
  Ir  Ir20  1  0.651775  0.649088  0.250971  1
  Ir  Ir21  1  0.350912  0.348225  0.249029  1
  Ir  Ir22  1  0.347402  0.652598  0.750000  1
  Ir  Ir23  1  0.499267  0.998997  0.109712  1
  Ir  Ir24  1  0.498991  0.000151  0.610548  1
  Ir  Ir25  1  0.999849  0.501009  0.889452  1
  Ir  Ir26  1  0.001003  0.500733  0.390288  1
  Au  Au27  1  0.840918  0.159082  0.250000  1
  Au  Au28  1  0.843148  0.845707  0.750801  1
  Au  Au29  1  0.154293  0.156852  0.749199  1
  Au  Au30  1  0.155896  0.844104  0.250000  1
  Au  Au31  1  0.654353  0.345647  0.750000  1
