# generated using pymatgen
data_YLu2Nb3(B2Ru5)2
_symmetry_space_group_name_H-M   'P 1'
_cell_length_a   9.57452438
_cell_length_b   9.57365024
_cell_length_c   3.11644600
_cell_angle_alpha   90.00000000
_cell_angle_beta   90.00000000
_cell_angle_gamma   89.60111140
_symmetry_Int_Tables_number   1
_chemical_formula_structural   YLu2Nb3(B2Ru5)2
_chemical_formula_sum   'Y1 Lu2 Nb3 B4 Ru10'
_cell_volume   285.65632707
_cell_formula_units_Z   1
loop_
 _symmetry_equiv_pos_site_id
 _symmetry_equiv_pos_as_xyz
  1  'x, y, z'
loop_
 _atom_site_type_symbol
 _atom_site_label
 _atom_site_symmetry_multiplicity
 _atom_site_fract_x
 _atom_site_fract_y
 _atom_site_fract_z
 _atom_site_occupancy
  Y  Y0  1  0.325240  0.324338  0.000000  1
  Lu  Lu1  1  0.174278  0.825456  0.000000  1
  Lu  Lu2  1  0.676508  0.675885  0.000000  1
  Nb  Nb3  1  0.496493  0.997210  0.000000  1
  Nb  Nb4  1  0.001167  0.504080  0.000000  1
  Nb  Nb5  1  0.824910  0.175023  0.000000  1
  B  B6  1  0.623977  0.377078  0.000000  1
  B  B7  1  0.381246  0.619981  0.000000  1
  B  B8  1  0.118458  0.122330  0.000000  1
  B  B9  1  0.876384  0.880322  0.000000  1
  Ru  Ru10  1  0.505961  0.498644  0.500000  1
  Ru  Ru11  1  0.991268  0.007380  0.500000  1
  Ru  Ru12  1  0.584822  0.213581  0.500000  1
  Ru  Ru13  1  0.430515  0.780604  0.500000  1
  Ru  Ru14  1  0.058311  0.279583  0.500000  1
  Ru  Ru15  1  0.928462  0.721854  0.500000  1
  Ru  Ru16  1  0.276708  0.068490  0.500000  1
  Ru  Ru17  1  0.719380  0.938933  0.500000  1
  Ru  Ru18  1  0.219491  0.572061  0.500000  1
  Ru  Ru19  1  0.786418  0.417166  0.500000  1
