# generated using pymatgen
data_Ce4Ga10CuPt5
_symmetry_space_group_name_H-M   'P 1'
_cell_length_a   8.66505193
_cell_length_b   8.66505132
_cell_length_c   8.66505000
_cell_angle_alpha   139.49951418
_cell_angle_beta   106.46361379
_cell_angle_gamma   87.48924266
_symmetry_Int_Tables_number   1
_chemical_formula_structural   Ce4Ga10CuPt5
_chemical_formula_sum   'Ce4 Ga10 Cu1 Pt5'
_cell_volume   389.50939138
_cell_formula_units_Z   1
loop_
 _symmetry_equiv_pos_site_id
 _symmetry_equiv_pos_as_xyz
  1  'x, y, z'
loop_
 _atom_site_type_symbol
 _atom_site_label
 _atom_site_symmetry_multiplicity
 _atom_site_fract_x
 _atom_site_fract_y
 _atom_site_fract_z
 _atom_site_occupancy
  Ce  Ce0  1  0.863096  0.629114  0.223466  1
  Ce  Ce1  1  0.136904  0.360371  0.766018  1
  Ce  Ce2  1  0.405648  0.139629  0.276534  1
  Ce  Ce3  1  0.594352  0.870886  0.733982  1
  Ga  Ga4  1  0.500000  0.750000  0.250000  1
  Ga  Ga5  1  0.500000  0.250000  0.750000  1
  Ga  Ga6  1  0.221582  0.971582  0.750000  1
  Ga  Ga7  1  0.778418  0.528418  0.750000  1
  Ga  Ga8  1  0.782084  0.032084  0.250000  1
  Ga  Ga9  1  0.217916  0.467916  0.250000  1
  Ga  Ga10  1  0.052475  0.888973  0.144817  1
  Ga  Ga11  1  0.947525  0.092342  0.836498  1
  Ga  Ga12  1  0.744155  0.407658  0.355183  1
  Ga  Ga13  1  0.255845  0.611027  0.663502  1
  Cu  Cu14  1  0.000000  0.750000  0.750000  1
  Pt  Pt15  1  0.000000  0.250000  0.250000  1
  Pt  Pt16  1  0.249554  0.855613  0.385759  1
  Pt  Pt17  1  0.750446  0.136202  0.606057  1
  Pt  Pt18  1  0.469855  0.363798  0.114241  1
  Pt  Pt19  1  0.530145  0.644387  0.893943  1
