# generated using pymatgen
data_TaGa11Ru12
_symmetry_space_group_name_H-M   'P 1'
_cell_length_a   4.27676204
_cell_length_b   6.09017400
_cell_length_c   12.87351300
_cell_angle_alpha   90.00000000
_cell_angle_beta   89.99217615
_cell_angle_gamma   90.00000000
_symmetry_Int_Tables_number   1
_chemical_formula_structural   TaGa11Ru12
_chemical_formula_sum   'Ta1 Ga11 Ru12'
_cell_volume   335.30641275
_cell_formula_units_Z   1
loop_
 _symmetry_equiv_pos_site_id
 _symmetry_equiv_pos_as_xyz
  1  'x, y, z'
loop_
 _atom_site_type_symbol
 _atom_site_label
 _atom_site_symmetry_multiplicity
 _atom_site_fract_x
 _atom_site_fract_y
 _atom_site_fract_z
 _atom_site_occupancy
  Ta  Ta0  1  0.500110  0.000000  0.833345  1
  Ga  Ga1  1  0.000010  0.500000  0.003515  1
  Ga  Ga2  1  0.499811  0.000000  0.167192  1
  Ga  Ga3  1  0.999945  0.500000  0.333376  1
  Ga  Ga4  1  0.500043  0.000000  0.499322  1
  Ga  Ga5  1  0.000102  0.500000  0.663136  1
  Ga  Ga6  1  0.000015  0.000000  0.997830  1
  Ga  Ga7  1  0.499818  0.500000  0.170436  1
  Ga  Ga8  1  0.999937  0.000000  0.333393  1
  Ga  Ga9  1  0.500029  0.500000  0.496107  1
  Ga  Ga10  1  0.000110  0.000000  0.668841  1
  Ga  Ga11  1  0.500069  0.500000  0.833430  1
  Ru  Ru12  1  0.500019  0.254227  0.002411  1
  Ru  Ru13  1  0.500019  0.745772  0.002411  1
  Ru  Ru14  1  0.999845  0.246537  0.166948  1
  Ru  Ru15  1  0.999845  0.753462  0.166948  1
  Ru  Ru16  1  0.499942  0.250801  0.333330  1
  Ru  Ru17  1  0.499942  0.749198  0.333330  1
  Ru  Ru18  1  0.000033  0.246592  0.499735  1
  Ru  Ru19  1  0.000033  0.753407  0.499735  1
  Ru  Ru20  1  0.500093  0.254196  0.664229  1
  Ru  Ru21  1  0.500093  0.745803  0.664229  1
  Ru  Ru22  1  0.000070  0.259560  0.833386  1
  Ru  Ru23  1  0.000070  0.740439  0.833386  1
