# generated using pymatgen
data_Hf12Ti4MoOs7
_symmetry_space_group_name_H-M   'P 1'
_cell_length_a   8.61514498
_cell_length_b   8.57430266
_cell_length_c   8.57430300
_cell_angle_alpha   60.00000255
_cell_angle_beta   60.15670203
_cell_angle_gamma   60.15670087
_symmetry_Int_Tables_number   1
_chemical_formula_structural   Hf12Ti4MoOs7
_chemical_formula_sum   'Hf12 Ti4 Mo1 Os7'
_cell_volume   448.92090645
_cell_formula_units_Z   1
loop_
 _symmetry_equiv_pos_site_id
 _symmetry_equiv_pos_as_xyz
  1  'x, y, z'
loop_
 _atom_site_type_symbol
 _atom_site_label
 _atom_site_symmetry_multiplicity
 _atom_site_fract_x
 _atom_site_fract_y
 _atom_site_fract_z
 _atom_site_occupancy
  Hf  Hf0  1  0.808708  0.807979  0.191656  1
  Hf  Hf1  1  0.193101  0.192739  0.807080  1
  Hf  Hf2  1  0.808708  0.191656  0.807979  1
  Hf  Hf3  1  0.193101  0.807080  0.192739  1
  Hf  Hf4  1  0.193101  0.807080  0.807080  1
  Hf  Hf5  1  0.808708  0.191656  0.191656  1
  Hf  Hf6  1  0.443386  0.442330  0.057142  1
  Hf  Hf7  1  0.057918  0.056827  0.442628  1
  Hf  Hf8  1  0.443386  0.057142  0.442330  1
  Hf  Hf9  1  0.057918  0.442628  0.056827  1
  Hf  Hf10  1  0.057918  0.442628  0.442628  1
  Hf  Hf11  1  0.443386  0.057142  0.057142  1
  Ti  Ti12  1  0.126202  0.624599  0.624599  1
  Ti  Ti13  1  0.624069  0.123616  0.626157  1
  Ti  Ti14  1  0.624069  0.626157  0.123616  1
  Ti  Ti15  1  0.624069  0.626157  0.626157  1
  Mo  Mo16  1  0.754568  0.415143  0.415143  1
  Os  Os17  1  0.412494  0.758905  0.414300  1
  Os  Os18  1  0.412494  0.414300  0.758905  1
  Os  Os19  1  0.412494  0.414300  0.414300  1
  Os  Os20  1  0.492626  0.835792  0.835792  1
  Os  Os21  1  0.835859  0.493456  0.835343  1
  Os  Os22  1  0.835859  0.835343  0.493456  1
  Os  Os23  1  0.835859  0.835343  0.835343  1
