# generated using pymatgen
data_V3Bi4RhF28
_symmetry_space_group_name_H-M   'P 1'
_cell_length_a   5.68783144
_cell_length_b   9.17628959
_cell_length_c   12.19323500
_cell_angle_alpha   62.54594965
_cell_angle_beta   90.30660542
_cell_angle_gamma   90.06691718
_symmetry_Int_Tables_number   1
_chemical_formula_structural   V3Bi4RhF28
_chemical_formula_sum   'V3 Bi4 Rh1 F28'
_cell_volume   564.72386927
_cell_formula_units_Z   1
loop_
 _symmetry_equiv_pos_site_id
 _symmetry_equiv_pos_as_xyz
  1  'x, y, z'
loop_
 _atom_site_type_symbol
 _atom_site_label
 _atom_site_symmetry_multiplicity
 _atom_site_fract_x
 _atom_site_fract_y
 _atom_site_fract_z
 _atom_site_occupancy
  V  V0  1  0.254653  0.728802  0.542494  1
  V  V1  1  0.245281  0.726989  0.044116  1
  V  V2  1  0.745492  0.271808  0.457580  1
  Bi  Bi3  1  0.760764  0.805750  0.769879  1
  Bi  Bi4  1  0.265232  0.186315  0.732189  1
  Bi  Bi5  1  0.235766  0.186747  0.236131  1
  Bi  Bi6  1  0.740403  0.811306  0.266789  1
  Rh  Rh7  1  0.757303  0.269969  0.957928  1
  F  F8  1  0.447058  0.711422  0.925376  1
  F  F9  1  0.949402  0.288659  0.575530  1
  F  F10  1  0.568692  0.293690  0.080125  1
  F  F11  1  0.051890  0.713265  0.423173  1
  F  F12  1  0.469378  0.281629  0.548124  1
  F  F13  1  0.967996  0.717774  0.953945  1
  F  F14  1  0.528677  0.719935  0.451976  1
  F  F15  1  0.051563  0.281449  0.045388  1
  F  F16  1  0.764270  0.506277  0.859293  1
  F  F17  1  0.263947  0.505902  0.631327  1
  F  F18  1  0.234456  0.503085  0.133069  1
  F  F19  1  0.734125  0.495641  0.368133  1
  F  F20  1  0.755799  0.032526  0.050854  1
  F  F21  1  0.258289  0.955864  0.449738  1
  F  F22  1  0.239780  0.952032  0.952467  1
  F  F23  1  0.739982  0.047513  0.548093  1
  F  F24  1  0.990215  0.739441  0.633644  1
  F  F25  1  0.470020  0.265730  0.865356  1
  F  F26  1  0.010662  0.263405  0.365519  1
  F  F27  1  0.510167  0.733375  0.137623  1
  F  F28  1  0.045648  0.746597  0.163638  1
  F  F29  1  0.543781  0.252378  0.338072  1
  F  F30  1  0.945010  0.251252  0.832155  1
  F  F31  1  0.454817  0.751475  0.660738  1
  F  F32  1  0.415739  0.976288  0.227501  1
  F  F33  1  0.911099  0.029037  0.271163  1
  F  F34  1  0.585857  0.025131  0.771374  1
  F  F35  1  0.086781  0.971544  0.729498  1
