# generated using pymatgen
data_DyEr3(AlRu)4
_symmetry_space_group_name_H-M   'P 1'
_cell_length_a   3.99802200
_cell_length_b   7.01206106
_cell_length_c   8.06964019
_cell_angle_alpha   89.92355292
_cell_angle_beta   90.00000000
_cell_angle_gamma   90.00000000
_symmetry_Int_Tables_number   1
_chemical_formula_structural   DyEr3(AlRu)4
_chemical_formula_sum   'Dy1 Er3 Al4 Ru4'
_cell_volume   226.22711296
_cell_formula_units_Z   1
loop_
 _symmetry_equiv_pos_site_id
 _symmetry_equiv_pos_as_xyz
  1  'x, y, z'
loop_
 _atom_site_type_symbol
 _atom_site_label
 _atom_site_symmetry_multiplicity
 _atom_site_fract_x
 _atom_site_fract_y
 _atom_site_fract_z
 _atom_site_occupancy
  Dy  Dy0  1  0.750000  0.469009  0.321403  1
  Er  Er1  1  0.250000  0.031304  0.822171  1
  Er  Er2  1  0.250000  0.531720  0.678697  1
  Er  Er3  1  0.750000  0.968327  0.177718  1
  Al  Al4  1  0.250000  0.137782  0.442096  1
  Al  Al5  1  0.250000  0.638519  0.057998  1
  Al  Al6  1  0.750000  0.862371  0.558897  1
  Al  Al7  1  0.750000  0.361475  0.940954  1
  Ru  Ru8  1  0.250000  0.771393  0.372926  1
  Ru  Ru9  1  0.250000  0.267684  0.126375  1
  Ru  Ru10  1  0.750000  0.230316  0.628133  1
  Ru  Ru11  1  0.750000  0.730100  0.872630  1
