# generated using pymatgen
data_Dy3Y2Lu3Au4
_symmetry_space_group_name_H-M   'P 1'
_cell_length_a   4.88457000
_cell_length_b   7.14563090
_cell_length_c   8.85915425
_cell_angle_alpha   90.13463706
_cell_angle_beta   90.00000000
_cell_angle_gamma   90.00000000
_symmetry_Int_Tables_number   1
_chemical_formula_structural   Dy3Y2Lu3Au4
_chemical_formula_sum   'Dy3 Y2 Lu3 Au4'
_cell_volume   309.21316879
_cell_formula_units_Z   1
loop_
 _symmetry_equiv_pos_site_id
 _symmetry_equiv_pos_as_xyz
  1  'x, y, z'
loop_
 _atom_site_type_symbol
 _atom_site_label
 _atom_site_symmetry_multiplicity
 _atom_site_fract_x
 _atom_site_fract_y
 _atom_site_fract_z
 _atom_site_occupancy
  Dy  Dy0  1  0.750000  0.648275  0.420443  1
  Dy  Dy1  1  0.750000  0.515854  0.823644  1
  Dy  Dy2  1  0.750000  0.016239  0.677639  1
  Y  Y3  1  0.250000  0.483278  0.176451  1
  Y  Y4  1  0.250000  0.987227  0.323389  1
  Lu  Lu5  1  0.250000  0.852320  0.922844  1
  Lu  Lu6  1  0.250000  0.352789  0.579893  1
  Lu  Lu7  1  0.750000  0.148362  0.076699  1
  Au  Au8  1  0.250000  0.249551  0.897209  1
  Au  Au9  1  0.250000  0.751480  0.606206  1
  Au  Au10  1  0.750000  0.749985  0.096967  1
  Au  Au11  1  0.750000  0.244638  0.398618  1
