# generated using pymatgen
data_Tb16Ho3LuSn16
_symmetry_space_group_name_H-M   'P 1'
_cell_length_a   8.04698314
_cell_length_b   8.20297114
_cell_length_c   15.52556200
_cell_angle_alpha   90.00000000
_cell_angle_beta   90.00000000
_cell_angle_gamma   90.02145853
_symmetry_Int_Tables_number   1
_chemical_formula_structural   Tb16Ho3LuSn16
_chemical_formula_sum   'Tb16 Ho3 Lu1 Sn16'
_cell_volume   1024.82939731
_cell_formula_units_Z   1
loop_
 _symmetry_equiv_pos_site_id
 _symmetry_equiv_pos_as_xyz
  1  'x, y, z'
loop_
 _atom_site_type_symbol
 _atom_site_label
 _atom_site_symmetry_multiplicity
 _atom_site_fract_x
 _atom_site_fract_y
 _atom_site_fract_z
 _atom_site_occupancy
  Tb  Tb0  1  0.367344  0.836358  0.878261  1
  Tb  Tb1  1  0.867336  0.663615  0.621787  1
  Tb  Tb2  1  0.632387  0.163469  0.378191  1
  Tb  Tb3  1  0.132803  0.336217  0.121803  1
  Tb  Tb4  1  0.632387  0.163469  0.121809  1
  Tb  Tb5  1  0.132803  0.336217  0.378197  1
  Tb  Tb6  1  0.367344  0.836358  0.621739  1
  Tb  Tb7  1  0.867336  0.663615  0.878213  1
  Tb  Tb8  1  0.520158  0.320010  0.902428  1
  Tb  Tb9  1  0.020106  0.180023  0.597539  1
  Tb  Tb10  1  0.479772  0.680089  0.402433  1
  Tb  Tb11  1  0.979972  0.820081  0.097587  1
  Tb  Tb12  1  0.479772  0.680089  0.097567  1
  Tb  Tb13  1  0.979972  0.820081  0.402413  1
  Tb  Tb14  1  0.520158  0.320010  0.597572  1
  Tb  Tb15  1  0.020106  0.180023  0.902461  1
  Ho  Ho16  1  0.198284  0.502433  0.750000  1
  Ho  Ho17  1  0.698292  0.997616  0.750000  1
  Ho  Ho18  1  0.801789  0.497686  0.250000  1
  Lu  Lu19  1  0.301464  0.002414  0.250000  1
  Sn  Sn20  1  0.292546  0.034665  0.042868  1
  Sn  Sn21  1  0.792543  0.465320  0.457372  1
  Sn  Sn22  1  0.707465  0.965263  0.542589  1
  Sn  Sn23  1  0.207463  0.534695  0.957415  1
  Sn  Sn24  1  0.707465  0.965263  0.957411  1
  Sn  Sn25  1  0.207463  0.534695  0.542585  1
  Sn  Sn26  1  0.292546  0.034665  0.457132  1
  Sn  Sn27  1  0.792543  0.465320  0.042628  1
  Sn  Sn28  1  0.564417  0.618474  0.750000  1
  Sn  Sn29  1  0.064541  0.881569  0.750000  1
  Sn  Sn30  1  0.435436  0.381319  0.250000  1
  Sn  Sn31  1  0.936185  0.118254  0.250000  1
  Sn  Sn32  1  0.328397  0.147260  0.750000  1
  Sn  Sn33  1  0.828509  0.352586  0.750000  1
  Sn  Sn34  1  0.671331  0.852775  0.250000  1
  Sn  Sn35  1  0.171563  0.648003  0.250000  1
