# generated using pymatgen
data_Pr3Mo(ClO2)3
_symmetry_space_group_name_H-M   'P 1'
_cell_length_a   9.40682400
_cell_length_b   9.40686174
_cell_length_c   5.42615500
_cell_angle_alpha   90.00000000
_cell_angle_beta   90.00000000
_cell_angle_gamma   120.00060592
_symmetry_Int_Tables_number   1
_chemical_formula_structural   Pr3Mo(ClO2)3
_chemical_formula_sum   'Pr6 Mo2 Cl6 O12'
_cell_volume   415.82247115
_cell_formula_units_Z   2
loop_
 _symmetry_equiv_pos_site_id
 _symmetry_equiv_pos_as_xyz
  1  'x, y, z'
loop_
 _atom_site_type_symbol
 _atom_site_label
 _atom_site_symmetry_multiplicity
 _atom_site_fract_x
 _atom_site_fract_y
 _atom_site_fract_z
 _atom_site_occupancy
  Pr  Pr0  1  0.404446  0.090671  0.250001  1
  Pr  Pr1  1  0.909321  0.313776  0.250001  1
  Pr  Pr2  1  0.686235  0.595549  0.250001  1
  Pr  Pr3  1  0.313765  0.404450  0.750000  1
  Pr  Pr4  1  0.090679  0.686223  0.750000  1
  Pr  Pr5  1  0.595555  0.909328  0.750000  1
  Mo  Mo6  1  0.333311  0.666655  0.250001  1
  Mo  Mo7  1  0.666689  0.333345  0.750000  1
  Cl  Cl8  1  0.192036  0.240095  0.250001  1
  Cl  Cl9  1  0.048061  0.807964  0.250001  1
  Cl  Cl10  1  0.759903  0.951937  0.250001  1
  Cl  Cl11  1  0.240096  0.048063  0.750000  1
  Cl  Cl12  1  0.951939  0.192036  0.750000  1
  Cl  Cl13  1  0.807965  0.759905  0.750000  1
  O  O14  1  0.160786  0.524343  0.018677  1
  O  O15  1  0.363564  0.839228  0.018664  1
  O  O16  1  0.475669  0.636442  0.018662  1
  O  O17  1  0.475669  0.636442  0.481338  1
  O  O18  1  0.363564  0.839228  0.481337  1
  O  O19  1  0.160786  0.524343  0.481324  1
  O  O20  1  0.839214  0.475657  0.518676  1
  O  O21  1  0.636436  0.160771  0.518664  1
  O  O22  1  0.524331  0.363558  0.518661  1
  O  O23  1  0.524331  0.363558  0.981339  1
  O  O24  1  0.636436  0.160771  0.981336  1
  O  O25  1  0.839214  0.475657  0.981324  1
