# generated using pymatgen
data_YEr3(B4Ir)4
_symmetry_space_group_name_H-M   'P 1'
_cell_length_a   3.56701101
_cell_length_b   5.96372988
_cell_length_c   11.57017604
_cell_angle_alpha   90.02601058
_cell_angle_beta   90.00029252
_cell_angle_gamma   89.99993614
_symmetry_Int_Tables_number   1
_chemical_formula_structural   YEr3(B4Ir)4
_chemical_formula_sum   'Y1 Er3 B16 Ir4'
_cell_volume   246.12874449
_cell_formula_units_Z   1
loop_
 _symmetry_equiv_pos_site_id
 _symmetry_equiv_pos_as_xyz
  1  'x, y, z'
loop_
 _atom_site_type_symbol
 _atom_site_label
 _atom_site_symmetry_multiplicity
 _atom_site_fract_x
 _atom_site_fract_y
 _atom_site_fract_z
 _atom_site_occupancy
  Y  Y0  1  0.999994  0.868330  0.851394  1
  Er  Er1  1  0.000015  0.631535  0.351536  1
  Er  Er2  1  0.999996  0.368679  0.648246  1
  Er  Er3  1  0.999995  0.131363  0.148865  1
  B  B4  1  0.500006  0.791714  0.188250  1
  B  B5  1  0.499992  0.209820  0.811639  1
  B  B6  1  0.500013  0.291824  0.312104  1
  B  B7  1  0.499989  0.707768  0.687141  1
  B  B8  1  0.500000  0.863816  0.030739  1
  B  B9  1  0.499994  0.136423  0.970558  1
  B  B10  1  0.500009  0.364265  0.469655  1
  B  B11  1  0.499997  0.635576  0.529911  1
  B  B12  1  0.500008  0.887197  0.453243  1
  B  B13  1  0.500002  0.113083  0.546344  1
  B  B14  1  0.499997  0.387063  0.047135  1
  B  B15  1  0.499997  0.611788  0.953807  1
  B  B16  1  0.500011  0.975027  0.307485  1
  B  B17  1  0.499992  0.025503  0.691893  1
  B  B18  1  0.500010  0.475186  0.193064  1
  B  B19  1  0.499992  0.523769  0.807011  1
  Ir  Ir20  1  0.000001  0.643525  0.097799  1
  Ir  Ir21  1  0.999989  0.356325  0.903249  1
  Ir  Ir22  1  0.000018  0.144562  0.402773  1
  Ir  Ir23  1  0.999987  0.855858  0.596159  1
