# generated using pymatgen
data_CaLa9Si5Pb
_symmetry_space_group_name_H-M   'P 1'
_cell_length_a   9.30527424
_cell_length_b   9.30527478
_cell_length_c   9.30527400
_cell_angle_alpha   129.54283539
_cell_angle_beta   129.54283814
_cell_angle_gamma   74.13868308
_symmetry_Int_Tables_number   1
_chemical_formula_structural   CaLa9Si5Pb
_chemical_formula_sum   'Ca1 La9 Si5 Pb1'
_cell_volume   467.18495420
_cell_formula_units_Z   1
loop_
 _symmetry_equiv_pos_site_id
 _symmetry_equiv_pos_as_xyz
  1  'x, y, z'
loop_
 _atom_site_type_symbol
 _atom_site_label
 _atom_site_symmetry_multiplicity
 _atom_site_fract_x
 _atom_site_fract_y
 _atom_site_fract_z
 _atom_site_occupancy
  Ca  Ca0  1  0.486606  0.486606  0.000000  1
  La  La1  1  0.547642  0.027502  0.857116  1
  La  La2  1  0.170385  0.690525  0.142884  1
  La  La3  1  0.027502  0.170385  0.479862  1
  La  La4  1  0.690525  0.547642  0.520138  1
  La  La5  1  0.470139  0.950649  0.140899  1
  La  La6  1  0.809750  0.329238  0.859101  1
  La  La7  1  0.950649  0.809750  0.480511  1
  La  La8  1  0.329238  0.470139  0.519489  1
  La  La9  1  0.020960  0.020960  0.000000  1
  Si  Si10  1  0.750553  0.750553  0.000000  1
  Si  Si11  1  0.886331  0.384991  0.274185  1
  Si  Si12  1  0.110806  0.612146  0.725815  1
  Si  Si13  1  0.384991  0.110806  0.498661  1
  Si  Si14  1  0.612146  0.886331  0.501339  1
  Pb  Pb15  1  0.251779  0.251779  0.000000  1
