# generated using pymatgen
data_Nd3Ho(SiPd14)2
_symmetry_space_group_name_H-M   'P 1'
_cell_length_a   8.96129300
_cell_length_b   8.96129300
_cell_length_c   7.15221200
_cell_angle_alpha   90.00000000
_cell_angle_beta   90.00000000
_cell_angle_gamma   90.00000000
_symmetry_Int_Tables_number   1
_chemical_formula_structural   Nd3Ho(SiPd14)2
_chemical_formula_sum   'Nd3 Ho1 Si2 Pd28'
_cell_volume   574.35675561
_cell_formula_units_Z   1
loop_
 _symmetry_equiv_pos_site_id
 _symmetry_equiv_pos_as_xyz
  1  'x, y, z'
loop_
 _atom_site_type_symbol
 _atom_site_label
 _atom_site_symmetry_multiplicity
 _atom_site_fract_x
 _atom_site_fract_y
 _atom_site_fract_z
 _atom_site_occupancy
  Nd  Nd0  1  0.500000  0.000000  0.935733  1
  Nd  Nd1  1  0.000000  0.500000  0.064267  1
  Nd  Nd2  1  0.000000  0.000000  0.500000  1
  Ho  Ho3  1  0.500000  0.500000  0.500000  1
  Si  Si4  1  0.500000  0.000000  0.448384  1
  Si  Si5  1  0.000000  0.500000  0.551616  1
  Pd  Pd6  1  0.334858  0.833726  0.614646  1
  Pd  Pd7  1  0.334858  0.166274  0.614646  1
  Pd  Pd8  1  0.665142  0.833726  0.614646  1
  Pd  Pd9  1  0.665142  0.166274  0.614646  1
  Pd  Pd10  1  0.166274  0.665142  0.385354  1
  Pd  Pd11  1  0.166274  0.334858  0.385354  1
  Pd  Pd12  1  0.833726  0.665142  0.385354  1
  Pd  Pd13  1  0.833726  0.334858  0.385354  1
  Pd  Pd14  1  0.500000  0.768562  0.258878  1
  Pd  Pd15  1  0.500000  0.231438  0.258878  1
  Pd  Pd16  1  0.271077  0.000000  0.256256  1
  Pd  Pd17  1  0.728923  0.000000  0.256256  1
  Pd  Pd18  1  0.000000  0.728923  0.743744  1
  Pd  Pd19  1  0.000000  0.271077  0.743744  1
  Pd  Pd20  1  0.231438  0.500000  0.741122  1
  Pd  Pd21  1  0.768562  0.500000  0.741122  1
  Pd  Pd22  1  0.500000  0.349956  0.852352  1
  Pd  Pd23  1  0.500000  0.650044  0.852352  1
  Pd  Pd24  1  0.848613  0.000000  0.855410  1
  Pd  Pd25  1  0.151387  0.000000  0.855410  1
  Pd  Pd26  1  0.000000  0.151387  0.144590  1
  Pd  Pd27  1  0.000000  0.848613  0.144590  1
  Pd  Pd28  1  0.650044  0.500000  0.147648  1
  Pd  Pd29  1  0.349956  0.500000  0.147648  1
  Pd  Pd30  1  0.250588  0.749412  0.000000  1
  Pd  Pd31  1  0.250588  0.250588  0.000000  1
  Pd  Pd32  1  0.749412  0.749412  0.000000  1
  Pd  Pd33  1  0.749412  0.250588  0.000000  1
