# generated using pymatgen
data_Yb12HgRu3
_symmetry_space_group_name_H-M   'P 1'
_cell_length_a   6.30406950
_cell_length_b   7.79838407
_cell_length_c   9.37286500
_cell_angle_alpha   90.00000000
_cell_angle_beta   90.00000000
_cell_angle_gamma   88.10893189
_symmetry_Int_Tables_number   1
_chemical_formula_structural   Yb12HgRu3
_chemical_formula_sum   'Yb12 Hg1 Ru3'
_cell_volume   460.53366356
_cell_formula_units_Z   1
loop_
 _symmetry_equiv_pos_site_id
 _symmetry_equiv_pos_as_xyz
  1  'x, y, z'
loop_
 _atom_site_type_symbol
 _atom_site_label
 _atom_site_symmetry_multiplicity
 _atom_site_fract_x
 _atom_site_fract_y
 _atom_site_fract_z
 _atom_site_occupancy
  Yb  Yb0  1  0.342012  0.664430  0.075691  1
  Yb  Yb1  1  0.158370  0.169082  0.425265  1
  Yb  Yb2  1  0.651781  0.311710  0.550715  1
  Yb  Yb3  1  0.862158  0.850827  0.942773  1
  Yb  Yb4  1  0.651781  0.311710  0.949285  1
  Yb  Yb5  1  0.862158  0.850827  0.557227  1
  Yb  Yb6  1  0.342012  0.664430  0.424309  1
  Yb  Yb7  1  0.158370  0.169082  0.074735  1
  Yb  Yb8  1  0.865663  0.544450  0.250000  1
  Yb  Yb9  1  0.629306  0.032819  0.250000  1
  Yb  Yb10  1  0.103407  0.447821  0.750000  1
  Yb  Yb11  1  0.361896  0.984173  0.750000  1
  Hg  Hg12  1  0.561194  0.620400  0.750000  1
  Ru  Ru13  1  0.049054  0.876705  0.250000  1
  Ru  Ru14  1  0.462010  0.374884  0.250000  1
  Ru  Ru15  1  0.938828  0.126649  0.750000  1
