# generated using pymatgen
data_DyYRh2F14
_symmetry_space_group_name_H-M   'P 1'
_cell_length_a   5.53415136
_cell_length_b   8.90491574
_cell_length_c   11.93977679
_cell_angle_alpha   62.51272445
_cell_angle_beta   90.04104345
_cell_angle_gamma   90.01392502
_symmetry_Int_Tables_number   1
_chemical_formula_structural   DyYRh2F14
_chemical_formula_sum   'Dy2 Y2 Rh4 F28'
_cell_volume   521.98264115
_cell_formula_units_Z   2
loop_
 _symmetry_equiv_pos_site_id
 _symmetry_equiv_pos_as_xyz
  1  'x, y, z'
loop_
 _atom_site_type_symbol
 _atom_site_label
 _atom_site_symmetry_multiplicity
 _atom_site_fract_x
 _atom_site_fract_y
 _atom_site_fract_z
 _atom_site_occupancy
  Dy  Dy0  1  0.260972  0.813310  0.265053  1
  Dy  Dy1  1  0.739028  0.186690  0.734947  1
  Y  Y2  1  0.760968  0.186431  0.234771  1
  Y  Y3  1  0.239032  0.813569  0.765229  1
  Rh  Rh4  1  0.757819  0.726248  0.043874  1
  Rh  Rh5  1  0.242181  0.273752  0.956126  1
  Rh  Rh6  1  0.257442  0.274396  0.456264  1
  Rh  Rh7  1  0.742558  0.725604  0.543736  1
  F  F8  1  0.939909  0.706319  0.416096  1
  F  F9  1  0.060091  0.293681  0.583904  1
  F  F10  1  0.439351  0.294193  0.083714  1
  F  F11  1  0.560649  0.705807  0.916286  1
  F  F12  1  0.467500  0.729578  0.136036  1
  F  F13  1  0.532500  0.270422  0.863964  1
  F  F14  1  0.967363  0.271221  0.364318  1
  F  F15  1  0.032637  0.728779  0.635682  1
  F  F16  1  0.951977  0.744833  0.173958  1
  F  F17  1  0.048023  0.255167  0.826042  1
  F  F18  1  0.451078  0.256369  0.325980  1
  F  F19  1  0.548922  0.743631  0.674020  1
  F  F20  1  0.768502  0.482072  0.140501  1
  F  F21  1  0.231498  0.517928  0.859499  1
  F  F22  1  0.268284  0.518170  0.360098  1
  F  F23  1  0.731716  0.481830  0.639902  1
  F  F24  1  0.945255  0.281645  0.043064  1
  F  F25  1  0.054745  0.718355  0.956936  1
  F  F26  1  0.445556  0.718598  0.456399  1
  F  F27  1  0.554444  0.281402  0.543601  1
  F  F28  1  0.741073  0.969358  0.451024  1
  F  F29  1  0.258927  0.030642  0.548976  1
  F  F30  1  0.240869  0.029820  0.049750  1
  F  F31  1  0.759131  0.970180  0.950250  1
  F  F32  1  0.586590  0.969594  0.230712  1
  F  F33  1  0.413410  0.030406  0.769288  1
  F  F34  1  0.087558  0.029439  0.269344  1
  F  F35  1  0.912442  0.970561  0.730656  1
