# generated using pymatgen
data_Tm3ZnAs2Ir3
_symmetry_space_group_name_H-M   'P 1'
_cell_length_a   6.77233400
_cell_length_b   6.77233425
_cell_length_c   4.05618500
_cell_angle_alpha   90.00000000
_cell_angle_beta   90.00000000
_cell_angle_gamma   120.00000854
_symmetry_Int_Tables_number   1
_chemical_formula_structural   Tm3ZnAs2Ir3
_chemical_formula_sum   'Tm3 Zn1 As2 Ir3'
_cell_volume   161.11096628
_cell_formula_units_Z   1
loop_
 _symmetry_equiv_pos_site_id
 _symmetry_equiv_pos_as_xyz
  1  'x, y, z'
loop_
 _atom_site_type_symbol
 _atom_site_label
 _atom_site_symmetry_multiplicity
 _atom_site_fract_x
 _atom_site_fract_y
 _atom_site_fract_z
 _atom_site_occupancy
  Tm  Tm0  1  0.000000  0.413774  0.500000  1
  Tm  Tm1  1  0.586226  0.586226  0.500000  1
  Tm  Tm2  1  0.413774  0.000000  0.500000  1
  Zn  Zn3  1  0.000000  0.000000  0.500000  1
  As  As4  1  0.666667  0.333333  0.000000  1
  As  As5  1  0.333333  0.666667  0.000000  1
  Ir  Ir6  1  0.000000  0.761662  0.000000  1
  Ir  Ir7  1  0.238338  0.238338  0.000000  1
  Ir  Ir8  1  0.761662  0.000000  0.000000  1
