# generated using pymatgen
data_Ce2Dy2MgZn3Rh4
_symmetry_space_group_name_H-M   'P 1'
_cell_length_a   3.93842700
_cell_length_b   7.09033391
_cell_length_c   8.48722402
_cell_angle_alpha   92.01515168
_cell_angle_beta   90.00000000
_cell_angle_gamma   90.00000000
_symmetry_Int_Tables_number   1
_chemical_formula_structural   Ce2Dy2MgZn3Rh4
_chemical_formula_sum   'Ce2 Dy2 Mg1 Zn3 Rh4'
_cell_volume   236.85714320
_cell_formula_units_Z   1
loop_
 _symmetry_equiv_pos_site_id
 _symmetry_equiv_pos_as_xyz
  1  'x, y, z'
loop_
 _atom_site_type_symbol
 _atom_site_label
 _atom_site_symmetry_multiplicity
 _atom_site_fract_x
 _atom_site_fract_y
 _atom_site_fract_z
 _atom_site_occupancy
  Ce  Ce0  1  0.250000  0.541984  0.193048  1
  Ce  Ce1  1  0.750000  0.466339  0.803856  1
  Dy  Dy2  1  0.250000  0.048462  0.322501  1
  Dy  Dy3  1  0.750000  0.947972  0.673051  1
  Mg  Mg4  1  0.250000  0.122993  0.940799  1
  Zn  Zn5  1  0.750000  0.870463  0.065125  1
  Zn  Zn6  1  0.250000  0.634230  0.556124  1
  Zn  Zn7  1  0.750000  0.365683  0.442907  1
  Rh  Rh8  1  0.750000  0.745867  0.364237  1
  Rh  Rh9  1  0.250000  0.254798  0.634446  1
  Rh  Rh10  1  0.750000  0.265411  0.132979  1
  Rh  Rh11  1  0.250000  0.735798  0.870927  1
