# generated using pymatgen
data_La2Tc5(NiP)7
_symmetry_space_group_name_H-M   'P 1'
_cell_length_a   9.39879596
_cell_length_b   9.45563834
_cell_length_c   3.77883200
_cell_angle_alpha   90.00000000
_cell_angle_beta   90.00000000
_cell_angle_gamma   120.37278720
_symmetry_Int_Tables_number   1
_chemical_formula_structural   La2Tc5(NiP)7
_chemical_formula_sum   'La2 Tc5 Ni7 P7'
_cell_volume   289.73942743
_cell_formula_units_Z   1
loop_
 _symmetry_equiv_pos_site_id
 _symmetry_equiv_pos_as_xyz
  1  'x, y, z'
loop_
 _atom_site_type_symbol
 _atom_site_label
 _atom_site_symmetry_multiplicity
 _atom_site_fract_x
 _atom_site_fract_y
 _atom_site_fract_z
 _atom_site_occupancy
  La  La0  1  0.665823  0.327491  0.500000  1
  La  La1  1  0.337769  0.671157  0.000000  1
  Tc  Tc2  1  0.388195  0.433205  0.500000  1
  Tc  Tc3  1  0.046760  0.613352  0.500000  1
  Tc  Tc4  1  0.207192  0.089152  0.500000  1
  Tc  Tc5  1  0.886966  0.800355  0.500000  1
  Tc  Tc6  1  0.897032  0.120822  0.500000  1
  Ni  Ni7  1  0.724049  0.882114  0.000000  1
  Ni  Ni8  1  0.121308  0.845354  0.000000  1
  Ni  Ni9  1  0.152751  0.269602  0.000000  1
  Ni  Ni10  1  0.941926  0.363486  0.000000  1
  Ni  Ni11  1  0.638003  0.578501  0.000000  1
  Ni  Ni12  1  0.428965  0.059889  0.000000  1
  Ni  Ni13  1  0.562980  0.951155  0.500000  1
  P  P14  1  0.998452  0.997646  0.000000  1
  P  P15  1  0.403157  0.292183  0.000000  1
  P  P16  1  0.603357  0.714179  0.500000  1
  P  P17  1  0.290777  0.892167  0.500000  1
  P  P18  1  0.111993  0.397667  0.500000  1
  P  P19  1  0.703950  0.105837  0.000000  1
  P  P20  1  0.888591  0.594687  0.000000  1
