# generated using pymatgen
data_Ta4Si4Ir2RuRh
_symmetry_space_group_name_H-M   'P 1'
_cell_length_a   3.81342300
_cell_length_b   6.41068148
_cell_length_c   7.32466047
_cell_angle_alpha   90.31182787
_cell_angle_beta   90.00000000
_cell_angle_gamma   90.00000000
_symmetry_Int_Tables_number   1
_chemical_formula_structural   Ta4Si4Ir2RuRh
_chemical_formula_sum   'Ta4 Si4 Ir2 Ru1 Rh1'
_cell_volume   179.06068711
_cell_formula_units_Z   1
loop_
 _symmetry_equiv_pos_site_id
 _symmetry_equiv_pos_as_xyz
  1  'x, y, z'
loop_
 _atom_site_type_symbol
 _atom_site_label
 _atom_site_symmetry_multiplicity
 _atom_site_fract_x
 _atom_site_fract_y
 _atom_site_fract_z
 _atom_site_occupancy
  Ta  Ta0  1  0.250000  0.523631  0.671539  1
  Ta  Ta1  1  0.750000  0.473541  0.328216  1
  Ta  Ta2  1  0.250000  0.025781  0.824188  1
  Ta  Ta3  1  0.750000  0.978140  0.175921  1
  Si  Si4  1  0.250000  0.269259  0.125883  1
  Si  Si5  1  0.750000  0.731434  0.877699  1
  Si  Si6  1  0.250000  0.770485  0.374273  1
  Si  Si7  1  0.750000  0.229741  0.621667  1
  Ir  Ir8  1  0.750000  0.850810  0.563853  1
  Ir  Ir9  1  0.750000  0.352722  0.935647  1
  Ru  Ru10  1  0.250000  0.146947  0.437508  1
  Rh  Rh11  1  0.250000  0.647508  0.063606  1
