# generated using pymatgen
data_Er2Lu18Si15Au
_symmetry_space_group_name_H-M   'P 1'
_cell_length_a   7.22880682
_cell_length_b   7.56156308
_cell_length_c   14.34515500
_cell_angle_alpha   90.00000000
_cell_angle_beta   90.00000000
_cell_angle_gamma   90.48651785
_symmetry_Int_Tables_number   1
_chemical_formula_structural   Er2Lu18Si15Au
_chemical_formula_sum   'Er2 Lu18 Si15 Au1'
_cell_volume   784.09337913
_cell_formula_units_Z   1
loop_
 _symmetry_equiv_pos_site_id
 _symmetry_equiv_pos_as_xyz
  1  'x, y, z'
loop_
 _atom_site_type_symbol
 _atom_site_label
 _atom_site_symmetry_multiplicity
 _atom_site_fract_x
 _atom_site_fract_y
 _atom_site_fract_z
 _atom_site_occupancy
  Er  Er0  1  0.975121  0.179826  0.098048  1
  Er  Er1  1  0.975121  0.179826  0.401952  1
  Lu  Lu2  1  0.022901  0.823392  0.592227  1
  Lu  Lu3  1  0.525089  0.681571  0.592294  1
  Lu  Lu4  1  0.319912  0.821530  0.124063  1
  Lu  Lu5  1  0.818365  0.676673  0.124514  1
  Lu  Lu6  1  0.855352  0.519720  0.750000  1
  Lu  Lu7  1  0.474649  0.316844  0.097087  1
  Lu  Lu8  1  0.022901  0.823392  0.907773  1
  Lu  Lu9  1  0.474649  0.316844  0.402913  1
  Lu  Lu10  1  0.650502  0.010267  0.250000  1
  Lu  Lu11  1  0.525089  0.681571  0.907706  1
  Lu  Lu12  1  0.680398  0.179133  0.878347  1
  Lu  Lu13  1  0.182891  0.320038  0.620170  1
  Lu  Lu14  1  0.182891  0.320038  0.879830  1
  Lu  Lu15  1  0.818365  0.676673  0.375486  1
  Lu  Lu16  1  0.319912  0.821530  0.375937  1
  Lu  Lu17  1  0.345268  0.986416  0.750000  1
  Lu  Lu18  1  0.680398  0.179133  0.621653  1
  Lu  Lu19  1  0.148961  0.488398  0.250000  1
  Si  Si20  1  0.652303  0.969677  0.458424  1
  Si  Si21  1  0.348169  0.028514  0.539269  1
  Si  Si22  1  0.021878  0.892280  0.250000  1
  Si  Si23  1  0.729488  0.876641  0.750000  1
  Si  Si24  1  0.270960  0.128708  0.250000  1
  Si  Si25  1  0.849404  0.470930  0.538856  1
  Si  Si26  1  0.483484  0.391000  0.750000  1
  Si  Si27  1  0.150005  0.528244  0.458052  1
  Si  Si28  1  0.150005  0.528244  0.041948  1
  Si  Si29  1  0.974287  0.110119  0.750000  1
  Si  Si30  1  0.767347  0.369801  0.250000  1
  Si  Si31  1  0.348169  0.028514  0.960731  1
  Si  Si32  1  0.849404  0.470930  0.961144  1
  Si  Si33  1  0.652303  0.969677  0.041576  1
  Si  Si34  1  0.518676  0.603900  0.250000  1
  Au  Au35  1  0.235382  0.630006  0.750000  1
