# generated using pymatgen
data_Tb5Er(LuSb10)2
_symmetry_space_group_name_H-M   'P 1'
_cell_length_a   4.25284700
_cell_length_b   13.16161127
_cell_length_c   14.64092100
_cell_angle_alpha   77.79184411
_cell_angle_beta   90.00000000
_cell_angle_gamma   90.00000000
_symmetry_Int_Tables_number   1
_chemical_formula_structural   Tb5Er(LuSb10)2
_chemical_formula_sum   'Tb5 Er1 Lu2 Sb20'
_cell_volume   800.98289575
_cell_formula_units_Z   1
loop_
 _symmetry_equiv_pos_site_id
 _symmetry_equiv_pos_as_xyz
  1  'x, y, z'
loop_
 _atom_site_type_symbol
 _atom_site_label
 _atom_site_symmetry_multiplicity
 _atom_site_fract_x
 _atom_site_fract_y
 _atom_site_fract_z
 _atom_site_occupancy
  Tb  Tb0  1  0.250000  0.662950  0.856223  1
  Tb  Tb1  1  0.750000  0.337189  0.143721  1
  Tb  Tb2  1  0.250000  0.669049  0.576480  1
  Tb  Tb3  1  0.750000  0.330981  0.423642  1
  Tb  Tb4  1  0.250000  0.951651  0.359657  1
  Er  Er5  1  0.750000  0.048286  0.639605  1
  Lu  Lu6  1  0.250000  0.395669  0.771561  1
  Lu  Lu7  1  0.750000  0.604238  0.228471  1
  Sb  Sb8  1  0.250000  0.145117  0.780959  1
  Sb  Sb9  1  0.750000  0.854394  0.218657  1
  Sb  Sb10  1  0.250000  0.142377  0.483024  1
  Sb  Sb11  1  0.750000  0.857506  0.518023  1
  Sb  Sb12  1  0.250000  0.152189  0.173181  1
  Sb  Sb13  1  0.750000  0.848180  0.826621  1
  Sb  Sb14  1  0.250000  0.420099  0.974355  1
  Sb  Sb15  1  0.750000  0.579959  0.025626  1
  Sb  Sb16  1  0.750000  0.030989  0.905718  1
  Sb  Sb17  1  0.250000  0.969100  0.094305  1
  Sb  Sb18  1  0.750000  0.138247  0.322753  1
  Sb  Sb19  1  0.250000  0.862820  0.677167  1
  Sb  Sb20  1  0.750000  0.280581  0.936363  1
  Sb  Sb21  1  0.250000  0.719382  0.063656  1
  Sb  Sb22  1  0.750000  0.288240  0.654214  1
  Sb  Sb23  1  0.250000  0.711013  0.345912  1
  Sb  Sb24  1  0.750000  0.573261  0.735517  1
  Sb  Sb25  1  0.250000  0.426746  0.264524  1
  Sb  Sb26  1  0.750000  0.573756  0.444959  1
  Sb  Sb27  1  0.250000  0.426028  0.555108  1
