# generated using pymatgen
data_LiNd16Cd3(IrRu)2
_symmetry_space_group_name_H-M   'P 1'
_cell_length_a   9.94012990
_cell_length_b   9.94013005
_cell_length_c   9.94602302
_cell_angle_alpha   59.90321708
_cell_angle_beta   59.90321715
_cell_angle_gamma   59.85647890
_symmetry_Int_Tables_number   1
_chemical_formula_structural   LiNd16Cd3(IrRu)2
_chemical_formula_sum   'Li1 Nd16 Cd3 Ir2 Ru2'
_cell_volume   693.12222111
_cell_formula_units_Z   1
loop_
 _symmetry_equiv_pos_site_id
 _symmetry_equiv_pos_as_xyz
  1  'x, y, z'
loop_
 _atom_site_type_symbol
 _atom_site_label
 _atom_site_symmetry_multiplicity
 _atom_site_fract_x
 _atom_site_fract_y
 _atom_site_fract_z
 _atom_site_occupancy
  Li  Li0  1  0.570146  0.570146  0.569937  1
  Nd  Nd1  1  0.347576  0.347576  0.349765  1
  Nd  Nd2  1  0.346237  0.346237  0.959738  1
  Nd  Nd3  1  0.344424  0.961318  0.346542  1
  Nd  Nd4  1  0.961318  0.344424  0.346542  1
  Nd  Nd5  1  0.811559  0.191415  0.190950  1
  Nd  Nd6  1  0.188798  0.813874  0.809943  1
  Nd  Nd7  1  0.191415  0.811559  0.190950  1
  Nd  Nd8  1  0.813874  0.188798  0.809943  1
  Nd  Nd9  1  0.190959  0.190959  0.809833  1
  Nd  Nd10  1  0.811421  0.811421  0.189259  1
  Nd  Nd11  1  0.937667  0.561352  0.562886  1
  Nd  Nd12  1  0.561303  0.938304  0.938552  1
  Nd  Nd13  1  0.561352  0.937667  0.562886  1
  Nd  Nd14  1  0.938304  0.561303  0.938552  1
  Nd  Nd15  1  0.561983  0.561983  0.938462  1
  Nd  Nd16  1  0.938098  0.938098  0.562594  1
  Cd  Cd17  1  0.580999  0.580999  0.259418  1
  Cd  Cd18  1  0.580848  0.259030  0.580990  1
  Cd  Cd19  1  0.259030  0.580848  0.580990  1
  Ir  Ir20  1  0.142727  0.578579  0.140868  1
  Ir  Ir21  1  0.578579  0.142727  0.140868  1
  Ru  Ru22  1  0.140554  0.140554  0.136959  1
  Ru  Ru23  1  0.140831  0.140831  0.582575  1
