# generated using pymatgen
data_Tb6IrPd5Au2
_symmetry_space_group_name_H-M   'P 1'
_cell_length_a   7.99853431
_cell_length_b   7.93373977
_cell_length_c   7.96082505
_cell_angle_alpha   114.10259649
_cell_angle_beta   114.44331541
_cell_angle_gamma   114.26731469
_symmetry_Int_Tables_number   1
_chemical_formula_structural   Tb6IrPd5Au2
_chemical_formula_sum   'Tb6 Ir1 Pd5 Au2'
_cell_volume   300.65271257
_cell_formula_units_Z   1
loop_
 _symmetry_equiv_pos_site_id
 _symmetry_equiv_pos_as_xyz
  1  'x, y, z'
loop_
 _atom_site_type_symbol
 _atom_site_label
 _atom_site_symmetry_multiplicity
 _atom_site_fract_x
 _atom_site_fract_y
 _atom_site_fract_z
 _atom_site_occupancy
  Tb  Tb0  1  0.974335  0.598706  0.727951  1
  Tb  Tb1  1  0.729731  0.981558  0.605045  1
  Tb  Tb2  1  0.605452  0.724645  0.977688  1
  Tb  Tb3  1  0.025733  0.391403  0.269591  1
  Tb  Tb4  1  0.276309  0.028836  0.392857  1
  Tb  Tb5  1  0.384735  0.269546  0.025698  1
  Ir  Ir6  1  0.994236  0.993941  0.995462  1
  Pd  Pd7  1  0.502225  0.502591  0.503063  1
  Pd  Pd8  1  0.773746  0.445313  0.935247  1
  Pd  Pd9  1  0.064183  0.228963  0.554625  1
  Pd  Pd10  1  0.555774  0.062217  0.228503  1
  Pd  Pd11  1  0.230346  0.557782  0.066908  1
  Au  Au12  1  0.934099  0.771773  0.439955  1
  Au  Au13  1  0.449098  0.942726  0.777406  1
