# generated using pymatgen
data_Ba6BiPPb8
_symmetry_space_group_name_H-M   'P 1'
_cell_length_a   9.52396696
_cell_length_b   9.52355694
_cell_length_c   9.51169114
_cell_angle_alpha   120.69317062
_cell_angle_beta   120.78135384
_cell_angle_gamma   88.80311038
_symmetry_Int_Tables_number   1
_chemical_formula_structural   Ba6BiPPb8
_chemical_formula_sum   'Ba6 Bi1 P1 Pb8'
_cell_volume   602.69292813
_cell_formula_units_Z   1
loop_
 _symmetry_equiv_pos_site_id
 _symmetry_equiv_pos_as_xyz
  1  'x, y, z'
loop_
 _atom_site_type_symbol
 _atom_site_label
 _atom_site_symmetry_multiplicity
 _atom_site_fract_x
 _atom_site_fract_y
 _atom_site_fract_z
 _atom_site_occupancy
  Ba  Ba0  1  0.264637  0.264637  0.000002  1
  Ba  Ba1  1  0.735363  0.735363  0.999998  1
  Ba  Ba2  1  0.186433  0.652284  0.838695  1
  Ba  Ba3  1  0.813567  0.347716  0.161305  1
  Ba  Ba4  1  0.652392  0.813527  0.465933  1
  Ba  Ba5  1  0.347608  0.186473  0.534067  1
  Bi  Bi6  1  0.000000  0.000000  0.000000  1
  P  P7  1  0.500000  0.500000  0.000000  1
  Pb  Pb8  1  0.836328  0.324620  0.784034  1
  Pb  Pb9  1  0.163672  0.675380  0.215966  1
  Pb  Pb10  1  0.540559  0.052252  0.215976  1
  Pb  Pb11  1  0.324912  0.540406  0.488316  1
  Pb  Pb12  1  0.947881  0.163360  0.488228  1
  Pb  Pb13  1  0.459441  0.947748  0.784024  1
  Pb  Pb14  1  0.675088  0.459594  0.511684  1
  Pb  Pb15  1  0.052119  0.836640  0.511772  1
