# generated using pymatgen
data_La13PrRuRh5
_symmetry_space_group_name_H-M   'P 1'
_cell_length_a   10.17859500
_cell_length_b   10.15683289
_cell_length_c   6.59859026
_cell_angle_alpha   89.97137805
_cell_angle_beta   90.00000000
_cell_angle_gamma   120.07091203
_symmetry_Int_Tables_number   1
_chemical_formula_structural   La13PrRuRh5
_chemical_formula_sum   'La13 Pr1 Ru1 Rh5'
_cell_volume   590.36022632
_cell_formula_units_Z   1
loop_
 _symmetry_equiv_pos_site_id
 _symmetry_equiv_pos_as_xyz
  1  'x, y, z'
loop_
 _atom_site_type_symbol
 _atom_site_label
 _atom_site_symmetry_multiplicity
 _atom_site_fract_x
 _atom_site_fract_y
 _atom_site_fract_z
 _atom_site_occupancy
  La  La0  1  0.333004  0.666009  0.052724  1
  La  La1  1  0.874459  0.748918  0.793381  1
  La  La2  1  0.248644  0.128054  0.792316  1
  La  La3  1  0.879409  0.128054  0.792316  1
  La  La4  1  0.124092  0.248184  0.286836  1
  La  La5  1  0.749414  0.873897  0.293830  1
  La  La6  1  0.124482  0.873897  0.293830  1
  La  La7  1  0.462597  0.925196  0.594409  1
  La  La8  1  0.079507  0.536480  0.596642  1
  La  La9  1  0.456972  0.536480  0.596642  1
  La  La10  1  0.539370  0.078738  0.091948  1
  La  La11  1  0.922646  0.458952  0.095348  1
  La  La12  1  0.536306  0.458952  0.095348  1
  Pr  Pr13  1  0.666645  0.333288  0.561615  1
  Ru  Ru14  1  0.188043  0.376084  0.835065  1
  Rh  Rh15  1  0.628458  0.815599  0.827849  1
  Rh  Rh16  1  0.187142  0.815599  0.827849  1
  Rh  Rh17  1  0.813646  0.627292  0.326998  1
  Rh  Rh18  1  0.373595  0.185164  0.330053  1
  Rh  Rh19  1  0.811568  0.185164  0.330053  1
