# generated using pymatgen
data_Y4LuZrGa10
_symmetry_space_group_name_H-M   'P 1'
_cell_length_a   6.06678000
_cell_length_b   9.52222300
_cell_length_c   11.43321500
_cell_angle_alpha   90.00000000
_cell_angle_beta   90.00000000
_cell_angle_gamma   90.00000000
_symmetry_Int_Tables_number   1
_chemical_formula_structural   Y4LuZrGa10
_chemical_formula_sum   'Y8 Lu2 Zr2 Ga20'
_cell_volume   660.48805043
_cell_formula_units_Z   2
loop_
 _symmetry_equiv_pos_site_id
 _symmetry_equiv_pos_as_xyz
  1  'x, y, z'
loop_
 _atom_site_type_symbol
 _atom_site_label
 _atom_site_symmetry_multiplicity
 _atom_site_fract_x
 _atom_site_fract_y
 _atom_site_fract_z
 _atom_site_occupancy
  Y  Y0  1  0.886895  0.509163  0.351989  1
  Y  Y1  1  0.613105  0.990837  0.851989  1
  Y  Y2  1  0.111264  0.008139  0.648951  1
  Y  Y3  1  0.388736  0.491861  0.148951  1
  Y  Y4  1  0.111264  0.491861  0.648951  1
  Y  Y5  1  0.388736  0.008139  0.148951  1
  Y  Y6  1  0.886895  0.990837  0.351989  1
  Y  Y7  1  0.613105  0.509163  0.851989  1
  Lu  Lu8  1  0.149846  0.250000  0.924108  1
  Lu  Lu9  1  0.350154  0.250000  0.424108  1
  Zr  Zr10  1  0.858292  0.750000  0.076681  1
  Zr  Zr11  1  0.641708  0.750000  0.576681  1
  Ga  Ga12  1  0.874433  0.048343  0.089591  1
  Ga  Ga13  1  0.625567  0.451657  0.589591  1
  Ga  Ga14  1  0.123142  0.558094  0.912166  1
  Ga  Ga15  1  0.376858  0.941906  0.412166  1
  Ga  Ga16  1  0.123142  0.941906  0.912166  1
  Ga  Ga17  1  0.376858  0.558094  0.412166  1
  Ga  Ga18  1  0.874433  0.451657  0.089591  1
  Ga  Ga19  1  0.625567  0.048343  0.589591  1
  Ga  Ga20  1  0.163953  0.750000  0.253010  1
  Ga  Ga21  1  0.336047  0.750000  0.753010  1
  Ga  Ga22  1  0.831598  0.250000  0.745140  1
  Ga  Ga23  1  0.668402  0.250000  0.245140  1
  Ga  Ga24  1  0.390018  0.750000  0.003374  1
  Ga  Ga25  1  0.109982  0.750000  0.503374  1
  Ga  Ga26  1  0.622500  0.250000  0.998209  1
  Ga  Ga27  1  0.877500  0.250000  0.498209  1
  Ga  Ga28  1  0.604248  0.750000  0.292695  1
  Ga  Ga29  1  0.895752  0.750000  0.792695  1
  Ga  Ga30  1  0.400500  0.250000  0.701389  1
  Ga  Ga31  1  0.099500  0.250000  0.201389  1
