# generated using pymatgen
data_Ac4Zn4Ni3Ag
_symmetry_space_group_name_H-M   'P 1'
_cell_length_a   4.43697700
_cell_length_b   8.11397183
_cell_length_c   7.84058765
_cell_angle_alpha   90.01209688
_cell_angle_beta   90.00000000
_cell_angle_gamma   90.00000000
_symmetry_Int_Tables_number   1
_chemical_formula_structural   Ac4Zn4Ni3Ag
_chemical_formula_sum   'Ac4 Zn4 Ni3 Ag1'
_cell_volume   282.27296024
_cell_formula_units_Z   1
loop_
 _symmetry_equiv_pos_site_id
 _symmetry_equiv_pos_as_xyz
  1  'x, y, z'
loop_
 _atom_site_type_symbol
 _atom_site_label
 _atom_site_symmetry_multiplicity
 _atom_site_fract_x
 _atom_site_fract_y
 _atom_site_fract_z
 _atom_site_occupancy
  Ac  Ac0  1  0.250000  0.992576  0.262538  1
  Ac  Ac1  1  0.250000  0.509863  0.256751  1
  Ac  Ac2  1  0.750000  0.991403  0.741508  1
  Ac  Ac3  1  0.750000  0.506838  0.746536  1
  Zn  Zn4  1  0.250000  0.746807  0.583951  1
  Zn  Zn5  1  0.250000  0.246251  0.900176  1
  Zn  Zn6  1  0.750000  0.253448  0.432298  1
  Zn  Zn7  1  0.750000  0.753674  0.080625  1
  Ni  Ni8  1  0.250000  0.250628  0.583030  1
  Ni  Ni9  1  0.250000  0.751446  0.912566  1
  Ni  Ni10  1  0.750000  0.749082  0.411947  1
  Ag  Ag11  1  0.750000  0.247983  0.088074  1
