# generated using pymatgen
data_Sm(DySi2)5
_symmetry_space_group_name_H-M   'P 1'
_cell_length_a   6.67166801
_cell_length_b   6.67166666
_cell_length_c   8.28396900
_cell_angle_alpha   90.00261073
_cell_angle_beta   89.99739786
_cell_angle_gamma   120.00473700
_symmetry_Int_Tables_number   1
_chemical_formula_structural   Sm(DySi2)5
_chemical_formula_sum   'Sm1 Dy5 Si10'
_cell_volume   319.31338989
_cell_formula_units_Z   1
loop_
 _symmetry_equiv_pos_site_id
 _symmetry_equiv_pos_as_xyz
  1  'x, y, z'
loop_
 _atom_site_type_symbol
 _atom_site_label
 _atom_site_symmetry_multiplicity
 _atom_site_fract_x
 _atom_site_fract_y
 _atom_site_fract_z
 _atom_site_occupancy
  Sm  Sm0  1  0.669073  0.669073  0.500000  1
  Dy  Dy1  1  0.330853  0.999821  0.000017  1
  Dy  Dy2  1  0.330852  0.000129  0.500028  1
  Dy  Dy3  1  0.000129  0.330852  0.499972  1
  Dy  Dy4  1  0.999821  0.330853  0.999983  1
  Dy  Dy5  1  0.669043  0.669043  0.000000  1
  Si  Si6  1  0.378994  0.329822  0.248599  1
  Si  Si7  1  0.668800  0.049834  0.249378  1
  Si  Si8  1  0.952139  0.619711  0.248350  1
  Si  Si9  1  0.619711  0.952139  0.751650  1
  Si  Si10  1  0.000730  0.000641  0.248773  1
  Si  Si11  1  0.666721  0.332838  0.751054  1
  Si  Si12  1  0.049834  0.668800  0.750622  1
  Si  Si13  1  0.329822  0.378994  0.751401  1
  Si  Si14  1  0.332838  0.666721  0.248946  1
  Si  Si15  1  0.000641  0.000730  0.751227  1
