# generated using pymatgen
data_Sc4CuSb4Rh3
_symmetry_space_group_name_H-M   'P 1'
_cell_length_a   4.46537445
_cell_length_b   4.46537619
_cell_length_c   14.73861383
_cell_angle_alpha   89.97585305
_cell_angle_beta   81.32018821
_cell_angle_gamma   120.03316004
_symmetry_Int_Tables_number   1
_chemical_formula_structural   Sc4CuSb4Rh3
_chemical_formula_sum   'Sc4 Cu1 Sb4 Rh3'
_cell_volume   250.51760955
_cell_formula_units_Z   1
loop_
 _symmetry_equiv_pos_site_id
 _symmetry_equiv_pos_as_xyz
  1  'x, y, z'
loop_
 _atom_site_type_symbol
 _atom_site_label
 _atom_site_symmetry_multiplicity
 _atom_site_fract_x
 _atom_site_fract_y
 _atom_site_fract_z
 _atom_site_occupancy
  Sc  Sc0  1  0.251966  0.626024  0.122011  1
  Sc  Sc1  1  0.747614  0.873761  0.378625  1
  Sc  Sc2  1  0.249485  0.124679  0.625836  1
  Sc  Sc3  1  0.749323  0.374547  0.876129  1
  Cu  Cu4  1  0.876776  0.938296  0.184928  1
  Sb  Sb5  1  0.000017  0.500004  0.499979  1
  Sb  Sb6  1  0.498608  0.749337  0.752054  1
  Sb  Sb7  1  0.000844  0.000482  0.998674  1
  Sb  Sb8  1  0.501058  0.250639  0.248303  1
  Rh  Rh9  1  0.377172  0.188597  0.434232  1
  Rh  Rh10  1  0.875351  0.437730  0.686919  1
  Rh  Rh11  1  0.371788  0.685901  0.942311  1
