# generated using pymatgen
data_Yb4UIr7
_symmetry_space_group_name_H-M   'P 1'
_cell_length_a   5.58231900
_cell_length_b   5.58231783
_cell_length_c   8.29139900
_cell_angle_alpha   90.00000000
_cell_angle_beta   90.00000000
_cell_angle_gamma   120.00000103
_symmetry_Int_Tables_number   1
_chemical_formula_structural   Yb4UIr7
_chemical_formula_sum   'Yb4 U1 Ir7'
_cell_volume   223.76267836
_cell_formula_units_Z   1
loop_
 _symmetry_equiv_pos_site_id
 _symmetry_equiv_pos_as_xyz
  1  'x, y, z'
loop_
 _atom_site_type_symbol
 _atom_site_label
 _atom_site_symmetry_multiplicity
 _atom_site_fract_x
 _atom_site_fract_y
 _atom_site_fract_z
 _atom_site_occupancy
  Yb  Yb0  1  0.333334  0.666667  0.082663  1
  Yb  Yb1  1  0.333334  0.666667  0.439916  1
  Yb  Yb2  1  0.666666  0.333334  0.560083  1
  Yb  Yb3  1  0.666666  0.333334  0.917337  1
  U  U4  1  0.000000  0.000000  0.000000  1
  Ir  Ir5  1  0.349384  0.174692  0.245801  1
  Ir  Ir6  1  0.825309  0.174692  0.245801  1
  Ir  Ir7  1  0.825307  0.650615  0.245801  1
  Ir  Ir8  1  0.000000  0.000000  0.500000  1
  Ir  Ir9  1  0.174692  0.349384  0.754198  1
  Ir  Ir10  1  0.174692  0.825307  0.754198  1
  Ir  Ir11  1  0.650615  0.825307  0.754198  1
