# generated using pymatgen
data_Tm3LuSi4OsRh3
_symmetry_space_group_name_H-M   'P 1'
_cell_length_a   4.23857200
_cell_length_b   6.81749939
_cell_length_c   7.28892194
_cell_angle_alpha   89.98823755
_cell_angle_beta   90.00000000
_cell_angle_gamma   90.00000000
_symmetry_Int_Tables_number   1
_chemical_formula_structural   Tm3LuSi4OsRh3
_chemical_formula_sum   'Tm3 Lu1 Si4 Os1 Rh3'
_cell_volume   210.62405141
_cell_formula_units_Z   1
loop_
 _symmetry_equiv_pos_site_id
 _symmetry_equiv_pos_as_xyz
  1  'x, y, z'
loop_
 _atom_site_type_symbol
 _atom_site_label
 _atom_site_symmetry_multiplicity
 _atom_site_fract_x
 _atom_site_fract_y
 _atom_site_fract_z
 _atom_site_occupancy
  Tm  Tm0  1  0.250000  0.000309  0.812256  1
  Tm  Tm1  1  0.750000  0.999145  0.187055  1
  Tm  Tm2  1  0.750000  0.504387  0.311168  1
  Lu  Lu3  1  0.250000  0.499422  0.691374  1
  Si  Si4  1  0.250000  0.296458  0.108081  1
  Si  Si5  1  0.750000  0.705187  0.884862  1
  Si  Si6  1  0.250000  0.795347  0.400194  1
  Si  Si7  1  0.750000  0.201758  0.605701  1
  Os  Os8  1  0.750000  0.842047  0.566438  1
  Rh  Rh9  1  0.250000  0.156766  0.433071  1
  Rh  Rh10  1  0.750000  0.343335  0.932580  1
  Rh  Rh11  1  0.250000  0.655841  0.067221  1
