# generated using pymatgen
data_HoEr2U5(ReB6)4
_symmetry_space_group_name_H-M   'P 1'
_cell_length_a   3.63068400
_cell_length_b   9.28812751
_cell_length_c   11.39936300
_cell_angle_alpha   89.94971633
_cell_angle_beta   90.00000000
_cell_angle_gamma   90.00000000
_symmetry_Int_Tables_number   1
_chemical_formula_structural   HoEr2U5(ReB6)4
_chemical_formula_sum   'Ho1 Er2 U5 Re4 B24'
_cell_volume   384.41208859
_cell_formula_units_Z   1
loop_
 _symmetry_equiv_pos_site_id
 _symmetry_equiv_pos_as_xyz
  1  'x, y, z'
loop_
 _atom_site_type_symbol
 _atom_site_label
 _atom_site_symmetry_multiplicity
 _atom_site_fract_x
 _atom_site_fract_y
 _atom_site_fract_z
 _atom_site_occupancy
  Ho  Ho0  1  0.000000  0.835465  0.093130  1
  Er  Er1  1  0.000000  0.336971  0.407674  1
  Er  Er2  1  0.000000  0.663286  0.591853  1
  U  U3  1  0.000000  0.163467  0.907122  1
  U  U4  1  0.000000  0.956285  0.396937  1
  U  U5  1  0.000000  0.042853  0.603371  1
  U  U6  1  0.000000  0.457696  0.104170  1
  U  U7  1  0.000000  0.543878  0.897091  1
  Re  Re8  1  0.000000  0.645144  0.319332  1
  Re  Re9  1  0.000000  0.353067  0.682923  1
  Re  Re10  1  0.000000  0.145953  0.178418  1
  Re  Re11  1  0.000000  0.856898  0.819299  1
  B  B12  1  0.500000  0.550944  0.431719  1
  B  B13  1  0.500000  0.448491  0.569146  1
  B  B14  1  0.500000  0.052118  0.067609  1
  B  B15  1  0.500000  0.950080  0.930526  1
  B  B16  1  0.500000  0.742446  0.423599  1
  B  B17  1  0.500000  0.257599  0.576252  1
  B  B18  1  0.500000  0.242768  0.075929  1
  B  B19  1  0.500000  0.756618  0.922832  1
  B  B20  1  0.500000  0.802063  0.275251  1
  B  B21  1  0.500000  0.196797  0.726102  1
  B  B22  1  0.500000  0.302506  0.225174  1
  B  B23  1  0.500000  0.697726  0.774613  1
  B  B24  1  0.500000  0.643787  0.188940  1
  B  B25  1  0.500000  0.355152  0.811834  1
  B  B26  1  0.500000  0.144476  0.311106  1
  B  B27  1  0.500000  0.854855  0.688187  1
  B  B28  1  0.500000  0.988834  0.219461  1
  B  B29  1  0.500000  0.013128  0.780938  1
  B  B30  1  0.500000  0.487987  0.281262  1
  B  B31  1  0.500000  0.511980  0.719139  1
  B  B32  1  0.500000  0.641144  0.039123  1
  B  B33  1  0.500000  0.357408  0.960392  1
  B  B34  1  0.500000  0.141170  0.460503  1
  B  B35  1  0.500000  0.858957  0.539047  1
