# generated using pymatgen
data_Ca20TlCd3Ag8
_symmetry_space_group_name_H-M   'P 1'
_cell_length_a   8.14028400
_cell_length_b   8.14028400
_cell_length_c   14.93017100
_cell_angle_alpha   90.00000000
_cell_angle_beta   90.00000000
_cell_angle_gamma   90.00000000
_symmetry_Int_Tables_number   1
_chemical_formula_structural   Ca20TlCd3Ag8
_chemical_formula_sum   'Ca20 Tl1 Cd3 Ag8'
_cell_volume   989.33618954
_cell_formula_units_Z   1
loop_
 _symmetry_equiv_pos_site_id
 _symmetry_equiv_pos_as_xyz
  1  'x, y, z'
loop_
 _atom_site_type_symbol
 _atom_site_label
 _atom_site_symmetry_multiplicity
 _atom_site_fract_x
 _atom_site_fract_y
 _atom_site_fract_z
 _atom_site_occupancy
  Ca  Ca0  1  0.669463  0.166533  0.106203  1
  Ca  Ca1  1  0.167949  0.668243  0.607632  1
  Ca  Ca2  1  0.330537  0.833467  0.106203  1
  Ca  Ca3  1  0.832051  0.331757  0.607632  1
  Ca  Ca4  1  0.833467  0.669463  0.106203  1
  Ca  Ca5  1  0.331757  0.167949  0.607632  1
  Ca  Ca6  1  0.166533  0.330537  0.106203  1
  Ca  Ca7  1  0.668243  0.832051  0.607632  1
  Ca  Ca8  1  0.833467  0.330537  0.893797  1
  Ca  Ca9  1  0.331757  0.832051  0.392368  1
  Ca  Ca10  1  0.166533  0.669463  0.893797  1
  Ca  Ca11  1  0.668243  0.167949  0.392368  1
  Ca  Ca12  1  0.669463  0.833467  0.893797  1
  Ca  Ca13  1  0.167949  0.331757  0.392368  1
  Ca  Ca14  1  0.330537  0.166533  0.893797  1
  Ca  Ca15  1  0.832051  0.668243  0.392368  1
  Ca  Ca16  1  0.500000  0.500000  0.752314  1
  Ca  Ca17  1  0.000000  0.000000  0.248908  1
  Ca  Ca18  1  0.000000  0.000000  0.751092  1
  Ca  Ca19  1  0.500000  0.500000  0.247686  1
  Tl  Tl20  1  0.000000  0.000000  0.000000  1
  Cd  Cd21  1  0.500000  0.500000  0.500000  1
  Cd  Cd22  1  0.500000  0.500000  0.000000  1
  Cd  Cd23  1  0.000000  0.000000  0.500000  1
  Ag  Ag24  1  0.624669  0.126363  0.750421  1
  Ag  Ag25  1  0.126363  0.624669  0.249579  1
  Ag  Ag26  1  0.873637  0.375331  0.249579  1
  Ag  Ag27  1  0.375331  0.873637  0.750421  1
  Ag  Ag28  1  0.873637  0.624669  0.750421  1
  Ag  Ag29  1  0.375331  0.126363  0.249579  1
  Ag  Ag30  1  0.126363  0.375331  0.750421  1
  Ag  Ag31  1  0.624669  0.873637  0.249579  1
