# generated using pymatgen
data_Sn4Hg(AsO4)6
_symmetry_space_group_name_H-M   'P 1'
_cell_length_a   8.83910198
_cell_length_b   8.83890055
_cell_length_c   9.34403491
_cell_angle_alpha   61.76989536
_cell_angle_beta   118.23036350
_cell_angle_gamma   120.00245732
_symmetry_Int_Tables_number   1
_chemical_formula_structural   Sn4Hg(AsO4)6
_chemical_formula_sum   'Sn4 Hg1 As6 O24'
_cell_volume   529.57923533
_cell_formula_units_Z   1
loop_
 _symmetry_equiv_pos_site_id
 _symmetry_equiv_pos_as_xyz
  1  'x, y, z'
loop_
 _atom_site_type_symbol
 _atom_site_label
 _atom_site_symmetry_multiplicity
 _atom_site_fract_x
 _atom_site_fract_y
 _atom_site_fract_z
 _atom_site_occupancy
  Sn  Sn0  1  0.353183  0.646825  0.059512  1
  Sn  Sn1  1  0.145175  0.854823  0.435530  1
  Sn  Sn2  1  0.854825  0.145177  0.564470  1
  Sn  Sn3  1  0.646817  0.353175  0.940488  1
  Hg  Hg4  1  0.000000  0.000000  0.000000  1
  As  As5  1  0.032736  0.250596  0.244015  1
  As  As6  1  0.461863  0.967242  0.244023  1
  As  As7  1  0.749385  0.538129  0.244033  1
  As  As8  1  0.250615  0.461870  0.755967  1
  As  As9  1  0.538137  0.032758  0.755977  1
  As  As10  1  0.967264  0.749404  0.755984  1
  O  O11  1  0.474923  0.178348  0.091944  1
  O  O12  1  0.795296  0.525066  0.091938  1
  O  O13  1  0.821635  0.204643  0.091931  1
  O  O14  1  0.498637  0.818510  0.207805  1
  O  O15  1  0.527649  0.501323  0.207856  1
  O  O16  1  0.181457  0.472357  0.207769  1
  O  O17  1  0.238093  0.880577  0.249730  1
  O  O18  1  0.892170  0.761899  0.249741  1
  O  O19  1  0.119441  0.107816  0.249736  1
  O  O20  1  0.809213  0.387168  0.441735  1
  O  O21  1  0.019667  0.190775  0.441722  1
  O  O22  1  0.612812  0.980301  0.441739  1
  O  O23  1  0.387188  0.019699  0.558260  1
  O  O24  1  0.980333  0.809225  0.558277  1
  O  O25  1  0.190788  0.612832  0.558266  1
  O  O26  1  0.880559  0.892185  0.750264  1
  O  O27  1  0.107830  0.238101  0.750258  1
  O  O28  1  0.761907  0.119422  0.750270  1
  O  O29  1  0.818542  0.527643  0.792231  1
  O  O30  1  0.472351  0.498678  0.792144  1
  O  O31  1  0.501363  0.181491  0.792195  1
  O  O32  1  0.178365  0.795357  0.908069  1
  O  O33  1  0.204703  0.474934  0.908061  1
  O  O34  1  0.525077  0.821652  0.908056  1
