# generated using pymatgen
data_BaYbH9W
_symmetry_space_group_name_H-M   'P 1'
_cell_length_a   8.90144900
_cell_length_b   8.90144755
_cell_length_c   5.23850000
_cell_angle_alpha   90.00000000
_cell_angle_beta   90.00000000
_cell_angle_gamma   120.00000911
_symmetry_Int_Tables_number   1
_chemical_formula_structural   BaYbH9W
_chemical_formula_sum   'Ba3 Yb3 H27 W3'
_cell_volume   359.46688242
_cell_formula_units_Z   3
loop_
 _symmetry_equiv_pos_site_id
 _symmetry_equiv_pos_as_xyz
  1  'x, y, z'
loop_
 _atom_site_type_symbol
 _atom_site_label
 _atom_site_symmetry_multiplicity
 _atom_site_fract_x
 _atom_site_fract_y
 _atom_site_fract_z
 _atom_site_occupancy
  Ba  Ba0  1  0.000000  0.607850  0.000000  1
  Ba  Ba1  1  0.392150  0.392150  0.000000  1
  Ba  Ba2  1  0.607850  0.000000  0.000000  1
  Yb  Yb3  1  0.000000  0.261027  0.500000  1
  Yb  Yb4  1  0.738973  0.738973  0.500000  1
  Yb  Yb5  1  0.261027  0.000000  0.500000  1
  H  H6  1  0.807524  0.324980  0.738758  1
  H  H7  1  0.675020  0.482544  0.738758  1
  H  H8  1  0.517456  0.192476  0.738758  1
  H  H9  1  0.192476  0.517456  0.261242  1
  H  H10  1  0.517456  0.192476  0.261242  1
  H  H11  1  0.807524  0.324980  0.261242  1
  H  H12  1  0.675020  0.482544  0.261242  1
  H  H13  1  0.324980  0.807524  0.738758  1
  H  H14  1  0.482544  0.675020  0.738758  1
  H  H15  1  0.203956  0.000000  0.000000  1
  H  H16  1  0.796044  0.796044  0.000000  1
  H  H17  1  0.000000  0.203956  0.000000  1
  H  H18  1  0.860616  0.000000  0.259056  1
  H  H19  1  0.139384  0.139384  0.740944  1
  H  H20  1  0.000000  0.860616  0.740944  1
  H  H21  1  0.000000  0.860616  0.259056  1
  H  H22  1  0.139384  0.139384  0.259056  1
  H  H23  1  0.860616  0.000000  0.740944  1
  H  H24  1  0.135638  0.671246  0.500000  1
  H  H25  1  0.535608  0.864362  0.500000  1
  H  H26  1  0.328754  0.464392  0.500000  1
  H  H27  1  0.464392  0.328754  0.500000  1
  H  H28  1  0.864362  0.535608  0.500000  1
  H  H29  1  0.671246  0.135638  0.500000  1
  H  H30  1  0.192476  0.517456  0.738758  1
  H  H31  1  0.324980  0.807524  0.261242  1
  H  H32  1  0.482544  0.675020  0.261242  1
  W  W33  1  0.666667  0.333333  0.500000  1
  W  W34  1  0.333333  0.666667  0.500000  1
  W  W35  1  0.000000  0.000000  0.000000  1
