# generated using pymatgen
data_ErTmNbIr3
_symmetry_space_group_name_H-M   'P 1'
_cell_length_a   5.24732383
_cell_length_b   5.24732447
_cell_length_c   5.24732419
_cell_angle_alpha   64.62046512
_cell_angle_beta   64.62046599
_cell_angle_gamma   64.62046426
_symmetry_Int_Tables_number   1
_chemical_formula_structural   ErTmNbIr3
_chemical_formula_sum   'Er1 Tm1 Nb1 Ir3'
_cell_volume   112.50626457
_cell_formula_units_Z   1
loop_
 _symmetry_equiv_pos_site_id
 _symmetry_equiv_pos_as_xyz
  1  'x, y, z'
loop_
 _atom_site_type_symbol
 _atom_site_label
 _atom_site_symmetry_multiplicity
 _atom_site_fract_x
 _atom_site_fract_y
 _atom_site_fract_z
 _atom_site_occupancy
  Er  Er0  1  0.998248  0.998248  0.998248  1
  Tm  Tm1  1  0.251844  0.251844  0.251844  1
  Nb  Nb2  1  0.624996  0.624996  0.624996  1
  Ir  Ir3  1  0.624930  0.125052  0.624930  1
  Ir  Ir4  1  0.624930  0.624930  0.125052  1
  Ir  Ir5  1  0.125052  0.624930  0.624930  1
