# generated using pymatgen
data_SrLa6ReI12
_symmetry_space_group_name_H-M   'P 1'
_cell_length_a   10.19420681
_cell_length_b   10.19420714
_cell_length_c   10.19420730
_cell_angle_alpha   106.48010106
_cell_angle_beta   106.48010952
_cell_angle_gamma   106.48010669
_symmetry_Int_Tables_number   1
_chemical_formula_structural   SrLa6ReI12
_chemical_formula_sum   'Sr1 La6 Re1 I12'
_cell_volume   894.49694846
_cell_formula_units_Z   1
loop_
 _symmetry_equiv_pos_site_id
 _symmetry_equiv_pos_as_xyz
  1  'x, y, z'
loop_
 _atom_site_type_symbol
 _atom_site_label
 _atom_site_symmetry_multiplicity
 _atom_site_fract_x
 _atom_site_fract_y
 _atom_site_fract_z
 _atom_site_occupancy
  Sr  Sr0  1  0.500000  0.500000  0.500000  1
  La  La1  1  0.098589  0.302112  0.022851  1
  La  La2  1  0.302111  0.022850  0.098589  1
  La  La3  1  0.022850  0.098589  0.302112  1
  La  La4  1  0.977149  0.901411  0.697888  1
  La  La5  1  0.697889  0.977149  0.901410  1
  La  La6  1  0.901411  0.697888  0.977149  1
  Re  Re7  1  0.000000  0.000000  0.000000  1
  I  I8  1  0.225977  0.679418  0.073920  1
  I  I9  1  0.456503  0.375901  0.148574  1
  I  I10  1  0.679418  0.073921  0.225977  1
  I  I11  1  0.926080  0.774024  0.320583  1
  I  I12  1  0.148574  0.456503  0.375901  1
  I  I13  1  0.375901  0.148574  0.456504  1
  I  I14  1  0.624099  0.851426  0.543496  1
  I  I15  1  0.851425  0.543497  0.624099  1
  I  I16  1  0.073921  0.225977  0.679418  1
  I  I17  1  0.320583  0.926080  0.774023  1
  I  I18  1  0.543496  0.624098  0.851426  1
  I  I19  1  0.774023  0.320583  0.926080  1
