# generated using pymatgen
data_Dy6Co18Si5P7
_symmetry_space_group_name_H-M   'P 1'
_cell_length_a   10.54649100
_cell_length_b   3.73338000
_cell_length_c   12.25644400
_cell_angle_alpha   90.00000000
_cell_angle_beta   90.00000000
_cell_angle_gamma   90.00000000
_symmetry_Int_Tables_number   1
_chemical_formula_structural   Dy6Co18Si5P7
_chemical_formula_sum   'Dy6 Co18 Si5 P7'
_cell_volume   482.58594391
_cell_formula_units_Z   1
loop_
 _symmetry_equiv_pos_site_id
 _symmetry_equiv_pos_as_xyz
  1  'x, y, z'
loop_
 _atom_site_type_symbol
 _atom_site_label
 _atom_site_symmetry_multiplicity
 _atom_site_fract_x
 _atom_site_fract_y
 _atom_site_fract_z
 _atom_site_occupancy
  Dy  Dy0  1  0.066008  0.750001  0.207303  1
  Dy  Dy1  1  0.433992  0.750001  0.207303  1
  Dy  Dy2  1  0.250000  0.750001  0.476384  1
  Dy  Dy3  1  0.750000  0.250000  0.527826  1
  Dy  Dy4  1  0.566098  0.250000  0.793623  1
  Dy  Dy5  1  0.933902  0.250000  0.793623  1
  Co  Co6  1  0.080696  0.250000  0.002473  1
  Co  Co7  1  0.419303  0.250000  0.002473  1
  Co  Co8  1  0.250000  0.750001  0.009845  1
  Co  Co9  1  0.750000  0.750001  0.155473  1
  Co  Co10  1  0.629434  0.250000  0.295256  1
  Co  Co11  1  0.870567  0.250000  0.295256  1
  Co  Co12  1  0.250000  0.250000  0.302394  1
  Co  Co13  1  0.544554  0.750001  0.433095  1
  Co  Co14  1  0.955447  0.750001  0.433095  1
  Co  Co15  1  0.044491  0.250000  0.568548  1
  Co  Co16  1  0.455510  0.250000  0.568548  1
  Co  Co17  1  0.750000  0.750001  0.699908  1
  Co  Co18  1  0.128095  0.750001  0.711187  1
  Co  Co19  1  0.371906  0.750001  0.711187  1
  Co  Co20  1  0.250000  0.250000  0.846841  1
  Co  Co21  1  0.750000  0.250000  0.975374  1
  Co  Co22  1  0.583978  0.750001  0.989616  1
  Co  Co23  1  0.916021  0.750001  0.989616  1
  Si  Si24  1  0.604947  0.250000  0.106296  1
  Si  Si25  1  0.895052  0.250000  0.106296  1
  Si  Si26  1  0.250000  0.250000  0.115871  1
  Si  Si27  1  0.750000  0.750001  0.342847  1
  Si  Si28  1  0.250000  0.250000  0.659315  1
  P  P29  1  0.058747  0.250000  0.384888  1
  P  P30  1  0.441253  0.250000  0.384888  1
  P  P31  1  0.557858  0.750001  0.617078  1
  P  P32  1  0.942142  0.750001  0.617078  1
  P  P33  1  0.750000  0.750001  0.880128  1
  P  P34  1  0.096577  0.750001  0.894534  1
  P  P35  1  0.403422  0.750001  0.894534  1
