# generated using pymatgen
data_Hf3ZrSi4(IrRh)2
_symmetry_space_group_name_H-M   'P 1'
_cell_length_a   3.95989400
_cell_length_b   6.53541904
_cell_length_c   7.42898404
_cell_angle_alpha   89.98742560
_cell_angle_beta   90.00000000
_cell_angle_gamma   90.00000000
_symmetry_Int_Tables_number   1
_chemical_formula_structural   Hf3ZrSi4(IrRh)2
_chemical_formula_sum   'Hf3 Zr1 Si4 Ir2 Rh2'
_cell_volume   192.25888303
_cell_formula_units_Z   1
loop_
 _symmetry_equiv_pos_site_id
 _symmetry_equiv_pos_as_xyz
  1  'x, y, z'
loop_
 _atom_site_type_symbol
 _atom_site_label
 _atom_site_symmetry_multiplicity
 _atom_site_fract_x
 _atom_site_fract_y
 _atom_site_fract_z
 _atom_site_occupancy
  Hf  Hf0  1  0.250000  0.019304  0.316965  1
  Hf  Hf1  1  0.250000  0.519384  0.182681  1
  Hf  Hf2  1  0.750000  0.981092  0.682834  1
  Zr  Zr3  1  0.750000  0.480731  0.818698  1
  Si  Si4  1  0.250000  0.275382  0.618600  1
  Si  Si5  1  0.250000  0.775718  0.881607  1
  Si  Si6  1  0.750000  0.723425  0.380675  1
  Si  Si7  1  0.750000  0.223824  0.119267  1
  Ir  Ir8  1  0.750000  0.848616  0.066845  1
  Ir  Ir9  1  0.750000  0.346712  0.434020  1
  Rh  Rh10  1  0.250000  0.150594  0.936710  1
  Rh  Rh11  1  0.250000  0.655217  0.561099  1
