# generated using pymatgen
data_Th2Mg(Al3Cu4)3
_symmetry_space_group_name_H-M   'P 1'
_cell_length_a   10.38647054
_cell_length_b   8.19722837
_cell_length_c   7.92255944
_cell_angle_alpha   80.21123261
_cell_angle_beta   51.05336833
_cell_angle_gamma   48.73540030
_symmetry_Int_Tables_number   1
_chemical_formula_structural   Th2Mg(Al3Cu4)3
_chemical_formula_sum   'Th2 Mg1 Al9 Cu12'
_cell_volume   358.16359303
_cell_formula_units_Z   1
loop_
 _symmetry_equiv_pos_site_id
 _symmetry_equiv_pos_as_xyz
  1  'x, y, z'
loop_
 _atom_site_type_symbol
 _atom_site_label
 _atom_site_symmetry_multiplicity
 _atom_site_fract_x
 _atom_site_fract_y
 _atom_site_fract_z
 _atom_site_occupancy
  Th  Th0  1  0.000000  0.000000  0.000000  1
  Th  Th1  1  0.250000  0.250000  0.250000  1
  Mg  Mg2  1  0.500000  0.500000  0.500000  1
  Al  Al3  1  0.750000  0.750000  0.750000  1
  Al  Al4  1  0.760191  0.067863  0.826713  1
  Al  Al5  1  0.826713  0.345233  0.760191  1
  Al  Al6  1  0.067863  0.760191  0.345233  1
  Al  Al7  1  0.345233  0.826713  0.067863  1
  Al  Al8  1  0.491463  0.179774  0.420900  1
  Al  Al9  1  0.420900  0.907864  0.491463  1
  Al  Al10  1  0.179774  0.491463  0.907864  1
  Al  Al11  1  0.907864  0.420900  0.179774  1
  Cu  Cu12  1  0.624823  0.122962  0.627688  1
  Cu  Cu13  1  0.627688  0.624527  0.624823  1
  Cu  Cu14  1  0.122962  0.624823  0.624527  1
  Cu  Cu15  1  0.624527  0.627688  0.122962  1
  Cu  Cu16  1  0.489552  0.432427  0.180852  1
  Cu  Cu17  1  0.180852  0.897169  0.489552  1
  Cu  Cu18  1  0.432427  0.489552  0.897169  1
  Cu  Cu19  1  0.897169  0.180852  0.432427  1
  Cu  Cu20  1  0.760471  0.816208  0.065944  1
  Cu  Cu21  1  0.065944  0.357377  0.760471  1
  Cu  Cu22  1  0.816208  0.760471  0.357377  1
  Cu  Cu23  1  0.357377  0.065944  0.816208  1
