# generated using pymatgen
data_TaTe2H
_symmetry_space_group_name_H-M   'P 1'
_cell_length_a   3.61039400
_cell_length_b   3.61039307
_cell_length_c   16.95537100
_cell_angle_alpha   90.00000000
_cell_angle_beta   90.00000000
_cell_angle_gamma   119.99997189
_symmetry_Int_Tables_number   1
_chemical_formula_structural   TaTe2H
_chemical_formula_sum   'Ta2 Te4 H2'
_cell_volume   191.40229335
_cell_formula_units_Z   2
loop_
 _symmetry_equiv_pos_site_id
 _symmetry_equiv_pos_as_xyz
  1  'x, y, z'
loop_
 _atom_site_type_symbol
 _atom_site_label
 _atom_site_symmetry_multiplicity
 _atom_site_fract_x
 _atom_site_fract_y
 _atom_site_fract_z
 _atom_site_occupancy
  Ta  Ta0  1  0.333333  0.666667  0.336669  1
  Ta  Ta1  1  0.666667  0.333333  0.788376  1
  Te  Te2  1  0.333333  0.666667  0.902786  1
  Te  Te3  1  0.333333  0.666667  0.673843  1
  Te  Te4  1  0.666667  0.333333  0.451198  1
  Te  Te5  1  0.666667  0.333333  0.222242  1
  H  H6  1  0.000000  0.000000  0.787643  1
  H  H7  1  0.000000  0.000000  0.337242  1
