# generated using pymatgen
data_Sc12In(OsBr8)2
_symmetry_space_group_name_H-M   'P 1'
_cell_length_a   9.07053161
_cell_length_b   11.28167562
_cell_length_c   11.91240989
_cell_angle_alpha   117.18164516
_cell_angle_beta   101.88003858
_cell_angle_gamma   101.23284153
_symmetry_Int_Tables_number   1
_chemical_formula_structural   Sc12In(OsBr8)2
_chemical_formula_sum   'Sc12 In1 Os2 Br16'
_cell_volume   1001.04011618
_cell_formula_units_Z   1
loop_
 _symmetry_equiv_pos_site_id
 _symmetry_equiv_pos_as_xyz
  1  'x, y, z'
loop_
 _atom_site_type_symbol
 _atom_site_label
 _atom_site_symmetry_multiplicity
 _atom_site_fract_x
 _atom_site_fract_y
 _atom_site_fract_z
 _atom_site_occupancy
  Sc  Sc0  1  0.097709  0.246982  0.344421  1
  Sc  Sc1  1  0.902291  0.753018  0.655579  1
  Sc  Sc2  1  0.756796  0.539528  0.312640  1
  Sc  Sc3  1  0.243204  0.460472  0.687360  1
  Sc  Sc4  1  0.306054  0.754180  0.655863  1
  Sc  Sc5  1  0.693946  0.245820  0.344137  1
  Sc  Sc6  1  0.159956  0.538384  0.314068  1
  Sc  Sc7  1  0.840044  0.461616  0.685932  1
  Sc  Sc8  1  0.403541  0.354651  0.268234  1
  Sc  Sc9  1  0.596459  0.645349  0.731766  1
  Sc  Sc10  1  0.456921  0.303088  0.520775  1
  Sc  Sc11  1  0.543079  0.696912  0.479225  1
  In  In12  1  0.000000  0.500000  0.500000  1
  Os  Os13  1  0.338827  0.499912  0.499381  1
  Os  Os14  1  0.661174  0.500088  0.500619  1
  Br  Br15  1  0.400463  0.743237  0.886821  1
  Br  Br16  1  0.599537  0.256763  0.113179  1
  Br  Br17  1  0.187903  0.960928  0.781546  1
  Br  Br18  1  0.812097  0.039072  0.218454  1
  Br  Br19  1  0.338431  0.090587  0.248349  1
  Br  Br20  1  0.661569  0.909413  0.751651  1
  Br  Br21  1  0.553655  0.437402  0.801541  1
  Br  Br22  1  0.446345  0.562598  0.198459  1
  Br  Br23  1  0.312065  0.829072  0.462001  1
  Br  Br24  1  0.687935  0.170928  0.537999  1
  Br  Br25  1  0.168046  0.168202  0.532282  1
  Br  Br26  1  0.831954  0.831798  0.467718  1
  Br  Br27  1  0.927028  0.574126  0.163475  1
  Br  Br28  1  0.072972  0.425874  0.836525  1
  Br  Br29  1  0.921933  0.742064  0.887600  1
  Br  Br30  1  0.078067  0.257936  0.112400  1
