# generated using pymatgen
data_BeV2TcIr4
_symmetry_space_group_name_H-M   'P 1'
_cell_length_a   6.61490800
_cell_length_b   6.61490897
_cell_length_c   2.77838200
_cell_angle_alpha   90.00000000
_cell_angle_beta   90.00000000
_cell_angle_gamma   118.75611635
_symmetry_Int_Tables_number   1
_chemical_formula_structural   BeV2TcIr4
_chemical_formula_sum   'Be1 V2 Tc1 Ir4'
_cell_volume   106.58067339
_cell_formula_units_Z   1
loop_
 _symmetry_equiv_pos_site_id
 _symmetry_equiv_pos_as_xyz
  1  'x, y, z'
loop_
 _atom_site_type_symbol
 _atom_site_label
 _atom_site_symmetry_multiplicity
 _atom_site_fract_x
 _atom_site_fract_y
 _atom_site_fract_z
 _atom_site_occupancy
  Be  Be0  1  0.500000  0.500000  0.500000  1
  V  V1  1  0.223602  0.776398  0.500000  1
  V  V2  1  0.776398  0.223602  0.500000  1
  Tc  Tc3  1  0.000000  0.000000  0.500000  1
  Ir  Ir4  1  0.835867  0.592379  0.000000  1
  Ir  Ir5  1  0.407621  0.164133  0.000000  1
  Ir  Ir6  1  0.164133  0.407621  0.000000  1
  Ir  Ir7  1  0.592379  0.835867  0.000000  1
