# generated using pymatgen
data_YbCeZn4Ru
_symmetry_space_group_name_H-M   'P 1'
_cell_length_a   7.18681000
_cell_length_b   7.18681000
_cell_length_c   5.13149400
_cell_angle_alpha   90.00000000
_cell_angle_beta   90.00000000
_cell_angle_gamma   90.00000000
_symmetry_Int_Tables_number   1
_chemical_formula_structural   YbCeZn4Ru
_chemical_formula_sum   'Yb2 Ce2 Zn8 Ru2'
_cell_volume   265.04288627
_cell_formula_units_Z   2
loop_
 _symmetry_equiv_pos_site_id
 _symmetry_equiv_pos_as_xyz
  1  'x, y, z'
loop_
 _atom_site_type_symbol
 _atom_site_label
 _atom_site_symmetry_multiplicity
 _atom_site_fract_x
 _atom_site_fract_y
 _atom_site_fract_z
 _atom_site_occupancy
  Yb  Yb0  1  0.000000  0.500000  0.772128  1
  Yb  Yb1  1  0.500000  0.000000  0.227872  1
  Ce  Ce2  1  0.000000  0.000000  0.000000  1
  Ce  Ce3  1  0.500000  0.500000  0.000000  1
  Zn  Zn4  1  0.185646  0.685646  0.290242  1
  Zn  Zn5  1  0.814354  0.685646  0.290242  1
  Zn  Zn6  1  0.814354  0.314354  0.290242  1
  Zn  Zn7  1  0.314354  0.185646  0.709758  1
  Zn  Zn8  1  0.185646  0.314354  0.290242  1
  Zn  Zn9  1  0.685646  0.185646  0.709758  1
  Zn  Zn10  1  0.685646  0.814354  0.709758  1
  Zn  Zn11  1  0.314354  0.814354  0.709758  1
  Ru  Ru12  1  0.500000  0.500000  0.500000  1
  Ru  Ru13  1  0.000000  0.000000  0.500000  1
