# generated using pymatgen
data_La3Pr5Cd2IrPd
_symmetry_space_group_name_H-M   'P 1'
_cell_length_a   10.09538675
_cell_length_b   10.12941652
_cell_length_c   10.10349246
_cell_angle_alpha   59.86209969
_cell_angle_beta   60.19645951
_cell_angle_gamma   60.60761246
_symmetry_Int_Tables_number   1
_chemical_formula_structural   La3Pr5Cd2IrPd
_chemical_formula_sum   'La6 Pr10 Cd4 Ir2 Pd2'
_cell_volume   734.18444714
_cell_formula_units_Z   2
loop_
 _symmetry_equiv_pos_site_id
 _symmetry_equiv_pos_as_xyz
  1  'x, y, z'
loop_
 _atom_site_type_symbol
 _atom_site_label
 _atom_site_symmetry_multiplicity
 _atom_site_fract_x
 _atom_site_fract_y
 _atom_site_fract_z
 _atom_site_occupancy
  La  La0  1  0.347496  0.351024  0.345250  1
  La  La1  1  0.351024  0.347496  0.956229  1
  La  La2  1  0.358205  0.946128  0.347427  1
  La  La3  1  0.946128  0.358205  0.348238  1
  La  La4  1  0.805496  0.189723  0.187373  1
  La  La5  1  0.189723  0.805496  0.817406  1
  Pr  Pr6  1  0.192227  0.803891  0.191849  1
  Pr  Pr7  1  0.803891  0.192227  0.812032  1
  Pr  Pr8  1  0.192143  0.192143  0.807857  1
  Pr  Pr9  1  0.809117  0.809117  0.190883  1
  Pr  Pr10  1  0.937311  0.566232  0.563467  1
  Pr  Pr11  1  0.566232  0.937311  0.932991  1
  Pr  Pr12  1  0.564438  0.940387  0.561724  1
  Pr  Pr13  1  0.940387  0.564438  0.933451  1
  Pr  Pr14  1  0.563782  0.563782  0.936218  1
  Pr  Pr15  1  0.937771  0.937771  0.562229  1
  Cd  Cd16  1  0.581766  0.580047  0.580659  1
  Cd  Cd17  1  0.580047  0.581766  0.257528  1
  Cd  Cd18  1  0.578881  0.258941  0.581780  1
  Cd  Cd19  1  0.258941  0.578881  0.580398  1
  Ir  Ir20  1  0.142694  0.571485  0.138645  1
  Ir  Ir21  1  0.571485  0.142694  0.147177  1
  Pd  Pd22  1  0.139063  0.141751  0.147906  1
  Pd  Pd23  1  0.141751  0.139063  0.571280  1
