# generated using pymatgen
data_Cs4SmUBr12
_symmetry_space_group_name_H-M   'P 1'
_cell_length_a   8.09888600
_cell_length_b   8.09888600
_cell_length_c   11.91122600
_cell_angle_alpha   90.00000000
_cell_angle_beta   90.00000000
_cell_angle_gamma   90.00000000
_symmetry_Int_Tables_number   1
_chemical_formula_structural   Cs4SmUBr12
_chemical_formula_sum   'Cs4 Sm1 U1 Br12'
_cell_volume   781.28059313
_cell_formula_units_Z   1
loop_
 _symmetry_equiv_pos_site_id
 _symmetry_equiv_pos_as_xyz
  1  'x, y, z'
loop_
 _atom_site_type_symbol
 _atom_site_label
 _atom_site_symmetry_multiplicity
 _atom_site_fract_x
 _atom_site_fract_y
 _atom_site_fract_z
 _atom_site_occupancy
  Cs  Cs0  1  0.500000  0.000000  0.792906  1
  Cs  Cs1  1  0.500000  0.000000  0.207094  1
  Cs  Cs2  1  0.000000  0.500000  0.207094  1
  Cs  Cs3  1  0.000000  0.500000  0.792906  1
  Sm  Sm4  1  0.000000  0.000000  0.000000  1
  U  U5  1  0.500000  0.500000  0.500000  1
  Br  Br6  1  0.748757  0.249201  0.000000  1
  Br  Br7  1  0.251243  0.750799  0.000000  1
  Br  Br8  1  0.500000  0.500000  0.272324  1
  Br  Br9  1  0.331535  0.212618  0.500000  1
  Br  Br10  1  0.249201  0.251243  0.000000  1
  Br  Br11  1  0.787382  0.331535  0.500000  1
  Br  Br12  1  0.000000  0.000000  0.240243  1
  Br  Br13  1  0.668465  0.787382  0.500000  1
  Br  Br14  1  0.212618  0.668465  0.500000  1
  Br  Br15  1  0.500000  0.500000  0.727676  1
  Br  Br16  1  0.750799  0.748757  0.000000  1
  Br  Br17  1  0.000000  0.000000  0.759757  1
