# generated using pymatgen
data_YbPr5TmCoI12
_symmetry_space_group_name_H-M   'P 1'
_cell_length_a   9.92977881
_cell_length_b   10.09698609
_cell_length_c   10.04553817
_cell_angle_alpha   106.81030890
_cell_angle_beta   106.97652441
_cell_angle_gamma   107.21363056
_symmetry_Int_Tables_number   1
_chemical_formula_structural   YbPr5TmCoI12
_chemical_formula_sum   'Yb1 Pr5 Tm1 Co1 I12'
_cell_volume   838.77255168
_cell_formula_units_Z   1
loop_
 _symmetry_equiv_pos_site_id
 _symmetry_equiv_pos_as_xyz
  1  'x, y, z'
loop_
 _atom_site_type_symbol
 _atom_site_label
 _atom_site_symmetry_multiplicity
 _atom_site_fract_x
 _atom_site_fract_y
 _atom_site_fract_z
 _atom_site_occupancy
  Yb  Yb0  1  0.502550  0.500737  0.498860  1
  Pr  Pr1  1  0.025087  0.099931  0.305767  1
  Pr  Pr2  1  0.100201  0.303137  0.024656  1
  Pr  Pr3  1  0.288285  0.025158  0.091907  1
  Pr  Pr4  1  0.899202  0.696490  0.976762  1
  Pr  Pr5  1  0.710177  0.973117  0.902104  1
  Tm  Tm6  1  0.974701  0.904136  0.712870  1
  Co  Co7  1  0.998876  0.999787  0.000457  1
  I  I8  1  0.533637  0.616175  0.835877  1
  I  I9  1  0.465498  0.383497  0.160482  1
  I  I10  1  0.303920  0.924166  0.765929  1
  I  I11  1  0.387408  0.162623  0.460453  1
  I  I12  1  0.929402  0.776741  0.325807  1
  I  I13  1  0.676625  0.070844  0.220726  1
  I  I14  1  0.066774  0.208672  0.677930  1
  I  I15  1  0.769888  0.315693  0.924320  1
  I  I16  1  0.229308  0.683854  0.073623  1
  I  I17  1  0.850619  0.553689  0.619794  1
  I  I18  1  0.159109  0.461251  0.382346  1
  I  I19  1  0.628731  0.840303  0.539329  1
