# generated using pymatgen
data_Tm12TlZnNi4
_symmetry_space_group_name_H-M   'P 1'
_cell_length_a   8.23147073
_cell_length_b   8.23418225
_cell_length_c   8.23036400
_cell_angle_alpha   106.14778058
_cell_angle_beta   109.66013471
_cell_angle_gamma   112.69943793
_symmetry_Int_Tables_number   1
_chemical_formula_structural   Tm12TlZnNi4
_chemical_formula_sum   'Tm12 Tl1 Zn1 Ni4'
_cell_volume   427.88427413
_cell_formula_units_Z   1
loop_
 _symmetry_equiv_pos_site_id
 _symmetry_equiv_pos_as_xyz
  1  'x, y, z'
loop_
 _atom_site_type_symbol
 _atom_site_label
 _atom_site_symmetry_multiplicity
 _atom_site_fract_x
 _atom_site_fract_y
 _atom_site_fract_z
 _atom_site_occupancy
  Tm  Tm0  1  0.698460  0.271944  0.970246  1
  Tm  Tm1  1  0.301521  0.728082  0.029754  1
  Tm  Tm2  1  0.698472  0.728249  0.426568  1
  Tm  Tm3  1  0.301507  0.271726  0.573381  1
  Tm  Tm4  1  0.806107  0.131148  0.325022  1
  Tm  Tm5  1  0.806050  0.481139  0.674898  1
  Tm  Tm6  1  0.193906  0.868853  0.674999  1
  Tm  Tm7  1  0.193970  0.518866  0.325122  1
  Tm  Tm8  1  0.609703  0.790179  0.819615  1
  Tm  Tm9  1  0.970751  0.790223  0.180496  1
  Tm  Tm10  1  0.029229  0.209778  0.819484  1
  Tm  Tm11  1  0.390284  0.209829  0.180364  1
  Tl  Tl12  1  0.500008  0.999993  0.500008  1
  Zn  Zn13  1  0.499945  0.500001  0.999939  1
  Ni  Ni14  1  0.852417  0.500131  0.352308  1
  Ni  Ni15  1  0.147668  0.499856  0.647779  1
  Ni  Ni16  1  0.000023  0.125430  0.125477  1
  Ni  Ni17  1  0.999981  0.874575  0.874541  1
