# generated using pymatgen
data_Y4Ga18TcPd5
_symmetry_space_group_name_H-M   'P 1'
_cell_length_a   7.63103070
_cell_length_b   7.63103107
_cell_length_c   9.56345347
_cell_angle_alpha   89.81875549
_cell_angle_beta   89.81875966
_cell_angle_gamma   119.60513675
_symmetry_Int_Tables_number   1
_chemical_formula_structural   Y4Ga18TcPd5
_chemical_formula_sum   'Y4 Ga18 Tc1 Pd5'
_cell_volume   484.19189540
_cell_formula_units_Z   1
loop_
 _symmetry_equiv_pos_site_id
 _symmetry_equiv_pos_as_xyz
  1  'x, y, z'
loop_
 _atom_site_type_symbol
 _atom_site_label
 _atom_site_symmetry_multiplicity
 _atom_site_fract_x
 _atom_site_fract_y
 _atom_site_fract_z
 _atom_site_occupancy
  Y  Y0  1  0.996775  0.671600  0.250131  1
  Y  Y1  1  0.003225  0.328400  0.749869  1
  Y  Y2  1  0.671600  0.996775  0.250131  1
  Y  Y3  1  0.328400  0.003225  0.749869  1
  Ga  Ga4  1  0.131033  0.131033  0.246748  1
  Ga  Ga5  1  0.868967  0.868967  0.753252  1
  Ga  Ga6  1  0.999408  0.331330  0.078241  1
  Ga  Ga7  1  0.000592  0.668670  0.921759  1
  Ga  Ga8  1  0.999125  0.663358  0.582528  1
  Ga  Ga9  1  0.336642  0.000875  0.417472  1
  Ga  Ga10  1  0.000875  0.336642  0.417472  1
  Ga  Ga11  1  0.663358  0.999125  0.582528  1
  Ga  Ga12  1  0.668670  0.000592  0.921759  1
  Ga  Ga13  1  0.331330  0.999408  0.078241  1
  Ga  Ga14  1  0.332955  0.332955  0.566858  1
  Ga  Ga15  1  0.667045  0.667045  0.433142  1
  Ga  Ga16  1  0.672356  0.672356  0.062828  1
  Ga  Ga17  1  0.327644  0.327644  0.937172  1
  Ga  Ga18  1  0.342129  0.547186  0.249341  1
  Ga  Ga19  1  0.657871  0.452814  0.750659  1
  Ga  Ga20  1  0.547186  0.342129  0.249341  1
  Ga  Ga21  1  0.452814  0.657871  0.750659  1
  Tc  Tc22  1  0.000000  0.000000  0.000000  1
  Pd  Pd23  1  0.671561  0.328439  0.000000  1
  Pd  Pd24  1  0.328439  0.671561  0.000000  1
  Pd  Pd25  1  0.328481  0.671519  0.500000  1
  Pd  Pd26  1  0.671519  0.328481  0.500000  1
  Pd  Pd27  1  0.000000  0.000000  0.500000  1
