# generated using pymatgen
data_Ca2Er(B3Rh4)2
_symmetry_space_group_name_H-M   'P 1'
_cell_length_a   9.91015986
_cell_length_b   9.06704405
_cell_length_c   5.58659598
_cell_angle_alpha   81.36511975
_cell_angle_beta   64.76322656
_cell_angle_gamma   33.87165339
_symmetry_Int_Tables_number   1
_chemical_formula_structural   Ca2Er(B3Rh4)2
_chemical_formula_sum   'Ca2 Er1 B6 Rh8'
_cell_volume   231.45708056
_cell_formula_units_Z   1
loop_
 _symmetry_equiv_pos_site_id
 _symmetry_equiv_pos_as_xyz
  1  'x, y, z'
loop_
 _atom_site_type_symbol
 _atom_site_label
 _atom_site_symmetry_multiplicity
 _atom_site_fract_x
 _atom_site_fract_y
 _atom_site_fract_z
 _atom_site_occupancy
  Ca  Ca0  1  0.315847  0.315847  0.684153  1
  Ca  Ca1  1  0.684153  0.684153  0.315847  1
  Er  Er2  1  0.500000  0.500000  0.500000  1
  B  B3  1  0.669403  0.987081  0.012919  1
  B  B4  1  0.987081  0.669403  0.330597  1
  B  B5  1  0.330597  0.012919  0.987081  1
  B  B6  1  0.012919  0.330597  0.669403  1
  B  B7  1  0.166908  0.833092  0.166908  1
  B  B8  1  0.833092  0.166908  0.833092  1
  Rh  Rh9  1  0.584810  0.584810  0.915190  1
  Rh  Rh10  1  0.914112  0.914112  0.085888  1
  Rh  Rh11  1  0.415190  0.415190  0.084810  1
  Rh  Rh12  1  0.084810  0.084810  0.415190  1
  Rh  Rh13  1  0.915190  0.915190  0.584810  1
  Rh  Rh14  1  0.250000  0.250000  0.250000  1
  Rh  Rh15  1  0.085888  0.085888  0.914112  1
  Rh  Rh16  1  0.750000  0.750000  0.750000  1
