# generated using pymatgen
data_Tm2FeCo5P4
_symmetry_space_group_name_H-M   'P 1'
_cell_length_a   3.66999600
_cell_length_b   10.49616400
_cell_length_c   12.06682300
_cell_angle_alpha   90.00000000
_cell_angle_beta   90.00000000
_cell_angle_gamma   90.00000000
_symmetry_Int_Tables_number   1
_chemical_formula_structural   Tm2FeCo5P4
_chemical_formula_sum   'Tm6 Fe3 Co15 P12'
_cell_volume   464.82463950
_cell_formula_units_Z   3
loop_
 _symmetry_equiv_pos_site_id
 _symmetry_equiv_pos_as_xyz
  1  'x, y, z'
loop_
 _atom_site_type_symbol
 _atom_site_label
 _atom_site_symmetry_multiplicity
 _atom_site_fract_x
 _atom_site_fract_y
 _atom_site_fract_z
 _atom_site_occupancy
  Tm  Tm0  1  0.000000  0.500000  0.523186  1
  Tm  Tm1  1  0.500000  0.000000  0.476787  1
  Tm  Tm2  1  0.500000  0.818166  0.204734  1
  Tm  Tm3  1  0.500000  0.181834  0.204734  1
  Tm  Tm4  1  0.000000  0.680296  0.795859  1
  Tm  Tm5  1  0.000000  0.319704  0.795859  1
  Fe  Fe6  1  0.500000  0.500000  0.156101  1
  Fe  Fe7  1  0.000000  0.000000  0.842369  1
  Fe  Fe8  1  0.000000  0.500000  0.988515  1
  Co  Co9  1  0.500000  0.500000  0.700961  1
  Co  Co10  1  0.000000  0.000000  0.299054  1
  Co  Co11  1  0.500000  0.000000  0.013703  1
  Co  Co12  1  0.500000  0.330965  0.993759  1
  Co  Co13  1  0.500000  0.669035  0.993759  1
  Co  Co14  1  0.000000  0.166308  0.006268  1
  Co  Co15  1  0.000000  0.833692  0.006268  1
  Co  Co16  1  0.500000  0.297194  0.430756  1
  Co  Co17  1  0.500000  0.702806  0.430756  1
  Co  Co18  1  0.000000  0.203162  0.569377  1
  Co  Co19  1  0.000000  0.796838  0.569377  1
  Co  Co20  1  0.500000  0.878375  0.708310  1
  Co  Co21  1  0.500000  0.121625  0.708310  1
  Co  Co22  1  0.000000  0.621684  0.291116  1
  Co  Co23  1  0.000000  0.378316  0.291116  1
  P  P24  1  0.500000  0.500000  0.883414  1
  P  P25  1  0.000000  0.000000  0.118611  1
  P  P26  1  0.500000  0.500000  0.343392  1
  P  P27  1  0.000000  0.000000  0.655700  1
  P  P28  1  0.500000  0.311436  0.616914  1
  P  P29  1  0.500000  0.688564  0.616914  1
  P  P30  1  0.000000  0.188821  0.383063  1
  P  P31  1  0.000000  0.811179  0.383063  1
  P  P32  1  0.500000  0.847227  0.891673  1
  P  P33  1  0.500000  0.152773  0.891673  1
  P  P34  1  0.000000  0.653006  0.107275  1
  P  P35  1  0.000000  0.346994  0.107275  1
