# generated using pymatgen
data_BaTa2F12
_symmetry_space_group_name_H-M   'P 1'
_cell_length_a   5.82846334
_cell_length_b   5.77090357
_cell_length_c   10.00888607
_cell_angle_alpha   97.61891252
_cell_angle_beta   97.47721054
_cell_angle_gamma   117.94370473
_symmetry_Int_Tables_number   1
_chemical_formula_structural   BaTa2F12
_chemical_formula_sum   'Ba1 Ta2 F12'
_cell_volume   287.58357745
_cell_formula_units_Z   1
loop_
 _symmetry_equiv_pos_site_id
 _symmetry_equiv_pos_as_xyz
  1  'x, y, z'
loop_
 _atom_site_type_symbol
 _atom_site_label
 _atom_site_symmetry_multiplicity
 _atom_site_fract_x
 _atom_site_fract_y
 _atom_site_fract_z
 _atom_site_occupancy
  Ba  Ba0  1  0.995080  0.970797  0.904744  1
  Ta  Ta1  1  0.206063  0.495889  0.590115  1
  Ta  Ta2  1  0.391487  0.699079  0.140538  1
  F  F3  1  0.282988  0.945500  0.207522  1
  F  F4  1  0.546170  0.645189  0.728474  1
  F  F5  1  0.084010  0.576328  0.980743  1
  F  F6  1  0.155505  0.394311  0.201354  1
  F  F7  1  0.462956  0.449774  0.021822  1
  F  F8  1  0.276109  0.237940  0.499229  1
  F  F9  1  0.693451  0.807891  0.277738  1
  F  F10  1  0.156465  0.761540  0.712636  1
  F  F11  1  0.868627  0.366367  0.477437  1
  F  F12  1  0.045168  0.253111  0.714771  1
  F  F13  1  0.382804  0.753282  0.487980  1
  F  F14  1  0.601116  0.953004  0.032895  1
