# generated using pymatgen
data_ThCoAsH2
_symmetry_space_group_name_H-M   'P 1'
_cell_length_a   4.12630800
_cell_length_b   4.12630839
_cell_length_c   8.25321800
_cell_angle_alpha   90.00000000
_cell_angle_beta   90.00000000
_cell_angle_gamma   119.99999689
_symmetry_Int_Tables_number   1
_chemical_formula_structural   ThCoAsH2
_chemical_formula_sum   'Th2 Co2 As2 H4'
_cell_volume   121.69627542
_cell_formula_units_Z   2
loop_
 _symmetry_equiv_pos_site_id
 _symmetry_equiv_pos_as_xyz
  1  'x, y, z'
loop_
 _atom_site_type_symbol
 _atom_site_label
 _atom_site_symmetry_multiplicity
 _atom_site_fract_x
 _atom_site_fract_y
 _atom_site_fract_z
 _atom_site_occupancy
  Th  Th0  1  0.000000  0.000000  0.000000  1
  Th  Th1  1  0.000000  0.000000  0.500000  1
  Co  Co2  1  0.666667  0.333333  0.250000  1
  Co  Co3  1  0.333333  0.666667  0.750000  1
  As  As4  1  0.333333  0.666667  0.250000  1
  As  As5  1  0.666667  0.333333  0.750000  1
  H  H6  1  0.333333  0.666667  0.942834  1
  H  H7  1  0.666667  0.333333  0.057166  1
  H  H8  1  0.333333  0.666667  0.557166  1
  H  H9  1  0.666667  0.333333  0.442834  1
