# generated using pymatgen
data_Mn2Al4Fe10C3
_symmetry_space_group_name_H-M   'P 1'
_cell_length_a   3.78498200
_cell_length_b   3.78498200
_cell_length_c   14.54666700
_cell_angle_alpha   90.00000000
_cell_angle_beta   90.00000000
_cell_angle_gamma   90.00000000
_symmetry_Int_Tables_number   1
_chemical_formula_structural   Mn2Al4Fe10C3
_chemical_formula_sum   'Mn2 Al4 Fe10 C3'
_cell_volume   208.39684232
_cell_formula_units_Z   1
loop_
 _symmetry_equiv_pos_site_id
 _symmetry_equiv_pos_as_xyz
  1  'x, y, z'
loop_
 _atom_site_type_symbol
 _atom_site_label
 _atom_site_symmetry_multiplicity
 _atom_site_fract_x
 _atom_site_fract_y
 _atom_site_fract_z
 _atom_site_occupancy
  Mn  Mn0  1  0.500000  0.000000  0.500000  1
  Mn  Mn1  1  0.000000  0.500000  0.500000  1
  Al  Al2  1  0.000000  0.000000  0.878841  1
  Al  Al3  1  0.000000  0.000000  0.121159  1
  Al  Al4  1  0.000000  0.000000  0.369811  1
  Al  Al5  1  0.000000  0.000000  0.630189  1
  Fe  Fe6  1  0.500000  0.500000  0.891577  1
  Fe  Fe7  1  0.500000  0.500000  0.108423  1
  Fe  Fe8  1  0.500000  0.500000  0.369460  1
  Fe  Fe9  1  0.500000  0.500000  0.630540  1
  Fe  Fe10  1  0.500000  0.000000  0.000000  1
  Fe  Fe11  1  0.500000  0.000000  0.243886  1
  Fe  Fe12  1  0.500000  0.000000  0.756114  1
  Fe  Fe13  1  0.000000  0.500000  0.000000  1
  Fe  Fe14  1  0.000000  0.500000  0.243886  1
  Fe  Fe15  1  0.000000  0.500000  0.756114  1
  C  C16  1  0.500000  0.500000  0.239746  1
  C  C17  1  0.500000  0.500000  0.500000  1
  C  C18  1  0.500000  0.500000  0.760254  1
