# generated using pymatgen
data_CePr5Os2
_symmetry_space_group_name_H-M   'P 1'
_cell_length_a   7.45404847
_cell_length_b   9.82191600
_cell_length_c   6.55228462
_cell_angle_alpha   90.00000000
_cell_angle_beta   86.08465053
_cell_angle_gamma   90.00000000
_symmetry_Int_Tables_number   1
_chemical_formula_structural   CePr5Os2
_chemical_formula_sum   'Ce2 Pr10 Os4'
_cell_volume   478.59302384
_cell_formula_units_Z   2
loop_
 _symmetry_equiv_pos_site_id
 _symmetry_equiv_pos_as_xyz
  1  'x, y, z'
loop_
 _atom_site_type_symbol
 _atom_site_label
 _atom_site_symmetry_multiplicity
 _atom_site_fract_x
 _atom_site_fract_y
 _atom_site_fract_z
 _atom_site_occupancy
  Ce  Ce0  1  0.061189  0.250000  0.659060  1
  Ce  Ce1  1  0.938811  0.750000  0.340940  1
  Pr  Pr2  1  0.465132  0.750000  0.135360  1
  Pr  Pr3  1  0.534868  0.250000  0.864640  1
  Pr  Pr4  1  0.167913  0.063055  0.175420  1
  Pr  Pr5  1  0.832087  0.936945  0.824580  1
  Pr  Pr6  1  0.324863  0.931674  0.666318  1
  Pr  Pr7  1  0.832087  0.563055  0.824580  1
  Pr  Pr8  1  0.675137  0.068326  0.333682  1
  Pr  Pr9  1  0.167913  0.436945  0.175420  1
  Pr  Pr10  1  0.675137  0.431674  0.333682  1
  Pr  Pr11  1  0.324863  0.568326  0.666318  1
  Os  Os12  1  0.364152  0.250000  0.460131  1
  Os  Os13  1  0.635848  0.750000  0.539869  1
  Os  Os14  1  0.109148  0.750000  0.984705  1
  Os  Os15  1  0.890852  0.250000  0.015295  1
