# generated using pymatgen
data_CaY4HfH18
_symmetry_space_group_name_H-M   'P 1'
_cell_length_a   6.26120339
_cell_length_b   6.25964395
_cell_length_c   6.52132489
_cell_angle_alpha   89.84816609
_cell_angle_beta   89.90653451
_cell_angle_gamma   119.73686425
_symmetry_Int_Tables_number   1
_chemical_formula_structural   CaY4HfH18
_chemical_formula_sum   'Ca1 Y4 Hf1 H18'
_cell_volume   221.92965418
_cell_formula_units_Z   1
loop_
 _symmetry_equiv_pos_site_id
 _symmetry_equiv_pos_as_xyz
  1  'x, y, z'
loop_
 _atom_site_type_symbol
 _atom_site_label
 _atom_site_symmetry_multiplicity
 _atom_site_fract_x
 _atom_site_fract_y
 _atom_site_fract_z
 _atom_site_occupancy
  Ca  Ca0  1  0.332729  0.002854  0.750549  1
  Y  Y1  1  0.004092  0.331450  0.751205  1
  Y  Y2  1  0.331880  0.328929  0.254509  1
  Y  Y3  1  0.667138  0.998314  0.247472  1
  Y  Y4  1  0.999248  0.671387  0.249407  1
  Hf  Hf5  1  0.679893  0.679933  0.752906  1
  H  H6  1  0.291849  0.305612  0.589229  1
  H  H7  1  0.718272  0.977241  0.594892  1
  H  H8  1  0.968602  0.697561  0.597138  1
  H  H9  1  0.694125  0.691919  0.079642  1
  H  H10  1  0.309870  0.003314  0.094513  1
  H  H11  1  0.001532  0.304968  0.091604  1
  H  H12  1  0.379993  0.396618  0.903183  1
  H  H13  1  0.654711  0.976446  0.902032  1
  H  H14  1  0.969114  0.633759  0.905638  1
  H  H15  1  0.642212  0.641278  0.427262  1
  H  H16  1  0.355491  0.998418  0.406035  1
  H  H17  1  0.989657  0.353083  0.410044  1
  H  H18  1  0.979284  0.980742  0.823648  1
  H  H19  1  0.999808  0.000931  0.312110  1
  H  H20  1  0.359210  0.667210  0.699885  1
  H  H21  1  0.672262  0.359646  0.704774  1
  H  H22  1  0.667711  0.333382  0.202959  1
  H  H23  1  0.331320  0.665008  0.205382  1
