# generated using pymatgen
data_Pr5(SiAs)2
_symmetry_space_group_name_H-M   'P 1'
_cell_length_a   8.58862143
_cell_length_b   8.58862140
_cell_length_c   8.01887200
_cell_angle_alpha   90.00000000
_cell_angle_beta   90.00000000
_cell_angle_gamma   124.87602758
_symmetry_Int_Tables_number   1
_chemical_formula_structural   Pr5(SiAs)2
_chemical_formula_sum   'Pr10 Si4 As4'
_cell_volume   485.26747906
_cell_formula_units_Z   2
loop_
 _symmetry_equiv_pos_site_id
 _symmetry_equiv_pos_as_xyz
  1  'x, y, z'
loop_
 _atom_site_type_symbol
 _atom_site_label
 _atom_site_symmetry_multiplicity
 _atom_site_fract_x
 _atom_site_fract_y
 _atom_site_fract_z
 _atom_site_occupancy
  Pr  Pr0  1  0.036261  0.312090  0.330717  1
  Pr  Pr1  1  0.963739  0.687910  0.669283  1
  Pr  Pr2  1  0.463739  0.187910  0.830717  1
  Pr  Pr3  1  0.812090  0.536261  0.169283  1
  Pr  Pr4  1  0.536261  0.812090  0.169283  1
  Pr  Pr5  1  0.187910  0.463739  0.830717  1
  Pr  Pr6  1  0.687910  0.963739  0.669283  1
  Pr  Pr7  1  0.312090  0.036261  0.330717  1
  Pr  Pr8  1  0.000000  0.000000  0.000000  1
  Pr  Pr9  1  0.500000  0.500000  0.500000  1
  Si  Si10  1  0.385667  0.385667  0.114941  1
  Si  Si11  1  0.614333  0.614333  0.885059  1
  Si  Si12  1  0.114333  0.114333  0.614941  1
  Si  Si13  1  0.885667  0.885667  0.385059  1
  As  As14  1  0.798341  0.201659  0.000000  1
  As  As15  1  0.201659  0.798341  0.000000  1
  As  As16  1  0.701659  0.298341  0.500000  1
  As  As17  1  0.298341  0.701659  0.500000  1
