# generated using pymatgen
data_NdNpU2(NiAs)4
_symmetry_space_group_name_H-M   'P 1'
_cell_length_a   4.10652800
_cell_length_b   4.10652801
_cell_length_c   15.32172700
_cell_angle_alpha   90.00000000
_cell_angle_beta   90.00000000
_cell_angle_gamma   120.00001606
_symmetry_Int_Tables_number   1
_chemical_formula_structural   NdNpU2(NiAs)4
_chemical_formula_sum   'Nd1 Np1 U2 Ni4 As4'
_cell_volume   223.76278504
_cell_formula_units_Z   1
loop_
 _symmetry_equiv_pos_site_id
 _symmetry_equiv_pos_as_xyz
  1  'x, y, z'
loop_
 _atom_site_type_symbol
 _atom_site_label
 _atom_site_symmetry_multiplicity
 _atom_site_fract_x
 _atom_site_fract_y
 _atom_site_fract_z
 _atom_site_occupancy
  Nd  Nd0  1  0.000000  0.000000  0.500000  1
  Np  Np1  1  0.000000  0.000000  0.000000  1
  U  U2  1  0.000000  0.000000  0.246335  1
  U  U3  1  0.000000  0.000000  0.753665  1
  Ni  Ni4  1  0.333333  0.666667  0.153840  1
  Ni  Ni5  1  0.666667  0.333333  0.846160  1
  Ni  Ni6  1  0.666667  0.333333  0.661759  1
  Ni  Ni7  1  0.333333  0.666667  0.338241  1
  As  As8  1  0.333333  0.666667  0.625390  1
  As  As9  1  0.666667  0.333333  0.374610  1
  As  As10  1  0.666667  0.333333  0.117484  1
  As  As11  1  0.333333  0.666667  0.882516  1
