# generated using pymatgen
data_Rb7UAs4
_symmetry_space_group_name_H-M   'P 1'
_cell_length_a   8.91061400
_cell_length_b   9.94562400
_cell_length_c   10.96725600
_cell_angle_alpha   90.00000000
_cell_angle_beta   90.00000000
_cell_angle_gamma   90.00000000
_symmetry_Int_Tables_number   1
_chemical_formula_structural   Rb7UAs4
_chemical_formula_sum   'Rb14 U2 As8'
_cell_volume   971.93595478
_cell_formula_units_Z   2
loop_
 _symmetry_equiv_pos_site_id
 _symmetry_equiv_pos_as_xyz
  1  'x, y, z'
loop_
 _atom_site_type_symbol
 _atom_site_label
 _atom_site_symmetry_multiplicity
 _atom_site_fract_x
 _atom_site_fract_y
 _atom_site_fract_z
 _atom_site_occupancy
  Rb  Rb0  1  0.875625  0.030112  0.000000  1
  Rb  Rb1  1  0.707344  0.835642  0.715970  1
  Rb  Rb2  1  0.393485  0.893351  0.000000  1
  Rb  Rb3  1  0.375625  0.969888  0.500000  1
  Rb  Rb4  1  0.874345  0.464080  0.290056  1
  Rb  Rb5  1  0.893485  0.106649  0.500000  1
  Rb  Rb6  1  0.661092  0.336009  0.000000  1
  Rb  Rb7  1  0.161092  0.663991  0.500000  1
  Rb  Rb8  1  0.207344  0.164358  0.215970  1
  Rb  Rb9  1  0.374345  0.535920  0.209944  1
  Rb  Rb10  1  0.374345  0.535920  0.790056  1
  Rb  Rb11  1  0.874345  0.464080  0.709944  1
  Rb  Rb12  1  0.707344  0.835642  0.284030  1
  Rb  Rb13  1  0.207344  0.164358  0.784030  1
  U  U14  1  0.004542  0.669995  0.000000  1
  U  U15  1  0.504542  0.330005  0.500000  1
  As  As16  1  0.698900  0.677626  0.000000  1
  As  As17  1  0.198900  0.322374  0.500000  1
  As  As18  1  0.075034  0.401841  0.000000  1
  As  As19  1  0.575034  0.598159  0.500000  1
  As  As20  1  0.094522  0.809382  0.205768  1
  As  As21  1  0.594522  0.190618  0.294232  1
  As  As22  1  0.594522  0.190618  0.705768  1
  As  As23  1  0.094522  0.809382  0.794232  1
