# generated using pymatgen
data_AcLa(CdSn)2
_symmetry_space_group_name_H-M   'P 1'
_cell_length_a   4.89609900
_cell_length_b   4.89609815
_cell_length_c   17.52489900
_cell_angle_alpha   90.00000000
_cell_angle_beta   90.00000000
_cell_angle_gamma   119.99998546
_symmetry_Int_Tables_number   1
_chemical_formula_structural   AcLa(CdSn)2
_chemical_formula_sum   'Ac2 La2 Cd4 Sn4'
_cell_volume   363.81996292
_cell_formula_units_Z   2
loop_
 _symmetry_equiv_pos_site_id
 _symmetry_equiv_pos_as_xyz
  1  'x, y, z'
loop_
 _atom_site_type_symbol
 _atom_site_label
 _atom_site_symmetry_multiplicity
 _atom_site_fract_x
 _atom_site_fract_y
 _atom_site_fract_z
 _atom_site_occupancy
  Ac  Ac0  1  0.000000  0.000000  0.500000  1
  Ac  Ac1  1  0.000000  0.000000  0.000000  1
  La  La2  1  0.000000  0.000000  0.750000  1
  La  La3  1  0.000000  0.000000  0.250000  1
  Cd  Cd4  1  0.666667  0.333333  0.842037  1
  Cd  Cd5  1  0.666667  0.333333  0.657963  1
  Cd  Cd6  1  0.333333  0.666667  0.157963  1
  Cd  Cd7  1  0.333333  0.666667  0.342037  1
  Sn  Sn8  1  0.666667  0.333333  0.115856  1
  Sn  Sn9  1  0.666667  0.333333  0.384144  1
  Sn  Sn10  1  0.333333  0.666667  0.884144  1
  Sn  Sn11  1  0.333333  0.666667  0.615856  1
