# generated using pymatgen
data_Tm2Mn6P7Ir6
_symmetry_space_group_name_H-M   'P 1'
_cell_length_a   9.39797500
_cell_length_b   9.39797517
_cell_length_c   3.82403300
_cell_angle_alpha   90.00000000
_cell_angle_beta   90.00000000
_cell_angle_gamma   120.00000293
_symmetry_Int_Tables_number   1
_chemical_formula_structural   Tm2Mn6P7Ir6
_chemical_formula_sum   'Tm2 Mn6 P7 Ir6'
_cell_volume   292.49660452
_cell_formula_units_Z   1
loop_
 _symmetry_equiv_pos_site_id
 _symmetry_equiv_pos_as_xyz
  1  'x, y, z'
loop_
 _atom_site_type_symbol
 _atom_site_label
 _atom_site_symmetry_multiplicity
 _atom_site_fract_x
 _atom_site_fract_y
 _atom_site_fract_z
 _atom_site_occupancy
  Tm  Tm0  1  0.000000  0.000000  0.000000  1
  Tm  Tm1  1  0.666667  0.333333  0.500000  1
  Mn  Mn2  1  0.221475  0.396324  0.000000  1
  Mn  Mn3  1  0.603676  0.825151  0.000000  1
  Mn  Mn4  1  0.174849  0.778525  0.000000  1
  Mn  Mn5  1  0.451746  0.570310  0.500000  1
  Mn  Mn6  1  0.429690  0.881437  0.500000  1
  Mn  Mn7  1  0.118563  0.548254  0.500000  1
  P  P8  1  0.444432  0.367947  0.000000  1
  P  P9  1  0.632053  0.076485  0.000000  1
  P  P10  1  0.923515  0.555568  0.000000  1
  P  P11  1  0.055077  0.269458  0.500000  1
  P  P12  1  0.730542  0.785620  0.500000  1
  P  P13  1  0.214380  0.944923  0.500000  1
  P  P14  1  0.333333  0.666667  0.000000  1
  Ir  Ir15  1  0.695637  0.600760  0.000000  1
  Ir  Ir16  1  0.399240  0.094878  0.000000  1
  Ir  Ir17  1  0.905122  0.304363  0.000000  1
  Ir  Ir18  1  0.276371  0.223287  0.500000  1
  Ir  Ir19  1  0.776713  0.053083  0.500000  1
  Ir  Ir20  1  0.946917  0.723629  0.500000  1
