# generated using pymatgen
data_MnBe8SiTc2
_symmetry_space_group_name_H-M   'P 1'
_cell_length_a   4.26630800
_cell_length_b   4.26630741
_cell_length_c   7.02937500
_cell_angle_alpha   90.00000000
_cell_angle_beta   90.00000000
_cell_angle_gamma   119.99998910
_symmetry_Int_Tables_number   1
_chemical_formula_structural   MnBe8SiTc2
_chemical_formula_sum   'Mn1 Be8 Si1 Tc2'
_cell_volume   110.80305699
_cell_formula_units_Z   1
loop_
 _symmetry_equiv_pos_site_id
 _symmetry_equiv_pos_as_xyz
  1  'x, y, z'
loop_
 _atom_site_type_symbol
 _atom_site_label
 _atom_site_symmetry_multiplicity
 _atom_site_fract_x
 _atom_site_fract_y
 _atom_site_fract_z
 _atom_site_occupancy
  Mn  Mn0  1  0.333333  0.666667  0.438583  1
  Be  Be1  1  0.000000  0.000000  0.001097  1
  Be  Be2  1  0.000000  0.000000  0.493294  1
  Be  Be3  1  0.829786  0.659571  0.252993  1
  Be  Be4  1  0.167484  0.832516  0.745384  1
  Be  Be5  1  0.665031  0.832516  0.745384  1
  Be  Be6  1  0.340429  0.170214  0.252993  1
  Be  Be7  1  0.829786  0.170214  0.252993  1
  Be  Be8  1  0.167484  0.334969  0.745384  1
  Si  Si9  1  0.333333  0.666667  0.071404  1
  Tc  Tc10  1  0.666667  0.333333  0.559185  1
  Tc  Tc11  1  0.666667  0.333333  0.941304  1
