# generated using pymatgen
data_Gd8Ho4Co4SnRh
_symmetry_space_group_name_H-M   'P 1'
_cell_length_a   8.35646210
_cell_length_b   8.35646111
_cell_length_c   8.35646152
_cell_angle_alpha   110.74963364
_cell_angle_beta   110.84474558
_cell_angle_gamma   106.85066089
_symmetry_Int_Tables_number   1
_chemical_formula_structural   Gd8Ho4Co4SnRh
_chemical_formula_sum   'Gd8 Ho4 Co4 Sn1 Rh1'
_cell_volume   448.50473725
_cell_formula_units_Z   1
loop_
 _symmetry_equiv_pos_site_id
 _symmetry_equiv_pos_as_xyz
  1  'x, y, z'
loop_
 _atom_site_type_symbol
 _atom_site_label
 _atom_site_symmetry_multiplicity
 _atom_site_fract_x
 _atom_site_fract_y
 _atom_site_fract_z
 _atom_site_occupancy
  Gd  Gd0  1  0.188124  0.292802  0.480926  1
  Gd  Gd1  1  0.811876  0.707198  0.519074  1
  Gd  Gd2  1  0.188124  0.707198  0.895322  1
  Gd  Gd3  1  0.811876  0.292802  0.104678  1
  Gd  Gd4  1  0.311842  0.617985  0.306143  1
  Gd  Gd5  1  0.688158  0.382015  0.693857  1
  Gd  Gd6  1  0.311842  0.005699  0.693857  1
  Gd  Gd7  1  0.688158  0.994301  0.306143  1
  Ho  Ho8  1  0.403779  0.209558  0.194221  1
  Ho  Ho9  1  0.596221  0.790442  0.805779  1
  Ho  Ho10  1  0.015338  0.209558  0.805779  1
  Ho  Ho11  1  0.984662  0.790442  0.194221  1
  Co  Co12  1  0.378133  0.000000  0.378133  1
  Co  Co13  1  0.621867  0.000000  0.621867  1
  Co  Co14  1  0.112286  0.612286  0.500000  1
  Co  Co15  1  0.887714  0.387714  0.500000  1
  Sn  Sn16  1  0.500000  0.500000  0.000000  1
  Rh  Rh17  1  0.000000  0.000000  0.000000  1
