# generated using pymatgen
data_Dy8YLu(SiB4)4
_symmetry_space_group_name_H-M   'P 1'
_cell_length_a   7.21811300
_cell_length_b   7.21811300
_cell_length_c   8.06643000
_cell_angle_alpha   90.00000000
_cell_angle_beta   90.00000000
_cell_angle_gamma   90.00000000
_symmetry_Int_Tables_number   1
_chemical_formula_structural   Dy8YLu(SiB4)4
_chemical_formula_sum   'Dy8 Y1 Lu1 Si4 B16'
_cell_volume   420.27032199
_cell_formula_units_Z   1
loop_
 _symmetry_equiv_pos_site_id
 _symmetry_equiv_pos_as_xyz
  1  'x, y, z'
loop_
 _atom_site_type_symbol
 _atom_site_label
 _atom_site_symmetry_multiplicity
 _atom_site_fract_x
 _atom_site_fract_y
 _atom_site_fract_z
 _atom_site_occupancy
  Dy  Dy0  1  0.679705  0.180547  0.224418  1
  Dy  Dy1  1  0.320295  0.819453  0.775582  1
  Dy  Dy2  1  0.320295  0.819453  0.224418  1
  Dy  Dy3  1  0.819453  0.679705  0.224418  1
  Dy  Dy4  1  0.819453  0.679705  0.775582  1
  Dy  Dy5  1  0.679705  0.180547  0.775582  1
  Dy  Dy6  1  0.180547  0.320295  0.775582  1
  Dy  Dy7  1  0.180547  0.320295  0.224418  1
  Y  Y8  1  0.000000  0.000000  0.500000  1
  Lu  Lu9  1  0.500000  0.500000  0.500000  1
  Si  Si10  1  0.117289  0.613578  0.500000  1
  Si  Si11  1  0.882711  0.386422  0.500000  1
  Si  Si12  1  0.386422  0.117289  0.500000  1
  Si  Si13  1  0.613578  0.882711  0.500000  1
  B  B14  1  0.172615  0.039122  0.000000  1
  B  B15  1  0.827385  0.960878  0.000000  1
  B  B16  1  0.960878  0.172615  0.000000  1
  B  B17  1  0.327443  0.539077  0.000000  1
  B  B18  1  0.039122  0.827385  0.000000  1
  B  B19  1  0.672557  0.460923  0.000000  1
  B  B20  1  0.539077  0.672557  0.000000  1
  B  B21  1  0.460923  0.327443  0.000000  1
  B  B22  1  0.089705  0.589823  0.000000  1
  B  B23  1  0.910295  0.410177  0.000000  1
  B  B24  1  0.410177  0.089705  0.000000  1
  B  B25  1  0.589823  0.910295  0.000000  1
  B  B26  1  0.000000  0.000000  0.162222  1
  B  B27  1  0.000000  0.000000  0.837778  1
  B  B28  1  0.500000  0.500000  0.836705  1
  B  B29  1  0.500000  0.500000  0.163295  1
