# generated using pymatgen
data_HfZr3Mn2(Si2Pd)2
_symmetry_space_group_name_H-M   'P 1'
_cell_length_a   3.82689700
_cell_length_b   6.61034203
_cell_length_c   7.62326760
_cell_angle_alpha   90.23081176
_cell_angle_beta   90.00000000
_cell_angle_gamma   90.00000000
_symmetry_Int_Tables_number   1
_chemical_formula_structural   HfZr3Mn2(Si2Pd)2
_chemical_formula_sum   'Hf1 Zr3 Mn2 Si4 Pd2'
_cell_volume   192.84498335
_cell_formula_units_Z   1
loop_
 _symmetry_equiv_pos_site_id
 _symmetry_equiv_pos_as_xyz
  1  'x, y, z'
loop_
 _atom_site_type_symbol
 _atom_site_label
 _atom_site_symmetry_multiplicity
 _atom_site_fract_x
 _atom_site_fract_y
 _atom_site_fract_z
 _atom_site_occupancy
  Hf  Hf0  1  0.750000  0.973516  0.185017  1
  Zr  Zr1  1  0.250000  0.525905  0.676077  1
  Zr  Zr2  1  0.750000  0.473740  0.323707  1
  Zr  Zr3  1  0.250000  0.026405  0.816296  1
  Mn  Mn4  1  0.750000  0.860209  0.560172  1
  Mn  Mn5  1  0.250000  0.139607  0.436782  1
  Si  Si6  1  0.250000  0.261589  0.132547  1
  Si  Si7  1  0.750000  0.737039  0.868280  1
  Si  Si8  1  0.250000  0.776032  0.385106  1
  Si  Si9  1  0.750000  0.224175  0.613977  1
  Pd  Pd10  1  0.750000  0.351604  0.937375  1
  Pd  Pd11  1  0.250000  0.650179  0.064665  1
