# generated using pymatgen
data_Li3TbNd2AgSn4
_symmetry_space_group_name_H-M   'P 1'
_cell_length_a   8.81229512
_cell_length_b   8.82045555
_cell_length_c   8.82045551
_cell_angle_alpha   149.11156082
_cell_angle_beta   132.40067060
_cell_angle_gamma   57.83575023
_symmetry_Int_Tables_number   1
_chemical_formula_structural   Li3TbNd2AgSn4
_chemical_formula_sum   'Li3 Tb1 Nd2 Ag1 Sn4'
_cell_volume   257.96015149
_cell_formula_units_Z   1
loop_
 _symmetry_equiv_pos_site_id
 _symmetry_equiv_pos_as_xyz
  1  'x, y, z'
loop_
 _atom_site_type_symbol
 _atom_site_label
 _atom_site_symmetry_multiplicity
 _atom_site_fract_x
 _atom_site_fract_y
 _atom_site_fract_z
 _atom_site_occupancy
  Li  Li0  1  0.481434  0.672646  0.808790  1
  Li  Li1  1  0.859863  0.671445  0.188418  1
  Li  Li2  1  0.140387  0.330382  0.810004  1
  Tb  Tb3  1  0.498591  0.998160  0.500431  1
  Nd  Nd4  1  0.871050  0.869845  0.001205  1
  Nd  Nd5  1  0.133812  0.130221  0.003591  1
  Ag  Ag6  1  0.519063  0.327397  0.191665  1
  Sn  Sn7  1  0.275983  0.787338  0.488645  1
  Sn  Sn8  1  0.713855  0.209339  0.504516  1
  Sn  Sn9  1  0.801668  0.502197  0.299470  1
  Sn  Sn10  1  0.204295  0.501030  0.703266  1
