# generated using pymatgen
data_Lu3MgCd2Ga3
_symmetry_space_group_name_H-M   'P 1'
_cell_length_a   7.15113948
_cell_length_b   7.15113969
_cell_length_c   4.36169400
_cell_angle_alpha   90.00000000
_cell_angle_beta   90.00000000
_cell_angle_gamma   119.93135212
_symmetry_Int_Tables_number   1
_chemical_formula_structural   Lu3MgCd2Ga3
_chemical_formula_sum   'Lu3 Mg1 Cd2 Ga3'
_cell_volume   193.30199660
_cell_formula_units_Z   1
loop_
 _symmetry_equiv_pos_site_id
 _symmetry_equiv_pos_as_xyz
  1  'x, y, z'
loop_
 _atom_site_type_symbol
 _atom_site_label
 _atom_site_symmetry_multiplicity
 _atom_site_fract_x
 _atom_site_fract_y
 _atom_site_fract_z
 _atom_site_occupancy
  Lu  Lu0  1  0.573020  0.001052  0.000000  1
  Lu  Lu1  1  0.001052  0.573020  0.000000  1
  Lu  Lu2  1  0.425541  0.425541  0.000000  1
  Mg  Mg3  1  0.758131  0.758131  0.500000  1
  Cd  Cd4  1  0.247722  0.998146  0.500000  1
  Cd  Cd5  1  0.998146  0.247722  0.500000  1
  Ga  Ga6  1  0.337127  0.665261  0.500000  1
  Ga  Ga7  1  0.665261  0.337127  0.500000  1
  Ga  Ga8  1  0.993998  0.993998  0.000000  1
