# generated using pymatgen
data_La2Tb3DyTa2O14
_symmetry_space_group_name_H-M   'P 1'
_cell_length_a   6.55843079
_cell_length_b   6.55922136
_cell_length_c   7.64694700
_cell_angle_alpha   90.00000000
_cell_angle_beta   90.00000000
_cell_angle_gamma   109.91007694
_symmetry_Int_Tables_number   1
_chemical_formula_structural   La2Tb3DyTa2O14
_chemical_formula_sum   'La2 Tb3 Dy1 Ta2 O14'
_cell_volume   309.29550068
_cell_formula_units_Z   1
loop_
 _symmetry_equiv_pos_site_id
 _symmetry_equiv_pos_as_xyz
  1  'x, y, z'
loop_
 _atom_site_type_symbol
 _atom_site_label
 _atom_site_symmetry_multiplicity
 _atom_site_fract_x
 _atom_site_fract_y
 _atom_site_fract_z
 _atom_site_occupancy
  La  La0  1  0.999978  0.999912  0.999864  1
  La  La1  1  0.999978  0.999912  0.500136  1
  Tb  Tb2  1  0.515282  0.054286  0.250000  1
  Tb  Tb3  1  0.945724  0.484752  0.750000  1
  Tb  Tb4  1  0.054392  0.515319  0.250000  1
  Dy  Dy5  1  0.484933  0.947125  0.750000  1
  Ta  Ta6  1  0.499917  0.500058  0.999807  1
  Ta  Ta7  1  0.499917  0.500058  0.500193  1
  O  O8  1  0.880674  0.159037  0.250000  1
  O  O9  1  0.839365  0.118668  0.750000  1
  O  O10  1  0.817944  0.558464  0.033989  1
  O  O11  1  0.817944  0.558464  0.466011  1
  O  O12  1  0.441810  0.181844  0.965322  1
  O  O13  1  0.441810  0.181844  0.534678  1
  O  O14  1  0.574272  0.574318  0.750000  1
  O  O15  1  0.425862  0.425701  0.250000  1
  O  O16  1  0.558134  0.817988  0.033271  1
  O  O17  1  0.181908  0.441289  0.533990  1
  O  O18  1  0.558134  0.817988  0.466729  1
  O  O19  1  0.181908  0.441289  0.966010  1
  O  O20  1  0.121121  0.841057  0.750000  1
  O  O21  1  0.158993  0.880626  0.250000  1
