# generated using pymatgen
data_Dy3Er5(InRu)2
_symmetry_space_group_name_H-M   'P 1'
_cell_length_a   9.58841751
_cell_length_b   9.58841762
_cell_length_c   9.58841900
_cell_angle_alpha   59.99999870
_cell_angle_beta   59.99999830
_cell_angle_gamma   59.99999727
_symmetry_Int_Tables_number   1
_chemical_formula_structural   Dy3Er5(InRu)2
_chemical_formula_sum   'Dy6 Er10 In4 Ru4'
_cell_volume   623.34124594
_cell_formula_units_Z   2
loop_
 _symmetry_equiv_pos_site_id
 _symmetry_equiv_pos_as_xyz
  1  'x, y, z'
loop_
 _atom_site_type_symbol
 _atom_site_label
 _atom_site_symmetry_multiplicity
 _atom_site_fract_x
 _atom_site_fract_y
 _atom_site_fract_z
 _atom_site_occupancy
  Dy  Dy0  1  0.191945  0.808055  0.808055  1
  Dy  Dy1  1  0.808055  0.191945  0.191945  1
  Dy  Dy2  1  0.808055  0.191945  0.808055  1
  Dy  Dy3  1  0.191945  0.808055  0.191945  1
  Dy  Dy4  1  0.808055  0.808055  0.191945  1
  Dy  Dy5  1  0.191945  0.191945  0.808055  1
  Er  Er6  1  0.598129  0.598129  0.598129  1
  Er  Er7  1  0.598129  0.598129  0.205614  1
  Er  Er8  1  0.598129  0.205614  0.598129  1
  Er  Er9  1  0.205614  0.598129  0.598129  1
  Er  Er10  1  0.059858  0.440142  0.440142  1
  Er  Er11  1  0.440142  0.059858  0.059858  1
  Er  Er12  1  0.440142  0.059858  0.440142  1
  Er  Er13  1  0.059858  0.440142  0.059858  1
  Er  Er14  1  0.440142  0.440142  0.059858  1
  Er  Er15  1  0.059858  0.059858  0.440142  1
  In  In16  1  0.832214  0.832214  0.832214  1
  In  In17  1  0.832214  0.832214  0.503357  1
  In  In18  1  0.832214  0.503357  0.832214  1
  In  In19  1  0.503357  0.832214  0.832214  1
  Ru  Ru20  1  0.389980  0.389980  0.389980  1
  Ru  Ru21  1  0.389980  0.389980  0.830060  1
  Ru  Ru22  1  0.389980  0.830060  0.389980  1
  Ru  Ru23  1  0.830060  0.389980  0.389980  1
