# generated using pymatgen
data_Lu4ScBi3
_symmetry_space_group_name_H-M   'P 1'
_cell_length_a   8.01851300
_cell_length_b   9.32323100
_cell_length_c   11.72594100
_cell_angle_alpha   90.00000000
_cell_angle_beta   90.00000000
_cell_angle_gamma   90.00000000
_symmetry_Int_Tables_number   1
_chemical_formula_structural   Lu4ScBi3
_chemical_formula_sum   'Lu16 Sc4 Bi12'
_cell_volume   876.61316194
_cell_formula_units_Z   4
loop_
 _symmetry_equiv_pos_site_id
 _symmetry_equiv_pos_as_xyz
  1  'x, y, z'
loop_
 _atom_site_type_symbol
 _atom_site_label
 _atom_site_symmetry_multiplicity
 _atom_site_fract_x
 _atom_site_fract_y
 _atom_site_fract_z
 _atom_site_occupancy
  Lu  Lu0  1  0.355227  0.250000  0.282690  1
  Lu  Lu1  1  0.644773  0.750000  0.717310  1
  Lu  Lu2  1  0.144773  0.750000  0.782690  1
  Lu  Lu3  1  0.855227  0.250000  0.217310  1
  Lu  Lu4  1  0.187032  0.250000  0.781470  1
  Lu  Lu5  1  0.812968  0.750000  0.218530  1
  Lu  Lu6  1  0.312968  0.750000  0.281470  1
  Lu  Lu7  1  0.687032  0.250000  0.718530  1
  Lu  Lu8  1  0.196412  0.067079  0.058820  1
  Lu  Lu9  1  0.803588  0.932921  0.941180  1
  Lu  Lu10  1  0.303588  0.932921  0.558820  1
  Lu  Lu11  1  0.803588  0.567079  0.941180  1
  Lu  Lu12  1  0.696412  0.067079  0.441180  1
  Lu  Lu13  1  0.196412  0.432921  0.058820  1
  Lu  Lu14  1  0.696412  0.432921  0.441180  1
  Lu  Lu15  1  0.303588  0.567079  0.558820  1
  Sc  Sc16  1  0.023768  0.250000  0.511398  1
  Sc  Sc17  1  0.976232  0.750000  0.488602  1
  Sc  Sc18  1  0.476232  0.750000  0.011398  1
  Sc  Sc19  1  0.523768  0.250000  0.988602  1
  Bi  Bi20  1  0.401221  0.250000  0.543192  1
  Bi  Bi21  1  0.598779  0.750000  0.456808  1
  Bi  Bi22  1  0.098779  0.750000  0.043192  1
  Bi  Bi23  1  0.901221  0.250000  0.956808  1
  Bi  Bi24  1  0.065944  0.003596  0.328728  1
  Bi  Bi25  1  0.934056  0.996404  0.671272  1
  Bi  Bi26  1  0.434056  0.996404  0.828728  1
  Bi  Bi27  1  0.934056  0.503596  0.671272  1
  Bi  Bi28  1  0.565944  0.003596  0.171272  1
  Bi  Bi29  1  0.065944  0.496404  0.328728  1
  Bi  Bi30  1  0.565944  0.496404  0.171272  1
  Bi  Bi31  1  0.434056  0.503596  0.828728  1
