# generated using pymatgen
data_Ho4Er15LuBi12
_symmetry_space_group_name_H-M   'P 1'
_cell_length_a   8.20336441
_cell_length_b   9.45382000
_cell_length_c   11.97792000
_cell_angle_alpha   90.00000000
_cell_angle_beta   90.04388314
_cell_angle_gamma   90.00000000
_symmetry_Int_Tables_number   1
_chemical_formula_structural   Ho4Er15LuBi12
_chemical_formula_sum   'Ho4 Er15 Lu1 Bi12'
_cell_volume   928.92492030
_cell_formula_units_Z   1
loop_
 _symmetry_equiv_pos_site_id
 _symmetry_equiv_pos_as_xyz
  1  'x, y, z'
loop_
 _atom_site_type_symbol
 _atom_site_label
 _atom_site_symmetry_multiplicity
 _atom_site_fract_x
 _atom_site_fract_y
 _atom_site_fract_z
 _atom_site_occupancy
  Ho  Ho0  1  0.313907  0.250000  0.217640  1
  Ho  Ho1  1  0.813934  0.250000  0.282227  1
  Ho  Ho2  1  0.686060  0.750000  0.782708  1
  Ho  Ho3  1  0.185874  0.750000  0.717881  1
  Er  Er4  1  0.352963  0.750000  0.217259  1
  Er  Er5  1  0.852963  0.750000  0.282613  1
  Er  Er6  1  0.647132  0.250000  0.782932  1
  Er  Er7  1  0.146942  0.250000  0.717048  1
  Er  Er8  1  0.692581  0.565346  0.059574  1
  Er  Er9  1  0.192008  0.934882  0.440243  1
  Er  Er10  1  0.307830  0.065241  0.940315  1
  Er  Er11  1  0.807939  0.434822  0.559713  1
  Er  Er12  1  0.307830  0.434759  0.940315  1
  Er  Er13  1  0.807939  0.065178  0.559713  1
  Er  Er14  1  0.692581  0.934654  0.059574  1
  Er  Er15  1  0.192008  0.565118  0.440243  1
  Er  Er16  1  0.475882  0.250000  0.488377  1
  Er  Er17  1  0.976008  0.250000  0.011505  1
  Er  Er18  1  0.524026  0.750000  0.511416  1
  Lu  Lu19  1  0.023470  0.750000  0.988870  1
  Bi  Bi20  1  0.404036  0.750000  0.958607  1
  Bi  Bi21  1  0.905092  0.750000  0.541485  1
  Bi  Bi22  1  0.594790  0.250000  0.041437  1
  Bi  Bi23  1  0.094745  0.250000  0.458424  1
  Bi  Bi24  1  0.566358  0.995229  0.326169  1
  Bi  Bi25  1  0.066389  0.505197  0.173333  1
  Bi  Bi26  1  0.433717  0.495253  0.673794  1
  Bi  Bi27  1  0.934269  0.004069  0.826644  1
  Bi  Bi28  1  0.433717  0.004747  0.673794  1
  Bi  Bi29  1  0.934269  0.495931  0.826644  1
  Bi  Bi30  1  0.566358  0.504771  0.326169  1
  Bi  Bi31  1  0.066389  0.994803  0.173333  1
