# generated using pymatgen
data_Tb(Ta2N3)2
_symmetry_space_group_name_H-M   'P 1'
_cell_length_a   5.32114900
_cell_length_b   5.32114907
_cell_length_c   10.80629400
_cell_angle_alpha   90.00000000
_cell_angle_beta   90.00000000
_cell_angle_gamma   120.00000580
_symmetry_Int_Tables_number   1
_chemical_formula_structural   Tb(Ta2N3)2
_chemical_formula_sum   'Tb2 Ta8 N12'
_cell_volume   264.98313303
_cell_formula_units_Z   2
loop_
 _symmetry_equiv_pos_site_id
 _symmetry_equiv_pos_as_xyz
  1  'x, y, z'
loop_
 _atom_site_type_symbol
 _atom_site_label
 _atom_site_symmetry_multiplicity
 _atom_site_fract_x
 _atom_site_fract_y
 _atom_site_fract_z
 _atom_site_occupancy
  Tb  Tb0  1  0.666667  0.333333  0.000000  1
  Tb  Tb1  1  0.333333  0.666667  0.000000  1
  Ta  Ta2  1  0.679687  0.679687  0.738100  1
  Ta  Ta3  1  0.320313  0.000000  0.738100  1
  Ta  Ta4  1  0.000000  0.320313  0.738100  1
  Ta  Ta5  1  0.320313  0.320313  0.261900  1
  Ta  Ta6  1  0.679687  0.000000  0.261900  1
  Ta  Ta7  1  0.000000  0.679687  0.261900  1
  Ta  Ta8  1  0.333333  0.666667  0.500000  1
  Ta  Ta9  1  0.666667  0.333333  0.500000  1
  N  N10  1  0.658227  0.658227  0.386497  1
  N  N11  1  0.341773  0.000000  0.386497  1
  N  N12  1  0.000000  0.341773  0.386497  1
  N  N13  1  0.341773  0.341773  0.613503  1
  N  N14  1  0.658227  0.000000  0.613503  1
  N  N15  1  0.000000  0.658227  0.613503  1
  N  N16  1  0.342204  0.342204  0.852716  1
  N  N17  1  0.657796  0.000000  0.852716  1
  N  N18  1  0.000000  0.657796  0.852716  1
  N  N19  1  0.657796  0.657796  0.147284  1
  N  N20  1  0.342204  0.000000  0.147284  1
  N  N21  1  0.000000  0.342204  0.147284  1
