# generated using pymatgen
data_Hg4PdPt(RhO7)2
_symmetry_space_group_name_H-M   'P 1'
_cell_length_a   7.32206933
_cell_length_b   7.28590663
_cell_length_c   7.30843430
_cell_angle_alpha   59.77689058
_cell_angle_beta   59.93825312
_cell_angle_gamma   59.83567363
_symmetry_Int_Tables_number   1
_chemical_formula_structural   Hg4PdPt(RhO7)2
_chemical_formula_sum   'Hg4 Pd1 Pt1 Rh2 O14'
_cell_volume   274.75576908
_cell_formula_units_Z   1
loop_
 _symmetry_equiv_pos_site_id
 _symmetry_equiv_pos_as_xyz
  1  'x, y, z'
loop_
 _atom_site_type_symbol
 _atom_site_label
 _atom_site_symmetry_multiplicity
 _atom_site_fract_x
 _atom_site_fract_y
 _atom_site_fract_z
 _atom_site_occupancy
  Hg  Hg0  1  0.125000  0.125000  0.125000  1
  Hg  Hg1  1  0.625000  0.125000  0.125000  1
  Hg  Hg2  1  0.125000  0.625000  0.125000  1
  Hg  Hg3  1  0.125000  0.125000  0.625000  1
  Pd  Pd4  1  0.625000  0.125000  0.625000  1
  Pt  Pt5  1  0.625000  0.625000  0.125000  1
  Rh  Rh6  1  0.625000  0.625000  0.625000  1
  Rh  Rh7  1  0.125000  0.625000  0.625000  1
  O  O8  1  0.706671  0.295035  0.291622  1
  O  O9  1  0.702154  0.301960  0.700933  1
  O  O10  1  0.005198  0.994639  0.994965  1
  O  O11  1  0.298443  0.699832  0.299272  1
  O  O12  1  0.702453  0.699832  0.299272  1
  O  O13  1  0.944901  0.555577  0.554621  1
  O  O14  1  0.305099  0.694423  0.695379  1
  O  O15  1  0.244802  0.255361  0.255035  1
  O  O16  1  0.951557  0.550168  0.950728  1
  O  O17  1  0.547846  0.948040  0.549067  1
  O  O18  1  0.547547  0.550168  0.950728  1
  O  O19  1  0.955047  0.948040  0.549067  1
  O  O20  1  0.543329  0.954965  0.958378  1
  O  O21  1  0.294953  0.301960  0.700933  1
