# generated using pymatgen
data_Er3ScO6
_symmetry_space_group_name_H-M   'P 1'
_cell_length_a   6.54668365
_cell_length_b   6.54668368
_cell_length_c   6.54668426
_cell_angle_alpha   91.97706279
_cell_angle_beta   91.97706965
_cell_angle_gamma   91.97706878
_symmetry_Int_Tables_number   1
_chemical_formula_structural   Er3ScO6
_chemical_formula_sum   'Er6 Sc2 O12'
_cell_volume   280.07185504
_cell_formula_units_Z   2
loop_
 _symmetry_equiv_pos_site_id
 _symmetry_equiv_pos_as_xyz
  1  'x, y, z'
loop_
 _atom_site_type_symbol
 _atom_site_label
 _atom_site_symmetry_multiplicity
 _atom_site_fract_x
 _atom_site_fract_y
 _atom_site_fract_z
 _atom_site_occupancy
  Er  Er0  1  0.747197  0.931742  0.439388  1
  Er  Er1  1  0.931742  0.439388  0.747197  1
  Er  Er2  1  0.439388  0.747197  0.931742  1
  Er  Er3  1  0.252803  0.068258  0.560612  1
  Er  Er4  1  0.068258  0.560612  0.252803  1
  Er  Er5  1  0.560612  0.252803  0.068258  1
  Sc  Sc6  1  0.500000  0.500000  0.500000  1
  Sc  Sc7  1  0.000000  0.000000  0.000000  1
  O  O8  1  0.593924  0.463408  0.808031  1
  O  O9  1  0.463408  0.808031  0.593924  1
  O  O10  1  0.808031  0.593924  0.463408  1
  O  O11  1  0.406076  0.536592  0.191969  1
  O  O12  1  0.536592  0.191969  0.406076  1
  O  O13  1  0.191969  0.406076  0.536592  1
  O  O14  1  0.069646  0.913480  0.307972  1
  O  O15  1  0.913480  0.307972  0.069646  1
  O  O16  1  0.692028  0.930354  0.086520  1
  O  O17  1  0.086520  0.692028  0.930354  1
  O  O18  1  0.930354  0.086520  0.692028  1
  O  O19  1  0.307972  0.069646  0.913480  1
