# generated using pymatgen
data_YbYNiPt3
_symmetry_space_group_name_H-M   'P 1'
_cell_length_a   5.21685974
_cell_length_b   5.21685868
_cell_length_c   5.21685984
_cell_angle_alpha   62.88838461
_cell_angle_beta   62.88838745
_cell_angle_gamma   62.88837894
_symmetry_Int_Tables_number   1
_chemical_formula_structural   YbYNiPt3
_chemical_formula_sum   'Yb1 Y1 Ni1 Pt3'
_cell_volume   106.83831780
_cell_formula_units_Z   1
loop_
 _symmetry_equiv_pos_site_id
 _symmetry_equiv_pos_as_xyz
  1  'x, y, z'
loop_
 _atom_site_type_symbol
 _atom_site_label
 _atom_site_symmetry_multiplicity
 _atom_site_fract_x
 _atom_site_fract_y
 _atom_site_fract_z
 _atom_site_occupancy
  Yb  Yb0  1  0.252572  0.252572  0.252572  1
  Y  Y1  1  0.999424  0.999424  0.999424  1
  Ni  Ni2  1  0.624023  0.624023  0.624023  1
  Pt  Pt3  1  0.624288  0.624288  0.125406  1
  Pt  Pt4  1  0.624288  0.125406  0.624288  1
  Pt  Pt5  1  0.125406  0.624288  0.624288  1
