# generated using pymatgen
data_La3Ce(HoIn5)2
_symmetry_space_group_name_H-M   'P 1'
_cell_length_a   6.63159833
_cell_length_b   6.63159866
_cell_length_c   10.49215700
_cell_angle_alpha   90.23615271
_cell_angle_beta   90.23615272
_cell_angle_gamma   102.48697824
_symmetry_Int_Tables_number   1
_chemical_formula_structural   La3Ce(HoIn5)2
_chemical_formula_sum   'La3 Ce1 Ho2 In10'
_cell_volume   450.50041912
_cell_formula_units_Z   1
loop_
 _symmetry_equiv_pos_site_id
 _symmetry_equiv_pos_as_xyz
  1  'x, y, z'
loop_
 _atom_site_type_symbol
 _atom_site_label
 _atom_site_symmetry_multiplicity
 _atom_site_fract_x
 _atom_site_fract_y
 _atom_site_fract_z
 _atom_site_occupancy
  La  La0  1  0.205159  0.794841  0.500000  1
  La  La1  1  0.207226  0.792774  0.000000  1
  La  La2  1  0.794542  0.205458  0.500000  1
  Ce  Ce3  1  0.791480  0.208520  0.000000  1
  Ho  Ho4  1  0.630492  0.628691  0.249937  1
  Ho  Ho5  1  0.371309  0.369508  0.750063  1
  In  In6  1  0.005402  0.009464  0.245134  1
  In  In7  1  0.990536  0.994598  0.754866  1
  In  In8  1  0.308468  0.307815  0.046710  1
  In  In9  1  0.692185  0.691532  0.953290  1
  In  In10  1  0.310795  0.310704  0.450877  1
  In  In11  1  0.689296  0.689205  0.549123  1
  In  In12  1  0.496660  0.069252  0.246381  1
  In  In13  1  0.930748  0.503340  0.753619  1
  In  In14  1  0.510905  0.935202  0.752752  1
  In  In15  1  0.064798  0.489095  0.247248  1
