# generated using pymatgen
data_AcTb(GeAu)2
_symmetry_space_group_name_H-M   'P 1'
_cell_length_a   4.54060800
_cell_length_b   4.54060811
_cell_length_c   8.00621600
_cell_angle_alpha   90.00000000
_cell_angle_beta   90.00000000
_cell_angle_gamma   119.99999922
_symmetry_Int_Tables_number   1
_chemical_formula_structural   AcTb(GeAu)2
_chemical_formula_sum   'Ac1 Tb1 Ge2 Au2'
_cell_volume   142.95059524
_cell_formula_units_Z   1
loop_
 _symmetry_equiv_pos_site_id
 _symmetry_equiv_pos_as_xyz
  1  'x, y, z'
loop_
 _atom_site_type_symbol
 _atom_site_label
 _atom_site_symmetry_multiplicity
 _atom_site_fract_x
 _atom_site_fract_y
 _atom_site_fract_z
 _atom_site_occupancy
  Ac  Ac0  1  0.000000  0.000000  0.752630  1
  Tb  Tb1  1  0.000000  0.000000  0.248368  1
  Ge  Ge2  1  0.666667  0.333333  0.988911  1
  Ge  Ge3  1  0.333333  0.666667  0.449849  1
  Au  Au4  1  0.666667  0.333333  0.484899  1
  Au  Au5  1  0.333333  0.666667  0.055344  1
