# generated using pymatgen
data_DyHf7(Ta3Si4)4
_symmetry_space_group_name_H-M   'P 1'
_cell_length_a   6.86835699
_cell_length_b   6.86521248
_cell_length_c   12.72809736
_cell_angle_alpha   89.99092104
_cell_angle_beta   89.93319124
_cell_angle_gamma   89.94839592
_symmetry_Int_Tables_number   1
_chemical_formula_structural   DyHf7(Ta3Si4)4
_chemical_formula_sum   'Dy1 Hf7 Ta12 Si16'
_cell_volume   600.16388152
_cell_formula_units_Z   1
loop_
 _symmetry_equiv_pos_site_id
 _symmetry_equiv_pos_as_xyz
  1  'x, y, z'
loop_
 _atom_site_type_symbol
 _atom_site_label
 _atom_site_symmetry_multiplicity
 _atom_site_fract_x
 _atom_site_fract_y
 _atom_site_fract_z
 _atom_site_occupancy
  Dy  Dy0  1  0.339226  0.003727  0.469279  1
  Hf  Hf1  1  0.999861  0.660175  0.029840  1
  Hf  Hf2  1  0.996197  0.344583  0.531548  1
  Hf  Hf3  1  0.660187  0.000187  0.970105  1
  Hf  Hf4  1  0.159442  0.499615  0.781383  1
  Hf  Hf5  1  0.839070  0.501253  0.278167  1
  Hf  Hf6  1  0.498855  0.159340  0.218416  1
  Hf  Hf7  1  0.501348  0.839143  0.720363  1
  Ta  Ta8  1  0.348138  0.502827  0.375195  1
  Ta  Ta9  1  0.847553  0.994775  0.372608  1
  Ta  Ta10  1  0.002826  0.152238  0.124561  1
  Ta  Ta11  1  0.997020  0.844983  0.628755  1
  Ta  Ta12  1  0.506931  0.347661  0.626109  1
  Ta  Ta13  1  0.151898  0.003832  0.875015  1
  Ta  Ta14  1  0.672577  0.667719  0.500078  1
  Ta  Ta15  1  0.830112  0.169825  0.751014  1
  Ta  Ta16  1  0.168585  0.829138  0.248402  1
  Ta  Ta17  1  0.329922  0.329777  0.999719  1
  Ta  Ta18  1  0.496383  0.651481  0.122639  1
  Ta  Ta19  1  0.651640  0.496590  0.877168  1
  Si  Si20  1  0.043460  0.698556  0.436151  1
  Si  Si21  1  0.955559  0.300247  0.936443  1
  Si  Si22  1  0.705698  0.043714  0.564363  1
  Si  Si23  1  0.199750  0.456544  0.185383  1
  Si  Si24  1  0.799191  0.545300  0.687710  1
  Si  Si25  1  0.456112  0.199640  0.814358  1
  Si  Si26  1  0.545730  0.797203  0.311894  1
  Si  Si27  1  0.299426  0.955056  0.063434  1
  Si  Si28  1  0.792417  0.863397  0.176030  1
  Si  Si29  1  0.293248  0.632551  0.573671  1
  Si  Si30  1  0.707425  0.363266  0.073149  1
  Si  Si31  1  0.640287  0.295660  0.427445  1
  Si  Si32  1  0.363207  0.707973  0.926639  1
  Si  Si33  1  0.131924  0.211061  0.319692  1
  Si  Si34  1  0.205525  0.138222  0.679535  1
  Si  Si35  1  0.863271  0.792739  0.823736  1
