# generated using pymatgen
data_Ti7MoP4
_symmetry_space_group_name_H-M   'P 1'
_cell_length_a   6.50712914
_cell_length_b   3.39861100
_cell_length_c   7.98078516
_cell_angle_alpha   90.00000000
_cell_angle_beta   90.02320725
_cell_angle_gamma   90.00000000
_symmetry_Int_Tables_number   1
_chemical_formula_structural   Ti7MoP4
_chemical_formula_sum   'Ti7 Mo1 P4'
_cell_volume   176.49665077
_cell_formula_units_Z   1
loop_
 _symmetry_equiv_pos_site_id
 _symmetry_equiv_pos_as_xyz
  1  'x, y, z'
loop_
 _atom_site_type_symbol
 _atom_site_label
 _atom_site_symmetry_multiplicity
 _atom_site_fract_x
 _atom_site_fract_y
 _atom_site_fract_z
 _atom_site_occupancy
  Ti  Ti0  1  0.458488  0.749999  0.169518  1
  Ti  Ti1  1  0.962252  0.749999  0.331280  1
  Ti  Ti2  1  0.638122  0.250001  0.436590  1
  Ti  Ti3  1  0.361333  0.749999  0.562890  1
  Ti  Ti4  1  0.037319  0.250001  0.670513  1
  Ti  Ti5  1  0.537663  0.250001  0.831026  1
  Ti  Ti6  1  0.863052  0.749999  0.938723  1
  Mo  Mo7  1  0.142051  0.250001  0.060445  1
  P  P8  1  0.754518  0.250001  0.141290  1
  P  P9  1  0.252841  0.250001  0.362074  1
  P  P10  1  0.746258  0.749999  0.639404  1
  P  P11  1  0.246103  0.749999  0.856249  1
