# generated using pymatgen
data_LiPr6Cd22Si
_symmetry_space_group_name_H-M   'P 1'
_cell_length_a   10.09929386
_cell_length_b   10.09929397
_cell_length_c   10.09929500
_cell_angle_alpha   59.99999989
_cell_angle_beta   59.99999953
_cell_angle_gamma   60.00000005
_symmetry_Int_Tables_number   1
_chemical_formula_structural   LiPr6Cd22Si
_chemical_formula_sum   'Li1 Pr6 Cd22 Si1'
_cell_volume   728.38011555
_cell_formula_units_Z   1
loop_
 _symmetry_equiv_pos_site_id
 _symmetry_equiv_pos_as_xyz
  1  'x, y, z'
loop_
 _atom_site_type_symbol
 _atom_site_label
 _atom_site_symmetry_multiplicity
 _atom_site_fract_x
 _atom_site_fract_y
 _atom_site_fract_z
 _atom_site_occupancy
  Li  Li0  1  0.500000  0.500000  0.500000  1
  Pr  Pr1  1  0.793770  0.793770  0.206230  1
  Pr  Pr2  1  0.206230  0.793770  0.206230  1
  Pr  Pr3  1  0.793770  0.206230  0.206230  1
  Pr  Pr4  1  0.206230  0.206230  0.793770  1
  Pr  Pr5  1  0.793770  0.206230  0.793770  1
  Pr  Pr6  1  0.206230  0.793770  0.793770  1
  Cd  Cd7  1  0.832292  0.832292  0.503124  1
  Cd  Cd8  1  0.832292  0.503124  0.832292  1
  Cd  Cd9  1  0.503124  0.832292  0.832292  1
  Cd  Cd10  1  0.832292  0.832292  0.832292  1
  Cd  Cd11  1  0.167708  0.167708  0.496876  1
  Cd  Cd12  1  0.167708  0.496876  0.167708  1
  Cd  Cd13  1  0.496876  0.167708  0.167708  1
  Cd  Cd14  1  0.167708  0.167708  0.167708  1
  Cd  Cd15  1  0.618036  0.618036  0.145891  1
  Cd  Cd16  1  0.618036  0.145891  0.618036  1
  Cd  Cd17  1  0.145891  0.618036  0.618036  1
  Cd  Cd18  1  0.618036  0.618036  0.618036  1
  Cd  Cd19  1  0.381964  0.381964  0.854109  1
  Cd  Cd20  1  0.381964  0.854109  0.381964  1
  Cd  Cd21  1  0.854109  0.381964  0.381964  1
  Cd  Cd22  1  0.381964  0.381964  0.381964  1
  Cd  Cd23  1  0.000000  0.000000  0.500000  1
  Cd  Cd24  1  0.500000  0.000000  0.500000  1
  Cd  Cd25  1  0.000000  0.500000  0.500000  1
  Cd  Cd26  1  0.500000  0.500000  0.000000  1
  Cd  Cd27  1  0.000000  0.500000  0.000000  1
  Cd  Cd28  1  0.500000  0.000000  0.000000  1
  Si  Si29  1  0.000000  0.000000  0.000000  1
