# generated using pymatgen
data_PrTh3(Al3Rh)6
_symmetry_space_group_name_H-M   'P 1'
_cell_length_a   7.66743120
_cell_length_b   7.66506265
_cell_length_c   9.57202500
_cell_angle_alpha   90.00000000
_cell_angle_beta   90.00000000
_cell_angle_gamma   119.44999109
_symmetry_Int_Tables_number   1
_chemical_formula_structural   PrTh3(Al3Rh)6
_chemical_formula_sum   'Pr1 Th3 Al18 Rh6'
_cell_volume   489.86954519
_cell_formula_units_Z   1
loop_
 _symmetry_equiv_pos_site_id
 _symmetry_equiv_pos_as_xyz
  1  'x, y, z'
loop_
 _atom_site_type_symbol
 _atom_site_label
 _atom_site_symmetry_multiplicity
 _atom_site_fract_x
 _atom_site_fract_y
 _atom_site_fract_z
 _atom_site_occupancy
  Pr  Pr0  1  0.329673  0.005482  0.250000  1
  Th  Th1  1  0.994981  0.670838  0.750000  1
  Th  Th2  1  0.004961  0.329624  0.250000  1
  Th  Th3  1  0.670262  0.994781  0.750000  1
  Al  Al4  1  0.133022  0.132602  0.750000  1
  Al  Al5  1  0.869030  0.869006  0.250000  1
  Al  Al6  1  0.004491  0.335231  0.573596  1
  Al  Al7  1  0.997723  0.666789  0.425514  1
  Al  Al8  1  0.997723  0.666789  0.074486  1
  Al  Al9  1  0.335036  0.004217  0.928179  1
  Al  Al10  1  0.004491  0.335231  0.926404  1
  Al  Al11  1  0.663041  0.995686  0.074488  1
  Al  Al12  1  0.663041  0.995686  0.425512  1
  Al  Al13  1  0.335036  0.004217  0.571821  1
  Al  Al14  1  0.336222  0.334708  0.047784  1
  Al  Al15  1  0.663669  0.663718  0.953912  1
  Al  Al16  1  0.663669  0.663718  0.546088  1
  Al  Al17  1  0.336222  0.334708  0.452216  1
  Al  Al18  1  0.339907  0.544538  0.750000  1
  Al  Al19  1  0.659655  0.453122  0.250000  1
  Al  Al20  1  0.544339  0.339658  0.750000  1
  Al  Al21  1  0.453933  0.659857  0.250000  1
  Rh  Rh22  1  0.673989  0.329220  0.501597  1
  Rh  Rh23  1  0.327882  0.671006  0.501646  1
  Rh  Rh24  1  0.327882  0.671006  0.998354  1
  Rh  Rh25  1  0.673989  0.329220  0.998403  1
  Rh  Rh26  1  0.998064  0.999671  0.501792  1
  Rh  Rh27  1  0.998064  0.999671  0.998208  1
