# generated using pymatgen
data_Yb3Dy(OsO4)4
_symmetry_space_group_name_H-M   'P 1'
_cell_length_a   5.32897178
_cell_length_b   7.49908670
_cell_length_c   7.85310627
_cell_angle_alpha   76.72803728
_cell_angle_beta   89.86746461
_cell_angle_gamma   89.84987753
_symmetry_Int_Tables_number   1
_chemical_formula_structural   Yb3Dy(OsO4)4
_chemical_formula_sum   'Yb3 Dy1 Os4 O16'
_cell_volume   305.44566212
_cell_formula_units_Z   1
loop_
 _symmetry_equiv_pos_site_id
 _symmetry_equiv_pos_as_xyz
  1  'x, y, z'
loop_
 _atom_site_type_symbol
 _atom_site_label
 _atom_site_symmetry_multiplicity
 _atom_site_fract_x
 _atom_site_fract_y
 _atom_site_fract_z
 _atom_site_occupancy
  Yb  Yb0  1  0.707293  0.902088  0.382715  1
  Yb  Yb1  1  0.281268  0.100222  0.624025  1
  Yb  Yb2  1  0.784473  0.401829  0.367832  1
  Dy  Dy3  1  0.207893  0.602570  0.611623  1
  Os  Os4  1  0.758381  0.294496  0.829607  1
  Os  Os5  1  0.246216  0.703979  0.170414  1
  Os  Os6  1  0.257790  0.202771  0.173959  1
  Os  Os7  1  0.746890  0.796499  0.829911  1
  O  O8  1  0.994589  0.788580  0.003638  1
  O  O9  1  0.025112  0.213432  0.986782  1
  O  O10  1  0.364033  0.950799  0.181659  1
  O  O11  1  0.644659  0.048560  0.815386  1
  O  O12  1  0.143116  0.453406  0.176311  1
  O  O13  1  0.871196  0.547478  0.819996  1
  O  O14  1  0.526027  0.280637  0.016222  1
  O  O15  1  0.496581  0.713910  0.998122  1
  O  O16  1  0.987434  0.320392  0.629223  1
  O  O17  1  0.000559  0.688832  0.360447  1
  O  O18  1  0.487249  0.187661  0.367130  1
  O  O19  1  0.499600  0.806202  0.643199  1
  O  O20  1  0.477829  0.622277  0.356237  1
  O  O21  1  0.497901  0.376860  0.667909  1
  O  O22  1  0.006325  0.126441  0.339592  1
  O  O23  1  0.987586  0.870082  0.648062  1
