# generated using pymatgen
data_TbHo9(Hg2Pd)4
_symmetry_space_group_name_H-M   'P 1'
_cell_length_a   3.64340100
_cell_length_b   7.93969178
_cell_length_c   18.14949379
_cell_angle_alpha   90.05079919
_cell_angle_beta   90.00000000
_cell_angle_gamma   90.00000000
_symmetry_Int_Tables_number   1
_chemical_formula_structural   TbHo9(Hg2Pd)4
_chemical_formula_sum   'Tb1 Ho9 Hg8 Pd4'
_cell_volume   525.01892971
_cell_formula_units_Z   1
loop_
 _symmetry_equiv_pos_site_id
 _symmetry_equiv_pos_as_xyz
  1  'x, y, z'
loop_
 _atom_site_type_symbol
 _atom_site_label
 _atom_site_symmetry_multiplicity
 _atom_site_fract_x
 _atom_site_fract_y
 _atom_site_fract_z
 _atom_site_occupancy
  Tb  Tb0  1  0.000000  0.500000  0.500000  1
  Ho  Ho1  1  0.000000  0.000000  0.000000  1
  Ho  Ho2  1  0.000000  0.734979  0.284230  1
  Ho  Ho3  1  0.000000  0.265021  0.715770  1
  Ho  Ho4  1  0.000000  0.765014  0.784311  1
  Ho  Ho5  1  0.000000  0.234986  0.215689  1
  Ho  Ho6  1  0.000000  0.613456  0.084392  1
  Ho  Ho7  1  0.000000  0.386544  0.915608  1
  Ho  Ho8  1  0.000000  0.886348  0.584409  1
  Ho  Ho9  1  0.000000  0.113652  0.415591  1
  Hg  Hg10  1  0.500000  0.711893  0.935219  1
  Hg  Hg11  1  0.500000  0.288107  0.064781  1
  Hg  Hg12  1  0.500000  0.789175  0.434876  1
  Hg  Hg13  1  0.500000  0.210825  0.565124  1
  Hg  Hg14  1  0.500000  0.582028  0.647947  1
  Hg  Hg15  1  0.500000  0.417972  0.352053  1
  Hg  Hg16  1  0.500000  0.918114  0.147467  1
  Hg  Hg17  1  0.500000  0.081886  0.852533  1
  Pd  Pd18  1  0.500000  0.524205  0.195807  1
  Pd  Pd19  1  0.500000  0.475795  0.804193  1
  Pd  Pd20  1  0.500000  0.975913  0.695951  1
  Pd  Pd21  1  0.500000  0.024087  0.304049  1
