# generated using pymatgen
data_Hf4Hg(AsO4)6
_symmetry_space_group_name_H-M   'P 1'
_cell_length_a   9.14925968
_cell_length_b   9.14925944
_cell_length_c   9.43507567
_cell_angle_alpha   60.99711246
_cell_angle_beta   60.99712075
_cell_angle_gamma   60.00000115
_symmetry_Int_Tables_number   1
_chemical_formula_structural   Hf4Hg(AsO4)6
_chemical_formula_sum   'Hf4 Hg1 As6 O24'
_cell_volume   566.74263319
_cell_formula_units_Z   1
loop_
 _symmetry_equiv_pos_site_id
 _symmetry_equiv_pos_as_xyz
  1  'x, y, z'
loop_
 _atom_site_type_symbol
 _atom_site_label
 _atom_site_symmetry_multiplicity
 _atom_site_fract_x
 _atom_site_fract_y
 _atom_site_fract_z
 _atom_site_occupancy
  Hf  Hf0  1  0.141161  0.141161  0.576517  1
  Hf  Hf1  1  0.858839  0.858839  0.423483  1
  Hf  Hf2  1  0.646032  0.646032  0.061906  1
  Hf  Hf3  1  0.353968  0.353968  0.938094  1
  Hg  Hg4  1  0.500000  0.500000  0.500000  1
  As  As5  1  0.959460  0.255650  0.258675  1
  As  As6  1  0.255650  0.526215  0.258675  1
  As  As7  1  0.526215  0.959460  0.258675  1
  As  As8  1  0.040540  0.744350  0.741325  1
  As  As9  1  0.744350  0.473785  0.741325  1
  As  As10  1  0.473785  0.040540  0.741325  1
  O  O11  1  0.983780  0.266798  0.420036  1
  O  O12  1  0.266798  0.329388  0.420036  1
  O  O13  1  0.329388  0.983780  0.420036  1
  O  O14  1  0.016220  0.733202  0.579964  1
  O  O15  1  0.733202  0.670612  0.579964  1
  O  O16  1  0.670612  0.016220  0.579964  1
  O  O17  1  0.504195  0.880718  0.929661  1
  O  O18  1  0.880718  0.685426  0.929661  1
  O  O19  1  0.685426  0.504195  0.929661  1
  O  O20  1  0.495805  0.119282  0.070339  1
  O  O21  1  0.119282  0.314574  0.070339  1
  O  O22  1  0.314574  0.495805  0.070339  1
  O  O23  1  0.028634  0.946315  0.715820  1
  O  O24  1  0.946315  0.309232  0.715820  1
  O  O25  1  0.309232  0.028634  0.715820  1
  O  O26  1  0.971366  0.053685  0.284180  1
  O  O27  1  0.053685  0.690768  0.284180  1
  O  O28  1  0.690768  0.971366  0.284180  1
  O  O29  1  0.591541  0.750094  0.249541  1
  O  O30  1  0.750094  0.408824  0.249541  1
  O  O31  1  0.408824  0.591541  0.249541  1
  O  O32  1  0.408459  0.249906  0.750459  1
  O  O33  1  0.249906  0.591176  0.750459  1
  O  O34  1  0.591176  0.408459  0.750459  1
