# generated using pymatgen
data_YSc2SbO7
_symmetry_space_group_name_H-M   'P 1'
_cell_length_a   6.24156600
_cell_length_b   6.24156605
_cell_length_c   7.35592800
_cell_angle_alpha   90.00000000
_cell_angle_beta   90.00000000
_cell_angle_gamma   109.39675293
_symmetry_Int_Tables_number   1
_chemical_formula_structural   YSc2SbO7
_chemical_formula_sum   'Y2 Sc4 Sb2 O14'
_cell_volume   270.30090438
_cell_formula_units_Z   2
loop_
 _symmetry_equiv_pos_site_id
 _symmetry_equiv_pos_as_xyz
  1  'x, y, z'
loop_
 _atom_site_type_symbol
 _atom_site_label
 _atom_site_symmetry_multiplicity
 _atom_site_fract_x
 _atom_site_fract_y
 _atom_site_fract_z
 _atom_site_occupancy
  Y  Y0  1  0.500000  0.500000  0.500000  1
  Y  Y1  1  0.500000  0.500000  0.000000  1
  Sc  Sc2  1  0.527900  0.004434  0.750000  1
  Sc  Sc3  1  0.004434  0.527900  0.250000  1
  Sc  Sc4  1  0.472100  0.995566  0.250000  1
  Sc  Sc5  1  0.995566  0.472100  0.750000  1
  Sb  Sb6  1  0.000000  0.000000  0.500000  1
  Sb  Sb7  1  0.000000  0.000000  0.000000  1
  O  O8  1  0.668276  0.925910  0.465690  1
  O  O9  1  0.925910  0.668276  0.534310  1
  O  O10  1  0.668276  0.925910  0.034310  1
  O  O11  1  0.925910  0.668276  0.965690  1
  O  O12  1  0.331724  0.074090  0.534310  1
  O  O13  1  0.074090  0.331724  0.465690  1
  O  O14  1  0.331724  0.074090  0.965690  1
  O  O15  1  0.074090  0.331724  0.034310  1
  O  O16  1  0.921876  0.078124  0.750000  1
  O  O17  1  0.078124  0.921876  0.250000  1
  O  O18  1  0.359704  0.640296  0.750000  1
  O  O19  1  0.640296  0.359704  0.250000  1
  O  O20  1  0.648348  0.351652  0.750000  1
  O  O21  1  0.351652  0.648348  0.250000  1
