# generated using pymatgen
data_LaPr4As2ClO10
_symmetry_space_group_name_H-M   'P 1'
_cell_length_a   5.78728384
_cell_length_b   6.95404401
_cell_length_c   9.00061120
_cell_angle_alpha   95.31200288
_cell_angle_beta   108.75328868
_cell_angle_gamma   114.58918953
_symmetry_Int_Tables_number   1
_chemical_formula_structural   LaPr4As2ClO10
_chemical_formula_sum   'La1 Pr4 As2 Cl1 O10'
_cell_volume   300.92429451
_cell_formula_units_Z   1
loop_
 _symmetry_equiv_pos_site_id
 _symmetry_equiv_pos_as_xyz
  1  'x, y, z'
loop_
 _atom_site_type_symbol
 _atom_site_label
 _atom_site_symmetry_multiplicity
 _atom_site_fract_x
 _atom_site_fract_y
 _atom_site_fract_z
 _atom_site_occupancy
  La  La0  1  0.383171  0.634198  0.132145  1
  Pr  Pr1  1  0.999160  0.998813  0.999507  1
  Pr  Pr2  1  0.793097  0.293536  0.292657  1
  Pr  Pr3  1  0.206745  0.705977  0.707516  1
  Pr  Pr4  1  0.616830  0.363982  0.869678  1
  As  As5  1  0.179047  0.964796  0.393298  1
  As  As6  1  0.821692  0.036246  0.607137  1
  Cl  Cl7  1  0.500090  0.499231  0.500948  1
  O  O8  1  0.457261  0.324018  0.082720  1
  O  O9  1  0.949477  0.324018  0.082720  1
  O  O10  1  0.342130  0.969135  0.248800  1
  O  O11  1  0.875805  0.969135  0.248800  1
  O  O12  1  0.039872  0.681831  0.397913  1
  O  O13  1  0.959395  0.318019  0.600770  1
  O  O14  1  0.127022  0.033991  0.751459  1
  O  O15  1  0.658430  0.033991  0.751459  1
  O  O16  1  0.048890  0.674542  0.916234  1
  O  O17  1  0.541887  0.674542  0.916234  1
