# generated using pymatgen
data_Th4In2Cu3Ni
_symmetry_space_group_name_H-M   'P 1'
_cell_length_a   7.71410988
_cell_length_b   7.71411026
_cell_length_c   3.87309000
_cell_angle_alpha   90.00000000
_cell_angle_beta   90.00000000
_cell_angle_gamma   89.85174006
_symmetry_Int_Tables_number   1
_chemical_formula_structural   Th4In2Cu3Ni
_chemical_formula_sum   'Th4 In2 Cu3 Ni1'
_cell_volume   230.47710881
_cell_formula_units_Z   1
loop_
 _symmetry_equiv_pos_site_id
 _symmetry_equiv_pos_as_xyz
  1  'x, y, z'
loop_
 _atom_site_type_symbol
 _atom_site_label
 _atom_site_symmetry_multiplicity
 _atom_site_fract_x
 _atom_site_fract_y
 _atom_site_fract_z
 _atom_site_occupancy
  Th  Th0  1  0.667279  0.179827  0.500000  1
  Th  Th1  1  0.320173  0.832721  0.500000  1
  Th  Th2  1  0.187668  0.312332  0.500000  1
  Th  Th3  1  0.824567  0.675433  0.500000  1
  In  In4  1  0.499124  0.506249  0.000000  1
  In  In5  1  0.993751  0.000876  0.000000  1
  Cu  Cu6  1  0.123019  0.615221  0.000000  1
  Cu  Cu7  1  0.884779  0.376981  0.000000  1
  Cu  Cu8  1  0.620092  0.879908  0.000000  1
  Ni  Ni9  1  0.379546  0.120454  0.000000  1
