# generated using pymatgen
data_Er10Tl3In5(IrPd)2
_symmetry_space_group_name_H-M   'P 1'
_cell_length_a   3.60887700
_cell_length_b   8.12710082
_cell_length_c   18.23650507
_cell_angle_alpha   90.01101815
_cell_angle_beta   90.00000000
_cell_angle_gamma   90.00000000
_symmetry_Int_Tables_number   1
_chemical_formula_structural   Er10Tl3In5(IrPd)2
_chemical_formula_sum   'Er10 Tl3 In5 Ir2 Pd2'
_cell_volume   534.87134423
_cell_formula_units_Z   1
loop_
 _symmetry_equiv_pos_site_id
 _symmetry_equiv_pos_as_xyz
  1  'x, y, z'
loop_
 _atom_site_type_symbol
 _atom_site_label
 _atom_site_symmetry_multiplicity
 _atom_site_fract_x
 _atom_site_fract_y
 _atom_site_fract_z
 _atom_site_occupancy
  Er  Er0  1  0.000000  0.497465  0.500221  1
  Er  Er1  1  0.000000  0.000208  0.999974  1
  Er  Er2  1  0.000000  0.730217  0.279203  1
  Er  Er3  1  0.000000  0.270516  0.720808  1
  Er  Er4  1  0.000000  0.743480  0.780234  1
  Er  Er5  1  0.000000  0.256283  0.219413  1
  Er  Er6  1  0.000000  0.613529  0.089287  1
  Er  Er7  1  0.000000  0.386892  0.910662  1
  Er  Er8  1  0.000000  0.885522  0.586334  1
  Er  Er9  1  0.000000  0.115223  0.414522  1
  Tl  Tl10  1  0.500000  0.709805  0.934895  1
  Tl  Tl11  1  0.500000  0.290668  0.065215  1
  Tl  Tl12  1  0.500000  0.791389  0.434337  1
  In  In13  1  0.500000  0.207587  0.567138  1
  In  In14  1  0.500000  0.578532  0.647632  1
  In  In15  1  0.500000  0.418117  0.351585  1
  In  In16  1  0.500000  0.920153  0.150693  1
  In  In17  1  0.500000  0.079327  0.848859  1
  Ir  Ir18  1  0.500000  0.526213  0.198362  1
  Ir  Ir19  1  0.500000  0.474818  0.801721  1
  Pd  Pd20  1  0.500000  0.978120  0.696405  1
  Pd  Pd21  1  0.500000  0.025936  0.302501  1
