# generated using pymatgen
data_Gd4HoAsPb3
_symmetry_space_group_name_H-M   'P 1'
_cell_length_a   9.18993200
_cell_length_b   9.18993337
_cell_length_c   6.80610800
_cell_angle_alpha   90.00000000
_cell_angle_beta   90.00000000
_cell_angle_gamma   120.00000946
_symmetry_Int_Tables_number   1
_chemical_formula_structural   Gd4HoAsPb3
_chemical_formula_sum   'Gd8 Ho2 As2 Pb6'
_cell_volume   497.79907709
_cell_formula_units_Z   2
loop_
 _symmetry_equiv_pos_site_id
 _symmetry_equiv_pos_as_xyz
  1  'x, y, z'
loop_
 _atom_site_type_symbol
 _atom_site_label
 _atom_site_symmetry_multiplicity
 _atom_site_fract_x
 _atom_site_fract_y
 _atom_site_fract_z
 _atom_site_occupancy
  Gd  Gd0  1  0.752776  0.752776  0.749771  1
  Gd  Gd1  1  0.247224  0.000000  0.749771  1
  Gd  Gd2  1  0.000000  0.247224  0.749771  1
  Gd  Gd3  1  0.247224  0.247224  0.250229  1
  Gd  Gd4  1  0.752776  0.000000  0.250229  1
  Gd  Gd5  1  0.000000  0.752776  0.250229  1
  Gd  Gd6  1  0.666667  0.333333  0.000000  1
  Gd  Gd7  1  0.333333  0.666667  0.000000  1
  Ho  Ho8  1  0.333333  0.666667  0.500000  1
  Ho  Ho9  1  0.666667  0.333333  0.500000  1
  As  As10  1  0.000000  0.000000  0.000000  1
  As  As11  1  0.000000  0.000000  0.500000  1
  Pb  Pb12  1  0.398249  0.398249  0.747930  1
  Pb  Pb13  1  0.601751  0.000000  0.747930  1
  Pb  Pb14  1  0.000000  0.601751  0.747930  1
  Pb  Pb15  1  0.601751  0.601751  0.252070  1
  Pb  Pb16  1  0.398249  0.000000  0.252070  1
  Pb  Pb17  1  0.000000  0.398249  0.252070  1
