# generated using pymatgen
data_Y5Sc3Pt4
_symmetry_space_group_name_H-M   'P 1'
_cell_length_a   7.05188886
_cell_length_b   4.68195100
_cell_length_c   8.50053514
_cell_angle_alpha   90.00000000
_cell_angle_beta   89.56763411
_cell_angle_gamma   90.00000000
_symmetry_Int_Tables_number   1
_chemical_formula_structural   Y5Sc3Pt4
_chemical_formula_sum   'Y5 Sc3 Pt4'
_cell_volume   280.65076132
_cell_formula_units_Z   1
loop_
 _symmetry_equiv_pos_site_id
 _symmetry_equiv_pos_as_xyz
  1  'x, y, z'
loop_
 _atom_site_type_symbol
 _atom_site_label
 _atom_site_symmetry_multiplicity
 _atom_site_fract_x
 _atom_site_fract_y
 _atom_site_fract_z
 _atom_site_occupancy
  Y  Y0  1  0.014797  0.750000  0.323959  1
  Y  Y1  1  0.493300  0.250000  0.825961  1
  Y  Y2  1  0.520036  0.750000  0.182351  1
  Y  Y3  1  0.980171  0.250000  0.667054  1
  Y  Y4  1  0.145489  0.750000  0.922061  1
  Sc  Sc5  1  0.359834  0.250000  0.428093  1
  Sc  Sc6  1  0.640426  0.750000  0.574134  1
  Sc  Sc7  1  0.855202  0.250000  0.075959  1
  Pt  Pt8  1  0.746823  0.750000  0.904927  1
  Pt  Pt9  1  0.739220  0.250000  0.401348  1
  Pt  Pt10  1  0.258528  0.750000  0.586293  1
  Pt  Pt11  1  0.246174  0.250000  0.107860  1
