# generated using pymatgen
data_Ba12Dy(ScAs4)3
_symmetry_space_group_name_H-M   'P 1'
_cell_length_a   4.71765300
_cell_length_b   13.90506710
_cell_length_c   15.10079016
_cell_angle_alpha   89.78235164
_cell_angle_beta   90.00000000
_cell_angle_gamma   90.00000000
_symmetry_Int_Tables_number   1
_chemical_formula_structural   Ba12Dy(ScAs4)3
_chemical_formula_sum   'Ba12 Dy1 Sc3 As12'
_cell_volume   990.59383747
_cell_formula_units_Z   1
loop_
 _symmetry_equiv_pos_site_id
 _symmetry_equiv_pos_as_xyz
  1  'x, y, z'
loop_
 _atom_site_type_symbol
 _atom_site_label
 _atom_site_symmetry_multiplicity
 _atom_site_fract_x
 _atom_site_fract_y
 _atom_site_fract_z
 _atom_site_occupancy
  Ba  Ba0  1  0.250000  0.419251  0.101371  1
  Ba  Ba1  1  0.250000  0.143922  0.003757  1
  Ba  Ba2  1  0.250000  0.226606  0.296455  1
  Ba  Ba3  1  0.750000  0.275667  0.795194  1
  Ba  Ba4  1  0.750000  0.360997  0.501819  1
  Ba  Ba5  1  0.250000  0.918143  0.395748  1
  Ba  Ba6  1  0.750000  0.768557  0.702221  1
  Ba  Ba7  1  0.750000  0.858815  0.001376  1
  Ba  Ba8  1  0.250000  0.725025  0.203682  1
  Ba  Ba9  1  0.750000  0.080654  0.595602  1
  Ba  Ba10  1  0.750000  0.580601  0.901194  1
  Ba  Ba11  1  0.250000  0.640331  0.496606  1
  Dy  Dy12  1  0.250000  0.954799  0.794300  1
  Sc  Sc13  1  0.750000  0.547837  0.294221  1
  Sc  Sc14  1  0.750000  0.048930  0.205792  1
  Sc  Sc15  1  0.250000  0.451532  0.706203  1
  As  As16  1  0.750000  0.226193  0.134681  1
  As  As17  1  0.750000  0.724223  0.365928  1
  As  As18  1  0.750000  0.586726  0.121818  1
  As  As19  1  0.250000  0.274835  0.632230  1
  As  As20  1  0.250000  0.769648  0.870274  1
  As  As21  1  0.750000  0.087043  0.377915  1
  As  As22  1  0.250000  0.907880  0.614269  1
  As  As23  1  0.250000  0.413149  0.878831  1
  As  As24  1  0.750000  0.045170  0.855748  1
  As  As25  1  0.250000  0.464628  0.346330  1
  As  As26  1  0.250000  0.964840  0.153601  1
  As  As27  1  0.750000  0.533999  0.652834  1
