# generated using pymatgen
data_Ac2HfO5
_symmetry_space_group_name_H-M   'P 1'
_cell_length_a   4.07649400
_cell_length_b   11.62646000
_cell_length_c   12.13762000
_cell_angle_alpha   90.00000000
_cell_angle_beta   90.00000000
_cell_angle_gamma   90.00000000
_symmetry_Int_Tables_number   1
_chemical_formula_structural   Ac2HfO5
_chemical_formula_sum   'Ac8 Hf4 O20'
_cell_volume   575.26485983
_cell_formula_units_Z   4
loop_
 _symmetry_equiv_pos_site_id
 _symmetry_equiv_pos_as_xyz
  1  'x, y, z'
loop_
 _atom_site_type_symbol
 _atom_site_label
 _atom_site_symmetry_multiplicity
 _atom_site_fract_x
 _atom_site_fract_y
 _atom_site_fract_z
 _atom_site_occupancy
  Ac  Ac0  1  0.250000  0.099842  0.283788  1
  Ac  Ac1  1  0.250000  0.132950  0.936249  1
  Ac  Ac2  1  0.750000  0.367050  0.436249  1
  Ac  Ac3  1  0.750000  0.400158  0.783788  1
  Ac  Ac4  1  0.250000  0.599842  0.216212  1
  Ac  Ac5  1  0.250000  0.632950  0.563751  1
  Ac  Ac6  1  0.750000  0.867050  0.063751  1
  Ac  Ac7  1  0.750000  0.900158  0.716212  1
  Hf  Hf8  1  0.250000  0.190429  0.623927  1
  Hf  Hf9  1  0.750000  0.309571  0.123927  1
  Hf  Hf10  1  0.250000  0.690429  0.876073  1
  Hf  Hf11  1  0.750000  0.809571  0.376073  1
  O  O12  1  0.750000  0.004974  0.898185  1
  O  O13  1  0.250000  0.029685  0.668107  1
  O  O14  1  0.750000  0.224588  0.269292  1
  O  O15  1  0.250000  0.229528  0.460435  1
  O  O16  1  0.750000  0.239784  0.619819  1
  O  O17  1  0.250000  0.260216  0.119819  1
  O  O18  1  0.750000  0.270472  0.960435  1
  O  O19  1  0.250000  0.275412  0.769292  1
  O  O20  1  0.750000  0.470315  0.168107  1
  O  O21  1  0.250000  0.495026  0.398185  1
  O  O22  1  0.750000  0.504974  0.601815  1
  O  O23  1  0.250000  0.529685  0.831893  1
  O  O24  1  0.750000  0.724588  0.230708  1
  O  O25  1  0.250000  0.729528  0.039565  1
  O  O26  1  0.750000  0.739784  0.880181  1
  O  O27  1  0.250000  0.760216  0.380181  1
  O  O28  1  0.750000  0.770472  0.539565  1
  O  O29  1  0.250000  0.775412  0.730708  1
  O  O30  1  0.750000  0.970315  0.331893  1
  O  O31  1  0.250000  0.995026  0.101815  1
