# generated using pymatgen
data_La4Pr2Sm4C4Br15
_symmetry_space_group_name_H-M   'P 1'
_cell_length_a   9.31733742
_cell_length_b   10.25366573
_cell_length_c   11.26833586
_cell_angle_alpha   70.33327246
_cell_angle_beta   65.85863172
_cell_angle_gamma   70.48619283
_symmetry_Int_Tables_number   1
_chemical_formula_structural   La4Pr2Sm4C4Br15
_chemical_formula_sum   'La4 Pr2 Sm4 C4 Br15'
_cell_volume   900.59634196
_cell_formula_units_Z   1
loop_
 _symmetry_equiv_pos_site_id
 _symmetry_equiv_pos_as_xyz
  1  'x, y, z'
loop_
 _atom_site_type_symbol
 _atom_site_label
 _atom_site_symmetry_multiplicity
 _atom_site_fract_x
 _atom_site_fract_y
 _atom_site_fract_z
 _atom_site_occupancy
  La  La0  1  0.337374  0.752085  0.828109  1
  La  La1  1  0.662626  0.247915  0.171891  1
  La  La2  1  0.170678  0.428963  0.046081  1
  La  La3  1  0.829322  0.571037  0.953919  1
  Pr  Pr4  1  0.026262  0.104032  0.264618  1
  Pr  Pr5  1  0.973738  0.895968  0.735382  1
  Sm  Sm6  1  0.076666  0.180510  0.893230  1
  Sm  Sm7  1  0.923334  0.819490  0.106770  1
  Sm  Sm8  1  0.245590  0.541445  0.649282  1
  Sm  Sm9  1  0.754410  0.458555  0.350718  1
  C  C10  1  0.878693  0.359833  0.171236  1
  C  C11  1  0.121307  0.640167  0.828764  1
  C  C12  1  0.955005  0.295235  0.062146  1
  C  C13  1  0.044995  0.704765  0.937854  1
  Br  Br14  1  0.500000  0.500000  0.000000  1
  Br  Br15  1  0.134886  0.806864  0.472717  1
  Br  Br16  1  0.865114  0.193136  0.527283  1
  Br  Br17  1  0.250617  0.033050  0.649722  1
  Br  Br18  1  0.749383  0.966950  0.350278  1
  Br  Br19  1  0.334697  0.164825  0.222403  1
  Br  Br20  1  0.665303  0.835175  0.777597  1
  Br  Br21  1  0.455039  0.375508  0.415666  1
  Br  Br22  1  0.544961  0.624492  0.584334  1
  Br  Br23  1  0.962416  0.435513  0.703737  1
  Br  Br24  1  0.037584  0.564487  0.296263  1
  Br  Br25  1  0.223651  0.909947  0.060465  1
  Br  Br26  1  0.776349  0.090053  0.939535  1
  Br  Br27  1  0.379165  0.270370  0.812881  1
  Br  Br28  1  0.620835  0.729630  0.187119  1
