# generated using pymatgen
data_Tm16Zn3InRh4
_symmetry_space_group_name_H-M   'P 1'
_cell_length_a   9.39017837
_cell_length_b   9.39225675
_cell_length_c   9.39225600
_cell_angle_alpha   60.00000264
_cell_angle_beta   59.99268067
_cell_angle_gamma   59.99267536
_symmetry_Int_Tables_number   1
_chemical_formula_structural   Tm16Zn3InRh4
_chemical_formula_sum   'Tm16 Zn3 In1 Rh4'
_cell_volume   585.66686994
_cell_formula_units_Z   1
loop_
 _symmetry_equiv_pos_site_id
 _symmetry_equiv_pos_as_xyz
  1  'x, y, z'
loop_
 _atom_site_type_symbol
 _atom_site_label
 _atom_site_symmetry_multiplicity
 _atom_site_fract_x
 _atom_site_fract_y
 _atom_site_fract_z
 _atom_site_occupancy
  Tm  Tm0  1  0.809187  0.809118  0.190847  1
  Tm  Tm1  1  0.809187  0.190847  0.809118  1
  Tm  Tm2  1  0.190179  0.190804  0.809509  1
  Tm  Tm3  1  0.646129  0.058487  0.647692  1
  Tm  Tm4  1  0.069669  0.059205  0.435563  1
  Tm  Tm5  1  0.437259  0.435511  0.063615  1
  Tm  Tm6  1  0.646129  0.647692  0.647692  1
  Tm  Tm7  1  0.809187  0.190847  0.190847  1
  Tm  Tm8  1  0.190179  0.809509  0.809509  1
  Tm  Tm9  1  0.062870  0.645710  0.645710  1
  Tm  Tm10  1  0.437259  0.063615  0.063615  1
  Tm  Tm11  1  0.437259  0.063615  0.435511  1
  Tm  Tm12  1  0.069669  0.435563  0.059205  1
  Tm  Tm13  1  0.646129  0.647692  0.058487  1
  Tm  Tm14  1  0.190179  0.809509  0.190804  1
  Tm  Tm15  1  0.069669  0.435563  0.435563  1
  Zn  Zn16  1  0.416191  0.420651  0.420651  1
  Zn  Zn17  1  0.416191  0.420651  0.742506  1
  Zn  Zn18  1  0.416191  0.742506  0.420651  1
  In  In19  1  0.733126  0.422291  0.422291  1
  Rh  Rh20  1  0.856319  0.431456  0.856113  1
  Rh  Rh21  1  0.856319  0.856113  0.856113  1
  Rh  Rh22  1  0.856319  0.856113  0.431456  1
  Rh  Rh23  1  0.429205  0.856932  0.856932  1
