# generated using pymatgen
data_Lu2HfScPt2
_symmetry_space_group_name_H-M   'P 1'
_cell_length_a   4.63566300
_cell_length_b   6.89384700
_cell_length_c   8.23026900
_cell_angle_alpha   90.00000000
_cell_angle_beta   90.00000000
_cell_angle_gamma   90.00000000
_symmetry_Int_Tables_number   1
_chemical_formula_structural   Lu2HfScPt2
_chemical_formula_sum   'Lu4 Hf2 Sc2 Pt4'
_cell_volume   263.01924514
_cell_formula_units_Z   2
loop_
 _symmetry_equiv_pos_site_id
 _symmetry_equiv_pos_as_xyz
  1  'x, y, z'
loop_
 _atom_site_type_symbol
 _atom_site_label
 _atom_site_symmetry_multiplicity
 _atom_site_fract_x
 _atom_site_fract_y
 _atom_site_fract_z
 _atom_site_occupancy
  Lu  Lu0  1  0.250000  0.981418  0.325745  1
  Lu  Lu1  1  0.250000  0.481418  0.174255  1
  Lu  Lu2  1  0.750000  0.017276  0.679084  1
  Lu  Lu3  1  0.750000  0.517276  0.820916  1
  Hf  Hf4  1  0.250000  0.857173  0.928133  1
  Hf  Hf5  1  0.250000  0.357173  0.571867  1
  Sc  Sc6  1  0.750000  0.147052  0.077597  1
  Sc  Sc7  1  0.750000  0.647052  0.422403  1
  Pt  Pt8  1  0.250000  0.240107  0.894932  1
  Pt  Pt9  1  0.250000  0.740107  0.605068  1
  Pt  Pt10  1  0.750000  0.756975  0.092369  1
  Pt  Pt11  1  0.750000  0.256975  0.407631  1
