# generated using pymatgen
data_CaLuTh2(Al3Ir)6
_symmetry_space_group_name_H-M   'P 1'
_cell_length_a   7.60621665
_cell_length_b   7.61297840
_cell_length_c   9.51224600
_cell_angle_alpha   90.00000000
_cell_angle_beta   90.00000000
_cell_angle_gamma   119.47404377
_symmetry_Int_Tables_number   1
_chemical_formula_structural   CaLuTh2(Al3Ir)6
_chemical_formula_sum   'Ca1 Lu1 Th2 Al18 Ir6'
_cell_volume   479.52846457
_cell_formula_units_Z   1
loop_
 _symmetry_equiv_pos_site_id
 _symmetry_equiv_pos_as_xyz
  1  'x, y, z'
loop_
 _atom_site_type_symbol
 _atom_site_label
 _atom_site_symmetry_multiplicity
 _atom_site_fract_x
 _atom_site_fract_y
 _atom_site_fract_z
 _atom_site_occupancy
  Ca  Ca0  1  0.004162  0.327437  0.750000  1
  Lu  Lu1  1  0.326633  0.004338  0.750000  1
  Th  Th2  1  0.995058  0.670575  0.250000  1
  Th  Th3  1  0.672307  0.995681  0.250000  1
  Al  Al4  1  0.135259  0.134768  0.250000  1
  Al  Al5  1  0.874371  0.872979  0.750000  1
  Al  Al6  1  0.005811  0.335550  0.068649  1
  Al  Al7  1  0.000721  0.664601  0.918065  1
  Al  Al8  1  0.000721  0.664601  0.581935  1
  Al  Al9  1  0.335653  0.005441  0.431213  1
  Al  Al10  1  0.005811  0.335550  0.431351  1
  Al  Al11  1  0.663737  0.000539  0.581916  1
  Al  Al12  1  0.663737  0.000539  0.918084  1
  Al  Al13  1  0.335653  0.005441  0.068787  1
  Al  Al14  1  0.332109  0.332043  0.556237  1
  Al  Al15  1  0.663085  0.663068  0.457774  1
  Al  Al16  1  0.663085  0.663068  0.042226  1
  Al  Al17  1  0.332109  0.332043  0.943763  1
  Al  Al18  1  0.340453  0.542774  0.250000  1
  Al  Al19  1  0.656291  0.447278  0.750000  1
  Al  Al20  1  0.543128  0.339080  0.250000  1
  Al  Al21  1  0.448788  0.662078  0.750000  1
  Ir  Ir22  1  0.671662  0.328205  0.001492  1
  Ir  Ir23  1  0.329521  0.674427  0.001471  1
  Ir  Ir24  1  0.329521  0.674427  0.498529  1
  Ir  Ir25  1  0.671662  0.328205  0.498508  1
  Ir  Ir26  1  0.999478  0.997633  0.001633  1
  Ir  Ir27  1  0.999478  0.997633  0.498367  1
