# generated using pymatgen
data_SrMnSb12OsRu2
_symmetry_space_group_name_H-M   'P 1'
_cell_length_a   8.17939383
_cell_length_b   8.18342075
_cell_length_c   8.16774511
_cell_angle_alpha   109.48150957
_cell_angle_beta   109.45369898
_cell_angle_gamma   109.50401488
_symmetry_Int_Tables_number   1
_chemical_formula_structural   SrMnSb12OsRu2
_chemical_formula_sum   'Sr1 Mn1 Sb12 Os1 Ru2'
_cell_volume   420.72579841
_cell_formula_units_Z   1
loop_
 _symmetry_equiv_pos_site_id
 _symmetry_equiv_pos_as_xyz
  1  'x, y, z'
loop_
 _atom_site_type_symbol
 _atom_site_label
 _atom_site_symmetry_multiplicity
 _atom_site_fract_x
 _atom_site_fract_y
 _atom_site_fract_z
 _atom_site_occupancy
  Sr  Sr0  1  0.000000  0.000000  0.000000  1
  Mn  Mn1  1  0.000000  0.000000  0.500000  1
  Sb  Sb2  1  0.159464  0.814529  0.660879  1
  Sb  Sb3  1  0.157440  0.497649  0.338685  1
  Sb  Sb4  1  0.502082  0.660928  0.842131  1
  Sb  Sb5  1  0.339372  0.841451  0.180566  1
  Sb  Sb6  1  0.814398  0.655116  0.153517  1
  Sb  Sb7  1  0.655342  0.841550  0.501384  1
  Sb  Sb8  1  0.185602  0.344884  0.846483  1
  Sb  Sb9  1  0.660628  0.158549  0.819434  1
  Sb  Sb10  1  0.344658  0.158450  0.498616  1
  Sb  Sb11  1  0.497918  0.339072  0.157869  1
  Sb  Sb12  1  0.842560  0.502351  0.661315  1
  Sb  Sb13  1  0.840536  0.185471  0.339121  1
  Os  Os14  1  0.500000  0.500000  0.500000  1
  Ru  Ru15  1  0.500000  0.000000  0.000000  1
  Ru  Ru16  1  0.000000  0.500000  0.000000  1
