# generated using pymatgen
data_Hf8Ti9Nb3(Ge7P)2
_symmetry_space_group_name_H-M   'P 1'
_cell_length_a   6.73800305
_cell_length_b   6.87173694
_cell_length_c   13.10091500
_cell_angle_alpha   90.00000000
_cell_angle_beta   90.00000000
_cell_angle_gamma   89.93247100
_symmetry_Int_Tables_number   1
_chemical_formula_structural   Hf8Ti9Nb3(Ge7P)2
_chemical_formula_sum   'Hf8 Ti9 Nb3 Ge14 P2'
_cell_volume   606.59532194
_cell_formula_units_Z   1
loop_
 _symmetry_equiv_pos_site_id
 _symmetry_equiv_pos_as_xyz
  1  'x, y, z'
loop_
 _atom_site_type_symbol
 _atom_site_label
 _atom_site_symmetry_multiplicity
 _atom_site_fract_x
 _atom_site_fract_y
 _atom_site_fract_z
 _atom_site_occupancy
  Hf  Hf0  1  0.489474  0.668997  0.595351  1
  Hf  Hf1  1  0.991836  0.826011  0.906419  1
  Hf  Hf2  1  0.509706  0.331276  0.094216  1
  Hf  Hf3  1  0.009696  0.175236  0.406425  1
  Hf  Hf4  1  0.509706  0.331276  0.405784  1
  Hf  Hf5  1  0.009696  0.175236  0.093575  1
  Hf  Hf6  1  0.489474  0.668997  0.904649  1
  Hf  Hf7  1  0.991836  0.826011  0.593581  1
  Ti  Ti8  1  0.650642  0.174506  0.626526  1
  Ti  Ti9  1  0.169579  0.333527  0.873585  1
  Ti  Ti10  1  0.348558  0.825901  0.125700  1
  Ti  Ti11  1  0.832027  0.665195  0.374486  1
  Ti  Ti12  1  0.348558  0.825901  0.374300  1
  Ti  Ti13  1  0.832027  0.665195  0.125514  1
  Ti  Ti14  1  0.650642  0.174506  0.873474  1
  Ti  Ti15  1  0.169579  0.333527  0.626415  1
  Ti  Ti16  1  0.822444  0.492103  0.750000  1
  Nb  Nb17  1  0.331645  0.009057  0.750000  1
  Nb  Nb18  1  0.176826  0.506915  0.250000  1
  Nb  Nb19  1  0.668306  0.989468  0.250000  1
  Ge  Ge20  1  0.683057  0.961451  0.463483  1
  Ge  Ge21  1  0.180371  0.541498  0.037709  1
  Ge  Ge22  1  0.317183  0.038977  0.963138  1
  Ge  Ge23  1  0.819516  0.459396  0.540050  1
  Ge  Ge24  1  0.317183  0.038977  0.536862  1
  Ge  Ge25  1  0.819516  0.459396  0.959950  1
  Ge  Ge26  1  0.683057  0.961451  0.036517  1
  Ge  Ge27  1  0.180371  0.541498  0.462291  1
  Ge  Ge28  1  0.955234  0.124613  0.750000  1
  Ge  Ge29  1  0.042950  0.878784  0.250000  1
  Ge  Ge30  1  0.695018  0.853854  0.750000  1
  Ge  Ge31  1  0.183981  0.641858  0.750000  1
  Ge  Ge32  1  0.307960  0.141354  0.250000  1
  Ge  Ge33  1  0.809346  0.355873  0.250000  1
  P  P34  1  0.459162  0.379059  0.750000  1
  P  P35  1  0.543836  0.623117  0.250000  1
