# generated using pymatgen
data_LiYb11(AgGe)12
_symmetry_space_group_name_H-M   'P 1'
_cell_length_a   4.56483000
_cell_length_b   7.83632409
_cell_length_c   21.19926617
_cell_angle_alpha   89.79205277
_cell_angle_beta   90.00000000
_cell_angle_gamma   90.00000000
_symmetry_Int_Tables_number   1
_chemical_formula_structural   LiYb11(AgGe)12
_chemical_formula_sum   'Li1 Yb11 Ag12 Ge12'
_cell_volume   758.32428636
_cell_formula_units_Z   1
loop_
 _symmetry_equiv_pos_site_id
 _symmetry_equiv_pos_as_xyz
  1  'x, y, z'
loop_
 _atom_site_type_symbol
 _atom_site_label
 _atom_site_symmetry_multiplicity
 _atom_site_fract_x
 _atom_site_fract_y
 _atom_site_fract_z
 _atom_site_occupancy
  Li  Li0  1  0.750000  0.710150  0.834222  1
  Yb  Yb1  1  0.250000  0.220731  0.999093  1
  Yb  Yb2  1  0.250000  0.278099  0.500631  1
  Yb  Yb3  1  0.750000  0.779930  0.996837  1
  Yb  Yb4  1  0.750000  0.722815  0.500271  1
  Yb  Yb5  1  0.250000  0.211049  0.333913  1
  Yb  Yb6  1  0.250000  0.294372  0.833536  1
  Yb  Yb7  1  0.750000  0.790266  0.668539  1
  Yb  Yb8  1  0.750000  0.713142  0.165733  1
  Yb  Yb9  1  0.250000  0.209294  0.668497  1
  Yb  Yb10  1  0.250000  0.286775  0.166932  1
  Yb  Yb11  1  0.750000  0.787117  0.332965  1
  Ag  Ag12  1  0.250000  0.905617  0.765087  1
  Ag  Ag13  1  0.250000  0.586740  0.262035  1
  Ag  Ag14  1  0.750000  0.087180  0.237893  1
  Ag  Ag15  1  0.750000  0.417329  0.740099  1
  Ag  Ag16  1  0.250000  0.915927  0.903927  1
  Ag  Ag17  1  0.250000  0.580527  0.406354  1
  Ag  Ag18  1  0.750000  0.081191  0.093046  1
  Ag  Ag19  1  0.750000  0.419135  0.594613  1
  Ag  Ag20  1  0.250000  0.917615  0.565214  1
  Ag  Ag21  1  0.250000  0.583616  0.065441  1
  Ag  Ag22  1  0.750000  0.082114  0.435254  1
  Ag  Ag23  1  0.750000  0.421732  0.931366  1
  Ge  Ge24  1  0.250000  0.581102  0.727825  1
  Ge  Ge25  1  0.250000  0.917525  0.228980  1
  Ge  Ge26  1  0.750000  0.417702  0.270823  1
  Ge  Ge27  1  0.750000  0.080886  0.772539  1
  Ge  Ge28  1  0.250000  0.911906  0.101914  1
  Ge  Ge29  1  0.250000  0.588742  0.601841  1
  Ge  Ge30  1  0.750000  0.088406  0.897237  1
  Ge  Ge31  1  0.750000  0.410843  0.397564  1
  Ge  Ge32  1  0.250000  0.588348  0.929200  1
  Ge  Ge33  1  0.250000  0.909979  0.426474  1
  Ge  Ge34  1  0.750000  0.412204  0.071777  1
  Ge  Ge35  1  0.750000  0.089891  0.572330  1
