# generated using pymatgen
data_Pr8Y9Lu3Sn16
_symmetry_space_group_name_H-M   'P 1'
_cell_length_a   8.08397807
_cell_length_b   8.31146307
_cell_length_c   15.66644300
_cell_angle_alpha   90.00000000
_cell_angle_beta   90.00000000
_cell_angle_gamma   89.98539241
_symmetry_Int_Tables_number   1
_chemical_formula_structural   Pr8Y9Lu3Sn16
_chemical_formula_sum   'Pr8 Y9 Lu3 Sn16'
_cell_volume   1052.62333809
_cell_formula_units_Z   1
loop_
 _symmetry_equiv_pos_site_id
 _symmetry_equiv_pos_as_xyz
  1  'x, y, z'
loop_
 _atom_site_type_symbol
 _atom_site_label
 _atom_site_symmetry_multiplicity
 _atom_site_fract_x
 _atom_site_fract_y
 _atom_site_fract_z
 _atom_site_occupancy
  Pr  Pr0  1  0.509080  0.323705  0.903919  1
  Pr  Pr1  1  0.008412  0.175803  0.596113  1
  Pr  Pr2  1  0.491242  0.675964  0.403656  1
  Pr  Pr3  1  0.991376  0.823940  0.096310  1
  Pr  Pr4  1  0.491242  0.675964  0.096344  1
  Pr  Pr5  1  0.991376  0.823940  0.403690  1
  Pr  Pr6  1  0.509080  0.323705  0.596081  1
  Pr  Pr7  1  0.008412  0.175803  0.903887  1
  Y  Y8  1  0.349373  0.835741  0.875538  1
  Y  Y9  1  0.848511  0.664764  0.624389  1
  Y  Y10  1  0.650915  0.164548  0.375423  1
  Y  Y11  1  0.151155  0.335543  0.124668  1
  Y  Y12  1  0.650915  0.164548  0.124577  1
  Y  Y13  1  0.151155  0.335543  0.375332  1
  Y  Y14  1  0.349373  0.835741  0.624462  1
  Y  Y15  1  0.848511  0.664764  0.875611  1
  Y  Y16  1  0.181996  0.501209  0.750000  1
  Lu  Lu17  1  0.682293  0.998259  0.750000  1
  Lu  Lu18  1  0.817740  0.498455  0.250000  1
  Lu  Lu19  1  0.317887  0.001630  0.250000  1
  Sn  Sn20  1  0.313689  0.040715  0.042348  1
  Sn  Sn21  1  0.813680  0.459393  0.457623  1
  Sn  Sn22  1  0.686122  0.959263  0.542216  1
  Sn  Sn23  1  0.186189  0.541028  0.958497  1
  Sn  Sn24  1  0.686122  0.959263  0.957784  1
  Sn  Sn25  1  0.186189  0.541028  0.541503  1
  Sn  Sn26  1  0.313689  0.040715  0.457652  1
  Sn  Sn27  1  0.813680  0.459393  0.042377  1
  Sn  Sn28  1  0.547567  0.623742  0.750000  1
  Sn  Sn29  1  0.045165  0.877721  0.750000  1
  Sn  Sn30  1  0.454556  0.376919  0.250000  1
  Sn  Sn31  1  0.954477  0.123076  0.250000  1
  Sn  Sn32  1  0.316425  0.143995  0.750000  1
  Sn  Sn33  1  0.815320  0.354059  0.750000  1
  Sn  Sn34  1  0.683608  0.854204  0.250000  1
  Sn  Sn35  1  0.183481  0.645916  0.250000  1
