# generated using pymatgen
data_Li3Sn3PtRh5
_symmetry_space_group_name_H-M   'P 1'
_cell_length_a   4.38943300
_cell_length_b   6.25517100
_cell_length_c   13.24393500
_cell_angle_alpha   90.00000000
_cell_angle_beta   89.99982218
_cell_angle_gamma   90.00000000
_symmetry_Int_Tables_number   1
_chemical_formula_structural   Li3Sn3PtRh5
_chemical_formula_sum   'Li6 Sn6 Pt2 Rh10'
_cell_volume   363.63414100
_cell_formula_units_Z   2
loop_
 _symmetry_equiv_pos_site_id
 _symmetry_equiv_pos_as_xyz
  1  'x, y, z'
loop_
 _atom_site_type_symbol
 _atom_site_label
 _atom_site_symmetry_multiplicity
 _atom_site_fract_x
 _atom_site_fract_y
 _atom_site_fract_z
 _atom_site_occupancy
  Li  Li0  1  0.000000  0.000000  0.000000  1
  Li  Li1  1  0.499743  0.499999  0.167448  1
  Li  Li2  1  0.999760  0.000000  0.334245  1
  Li  Li3  1  0.500000  0.499999  0.500000  1
  Li  Li4  1  0.000240  0.000000  0.665755  1
  Li  Li5  1  0.500256  0.499999  0.832553  1
  Sn  Sn6  1  0.000000  0.499999  0.000000  1
  Sn  Sn7  1  0.499774  0.000000  0.172734  1
  Sn  Sn8  1  0.999762  0.499999  0.333511  1
  Sn  Sn9  1  0.500000  0.000000  0.500000  1
  Sn  Sn10  1  0.000237  0.499999  0.666489  1
  Sn  Sn11  1  0.500225  0.000000  0.827266  1
  Pt  Pt12  1  0.500000  0.243908  0.000000  1
  Pt  Pt13  1  0.500000  0.756092  0.000000  1
  Rh  Rh14  1  0.999811  0.250415  0.164854  1
  Rh  Rh15  1  0.999811  0.749583  0.164854  1
  Rh  Rh16  1  0.499753  0.251725  0.334119  1
  Rh  Rh17  1  0.499753  0.748275  0.334119  1
  Rh  Rh18  1  0.000000  0.250259  0.500000  1
  Rh  Rh19  1  0.000000  0.749741  0.500000  1
  Rh  Rh20  1  0.500246  0.251725  0.665881  1
  Rh  Rh21  1  0.500246  0.748275  0.665881  1
  Rh  Rh22  1  0.000188  0.250415  0.835147  1
  Rh  Rh23  1  0.000188  0.749583  0.835147  1
