# generated using pymatgen
data_Ho2Lu10AlZnCo4
_symmetry_space_group_name_H-M   'P 1'
_cell_length_a   8.14900339
_cell_length_b   8.11408113
_cell_length_c   8.11408186
_cell_angle_alpha   111.60058260
_cell_angle_beta   110.44523764
_cell_angle_gamma   106.25102496
_symmetry_Int_Tables_number   1
_chemical_formula_structural   Ho2Lu10AlZnCo4
_chemical_formula_sum   'Ho2 Lu10 Al1 Zn1 Co4'
_cell_volume   412.86405226
_cell_formula_units_Z   1
loop_
 _symmetry_equiv_pos_site_id
 _symmetry_equiv_pos_as_xyz
  1  'x, y, z'
loop_
 _atom_site_type_symbol
 _atom_site_label
 _atom_site_symmetry_multiplicity
 _atom_site_fract_x
 _atom_site_fract_y
 _atom_site_fract_z
 _atom_site_occupancy
  Ho  Ho0  1  0.431542  0.231524  0.200017  1
  Ho  Ho1  1  0.568458  0.768476  0.799983  1
  Lu  Lu2  1  0.031239  0.232320  0.798920  1
  Lu  Lu3  1  0.968761  0.767680  0.201080  1
  Lu  Lu4  1  0.183033  0.283723  0.468135  1
  Lu  Lu5  1  0.816967  0.716277  0.531865  1
  Lu  Lu6  1  0.183033  0.714899  0.899310  1
  Lu  Lu7  1  0.816967  0.285101  0.100690  1
  Lu  Lu8  1  0.316928  0.623448  0.302361  1
  Lu  Lu9  1  0.683072  0.376552  0.697639  1
  Lu  Lu10  1  0.316928  0.014567  0.693479  1
  Lu  Lu11  1  0.683072  0.985433  0.306521  1
  Al  Al12  1  0.500000  0.500000  0.000000  1
  Zn  Zn13  1  0.000000  0.000000  0.000000  1
  Co  Co14  1  0.366235  0.998559  0.367677  1
  Co  Co15  1  0.633765  0.001441  0.632323  1
  Co  Co16  1  0.110278  0.614558  0.495720  1
  Co  Co17  1  0.889722  0.385442  0.504280  1
