# generated using pymatgen
data_Er7Lu3(Zn2Bi)2
_symmetry_space_group_name_H-M   'P 1'
_cell_length_a   8.54005802
_cell_length_b   8.54005770
_cell_length_c   8.53545405
_cell_angle_alpha   123.68883699
_cell_angle_beta   123.68882925
_cell_angle_gamma   83.73939540
_symmetry_Int_Tables_number   1
_chemical_formula_structural   Er7Lu3(Zn2Bi)2
_chemical_formula_sum   'Er7 Lu3 Zn4 Bi2'
_cell_volume   412.86581136
_cell_formula_units_Z   1
loop_
 _symmetry_equiv_pos_site_id
 _symmetry_equiv_pos_as_xyz
  1  'x, y, z'
loop_
 _atom_site_type_symbol
 _atom_site_label
 _atom_site_symmetry_multiplicity
 _atom_site_fract_x
 _atom_site_fract_y
 _atom_site_fract_z
 _atom_site_occupancy
  Er  Er0  1  0.205878  0.705878  0.195693  1
  Er  Er1  1  0.010554  0.205458  0.500036  1
  Er  Er2  1  0.705458  0.510554  0.500036  1
  Er  Er3  1  0.489356  0.989356  0.194052  1
  Er  Er4  1  0.794462  0.294462  0.804957  1
  Er  Er5  1  0.989935  0.794858  0.500318  1
  Er  Er6  1  0.294858  0.489935  0.500318  1
  Lu  Lu7  1  0.499962  0.499398  0.999730  1
  Lu  Lu8  1  0.999398  0.999962  0.999730  1
  Lu  Lu9  1  0.510719  0.010719  0.804363  1
  Zn  Zn10  1  0.139808  0.639808  0.779728  1
  Zn  Zn11  1  0.859607  0.359607  0.219633  1
  Zn  Zn12  1  0.639482  0.860448  0.500616  1
  Zn  Zn13  1  0.360448  0.139482  0.500616  1
  Bi  Bi14  1  0.250225  0.249849  0.000086  1
  Bi  Bi15  1  0.749849  0.750225  0.000086  1
