# generated using pymatgen
data_Rb8Ac3LaI20
_symmetry_space_group_name_H-M   'P 1'
_cell_length_a   9.63583268
_cell_length_b   10.28785900
_cell_length_c   15.28570742
_cell_angle_alpha   90.00000000
_cell_angle_beta   89.74919547
_cell_angle_gamma   90.00000000
_symmetry_Int_Tables_number   1
_chemical_formula_structural   Rb8Ac3LaI20
_chemical_formula_sum   'Rb8 Ac3 La1 I20'
_cell_volume   1515.28957496
_cell_formula_units_Z   1
loop_
 _symmetry_equiv_pos_site_id
 _symmetry_equiv_pos_as_xyz
  1  'x, y, z'
loop_
 _atom_site_type_symbol
 _atom_site_label
 _atom_site_symmetry_multiplicity
 _atom_site_fract_x
 _atom_site_fract_y
 _atom_site_fract_z
 _atom_site_occupancy
  Rb  Rb0  1  0.943184  0.002407  0.827309  1
  Rb  Rb1  1  0.056009  0.996636  0.172758  1
  Rb  Rb2  1  0.444122  0.996770  0.674118  1
  Rb  Rb3  1  0.056009  0.503364  0.172758  1
  Rb  Rb4  1  0.556046  0.002506  0.325926  1
  Rb  Rb5  1  0.943184  0.497593  0.827309  1
  Rb  Rb6  1  0.556046  0.497494  0.325926  1
  Rb  Rb7  1  0.444122  0.503230  0.674118  1
  Ac  Ac8  1  0.922786  0.750000  0.505384  1
  Ac  Ac9  1  0.077463  0.250000  0.494505  1
  Ac  Ac10  1  0.423999  0.250000  0.994591  1
  La  La11  1  0.576803  0.750000  0.004518  1
  I  I12  1  0.126242  0.750000  0.680596  1
  I  I13  1  0.873374  0.250000  0.319289  1
  I  I14  1  0.627264  0.250000  0.818752  1
  I  I15  1  0.379063  0.750000  0.175809  1
  I  I16  1  0.831668  0.046452  0.577139  1
  I  I17  1  0.168648  0.953407  0.422670  1
  I  I18  1  0.335723  0.950390  0.925430  1
  I  I19  1  0.168648  0.546593  0.422670  1
  I  I20  1  0.665673  0.041010  0.074969  1
  I  I21  1  0.831668  0.453548  0.577139  1
  I  I22  1  0.665673  0.458990  0.074969  1
  I  I23  1  0.335723  0.549610  0.925430  1
  I  I24  1  0.574062  0.750000  0.509595  1
  I  I25  1  0.425928  0.250000  0.491017  1
  I  I26  1  0.075544  0.250000  0.990558  1
  I  I27  1  0.917382  0.750000  0.009594  1
  I  I28  1  0.658814  0.750000  0.799189  1
  I  I29  1  0.338797  0.250000  0.205545  1
  I  I30  1  0.161214  0.250000  0.705441  1
  I  I31  1  0.839120  0.750000  0.294978  1
