# generated using pymatgen
data_Ca5YbPb18
_symmetry_space_group_name_H-M   'P 1'
_cell_length_a   6.96678600
_cell_length_b   6.96678630
_cell_length_c   17.31937100
_cell_angle_alpha   90.00000000
_cell_angle_beta   90.00000000
_cell_angle_gamma   119.99999860
_symmetry_Int_Tables_number   1
_chemical_formula_structural   Ca5YbPb18
_chemical_formula_sum   'Ca5 Yb1 Pb18'
_cell_volume   727.99385345
_cell_formula_units_Z   1
loop_
 _symmetry_equiv_pos_site_id
 _symmetry_equiv_pos_as_xyz
  1  'x, y, z'
loop_
 _atom_site_type_symbol
 _atom_site_label
 _atom_site_symmetry_multiplicity
 _atom_site_fract_x
 _atom_site_fract_y
 _atom_site_fract_z
 _atom_site_occupancy
  Ca  Ca0  1  0.666667  0.333333  0.579883  1
  Ca  Ca1  1  0.666667  0.333333  0.919985  1
  Ca  Ca2  1  0.000000  0.000000  0.079871  1
  Ca  Ca3  1  0.333333  0.666667  0.250286  1
  Ca  Ca4  1  0.333333  0.666667  0.752061  1
  Yb  Yb5  1  0.000000  0.000000  0.419188  1
  Pb  Pb6  1  0.001441  0.500719  0.417525  1
  Pb  Pb7  1  0.499281  0.500719  0.417525  1
  Pb  Pb8  1  0.499281  0.998559  0.417525  1
  Pb  Pb9  1  0.664178  0.832088  0.582634  1
  Pb  Pb10  1  0.167912  0.832088  0.582634  1
  Pb  Pb11  1  0.167912  0.335822  0.582634  1
  Pb  Pb12  1  0.665872  0.832936  0.917747  1
  Pb  Pb13  1  0.167064  0.832936  0.917747  1
  Pb  Pb14  1  0.167064  0.334128  0.917747  1
  Pb  Pb15  1  0.003887  0.501944  0.082096  1
  Pb  Pb16  1  0.498056  0.501944  0.082096  1
  Pb  Pb17  1  0.498056  0.996113  0.082096  1
  Pb  Pb18  1  0.336551  0.168276  0.249605  1
  Pb  Pb19  1  0.831724  0.168276  0.249605  1
  Pb  Pb20  1  0.831724  0.663449  0.249605  1
  Pb  Pb21  1  0.331226  0.165612  0.749789  1
  Pb  Pb22  1  0.834388  0.165612  0.749789  1
  Pb  Pb23  1  0.834388  0.668774  0.749789  1
