# generated using pymatgen
data_Nd2Sm2Y2CoBr10
_symmetry_space_group_name_H-M   'P 1'
_cell_length_a   7.45506058
_cell_length_b   9.34692921
_cell_length_c   9.40698243
_cell_angle_alpha   108.23384757
_cell_angle_beta   96.40166601
_cell_angle_gamma   104.33298156
_symmetry_Int_Tables_number   1
_chemical_formula_structural   Nd2Sm2Y2CoBr10
_chemical_formula_sum   'Nd2 Sm2 Y2 Co1 Br10'
_cell_volume   590.34988455
_cell_formula_units_Z   1
loop_
 _symmetry_equiv_pos_site_id
 _symmetry_equiv_pos_as_xyz
  1  'x, y, z'
loop_
 _atom_site_type_symbol
 _atom_site_label
 _atom_site_symmetry_multiplicity
 _atom_site_fract_x
 _atom_site_fract_y
 _atom_site_fract_z
 _atom_site_occupancy
  Nd  Nd0  1  0.465266  0.785507  0.590457  1
  Nd  Nd1  1  0.534734  0.214493  0.409543  1
  Sm  Sm2  1  0.374706  0.452818  0.746201  1
  Sm  Sm3  1  0.625294  0.547182  0.253799  1
  Y  Y4  1  0.852975  0.627326  0.674926  1
  Y  Y5  1  0.147025  0.372674  0.325074  1
  Co  Co6  1  0.500000  0.500000  0.500000  1
  Br  Br7  1  0.413263  0.132782  0.675089  1
  Br  Br8  1  0.586737  0.867218  0.324911  1
  Br  Br9  1  0.043508  0.675299  0.417088  1
  Br  Br10  1  0.956492  0.324701  0.582912  1
  Br  Br11  1  0.266726  0.748042  0.846059  1
  Br  Br12  1  0.733274  0.251958  0.153941  1
  Br  Br13  1  0.248714  0.415181  0.048103  1
  Br  Br14  1  0.751286  0.584819  0.951897  1
  Br  Br15  1  0.851296  0.940917  0.770326  1
  Br  Br16  1  0.148704  0.059083  0.229674  1
