# generated using pymatgen
data_Tm4Zn(Ga5Co)3
_symmetry_space_group_name_H-M   'P 1'
_cell_length_a   6.00527600
_cell_length_b   6.00527600
_cell_length_c   11.05085400
_cell_angle_alpha   90.00000000
_cell_angle_beta   90.00000000
_cell_angle_gamma   90.00000000
_symmetry_Int_Tables_number   1
_chemical_formula_structural   Tm4Zn(Ga5Co)3
_chemical_formula_sum   'Tm4 Zn1 Ga15 Co3'
_cell_volume   398.53070328
_cell_formula_units_Z   1
loop_
 _symmetry_equiv_pos_site_id
 _symmetry_equiv_pos_as_xyz
  1  'x, y, z'
loop_
 _atom_site_type_symbol
 _atom_site_label
 _atom_site_symmetry_multiplicity
 _atom_site_fract_x
 _atom_site_fract_y
 _atom_site_fract_z
 _atom_site_occupancy
  Tm  Tm0  1  0.500000  0.000000  0.805018  1
  Tm  Tm1  1  0.000000  0.500000  0.805018  1
  Tm  Tm2  1  0.500000  0.000000  0.194243  1
  Tm  Tm3  1  0.000000  0.500000  0.194243  1
  Zn  Zn4  1  0.500000  0.500000  0.802415  1
  Ga  Ga5  1  0.251990  0.251990  0.618164  1
  Ga  Ga6  1  0.748010  0.748010  0.618164  1
  Ga  Ga7  1  0.748010  0.251990  0.618164  1
  Ga  Ga8  1  0.251990  0.748010  0.618164  1
  Ga  Ga9  1  0.750665  0.750665  0.384833  1
  Ga  Ga10  1  0.249335  0.249335  0.384833  1
  Ga  Ga11  1  0.249335  0.750665  0.384833  1
  Ga  Ga12  1  0.750665  0.249335  0.384833  1
  Ga  Ga13  1  0.280585  0.280585  0.997195  1
  Ga  Ga14  1  0.719415  0.719415  0.997195  1
  Ga  Ga15  1  0.719415  0.280585  0.997195  1
  Ga  Ga16  1  0.280585  0.719415  0.997195  1
  Ga  Ga17  1  0.500000  0.500000  0.194034  1
  Ga  Ga18  1  0.000000  0.000000  0.784250  1
  Ga  Ga19  1  0.000000  0.000000  0.218256  1
  Co  Co20  1  0.500000  0.000000  0.499557  1
  Co  Co21  1  0.000000  0.500000  0.499557  1
  Co  Co22  1  0.000000  0.000000  0.002643  1
