# generated using pymatgen
data_Sr7CeP6
_symmetry_space_group_name_H-M   'P 1'
_cell_length_a   7.99979126
_cell_length_b   7.99979099
_cell_length_c   7.99979270
_cell_angle_alpha   109.78510544
_cell_angle_beta   109.78510014
_cell_angle_gamma   109.78508515
_symmetry_Int_Tables_number   1
_chemical_formula_structural   Sr7CeP6
_chemical_formula_sum   'Sr7 Ce1 P6'
_cell_volume   389.45978891
_cell_formula_units_Z   1
loop_
 _symmetry_equiv_pos_site_id
 _symmetry_equiv_pos_as_xyz
  1  'x, y, z'
loop_
 _atom_site_type_symbol
 _atom_site_label
 _atom_site_symmetry_multiplicity
 _atom_site_fract_x
 _atom_site_fract_y
 _atom_site_fract_z
 _atom_site_occupancy
  Sr  Sr0  1  0.134549  0.134549  0.134549  1
  Sr  Sr1  1  0.494271  0.000808  0.870331  1
  Sr  Sr2  1  0.870331  0.494271  0.000808  1
  Sr  Sr3  1  0.000808  0.870331  0.494271  1
  Sr  Sr4  1  0.365948  0.499805  0.000622  1
  Sr  Sr5  1  0.000622  0.365948  0.499805  1
  Sr  Sr6  1  0.499805  0.000622  0.365948  1
  Ce  Ce7  1  0.636680  0.636680  0.636680  1
  P  P8  1  0.626398  0.391157  0.272805  1
  P  P9  1  0.272805  0.626398  0.391157  1
  P  P10  1  0.742351  0.862620  0.101654  1
  P  P11  1  0.101654  0.742351  0.862620  1
  P  P12  1  0.391157  0.272805  0.626398  1
  P  P13  1  0.862620  0.101654  0.742351  1
