# generated using pymatgen
data_CdNiPdO4
_symmetry_space_group_name_H-M   'P 1'
_cell_length_a   6.28944185
_cell_length_b   6.13582312
_cell_length_c   6.28944895
_cell_angle_alpha   60.84059751
_cell_angle_beta   88.68736808
_cell_angle_gamma   119.15875749
_symmetry_Int_Tables_number   1
_chemical_formula_structural   CdNiPdO4
_chemical_formula_sum   'Cd2 Ni2 Pd2 O8'
_cell_volume   173.97820857
_cell_formula_units_Z   2
loop_
 _symmetry_equiv_pos_site_id
 _symmetry_equiv_pos_as_xyz
  1  'x, y, z'
loop_
 _atom_site_type_symbol
 _atom_site_label
 _atom_site_symmetry_multiplicity
 _atom_site_fract_x
 _atom_site_fract_y
 _atom_site_fract_z
 _atom_site_occupancy
  Cd  Cd0  1  0.980059  0.999994  0.980054  1
  Cd  Cd1  1  0.770003  0.500002  0.769986  1
  Ni  Ni2  1  0.374871  0.250012  0.375118  1
  Ni  Ni3  1  0.375031  0.749979  0.374900  1
  Pd  Pd4  1  0.875031  0.250011  0.375019  1
  Pd  Pd5  1  0.375018  0.749993  0.874996  1
  O  O6  1  0.136160  0.285415  0.135741  1
  O  O7  1  0.614018  0.213964  0.185178  1
  O  O8  1  0.564826  0.713950  0.135938  1
  O  O9  1  0.135743  0.714581  0.136141  1
  O  O10  1  0.613839  0.214584  0.614274  1
  O  O11  1  0.135923  0.286057  0.564815  1
  O  O12  1  0.185198  0.786042  0.614024  1
  O  O13  1  0.614283  0.785416  0.613819  1
