# generated using pymatgen
data_La3TcH12Ir
_symmetry_space_group_name_H-M   'P 1'
_cell_length_a   4.98828000
_cell_length_b   4.98827933
_cell_length_c   8.78721500
_cell_angle_alpha   90.00000000
_cell_angle_beta   90.00000000
_cell_angle_gamma   119.99999121
_symmetry_Int_Tables_number   1
_chemical_formula_structural   La3TcH12Ir
_chemical_formula_sum   'La3 Tc1 H12 Ir1'
_cell_volume   189.35793563
_cell_formula_units_Z   1
loop_
 _symmetry_equiv_pos_site_id
 _symmetry_equiv_pos_as_xyz
  1  'x, y, z'
loop_
 _atom_site_type_symbol
 _atom_site_label
 _atom_site_symmetry_multiplicity
 _atom_site_fract_x
 _atom_site_fract_y
 _atom_site_fract_z
 _atom_site_occupancy
  La  La0  1  0.000000  0.000000  0.956926  1
  La  La1  1  0.666667  0.333333  0.366437  1
  La  La2  1  0.333333  0.666667  0.640751  1
  Tc  Tc3  1  0.666667  0.333333  0.764533  1
  H  H4  1  0.172567  0.827433  0.360515  1
  H  H5  1  0.654865  0.827433  0.360515  1
  H  H6  1  0.172567  0.345135  0.360515  1
  H  H7  1  0.830424  0.169576  0.640459  1
  H  H8  1  0.339152  0.169576  0.640459  1
  H  H9  1  0.830424  0.660848  0.640459  1
  H  H10  1  0.496512  0.993024  0.878533  1
  H  H11  1  0.496512  0.503488  0.878533  1
  H  H12  1  0.006976  0.503488  0.878533  1
  H  H13  1  0.489103  0.978205  0.129590  1
  H  H14  1  0.489103  0.510897  0.129590  1
  H  H15  1  0.021795  0.510897  0.129590  1
  Ir  Ir16  1  0.333333  0.666667  0.244060  1
