# generated using pymatgen
data_Dy4Er4Sc12Si15Os
_symmetry_space_group_name_H-M   'P 1'
_cell_length_a   7.06946311
_cell_length_b   7.42095798
_cell_length_c   13.92108211
_cell_angle_alpha   90.00292223
_cell_angle_beta   89.98613152
_cell_angle_gamma   90.17821260
_symmetry_Int_Tables_number   1
_chemical_formula_structural   Dy4Er4Sc12Si15Os
_chemical_formula_sum   'Dy4 Er4 Sc12 Si15 Os1'
_cell_volume   730.32688118
_cell_formula_units_Z   1
loop_
 _symmetry_equiv_pos_site_id
 _symmetry_equiv_pos_as_xyz
  1  'x, y, z'
loop_
 _atom_site_type_symbol
 _atom_site_label
 _atom_site_symmetry_multiplicity
 _atom_site_fract_x
 _atom_site_fract_y
 _atom_site_fract_z
 _atom_site_occupancy
  Dy  Dy0  1  0.511291  0.323173  0.095600  1
  Dy  Dy1  1  0.011146  0.178656  0.404333  1
  Dy  Dy2  1  0.511185  0.323196  0.403779  1
  Dy  Dy3  1  0.488627  0.676202  0.595738  1
  Er  Er4  1  0.011634  0.179363  0.095987  1
  Er  Er5  1  0.990789  0.827763  0.903675  1
  Er  Er6  1  0.488326  0.677069  0.903951  1
  Er  Er7  1  0.990523  0.827818  0.596784  1
  Sc  Sc8  1  0.156345  0.498813  0.750343  1
  Sc  Sc9  1  0.838589  0.496093  0.249866  1
  Sc  Sc10  1  0.339549  0.005469  0.249737  1
  Sc  Sc11  1  0.668252  0.997009  0.750205  1
  Sc  Sc12  1  0.317520  0.171580  0.627913  1
  Sc  Sc13  1  0.672472  0.825589  0.373673  1
  Sc  Sc14  1  0.171385  0.678572  0.374116  1
  Sc  Sc15  1  0.672358  0.825526  0.125789  1
  Sc  Sc16  1  0.837175  0.318730  0.627853  1
  Sc  Sc17  1  0.316979  0.171523  0.872493  1
  Sc  Sc18  1  0.837566  0.318355  0.872445  1
  Sc  Sc19  1  0.171304  0.678293  0.125581  1
  Si  Si20  1  0.969258  0.885978  0.249641  1
  Si  Si21  1  0.469495  0.614631  0.249723  1
  Si  Si22  1  0.529027  0.389292  0.750535  1
  Si  Si23  1  0.285683  0.865606  0.750449  1
  Si  Si24  1  0.714172  0.130836  0.249413  1
  Si  Si25  1  0.213424  0.370651  0.249549  1
  Si  Si26  1  0.778750  0.627213  0.750636  1
  Si  Si27  1  0.159065  0.469588  0.537475  1
  Si  Si28  1  0.844504  0.536941  0.461952  1
  Si  Si29  1  0.345001  0.965740  0.460172  1
  Si  Si30  1  0.844850  0.536019  0.038235  1
  Si  Si31  1  0.655852  0.033625  0.538527  1
  Si  Si32  1  0.160208  0.469335  0.962667  1
  Si  Si33  1  0.655540  0.032832  0.961301  1
  Si  Si34  1  0.343939  0.965494  0.039754  1
  Os  Os35  1  0.028211  0.107431  0.750109  1
