# generated using pymatgen
data_SmHoGaNi7B2
_symmetry_space_group_name_H-M   'P 1'
_cell_length_a   5.08646001
_cell_length_b   5.08585215
_cell_length_c   6.86628100
_cell_angle_alpha   90.00000000
_cell_angle_beta   90.00000000
_cell_angle_gamma   120.00990403
_symmetry_Int_Tables_number   1
_chemical_formula_structural   SmHoGaNi7B2
_chemical_formula_sum   'Sm1 Ho1 Ga1 Ni7 B2'
_cell_volume   153.81129151
_cell_formula_units_Z   1
loop_
 _symmetry_equiv_pos_site_id
 _symmetry_equiv_pos_as_xyz
  1  'x, y, z'
loop_
 _atom_site_type_symbol
 _atom_site_label
 _atom_site_symmetry_multiplicity
 _atom_site_fract_x
 _atom_site_fract_y
 _atom_site_fract_z
 _atom_site_occupancy
  Sm  Sm0  1  0.999956  0.999969  0.000000  1
  Ho  Ho1  1  0.999992  0.000006  0.500000  1
  Ga  Ga2  1  0.333286  0.666604  0.000000  1
  Ni  Ni3  1  0.666699  0.333407  0.000000  1
  Ni  Ni4  1  0.500634  0.001305  0.296867  1
  Ni  Ni5  1  0.500640  0.499347  0.296882  1
  Ni  Ni6  1  0.998676  0.499352  0.296908  1
  Ni  Ni7  1  0.500634  0.001305  0.703133  1
  Ni  Ni8  1  0.500640  0.499347  0.703118  1
  Ni  Ni9  1  0.998676  0.499352  0.703092  1
  B  B10  1  0.333348  0.666728  0.500000  1
  B  B11  1  0.666614  0.333276  0.500000  1
