# generated using pymatgen
data_Tb12Th4MgCd3Ru4
_symmetry_space_group_name_H-M   'P 1'
_cell_length_a   9.75260410
_cell_length_b   9.76961457
_cell_length_c   9.76961400
_cell_angle_alpha   60.00000194
_cell_angle_beta   59.94228755
_cell_angle_gamma   59.94228898
_symmetry_Int_Tables_number   1
_chemical_formula_structural   Tb12Th4MgCd3Ru4
_chemical_formula_sum   'Tb12 Th4 Mg1 Cd3 Ru4'
_cell_volume   657.62913703
_cell_formula_units_Z   1
loop_
 _symmetry_equiv_pos_site_id
 _symmetry_equiv_pos_as_xyz
  1  'x, y, z'
loop_
 _atom_site_type_symbol
 _atom_site_label
 _atom_site_symmetry_multiplicity
 _atom_site_fract_x
 _atom_site_fract_y
 _atom_site_fract_z
 _atom_site_occupancy
  Tb  Tb0  1  0.061367  0.438722  0.438722  1
  Tb  Tb1  1  0.437516  0.062306  0.062306  1
  Tb  Tb2  1  0.437516  0.062306  0.437873  1
  Tb  Tb3  1  0.061367  0.438722  0.061188  1
  Tb  Tb4  1  0.437516  0.437873  0.062306  1
  Tb  Tb5  1  0.061367  0.061188  0.438722  1
  Tb  Tb6  1  0.184510  0.813930  0.813930  1
  Tb  Tb7  1  0.813688  0.186146  0.186146  1
  Tb  Tb8  1  0.813688  0.186146  0.814020  1
  Tb  Tb9  1  0.184510  0.813930  0.187631  1
  Tb  Tb10  1  0.813688  0.814020  0.186146  1
  Tb  Tb11  1  0.184510  0.187631  0.813930  1
  Th  Th12  1  0.596775  0.596136  0.596136  1
  Th  Th13  1  0.596775  0.596136  0.210955  1
  Th  Th14  1  0.596775  0.210955  0.596136  1
  Th  Th15  1  0.208742  0.597087  0.597087  1
  Mg  Mg16  1  0.521317  0.826228  0.826228  1
  Cd  Cd17  1  0.830389  0.831105  0.831105  1
  Cd  Cd18  1  0.830389  0.831105  0.507401  1
  Cd  Cd19  1  0.830389  0.507401  0.831105  1
  Ru  Ru20  1  0.392999  0.393689  0.393689  1
  Ru  Ru21  1  0.392999  0.393689  0.819622  1
  Ru  Ru22  1  0.392999  0.819622  0.393689  1
  Ru  Ru23  1  0.818212  0.393929  0.393929  1
