# generated using pymatgen
data_Er12ZnIn(CoCu)2
_symmetry_space_group_name_H-M   'P 1'
_cell_length_a   8.32655171
_cell_length_b   8.32644248
_cell_length_c   8.32655053
_cell_angle_alpha   112.70429572
_cell_angle_beta   109.76080401
_cell_angle_gamma   106.01800305
_symmetry_Int_Tables_number   1
_chemical_formula_structural   Er12ZnIn(CoCu)2
_chemical_formula_sum   'Er12 Zn1 In1 Co2 Cu2'
_cell_volume   442.87718087
_cell_formula_units_Z   1
loop_
 _symmetry_equiv_pos_site_id
 _symmetry_equiv_pos_as_xyz
  1  'x, y, z'
loop_
 _atom_site_type_symbol
 _atom_site_label
 _atom_site_symmetry_multiplicity
 _atom_site_fract_x
 _atom_site_fract_y
 _atom_site_fract_z
 _atom_site_occupancy
  Er  Er0  1  0.429809  0.234472  0.195332  1
  Er  Er1  1  0.570191  0.765528  0.804668  1
  Er  Er2  1  0.039140  0.234472  0.804664  1
  Er  Er3  1  0.960860  0.765528  0.195336  1
  Er  Er4  1  0.181530  0.288496  0.470025  1
  Er  Er5  1  0.818470  0.711504  0.529975  1
  Er  Er6  1  0.181529  0.711504  0.893033  1
  Er  Er7  1  0.818471  0.288496  0.106967  1
  Er  Er8  1  0.310478  0.619184  0.308706  1
  Er  Er9  1  0.689522  0.380816  0.691294  1
  Er  Er10  1  0.310479  0.001777  0.691300  1
  Er  Er11  1  0.689521  0.998223  0.308700  1
  Zn  Zn12  1  0.000000  0.000000  0.000000  1
  In  In13  1  0.500000  0.500000  0.000000  1
  Co  Co14  1  0.112892  0.612890  0.499998  1
  Co  Co15  1  0.887108  0.387110  0.500002  1
  Cu  Cu16  1  0.355665  0.000000  0.355665  1
  Cu  Cu17  1  0.644335  0.000000  0.644335  1
