# generated using pymatgen
data_Ca3CrRuC6
_symmetry_space_group_name_H-M   'P 1'
_cell_length_a   8.25894600
_cell_length_b   8.25894560
_cell_length_c   5.12402700
_cell_angle_alpha   90.00000000
_cell_angle_beta   90.00000000
_cell_angle_gamma   120.00000963
_symmetry_Int_Tables_number   1
_chemical_formula_structural   Ca3CrRuC6
_chemical_formula_sum   'Ca6 Cr2 Ru2 C12'
_cell_volume   302.68523103
_cell_formula_units_Z   2
loop_
 _symmetry_equiv_pos_site_id
 _symmetry_equiv_pos_as_xyz
  1  'x, y, z'
loop_
 _atom_site_type_symbol
 _atom_site_label
 _atom_site_symmetry_multiplicity
 _atom_site_fract_x
 _atom_site_fract_y
 _atom_site_fract_z
 _atom_site_occupancy
  Ca  Ca0  1  0.608480  0.687380  0.750000  1
  Ca  Ca1  1  0.921101  0.608480  0.250000  1
  Ca  Ca2  1  0.687380  0.078899  0.250000  1
  Ca  Ca3  1  0.312620  0.921101  0.750000  1
  Ca  Ca4  1  0.078899  0.391520  0.750000  1
  Ca  Ca5  1  0.391520  0.312620  0.250000  1
  Cr  Cr6  1  0.000000  0.000000  0.500000  1
  Cr  Cr7  1  0.000000  0.000000  0.000000  1
  Ru  Ru8  1  0.666667  0.333333  0.750000  1
  Ru  Ru9  1  0.333333  0.666667  0.250000  1
  C  C10  1  0.954093  0.777244  0.750000  1
  C  C11  1  0.176851  0.954093  0.250000  1
  C  C12  1  0.777244  0.823149  0.250000  1
  C  C13  1  0.222756  0.176851  0.750000  1
  C  C14  1  0.823149  0.045907  0.750000  1
  C  C15  1  0.045907  0.222756  0.250000  1
  C  C16  1  0.862563  0.591153  0.750000  1
  C  C17  1  0.271410  0.862563  0.250000  1
  C  C18  1  0.591153  0.728590  0.250000  1
  C  C19  1  0.408847  0.271410  0.750000  1
  C  C20  1  0.137437  0.408847  0.250000  1
  C  C21  1  0.728590  0.137437  0.750000  1
