# generated using pymatgen
data_Th5Np3AlS17
_symmetry_space_group_name_H-M   'P 1'
_cell_length_a   7.99063168
_cell_length_b   7.97906585
_cell_length_c   10.53643600
_cell_angle_alpha   80.60274113
_cell_angle_beta   80.66551891
_cell_angle_gamma   65.25136191
_symmetry_Int_Tables_number   1
_chemical_formula_structural   Th5Np3AlS17
_chemical_formula_sum   'Th5 Np3 Al1 S17'
_cell_volume   598.58099999
_cell_formula_units_Z   1
loop_
 _symmetry_equiv_pos_site_id
 _symmetry_equiv_pos_as_xyz
  1  'x, y, z'
loop_
 _atom_site_type_symbol
 _atom_site_label
 _atom_site_symmetry_multiplicity
 _atom_site_fract_x
 _atom_site_fract_y
 _atom_site_fract_z
 _atom_site_occupancy
  Th  Th0  1  0.697553  0.186945  0.702867  1
  Th  Th1  1  0.206900  0.203416  0.544684  1
  Th  Th2  1  0.796093  0.794187  0.452922  1
  Th  Th3  1  0.680077  0.684142  0.977851  1
  Th  Th4  1  0.315901  0.320381  0.023980  1
  Np  Np5  1  0.814645  0.303633  0.292784  1
  Np  Np6  1  0.302298  0.812241  0.299768  1
  Np  Np7  1  0.186888  0.698361  0.699688  1
  Al  Al8  1  0.002104  0.997732  0.000798  1
  S  S9  1  0.824350  0.428447  0.529790  1
  S  S10  1  0.430075  0.820731  0.533348  1
  S  S11  1  0.178055  0.570602  0.467802  1
  S  S12  1  0.571503  0.177740  0.464352  1
  S  S13  1  0.940885  0.320217  0.028698  1
  S  S14  1  0.317558  0.943463  0.031447  1
  S  S15  1  0.057053  0.682515  0.969389  1
  S  S16  1  0.679712  0.058168  0.974144  1
  S  S17  1  0.203034  0.206519  0.278941  1
  S  S18  1  0.793338  0.791635  0.721205  1
  S  S19  1  0.058421  0.052458  0.777286  1
  S  S20  1  0.947737  0.945622  0.224489  1
  S  S21  1  0.300625  0.308092  0.756016  1
  S  S22  1  0.694642  0.692878  0.245097  1
  S  S23  1  0.516467  0.524941  0.830102  1
  S  S24  1  0.480656  0.478721  0.172297  1
  S  S25  1  0.003433  0.996217  0.500257  1
