# generated using pymatgen
data_Th3Si6(Pd7Rh3)2
_symmetry_space_group_name_H-M   'P 1'
_cell_length_a   8.72727942
_cell_length_b   8.74672499
_cell_length_c   8.74672300
_cell_angle_alpha   60.00000373
_cell_angle_beta   59.92627019
_cell_angle_gamma   59.92626957
_symmetry_Int_Tables_number   1
_chemical_formula_structural   Th3Si6(Pd7Rh3)2
_chemical_formula_sum   'Th3 Si6 Pd14 Rh6'
_cell_volume   471.59571383
_cell_formula_units_Z   1
loop_
 _symmetry_equiv_pos_site_id
 _symmetry_equiv_pos_as_xyz
  1  'x, y, z'
loop_
 _atom_site_type_symbol
 _atom_site_label
 _atom_site_symmetry_multiplicity
 _atom_site_fract_x
 _atom_site_fract_y
 _atom_site_fract_z
 _atom_site_occupancy
  Th  Th0  1  0.258565  0.247145  0.247145  1
  Th  Th1  1  0.741435  0.752855  0.752855  1
  Th  Th2  1  0.000000  0.000000  0.000000  1
  Si  Si3  1  0.719520  0.277163  0.277163  1
  Si  Si4  1  0.280480  0.722837  0.722837  1
  Si  Si5  1  0.280480  0.722837  0.273846  1
  Si  Si6  1  0.719520  0.277163  0.726154  1
  Si  Si7  1  0.280480  0.273846  0.722837  1
  Si  Si8  1  0.719520  0.726154  0.277163  1
  Pd  Pd9  1  0.849620  0.383460  0.383460  1
  Pd  Pd10  1  0.150380  0.616540  0.616540  1
  Pd  Pd11  1  0.342775  0.000801  0.000801  1
  Pd  Pd12  1  0.657225  0.999199  0.999199  1
  Pd  Pd13  1  0.000000  0.344157  0.655843  1
  Pd  Pd14  1  0.000000  0.655843  0.344157  1
  Pd  Pd15  1  0.000000  0.344157  0.000000  1
  Pd  Pd16  1  0.657225  0.999199  0.344377  1
  Pd  Pd17  1  0.000000  0.655843  0.000000  1
  Pd  Pd18  1  0.342775  0.000801  0.655623  1
  Pd  Pd19  1  0.000000  0.000000  0.344157  1
  Pd  Pd20  1  0.000000  0.000000  0.655843  1
  Pd  Pd21  1  0.657225  0.344377  0.999199  1
  Pd  Pd22  1  0.342775  0.655623  0.000801  1
  Rh  Rh23  1  0.380649  0.383635  0.383635  1
  Rh  Rh24  1  0.619351  0.616365  0.616365  1
  Rh  Rh25  1  0.380649  0.383635  0.852082  1
  Rh  Rh26  1  0.380649  0.852082  0.383635  1
  Rh  Rh27  1  0.619351  0.616365  0.147918  1
  Rh  Rh28  1  0.619351  0.147918  0.616365  1
