# generated using pymatgen
data_PrNdCrGeO8
_symmetry_space_group_name_H-M   'P 1'
_cell_length_a   6.17557068
_cell_length_b   6.17557025
_cell_length_c   6.17557143
_cell_angle_alpha   105.95515582
_cell_angle_beta   105.95515446
_cell_angle_gamma   116.75844925
_symmetry_Int_Tables_number   1
_chemical_formula_structural   PrNdCrGeO8
_chemical_formula_sum   'Pr1 Nd1 Cr1 Ge1 O8'
_cell_volume   179.07861615
_cell_formula_units_Z   1
loop_
 _symmetry_equiv_pos_site_id
 _symmetry_equiv_pos_as_xyz
  1  'x, y, z'
loop_
 _atom_site_type_symbol
 _atom_site_label
 _atom_site_symmetry_multiplicity
 _atom_site_fract_x
 _atom_site_fract_y
 _atom_site_fract_z
 _atom_site_occupancy
  Pr  Pr0  1  0.000000  0.000000  0.000000  1
  Nd  Nd1  1  0.250000  0.750000  0.500000  1
  Cr  Cr2  1  0.500000  0.500000  0.000000  1
  Ge  Ge3  1  0.750000  0.250000  0.500000  1
  O  O4  1  0.342075  0.518081  0.176006  1
  O  O5  1  0.387064  0.068756  0.318306  1
  O  O6  1  0.750450  0.068756  0.681694  1
  O  O7  1  0.342075  0.166068  0.823994  1
  O  O8  1  0.833932  0.657925  0.176006  1
  O  O9  1  0.931244  0.249550  0.318306  1
  O  O10  1  0.931244  0.612936  0.681694  1
  O  O11  1  0.481919  0.657925  0.823994  1
