# generated using pymatgen
data_SmHo5Al24(Os3Ru)2
_symmetry_space_group_name_H-M   'P 1'
_cell_length_a   8.81929217
_cell_length_b   8.83699876
_cell_length_c   9.56001100
_cell_angle_alpha   90.00000000
_cell_angle_beta   90.00000000
_cell_angle_gamma   120.06643636
_symmetry_Int_Tables_number   1
_chemical_formula_structural   SmHo5Al24(Os3Ru)2
_chemical_formula_sum   'Sm1 Ho5 Al24 Os6 Ru2'
_cell_volume   644.81690873
_cell_formula_units_Z   1
loop_
 _symmetry_equiv_pos_site_id
 _symmetry_equiv_pos_as_xyz
  1  'x, y, z'
loop_
 _atom_site_type_symbol
 _atom_site_label
 _atom_site_symmetry_multiplicity
 _atom_site_fract_x
 _atom_site_fract_y
 _atom_site_fract_z
 _atom_site_occupancy
  Sm  Sm0  1  0.385796  0.192898  0.750000  1
  Ho  Ho1  1  0.193643  0.806386  0.250000  1
  Ho  Ho2  1  0.193643  0.387256  0.250000  1
  Ho  Ho3  1  0.613034  0.806517  0.250000  1
  Ho  Ho4  1  0.806080  0.193827  0.750000  1
  Ho  Ho5  1  0.806080  0.612252  0.750000  1
  Al  Al6  1  0.560651  0.439911  0.250000  1
  Al  Al7  1  0.560651  0.120740  0.250000  1
  Al  Al8  1  0.879102  0.439552  0.250000  1
  Al  Al9  1  0.439623  0.562318  0.750000  1
  Al  Al10  1  0.439623  0.877304  0.750000  1
  Al  Al11  1  0.120719  0.560359  0.750000  1
  Al  Al12  1  0.323864  0.161932  0.422026  1
  Al  Al13  1  0.838327  0.161798  0.423190  1
  Al  Al14  1  0.838327  0.676530  0.423190  1
  Al  Al15  1  0.676115  0.838057  0.576009  1
  Al  Al16  1  0.161281  0.836997  0.575888  1
  Al  Al17  1  0.161281  0.324283  0.575888  1
  Al  Al18  1  0.676115  0.838057  0.923991  1
  Al  Al19  1  0.161281  0.836997  0.924112  1
  Al  Al20  1  0.161281  0.324283  0.924112  1
  Al  Al21  1  0.323864  0.161932  0.077974  1
  Al  Al22  1  0.838327  0.161798  0.076810  1
  Al  Al23  1  0.838327  0.676530  0.076810  1
  Al  Al24  1  0.667241  0.333620  0.514499  1
  Al  Al25  1  0.333709  0.666855  0.484359  1
  Al  Al26  1  0.333709  0.666855  0.015641  1
  Al  Al27  1  0.667241  0.333620  0.985501  1
  Al  Al28  1  0.000182  0.000091  0.250000  1
  Al  Al29  1  0.997278  0.998639  0.750000  1
  Os  Os30  1  0.500519  0.501113  0.499127  1
  Os  Os31  1  0.500519  0.999406  0.499127  1
  Os  Os32  1  0.000574  0.500287  0.499542  1
  Os  Os33  1  0.500519  0.501113  0.000873  1
  Os  Os34  1  0.500519  0.999406  0.000873  1
  Os  Os35  1  0.000574  0.500287  0.000458  1
  Ru  Ru36  1  0.000193  0.000097  0.499770  1
  Ru  Ru37  1  0.000193  0.000097  0.000230  1
