# generated using pymatgen
data_Er4Ga2OsRu5
_symmetry_space_group_name_H-M   'P 1'
_cell_length_a   5.26410564
_cell_length_b   5.38016792
_cell_length_c   8.83317900
_cell_angle_alpha   90.00000000
_cell_angle_beta   90.00000000
_cell_angle_gamma   120.73205926
_symmetry_Int_Tables_number   1
_chemical_formula_structural   Er4Ga2OsRu5
_chemical_formula_sum   'Er4 Ga2 Os1 Ru5'
_cell_volume   215.03884707
_cell_formula_units_Z   1
loop_
 _symmetry_equiv_pos_site_id
 _symmetry_equiv_pos_as_xyz
  1  'x, y, z'
loop_
 _atom_site_type_symbol
 _atom_site_label
 _atom_site_symmetry_multiplicity
 _atom_site_fract_x
 _atom_site_fract_y
 _atom_site_fract_z
 _atom_site_occupancy
  Er  Er0  1  0.335779  0.667891  0.432087  1
  Er  Er1  1  0.660609  0.330304  0.558483  1
  Er  Er2  1  0.660609  0.330304  0.941517  1
  Er  Er3  1  0.335779  0.667891  0.067913  1
  Ga  Ga4  1  0.173937  0.340628  0.750000  1
  Ga  Ga5  1  0.173937  0.833309  0.750000  1
  Os  Os6  1  0.337518  0.168759  0.250000  1
  Ru  Ru7  1  0.821813  0.657086  0.250000  1
  Ru  Ru8  1  0.665174  0.832587  0.750000  1
  Ru  Ru9  1  0.006515  0.003257  0.000132  1
  Ru  Ru10  1  0.821813  0.164727  0.250000  1
  Ru  Ru11  1  0.006515  0.003257  0.499868  1
