# generated using pymatgen
data_Ho2Tm2Ga6Ir7
_symmetry_space_group_name_H-M   'P 1'
_cell_length_a   7.26799731
_cell_length_b   7.25760732
_cell_length_c   7.26799755
_cell_angle_alpha   109.41226852
_cell_angle_beta   109.64696746
_cell_angle_gamma   109.41228790
_symmetry_Int_Tables_number   1
_chemical_formula_structural   Ho2Tm2Ga6Ir7
_chemical_formula_sum   'Ho2 Tm2 Ga6 Ir7'
_cell_volume   294.90950348
_cell_formula_units_Z   1
loop_
 _symmetry_equiv_pos_site_id
 _symmetry_equiv_pos_as_xyz
  1  'x, y, z'
loop_
 _atom_site_type_symbol
 _atom_site_label
 _atom_site_symmetry_multiplicity
 _atom_site_fract_x
 _atom_site_fract_y
 _atom_site_fract_z
 _atom_site_occupancy
  Ho  Ho0  1  0.000000  0.500000  0.000000  1
  Ho  Ho1  1  0.500000  0.500000  0.500000  1
  Tm  Tm2  1  0.000000  0.000000  0.500000  1
  Tm  Tm3  1  0.500000  0.000000  0.000000  1
  Ga  Ga4  1  0.687485  0.688005  0.000521  1
  Ga  Ga5  1  0.312551  0.000000  0.312551  1
  Ga  Ga6  1  0.999479  0.311995  0.312515  1
  Ga  Ga7  1  0.312515  0.311995  0.999479  1
  Ga  Ga8  1  0.687449  0.000000  0.687449  1
  Ga  Ga9  1  0.000521  0.688005  0.687485  1
  Ir  Ir10  1  0.750016  0.248527  0.498511  1
  Ir  Ir11  1  0.750000  0.500000  0.250000  1
  Ir  Ir12  1  0.498511  0.248527  0.750016  1
  Ir  Ir13  1  0.250000  0.500000  0.750000  1
  Ir  Ir14  1  0.249984  0.751473  0.501489  1
  Ir  Ir15  1  0.501489  0.751473  0.249984  1
  Ir  Ir16  1  0.000000  0.000000  0.000000  1
