# generated using pymatgen
data_Yb11SmSi11Ag12Ge
_symmetry_space_group_name_H-M   'P 1'
_cell_length_a   4.51173200
_cell_length_b   7.72372907
_cell_length_c   21.33902029
_cell_angle_alpha   90.03963674
_cell_angle_beta   90.00000000
_cell_angle_gamma   90.00000000
_symmetry_Int_Tables_number   1
_chemical_formula_structural   Yb11SmSi11Ag12Ge
_chemical_formula_sum   'Yb11 Sm1 Si11 Ag12 Ge1'
_cell_volume   743.60910376
_cell_formula_units_Z   1
loop_
 _symmetry_equiv_pos_site_id
 _symmetry_equiv_pos_as_xyz
  1  'x, y, z'
loop_
 _atom_site_type_symbol
 _atom_site_label
 _atom_site_symmetry_multiplicity
 _atom_site_fract_x
 _atom_site_fract_y
 _atom_site_fract_z
 _atom_site_occupancy
  Yb  Yb0  1  0.250000  0.219719  0.001081  1
  Yb  Yb1  1  0.250000  0.278609  0.499709  1
  Yb  Yb2  1  0.750000  0.777641  0.001902  1
  Yb  Yb3  1  0.750000  0.718126  0.499246  1
  Yb  Yb4  1  0.250000  0.204204  0.333253  1
  Yb  Yb5  1  0.250000  0.290937  0.832995  1
  Yb  Yb6  1  0.750000  0.795535  0.665885  1
  Yb  Yb7  1  0.750000  0.704613  0.166731  1
  Yb  Yb8  1  0.250000  0.209979  0.665803  1
  Yb  Yb9  1  0.250000  0.292528  0.167341  1
  Yb  Yb10  1  0.750000  0.791795  0.332577  1
  Sm  Sm11  1  0.750000  0.707774  0.833421  1
  Si  Si12  1  0.250000  0.582519  0.726581  1
  Si  Si13  1  0.250000  0.918722  0.224113  1
  Si  Si14  1  0.750000  0.418447  0.275482  1
  Si  Si15  1  0.750000  0.079968  0.775407  1
  Si  Si16  1  0.250000  0.913161  0.106297  1
  Si  Si17  1  0.250000  0.586935  0.607576  1
  Si  Si18  1  0.750000  0.086724  0.893671  1
  Si  Si19  1  0.750000  0.413157  0.393307  1
  Si  Si20  1  0.250000  0.592779  0.920586  1
  Si  Si21  1  0.250000  0.909028  0.428434  1
  Si  Si22  1  0.750000  0.409712  0.071458  1
  Ag  Ag23  1  0.250000  0.916306  0.760726  1
  Ag  Ag24  1  0.250000  0.587879  0.262218  1
  Ag  Ag25  1  0.750000  0.088212  0.237990  1
  Ag  Ag26  1  0.750000  0.408539  0.737093  1
  Ag  Ag27  1  0.250000  0.923743  0.907499  1
  Ag  Ag28  1  0.250000  0.581341  0.405483  1
  Ag  Ag29  1  0.750000  0.082051  0.094711  1
  Ag  Ag30  1  0.750000  0.426777  0.594667  1
  Ag  Ag31  1  0.250000  0.908360  0.564096  1
  Ag  Ag32  1  0.250000  0.582974  0.067855  1
  Ag  Ag33  1  0.750000  0.083518  0.432105  1
  Ag  Ag34  1  0.750000  0.414658  0.938935  1
  Ge  Ge35  1  0.750000  0.093027  0.573771  1
