# generated using pymatgen
data_YLuFeB6
_symmetry_space_group_name_H-M   'P 1'
_cell_length_a   3.51602500
_cell_length_b   9.02023600
_cell_length_c   11.39845000
_cell_angle_alpha   90.00000000
_cell_angle_beta   90.00000000
_cell_angle_gamma   90.00000000
_symmetry_Int_Tables_number   1
_chemical_formula_structural   YLuFeB6
_chemical_formula_sum   'Y4 Lu4 Fe4 B24'
_cell_volume   361.50611938
_cell_formula_units_Z   4
loop_
 _symmetry_equiv_pos_site_id
 _symmetry_equiv_pos_as_xyz
  1  'x, y, z'
loop_
 _atom_site_type_symbol
 _atom_site_label
 _atom_site_symmetry_multiplicity
 _atom_site_fract_x
 _atom_site_fract_y
 _atom_site_fract_z
 _atom_site_occupancy
  Y  Y0  1  0.000000  0.823228  0.085610  1
  Y  Y1  1  0.000000  0.176772  0.914390  1
  Y  Y2  1  0.000000  0.323228  0.414390  1
  Y  Y3  1  0.000000  0.676772  0.585610  1
  Lu  Lu4  1  0.000000  0.443436  0.129259  1
  Lu  Lu5  1  0.000000  0.556564  0.870741  1
  Lu  Lu6  1  0.000000  0.943436  0.370741  1
  Lu  Lu7  1  0.000000  0.056564  0.629259  1
  Fe  Fe8  1  0.000000  0.139431  0.180410  1
  Fe  Fe9  1  0.000000  0.860569  0.819590  1
  Fe  Fe10  1  0.000000  0.639431  0.319590  1
  Fe  Fe11  1  0.000000  0.360569  0.680410  1
  B  B12  1  0.500000  0.055025  0.068636  1
  B  B13  1  0.500000  0.944975  0.931364  1
  B  B14  1  0.500000  0.555025  0.431364  1
  B  B15  1  0.500000  0.444975  0.568636  1
  B  B16  1  0.500000  0.248172  0.082112  1
  B  B17  1  0.500000  0.751828  0.917888  1
  B  B18  1  0.500000  0.748172  0.417888  1
  B  B19  1  0.500000  0.251828  0.582112  1
  B  B20  1  0.500000  0.290057  0.233601  1
  B  B21  1  0.500000  0.709943  0.766399  1
  B  B22  1  0.500000  0.790057  0.266399  1
  B  B23  1  0.500000  0.209943  0.733601  1
  B  B24  1  0.500000  0.131203  0.314485  1
  B  B25  1  0.500000  0.868797  0.685515  1
  B  B26  1  0.500000  0.631203  0.185515  1
  B  B27  1  0.500000  0.368797  0.814485  1
  B  B28  1  0.500000  0.485692  0.287494  1
  B  B29  1  0.500000  0.514308  0.712506  1
  B  B30  1  0.500000  0.985692  0.212506  1
  B  B31  1  0.500000  0.014308  0.787494  1
  B  B32  1  0.500000  0.105358  0.471208  1
  B  B33  1  0.500000  0.894642  0.528792  1
  B  B34  1  0.500000  0.605358  0.028792  1
  B  B35  1  0.500000  0.394642  0.971208  1
