# generated using pymatgen
data_Sr6TiFe3(IrO9)2
_symmetry_space_group_name_H-M   'P 1'
_cell_length_a   9.70884133
_cell_length_b   9.70884157
_cell_length_c   5.59139517
_cell_angle_alpha   73.30995425
_cell_angle_beta   73.30994951
_cell_angle_gamma   48.73724092
_symmetry_Int_Tables_number   1
_chemical_formula_structural   Sr6TiFe3(IrO9)2
_chemical_formula_sum   'Sr6 Ti1 Fe3 Ir2 O18'
_cell_volume   375.97648429
_cell_formula_units_Z   1
loop_
 _symmetry_equiv_pos_site_id
 _symmetry_equiv_pos_as_xyz
  1  'x, y, z'
loop_
 _atom_site_type_symbol
 _atom_site_label
 _atom_site_symmetry_multiplicity
 _atom_site_fract_x
 _atom_site_fract_y
 _atom_site_fract_z
 _atom_site_occupancy
  Sr  Sr0  1  0.917659  0.408993  0.834976  1
  Sr  Sr1  1  0.241383  0.758617  0.500000  1
  Sr  Sr2  1  0.591007  0.082341  0.165024  1
  Sr  Sr3  1  0.758617  0.241383  0.500000  1
  Sr  Sr4  1  0.082341  0.591007  0.165024  1
  Sr  Sr5  1  0.408993  0.917659  0.834976  1
  Ti  Ti6  1  0.000000  0.000000  0.000000  1
  Fe  Fe7  1  0.500000  0.500000  0.000000  1
  Fe  Fe8  1  0.835804  0.835804  0.664254  1
  Fe  Fe9  1  0.164196  0.164196  0.335746  1
  Ir  Ir10  1  0.333010  0.333010  0.667080  1
  Ir  Ir11  1  0.666990  0.666990  0.332920  1
  O  O12  1  0.420821  0.913094  0.332389  1
  O  O13  1  0.750686  0.249314  0.000000  1
  O  O14  1  0.086906  0.579179  0.667611  1
  O  O15  1  0.913094  0.420821  0.332389  1
  O  O16  1  0.249314  0.750686  0.000000  1
  O  O17  1  0.579179  0.086906  0.667611  1
  O  O18  1  0.073445  0.073445  0.200795  1
  O  O19  1  0.400759  0.400759  0.887880  1
  O  O20  1  0.735051  0.735051  0.552602  1
  O  O21  1  0.599241  0.599241  0.112120  1
  O  O22  1  0.926555  0.926555  0.799205  1
  O  O23  1  0.264949  0.264949  0.447398  1
  O  O24  1  0.571048  0.571048  0.631571  1
  O  O25  1  0.907413  0.907413  0.313219  1
  O  O26  1  0.237969  0.237969  0.966089  1
  O  O27  1  0.092587  0.092587  0.686781  1
  O  O28  1  0.428952  0.428952  0.368429  1
  O  O29  1  0.762031  0.762031  0.033911  1
