# generated using pymatgen
data_Zr10CN8
_symmetry_space_group_name_H-M   'P 1'
_cell_length_a   5.66971608
_cell_length_b   5.66948569
_cell_length_c   8.66375065
_cell_angle_alpha   70.94219176
_cell_angle_beta   71.00082269
_cell_angle_gamma   80.34550838
_symmetry_Int_Tables_number   1
_chemical_formula_structural   Zr10CN8
_chemical_formula_sum   'Zr10 C1 N8'
_cell_volume   248.29872586
_cell_formula_units_Z   1
loop_
 _symmetry_equiv_pos_site_id
 _symmetry_equiv_pos_as_xyz
  1  'x, y, z'
loop_
 _atom_site_type_symbol
 _atom_site_label
 _atom_site_symmetry_multiplicity
 _atom_site_fract_x
 _atom_site_fract_y
 _atom_site_fract_z
 _atom_site_occupancy
  Zr  Zr0  1  0.635083  0.256507  0.949418  1
  Zr  Zr1  1  0.949330  0.739331  0.846387  1
  Zr  Zr2  1  0.050670  0.260669  0.153613  1
  Zr  Zr3  1  0.364917  0.743493  0.050582  1
  Zr  Zr4  1  0.451112  0.248971  0.346874  1
  Zr  Zr5  1  0.741153  0.741643  0.258145  1
  Zr  Zr6  1  0.849102  0.248862  0.553124  1
  Zr  Zr7  1  0.150898  0.751138  0.446876  1
  Zr  Zr8  1  0.258847  0.258357  0.741855  1
  Zr  Zr9  1  0.548888  0.751029  0.653126  1
  C  C10  1  0.500000  0.500000  0.500000  1
  N  N11  1  0.602741  0.999673  0.801859  1
  N  N12  1  0.298285  0.502665  0.900305  1
  N  N13  1  0.397259  0.000327  0.198141  1
  N  N14  1  0.701715  0.497335  0.099695  1
  N  N15  1  0.798830  0.002487  0.400523  1
  N  N16  1  0.100360  0.499916  0.300607  1
  N  N17  1  0.201170  0.997513  0.599477  1
  N  N18  1  0.899640  0.500084  0.699393  1
