# generated using pymatgen
data_La5Ga2SnO
_symmetry_space_group_name_H-M   'P 1'
_cell_length_a   9.32738685
_cell_length_b   9.32738675
_cell_length_c   9.32738596
_cell_angle_alpha   125.25441371
_cell_angle_beta   125.25441408
_cell_angle_gamma   81.11706064
_symmetry_Int_Tables_number   1
_chemical_formula_structural   La5Ga2SnO
_chemical_formula_sum   'La10 Ga4 Sn2 O2'
_cell_volume   521.31807654
_cell_formula_units_Z   2
loop_
 _symmetry_equiv_pos_site_id
 _symmetry_equiv_pos_as_xyz
  1  'x, y, z'
loop_
 _atom_site_type_symbol
 _atom_site_label
 _atom_site_symmetry_multiplicity
 _atom_site_fract_x
 _atom_site_fract_y
 _atom_site_fract_z
 _atom_site_occupancy
  La  La0  1  0.493150  0.302283  0.500000  1
  La  La1  1  0.802283  0.993150  0.500000  1
  La  La2  1  0.993150  0.493150  0.190867  1
  La  La3  1  0.302283  0.802283  0.809133  1
  La  La4  1  0.508368  0.698756  0.500000  1
  La  La5  1  0.198756  0.008368  0.500000  1
  La  La6  1  0.008368  0.508368  0.809611  1
  La  La7  1  0.698756  0.198756  0.190389  1
  La  La8  1  0.505729  0.505729  0.000000  1
  La  La9  1  0.005729  0.005729  0.000000  1
  Ga  Ga10  1  0.134780  0.365397  0.500000  1
  Ga  Ga11  1  0.865397  0.634780  0.500000  1
  Ga  Ga12  1  0.634780  0.134780  0.769383  1
  Ga  Ga13  1  0.365397  0.865397  0.230617  1
  Sn  Sn14  1  0.752491  0.752491  0.000000  1
  Sn  Sn15  1  0.252491  0.252491  0.000000  1
  O  O16  1  0.750466  0.250466  0.500000  1
  O  O17  1  0.250466  0.750466  0.500000  1
