# generated using pymatgen
data_Pa2NiBi3Sb
_symmetry_space_group_name_H-M   'P 1'
_cell_length_a   4.52333100
_cell_length_b   4.46479900
_cell_length_c   9.09822400
_cell_angle_alpha   90.00000000
_cell_angle_beta   90.00000000
_cell_angle_gamma   90.00000000
_symmetry_Int_Tables_number   1
_chemical_formula_structural   Pa2NiBi3Sb
_chemical_formula_sum   'Pa2 Ni1 Bi3 Sb1'
_cell_volume   183.74558223
_cell_formula_units_Z   1
loop_
 _symmetry_equiv_pos_site_id
 _symmetry_equiv_pos_as_xyz
  1  'x, y, z'
loop_
 _atom_site_type_symbol
 _atom_site_label
 _atom_site_symmetry_multiplicity
 _atom_site_fract_x
 _atom_site_fract_y
 _atom_site_fract_z
 _atom_site_occupancy
  Pa  Pa0  1  0.500000  0.000000  0.216088  1
  Pa  Pa1  1  0.000000  0.500000  0.783580  1
  Ni  Ni2  1  0.000000  0.000000  0.005888  1
  Bi  Bi3  1  0.000000  0.000000  0.498776  1
  Bi  Bi4  1  0.500000  0.500000  0.499624  1
  Bi  Bi5  1  0.500000  0.000000  0.846488  1
  Sb  Sb6  1  0.000000  0.500000  0.149557  1
