# generated using pymatgen
data_Zr8Si16(TcRu3)3
_symmetry_space_group_name_H-M   'P 1'
_cell_length_a   9.95697484
_cell_length_b   9.95779525
_cell_length_c   13.41308343
_cell_angle_alpha   54.07685008
_cell_angle_beta   54.08766874
_cell_angle_gamma   31.22904042
_symmetry_Int_Tables_number   1
_chemical_formula_structural   Zr8Si16(TcRu3)3
_chemical_formula_sum   'Zr8 Si16 Tc3 Ru9'
_cell_volume   546.83737190
_cell_formula_units_Z   1
loop_
 _symmetry_equiv_pos_site_id
 _symmetry_equiv_pos_as_xyz
  1  'x, y, z'
loop_
 _atom_site_type_symbol
 _atom_site_label
 _atom_site_symmetry_multiplicity
 _atom_site_fract_x
 _atom_site_fract_y
 _atom_site_fract_z
 _atom_site_occupancy
  Zr  Zr0  1  0.034659  0.296957  0.636882  1
  Zr  Zr1  1  0.703046  0.965055  0.862996  1
  Zr  Zr2  1  0.965469  0.703318  0.363147  1
  Zr  Zr3  1  0.296264  0.036380  0.137331  1
  Zr  Zr4  1  0.293926  0.558325  0.646495  1
  Zr  Zr5  1  0.443395  0.705969  0.850394  1
  Zr  Zr6  1  0.705636  0.441930  0.353748  1
  Zr  Zr7  1  0.559775  0.292878  0.146103  1
  Si  Si8  1  0.971356  0.255206  0.894428  1
  Si  Si9  1  0.744295  0.027162  0.606628  1
  Si  Si10  1  0.027905  0.744999  0.105909  1
  Si  Si11  1  0.256040  0.971896  0.393614  1
  Si  Si12  1  0.142131  0.389155  0.896090  1
  Si  Si13  1  0.610479  0.859961  0.602915  1
  Si  Si14  1  0.859120  0.610554  0.103990  1
  Si  Si15  1  0.390331  0.139956  0.396871  1
  Si  Si16  1  0.084463  0.569561  0.567824  1
  Si  Si17  1  0.428605  0.914831  0.934012  1
  Si  Si18  1  0.916453  0.429570  0.432650  1
  Si  Si19  1  0.571003  0.083804  0.066834  1
  Si  Si20  1  0.612770  0.386803  0.750134  1
  Si  Si21  1  0.386356  0.613823  0.248921  1
  Si  Si22  1  0.118531  0.881335  0.749675  1
  Si  Si23  1  0.879173  0.120434  0.250200  1
  Tc  Tc24  1  0.892665  0.150433  0.582283  1
  Tc  Tc25  1  0.851250  0.105373  0.917562  1
  Tc  Tc26  1  0.106415  0.850514  0.416348  1
  Ru  Ru27  1  0.145735  0.897294  0.083001  1
  Ru  Ru28  1  0.830964  0.644452  0.782282  1
  Ru  Ru29  1  0.353888  0.167819  0.720300  1
  Ru  Ru30  1  0.170632  0.354094  0.218861  1
  Ru  Ru31  1  0.647513  0.830066  0.280601  1
  Ru  Ru32  1  0.239111  0.517429  0.932299  1
  Ru  Ru33  1  0.482611  0.760968  0.567765  1
  Ru  Ru34  1  0.760904  0.482045  0.068855  1
  Ru  Ru35  1  0.517133  0.239653  0.432054  1
