# generated using pymatgen
data_Mn16PbO32
_symmetry_space_group_name_H-M   'P 1'
_cell_length_a   5.90713502
_cell_length_b   9.85362227
_cell_length_c   9.97252000
_cell_angle_alpha   89.98657969
_cell_angle_beta   89.99536368
_cell_angle_gamma   90.00006869
_symmetry_Int_Tables_number   1
_chemical_formula_structural   Mn16PbO32
_chemical_formula_sum   'Mn16 Pb1 O32'
_cell_volume   580.46723449
_cell_formula_units_Z   1
loop_
 _symmetry_equiv_pos_site_id
 _symmetry_equiv_pos_as_xyz
  1  'x, y, z'
loop_
 _atom_site_type_symbol
 _atom_site_label
 _atom_site_symmetry_multiplicity
 _atom_site_fract_x
 _atom_site_fract_y
 _atom_site_fract_z
 _atom_site_occupancy
  Mn  Mn0  1  0.500053  0.170620  0.352663  1
  Mn  Mn1  1  0.000011  0.163807  0.346048  1
  Mn  Mn2  1  0.500005  0.348333  0.832123  1
  Mn  Mn3  1  0.000012  0.346749  0.833248  1
  Mn  Mn4  1  0.000034  0.655607  0.155916  1
  Mn  Mn5  1  0.499986  0.647069  0.165575  1
  Mn  Mn6  1  0.000090  0.833726  0.647542  1
  Mn  Mn7  1  0.500117  0.831383  0.644850  1
  Mn  Mn8  1  0.750941  0.666762  0.845158  1
  Mn  Mn9  1  0.248986  0.666688  0.845114  1
  Mn  Mn10  1  0.751836  0.847728  0.331138  1
  Mn  Mn11  1  0.248298  0.847723  0.330991  1
  Mn  Mn12  1  0.750030  0.150915  0.665319  1
  Mn  Mn13  1  0.249941  0.150933  0.665293  1
  Mn  Mn14  1  0.750520  0.330937  0.148482  1
  Mn  Mn15  1  0.249302  0.330854  0.148550  1
  Pb  Pb16  1  0.999862  0.504474  0.451365  1
  O  O17  1  0.749133  0.956816  0.657769  1
  O  O18  1  0.250927  0.956823  0.657778  1
  O  O19  1  0.753509  0.664806  0.035343  1
  O  O20  1  0.246517  0.664819  0.035343  1
  O  O21  1  0.749263  0.332715  0.954726  1
  O  O22  1  0.250670  0.332721  0.954686  1
  O  O23  1  0.754010  0.040719  0.339036  1
  O  O24  1  0.245983  0.040725  0.339036  1
  O  O25  1  0.000022  0.457323  0.161797  1
  O  O26  1  0.499948  0.453562  0.161028  1
  O  O27  1  0.999983  0.171566  0.541750  1
  O  O28  1  0.500026  0.171501  0.544241  1
  O  O29  1  0.500005  0.830100  0.453278  1
  O  O30  1  0.000040  0.828433  0.454886  1
  O  O31  1  0.500012  0.542033  0.831493  1
  O  O32  1  0.999929  0.541383  0.828514  1
  O  O33  1  0.499943  0.795903  0.836322  1
  O  O34  1  0.000032  0.796343  0.837885  1
  O  O35  1  0.000025  0.846486  0.201458  1
  O  O36  1  0.500056  0.839600  0.204675  1
  O  O37  1  0.999976  0.201310  0.153693  1
  O  O38  1  0.500005  0.203105  0.160147  1
  O  O39  1  0.499957  0.154729  0.793131  1
  O  O40  1  0.000007  0.153450  0.792787  1
  O  O41  1  0.765793  0.306096  0.342490  1
  O  O42  1  0.234181  0.306096  0.342487  1
  O  O43  1  0.752094  0.345329  0.702970  1
  O  O44  1  0.247882  0.345363  0.702998  1
  O  O45  1  0.752633  0.701996  0.647722  1
  O  O46  1  0.247382  0.702015  0.647703  1
  O  O47  1  0.767201  0.648746  0.296787  1
  O  O48  1  0.232833  0.648736  0.296768  1
