# generated using pymatgen
data_ErHfTi4Sn5
_symmetry_space_group_name_H-M   'P 1'
_cell_length_a   10.66322344
_cell_length_b   10.68189669
_cell_length_c   10.68189500
_cell_angle_alpha   148.91310189
_cell_angle_beta   131.75352204
_cell_angle_gamma   58.52937795
_symmetry_Int_Tables_number   1
_chemical_formula_structural   ErHfTi4Sn5
_chemical_formula_sum   'Er2 Hf2 Ti8 Sn10'
_cell_volume   464.98200202
_cell_formula_units_Z   2
loop_
 _symmetry_equiv_pos_site_id
 _symmetry_equiv_pos_as_xyz
  1  'x, y, z'
loop_
 _atom_site_type_symbol
 _atom_site_label
 _atom_site_symmetry_multiplicity
 _atom_site_fract_x
 _atom_site_fract_y
 _atom_site_fract_z
 _atom_site_occupancy
  Er  Er0  1  0.254875  0.143813  0.111063  1
  Er  Er1  1  0.745125  0.856187  0.888937  1
  Hf  Hf2  1  0.032221  0.643786  0.388436  1
  Hf  Hf3  1  0.967779  0.356214  0.611564  1
  Ti  Ti4  1  0.309332  0.560764  0.250490  1
  Ti  Ti5  1  0.690668  0.439236  0.749510  1
  Ti  Ti6  1  0.690668  0.941160  0.251432  1
  Ti  Ti7  1  0.309332  0.058840  0.748568  1
  Ti  Ti8  1  0.675206  0.435754  0.239451  1
  Ti  Ti9  1  0.324794  0.564246  0.760549  1
  Ti  Ti10  1  0.193106  0.935354  0.257752  1
  Ti  Ti11  1  0.806894  0.064646  0.742248  1
  Sn  Sn12  1  0.588176  0.289556  0.298619  1
  Sn  Sn13  1  0.411824  0.710444  0.701381  1
  Sn  Sn14  1  0.993105  0.787466  0.205639  1
  Sn  Sn15  1  0.006895  0.212534  0.794361  1
  Sn  Sn16  1  0.000000  0.252205  0.252205  1
  Sn  Sn17  1  0.000000  0.747795  0.747795  1
  Sn  Sn18  1  0.472316  0.066874  0.405441  1
  Sn  Sn19  1  0.527684  0.933126  0.594559  1
  Sn  Sn20  1  0.666330  0.567999  0.098331  1
  Sn  Sn21  1  0.333670  0.432001  0.901669  1
