# generated using pymatgen
data_DyY9(SnBi)3
_symmetry_space_group_name_H-M   'P 1'
_cell_length_a   9.08151007
_cell_length_b   9.10386801
_cell_length_c   6.48856100
_cell_angle_alpha   90.00171625
_cell_angle_beta   89.99732025
_cell_angle_gamma   119.90015433
_symmetry_Int_Tables_number   1
_chemical_formula_structural   DyY9(SnBi)3
_chemical_formula_sum   'Dy1 Y9 Sn3 Bi3'
_cell_volume   465.04942801
_cell_formula_units_Z   1
loop_
 _symmetry_equiv_pos_site_id
 _symmetry_equiv_pos_as_xyz
  1  'x, y, z'
loop_
 _atom_site_type_symbol
 _atom_site_label
 _atom_site_symmetry_multiplicity
 _atom_site_fract_x
 _atom_site_fract_y
 _atom_site_fract_z
 _atom_site_occupancy
  Dy  Dy0  1  0.325587  0.658991  0.498589  1
  Y  Y1  1  0.758970  0.753366  0.250010  1
  Y  Y2  1  0.005413  0.245957  0.250042  1
  Y  Y3  1  0.764861  0.005870  0.749991  1
  Y  Y4  1  0.236407  0.999645  0.249995  1
  Y  Y5  1  0.671701  0.338045  0.498717  1
  Y  Y6  1  0.000184  0.755717  0.750009  1
  Y  Y7  1  0.325902  0.659325  0.001375  1
  Y  Y8  1  0.238151  0.243690  0.749960  1
  Y  Y9  1  0.671718  0.338095  0.001298  1
  Sn  Sn10  1  0.997649  0.392522  0.749845  1
  Sn  Sn11  1  0.392609  0.389891  0.250131  1
  Sn  Sn12  1  0.001397  0.608703  0.250179  1
  Bi  Bi13  1  0.608873  0.611548  0.749876  1
  Bi  Bi14  1  0.391537  0.000221  0.749881  1
  Bi  Bi15  1  0.609039  0.998415  0.250103  1
