# generated using pymatgen
data_Cs9Rb5V2(In3As5)2
_symmetry_space_group_name_H-M   'P 1'
_cell_length_a   8.77153740
_cell_length_b   9.64522052
_cell_length_c   15.00470076
_cell_angle_alpha   84.93086299
_cell_angle_beta   84.33499237
_cell_angle_gamma   86.98197706
_symmetry_Int_Tables_number   1
_chemical_formula_structural   Cs9Rb5V2(In3As5)2
_chemical_formula_sum   'Cs9 Rb5 V2 In6 As10'
_cell_volume   1257.07187276
_cell_formula_units_Z   1
loop_
 _symmetry_equiv_pos_site_id
 _symmetry_equiv_pos_as_xyz
  1  'x, y, z'
loop_
 _atom_site_type_symbol
 _atom_site_label
 _atom_site_symmetry_multiplicity
 _atom_site_fract_x
 _atom_site_fract_y
 _atom_site_fract_z
 _atom_site_occupancy
  Cs  Cs0  1  0.255387  0.496623  0.025066  1
  Cs  Cs1  1  0.686183  0.081134  0.888309  1
  Cs  Cs2  1  0.315327  0.920062  0.110731  1
  Cs  Cs3  1  0.688302  0.654837  0.397564  1
  Cs  Cs4  1  0.315452  0.346417  0.602006  1
  Cs  Cs5  1  0.753109  0.985741  0.532873  1
  Cs  Cs6  1  0.244466  0.013780  0.467490  1
  Cs  Cs7  1  0.825846  0.363354  0.645939  1
  Cs  Cs8  1  0.177646  0.636321  0.354245  1
  Rb  Rb9  1  0.819777  0.809049  0.133353  1
  Rb  Rb10  1  0.184191  0.190329  0.864942  1
  Rb  Rb11  1  0.274200  0.261031  0.248398  1
  Rb  Rb12  1  0.725146  0.736817  0.753594  1
  Rb  Rb13  1  0.739153  0.497892  0.978469  1
  V  V14  1  0.652054  0.391849  0.223921  1
  V  V15  1  0.348835  0.610042  0.775365  1
  In  In16  1  0.905769  0.275150  0.369457  1
  In  In17  1  0.092377  0.723465  0.631025  1
  In  In18  1  0.940811  0.189091  0.129987  1
  In  In19  1  0.057764  0.809881  0.870276  1
  In  In20  1  0.636940  0.048080  0.291932  1
  In  In21  1  0.360958  0.953019  0.706329  1
  As  As22  1  0.502424  0.588191  0.188860  1
  As  As23  1  0.503050  0.416246  0.810889  1
  As  As24  1  0.918101  0.451716  0.207976  1
  As  As25  1  0.083245  0.546955  0.792677  1
  As  As26  1  0.582830  0.298579  0.378953  1
  As  As27  1  0.415424  0.702653  0.620205  1
  As  As28  1  0.620351  0.207645  0.125139  1
  As  As29  1  0.377975  0.795910  0.873085  1
  As  As30  1  0.968876  0.002588  0.294856  1
  As  As31  1  0.028033  0.995552  0.706091  1
