# generated using pymatgen
data_Yb4Si8Tc5Ir
_symmetry_space_group_name_H-M   'P 1'
_cell_length_a   6.76393800
_cell_length_b   6.76420073
_cell_length_c   12.58861000
_cell_angle_alpha   89.94853358
_cell_angle_beta   90.00000000
_cell_angle_gamma   90.00000000
_symmetry_Int_Tables_number   1
_chemical_formula_structural   Yb4Si8Tc5Ir
_chemical_formula_sum   'Yb8 Si16 Tc10 Ir2'
_cell_volume   575.96183794
_cell_formula_units_Z   2
loop_
 _symmetry_equiv_pos_site_id
 _symmetry_equiv_pos_as_xyz
  1  'x, y, z'
loop_
 _atom_site_type_symbol
 _atom_site_label
 _atom_site_symmetry_multiplicity
 _atom_site_fract_x
 _atom_site_fract_y
 _atom_site_fract_z
 _atom_site_occupancy
  Yb  Yb0  1  0.994568  0.667058  0.028676  1
  Yb  Yb1  1  0.005739  0.333665  0.527688  1
  Yb  Yb2  1  0.333002  0.005149  0.471226  1
  Yb  Yb3  1  0.166327  0.506017  0.777606  1
  Yb  Yb4  1  0.833002  0.494851  0.278774  1
  Yb  Yb5  1  0.505739  0.166335  0.222312  1
  Yb  Yb6  1  0.494568  0.832942  0.721324  1
  Yb  Yb7  1  0.666327  0.993983  0.972394  1
  Si  Si8  1  0.025964  0.715975  0.433351  1
  Si  Si9  1  0.623089  0.306783  0.441024  1
  Si  Si10  1  0.379677  0.694491  0.939838  1
  Si  Si11  1  0.195533  0.120866  0.689637  1
  Si  Si12  1  0.307301  0.622240  0.559084  1
  Si  Si13  1  0.695533  0.379134  0.060363  1
  Si  Si14  1  0.807301  0.877760  0.190916  1
  Si  Si15  1  0.123089  0.193217  0.308976  1
  Si  Si16  1  0.973202  0.283960  0.934783  1
  Si  Si17  1  0.714878  0.023545  0.564583  1
  Si  Si18  1  0.214878  0.476455  0.185417  1
  Si  Si19  1  0.782199  0.529975  0.681632  1
  Si  Si20  1  0.473202  0.216040  0.815217  1
  Si  Si21  1  0.525964  0.784025  0.316649  1
  Si  Si22  1  0.282199  0.970025  0.068368  1
  Si  Si23  1  0.879677  0.805509  0.810162  1
  Tc  Tc24  1  0.667531  0.667317  0.500390  1
  Tc  Tc25  1  0.167531  0.832683  0.249610  1
  Tc  Tc26  1  0.012834  0.830608  0.628295  1
  Tc  Tc27  1  0.987142  0.172764  0.123628  1
  Tc  Tc28  1  0.828293  0.011265  0.374126  1
  Tc  Tc29  1  0.328293  0.488735  0.375874  1
  Tc  Tc30  1  0.670455  0.511942  0.875965  1
  Tc  Tc31  1  0.487142  0.327236  0.626372  1
  Tc  Tc32  1  0.512834  0.669392  0.121705  1
  Tc  Tc33  1  0.170455  0.988058  0.874035  1
  Ir  Ir34  1  0.332264  0.331011  0.999302  1
  Ir  Ir35  1  0.832264  0.168989  0.750698  1
