# generated using pymatgen
data_Pr2Y4IrBr10
_symmetry_space_group_name_H-M   'P 1'
_cell_length_a   7.46685116
_cell_length_b   9.39238520
_cell_length_c   9.46646946
_cell_angle_alpha   107.84139115
_cell_angle_beta   95.95349801
_cell_angle_gamma   106.45276054
_symmetry_Int_Tables_number   1
_chemical_formula_structural   Pr2Y4IrBr10
_chemical_formula_sum   'Pr2 Y4 Ir1 Br10'
_cell_volume   592.75141479
_cell_formula_units_Z   1
loop_
 _symmetry_equiv_pos_site_id
 _symmetry_equiv_pos_as_xyz
  1  'x, y, z'
loop_
 _atom_site_type_symbol
 _atom_site_label
 _atom_site_symmetry_multiplicity
 _atom_site_fract_x
 _atom_site_fract_y
 _atom_site_fract_z
 _atom_site_occupancy
  Pr  Pr0  1  0.128188  0.048410  0.754700  1
  Pr  Pr1  1  0.871812  0.951590  0.245300  1
  Y  Y2  1  0.976369  0.302149  0.096298  1
  Y  Y3  1  0.023631  0.697851  0.903702  1
  Y  Y4  1  0.364215  0.138700  0.177901  1
  Y  Y5  1  0.635785  0.861300  0.822099  1
  Ir  Ir6  1  0.000000  0.000000  0.000000  1
  Br  Br7  1  0.554888  0.175628  0.921009  1
  Br  Br8  1  0.445112  0.824372  0.078991  1
  Br  Br9  1  0.354165  0.452164  0.271260  1
  Br  Br10  1  0.645835  0.547836  0.728740  1
  Br  Br11  1  0.263830  0.086150  0.449938  1
  Br  Br12  1  0.736170  0.913850  0.550062  1
  Br  Br13  1  0.784792  0.263852  0.342144  1
  Br  Br14  1  0.215208  0.736148  0.657856  1
  Br  Br15  1  0.084921  0.378087  0.835189  1
  Br  Br16  1  0.915079  0.621913  0.164811  1
