# generated using pymatgen
data_CeRe2SiTc2Ge
_symmetry_space_group_name_H-M   'P 1'
_cell_length_a   7.39639727
_cell_length_b   7.39639759
_cell_length_c   4.09000600
_cell_angle_alpha   90.00000000
_cell_angle_beta   90.00000000
_cell_angle_gamma   147.34519607
_symmetry_Int_Tables_number   1
_chemical_formula_structural   CeRe2SiTc2Ge
_chemical_formula_sum   'Ce1 Re2 Si1 Tc2 Ge1'
_cell_volume   120.73059219
_cell_formula_units_Z   1
loop_
 _symmetry_equiv_pos_site_id
 _symmetry_equiv_pos_as_xyz
  1  'x, y, z'
loop_
 _atom_site_type_symbol
 _atom_site_label
 _atom_site_symmetry_multiplicity
 _atom_site_fract_x
 _atom_site_fract_y
 _atom_site_fract_z
 _atom_site_occupancy
  Ce  Ce0  1  0.002244  0.997756  0.000000  1
  Re  Re1  1  0.300611  0.699389  0.000000  1
  Re  Re2  1  0.694219  0.305781  0.000000  1
  Si  Si3  1  0.591145  0.408855  0.500000  1
  Tc  Tc4  1  0.185024  0.814976  0.500000  1
  Tc  Tc5  1  0.810818  0.189182  0.500000  1
  Ge  Ge6  1  0.415939  0.584061  0.500000  1
