# generated using pymatgen
data_Y12Tl7Si
_symmetry_space_group_name_H-M   'P 1'
_cell_length_a   11.52358144
_cell_length_b   11.52358081
_cell_length_c   11.52358100
_cell_angle_alpha   117.25707470
_cell_angle_beta   117.25707308
_cell_angle_gamma   94.82040102
_symmetry_Int_Tables_number   1
_chemical_formula_structural   Y12Tl7Si
_chemical_formula_sum   'Y24 Tl14 Si2'
_cell_volume   1122.61217871
_cell_formula_units_Z   2
loop_
 _symmetry_equiv_pos_site_id
 _symmetry_equiv_pos_as_xyz
  1  'x, y, z'
loop_
 _atom_site_type_symbol
 _atom_site_label
 _atom_site_symmetry_multiplicity
 _atom_site_fract_x
 _atom_site_fract_y
 _atom_site_fract_z
 _atom_site_occupancy
  Y  Y0  1  0.144157  0.644157  0.500000  1
  Y  Y1  1  0.855843  0.355843  0.500000  1
  Y  Y2  1  0.644157  0.144157  0.500000  1
  Y  Y3  1  0.355843  0.855843  0.500000  1
  Y  Y4  1  0.838156  0.705086  0.264779  1
  Y  Y5  1  0.161844  0.294914  0.735221  1
  Y  Y6  1  0.440309  0.573378  0.735221  1
  Y  Y7  1  0.705086  0.440309  0.866931  1
  Y  Y8  1  0.059691  0.794914  0.133069  1
  Y  Y9  1  0.559691  0.426622  0.264779  1
  Y  Y10  1  0.294914  0.559691  0.133069  1
  Y  Y11  1  0.940309  0.205086  0.866931  1
  Y  Y12  1  0.573378  0.838156  0.133069  1
  Y  Y13  1  0.661844  0.926622  0.866931  1
  Y  Y14  1  0.426622  0.161844  0.866931  1
  Y  Y15  1  0.338156  0.073378  0.133069  1
  Y  Y16  1  0.926622  0.059691  0.264779  1
  Y  Y17  1  0.073378  0.940309  0.735221  1
  Y  Y18  1  0.794914  0.661844  0.735221  1
  Y  Y19  1  0.205086  0.338156  0.264779  1
  Y  Y20  1  0.171973  0.671973  0.843946  1
  Y  Y21  1  0.828027  0.328027  0.156054  1
  Y  Y22  1  0.671973  0.828027  0.500000  1
  Y  Y23  1  0.328027  0.171973  0.500000  1
  Tl  Tl24  1  0.623235  0.123235  0.746470  1
  Tl  Tl25  1  0.376765  0.876765  0.253530  1
  Tl  Tl26  1  0.123235  0.376765  0.500000  1
  Tl  Tl27  1  0.876765  0.623235  0.500000  1
  Tl  Tl28  1  0.500000  0.500000  0.000000  1
  Tl  Tl29  1  0.000000  0.000000  0.000000  1
  Tl  Tl30  1  0.371808  0.871808  0.844154  1
  Tl  Tl31  1  0.628192  0.128192  0.155846  1
  Tl  Tl32  1  0.027654  0.527654  0.155846  1
  Tl  Tl33  1  0.871808  0.027654  0.500000  1
  Tl  Tl34  1  0.472346  0.628192  0.500000  1
  Tl  Tl35  1  0.972346  0.472346  0.844154  1
  Tl  Tl36  1  0.128192  0.972346  0.500000  1
  Tl  Tl37  1  0.527654  0.371808  0.500000  1
  Si  Si38  1  0.750000  0.750000  0.000000  1
  Si  Si39  1  0.250000  0.250000  0.000000  1
