# generated using pymatgen
data_DyY(Al3Ni)6
_symmetry_space_group_name_H-M   'P 1'
_cell_length_a   10.06729831
_cell_length_b   10.06729896
_cell_length_c   10.06729900
_cell_angle_alpha   42.37452690
_cell_angle_beta   42.37453131
_cell_angle_gamma   42.37453055
_symmetry_Int_Tables_number   1
_chemical_formula_structural   DyY(Al3Ni)6
_chemical_formula_sum   'Dy1 Y1 Al18 Ni6'
_cell_volume   419.56043851
_cell_formula_units_Z   1
loop_
 _symmetry_equiv_pos_site_id
 _symmetry_equiv_pos_as_xyz
  1  'x, y, z'
loop_
 _atom_site_type_symbol
 _atom_site_label
 _atom_site_symmetry_multiplicity
 _atom_site_fract_x
 _atom_site_fract_y
 _atom_site_fract_z
 _atom_site_occupancy
  Dy  Dy0  1  0.833089  0.833089  0.833089  1
  Y  Y1  1  0.166896  0.166896  0.166896  1
  Al  Al2  1  0.102804  0.432276  0.761717  1
  Al  Al3  1  0.432276  0.761717  0.102804  1
  Al  Al4  1  0.568075  0.897024  0.238096  1
  Al  Al5  1  0.947966  0.947966  0.947966  1
  Al  Al6  1  0.051944  0.051944  0.051944  1
  Al  Al7  1  0.291518  0.707738  0.500764  1
  Al  Al8  1  0.897024  0.238096  0.568075  1
  Al  Al9  1  0.387065  0.387065  0.387065  1
  Al  Al10  1  0.500764  0.291518  0.707738  1
  Al  Al11  1  0.238096  0.568075  0.897024  1
  Al  Al12  1  0.718296  0.718296  0.718296  1
  Al  Al13  1  0.612946  0.612946  0.612946  1
  Al  Al14  1  0.334344  0.999907  0.665769  1
  Al  Al15  1  0.707738  0.500764  0.291518  1
  Al  Al16  1  0.665769  0.334344  0.999907  1
  Al  Al17  1  0.281783  0.281783  0.281783  1
  Al  Al18  1  0.999907  0.665769  0.334344  1
  Al  Al19  1  0.761717  0.102804  0.432276  1
  Ni  Ni20  1  0.418314  0.078354  0.758282  1
  Ni  Ni21  1  0.581735  0.241673  0.921626  1
  Ni  Ni22  1  0.078354  0.758282  0.418314  1
  Ni  Ni23  1  0.758282  0.418314  0.078354  1
  Ni  Ni24  1  0.921626  0.581735  0.241673  1
  Ni  Ni25  1  0.241673  0.921626  0.581735  1
