# generated using pymatgen
data_Nd2In5Au3
_symmetry_space_group_name_H-M   'P 1'
_cell_length_a   13.90141100
_cell_length_b   13.90141075
_cell_length_c   7.52944900
_cell_angle_alpha   90.00000000
_cell_angle_beta   90.00000000
_cell_angle_gamma   19.00288729
_symmetry_Int_Tables_number   1
_chemical_formula_structural   Nd2In5Au3
_chemical_formula_sum   'Nd4 In10 Au6'
_cell_volume   473.79058599
_cell_formula_units_Z   2
loop_
 _symmetry_equiv_pos_site_id
 _symmetry_equiv_pos_as_xyz
  1  'x, y, z'
loop_
 _atom_site_type_symbol
 _atom_site_label
 _atom_site_symmetry_multiplicity
 _atom_site_fract_x
 _atom_site_fract_y
 _atom_site_fract_z
 _atom_site_occupancy
  Nd  Nd0  1  0.825757  0.825757  0.238890  1
  Nd  Nd1  1  0.174244  0.174244  0.738890  1
  Nd  Nd2  1  0.520613  0.520613  0.272355  1
  Nd  Nd3  1  0.479386  0.479386  0.772355  1
  In  In4  1  0.051223  0.051223  0.602733  1
  In  In5  1  0.948777  0.948777  0.102734  1
  In  In6  1  0.119710  0.119710  0.261990  1
  In  In7  1  0.880290  0.880290  0.761990  1
  In  In8  1  0.706022  0.706022  0.444216  1
  In  In9  1  0.293978  0.293978  0.944216  1
  In  In10  1  0.399166  0.399166  0.407264  1
  In  In11  1  0.600834  0.600834  0.907265  1
  In  In12  1  0.706794  0.706794  0.019904  1
  In  In13  1  0.293206  0.293206  0.519904  1
  Au  Au14  1  0.953663  0.953663  0.483085  1
  Au  Au15  1  0.046337  0.046337  0.983087  1
  Au  Au16  1  0.607980  0.607980  0.526181  1
  Au  Au17  1  0.392020  0.392020  0.026181  1
  Au  Au18  1  0.223642  0.223642  0.229419  1
  Au  Au19  1  0.776358  0.776358  0.729420  1
