# generated using pymatgen
data_NaMoOF4
_symmetry_space_group_name_H-M   'P 1'
_cell_length_a   5.96842727
_cell_length_b   5.96842737
_cell_length_c   7.47028469
_cell_angle_alpha   103.54869292
_cell_angle_beta   103.54869261
_cell_angle_gamma   88.61358320
_symmetry_Int_Tables_number   1
_chemical_formula_structural   NaMoOF4
_chemical_formula_sum   'Na2 Mo2 O2 F8'
_cell_volume   251.36996962
_cell_formula_units_Z   2
loop_
 _symmetry_equiv_pos_site_id
 _symmetry_equiv_pos_as_xyz
  1  'x, y, z'
loop_
 _atom_site_type_symbol
 _atom_site_label
 _atom_site_symmetry_multiplicity
 _atom_site_fract_x
 _atom_site_fract_y
 _atom_site_fract_z
 _atom_site_occupancy
  Na  Na0  1  0.182197  0.182197  0.220992  1
  Na  Na1  1  0.817803  0.817803  0.779009  1
  Mo  Mo2  1  0.693623  0.693623  0.188039  1
  Mo  Mo3  1  0.306377  0.306377  0.811960  1
  O  O4  1  0.882004  0.882004  0.153183  1
  O  O5  1  0.117996  0.117996  0.846817  1
  F  F6  1  0.886882  0.423351  0.196659  1
  F  F7  1  0.423351  0.886882  0.196659  1
  F  F8  1  0.420347  0.420347  0.111623  1
  F  F9  1  0.261533  0.261533  0.539616  1
  F  F10  1  0.738467  0.738467  0.460383  1
  F  F11  1  0.579653  0.579653  0.888377  1
  F  F12  1  0.576649  0.113118  0.803340  1
  F  F13  1  0.113118  0.576649  0.803340  1
