# generated using pymatgen
data_Nd6Nb2Fe(Co5P4)3
_symmetry_space_group_name_H-M   'P 1'
_cell_length_a   3.78190800
_cell_length_b   10.81589600
_cell_length_c   12.56729400
_cell_angle_alpha   90.00000000
_cell_angle_beta   90.00000000
_cell_angle_gamma   90.00000000
_symmetry_Int_Tables_number   1
_chemical_formula_structural   Nd6Nb2Fe(Co5P4)3
_chemical_formula_sum   'Nd6 Nb2 Fe1 Co15 P12'
_cell_volume   514.06168759
_cell_formula_units_Z   1
loop_
 _symmetry_equiv_pos_site_id
 _symmetry_equiv_pos_as_xyz
  1  'x, y, z'
loop_
 _atom_site_type_symbol
 _atom_site_label
 _atom_site_symmetry_multiplicity
 _atom_site_fract_x
 _atom_site_fract_y
 _atom_site_fract_z
 _atom_site_occupancy
  Nd  Nd0  1  0.000000  0.500000  0.525778  1
  Nd  Nd1  1  0.500000  0.000000  0.474384  1
  Nd  Nd2  1  0.500000  0.818882  0.205198  1
  Nd  Nd3  1  0.500000  0.181118  0.205198  1
  Nd  Nd4  1  0.000000  0.679487  0.795382  1
  Nd  Nd5  1  0.000000  0.320513  0.795382  1
  Nb  Nb6  1  0.500000  0.500000  0.154105  1
  Nb  Nb7  1  0.000000  0.000000  0.845255  1
  Fe  Fe8  1  0.000000  0.500000  0.987919  1
  Co  Co9  1  0.500000  0.500000  0.702397  1
  Co  Co10  1  0.000000  0.000000  0.296745  1
  Co  Co11  1  0.500000  0.000000  0.012768  1
  Co  Co12  1  0.500000  0.330667  0.993330  1
  Co  Co13  1  0.500000  0.669333  0.993330  1
  Co  Co14  1  0.000000  0.166733  0.006990  1
  Co  Co15  1  0.000000  0.833267  0.006990  1
  Co  Co16  1  0.500000  0.295272  0.432274  1
  Co  Co17  1  0.500000  0.704728  0.432274  1
  Co  Co18  1  0.000000  0.204809  0.567999  1
  Co  Co19  1  0.000000  0.795191  0.567999  1
  Co  Co20  1  0.500000  0.880069  0.705188  1
  Co  Co21  1  0.500000  0.119931  0.705188  1
  Co  Co22  1  0.000000  0.620126  0.294978  1
  Co  Co23  1  0.000000  0.379874  0.294978  1
  P  P24  1  0.500000  0.500000  0.887869  1
  P  P25  1  0.000000  0.000000  0.114120  1
  P  P26  1  0.500000  0.500000  0.350924  1
  P  P27  1  0.000000  0.000000  0.649029  1
  P  P28  1  0.500000  0.306076  0.614236  1
  P  P29  1  0.500000  0.693924  0.614236  1
  P  P30  1  0.000000  0.193948  0.386019  1
  P  P31  1  0.000000  0.806052  0.386019  1
  P  P32  1  0.500000  0.843385  0.896178  1
  P  P33  1  0.500000  0.156615  0.896178  1
  P  P34  1  0.000000  0.656168  0.101582  1
  P  P35  1  0.000000  0.343832  0.101582  1
