# generated using pymatgen
data_ScV6InO18
_symmetry_space_group_name_H-M   'P 1'
_cell_length_a   8.12670671
_cell_length_b   8.15255864
_cell_length_c   10.47706400
_cell_angle_alpha   122.34262311
_cell_angle_beta   122.13844712
_cell_angle_gamma   52.31105263
_symmetry_Int_Tables_number   1
_chemical_formula_structural   ScV6InO18
_chemical_formula_sum   'Sc1 V6 In1 O18'
_cell_volume   441.75594560
_cell_formula_units_Z   1
loop_
 _symmetry_equiv_pos_site_id
 _symmetry_equiv_pos_as_xyz
  1  'x, y, z'
loop_
 _atom_site_type_symbol
 _atom_site_label
 _atom_site_symmetry_multiplicity
 _atom_site_fract_x
 _atom_site_fract_y
 _atom_site_fract_z
 _atom_site_occupancy
  Sc  Sc0  1  0.989709  0.510682  0.499507  1
  V  V1  1  0.510278  0.729470  0.180571  1
  V  V2  1  0.042980  0.974935  0.261101  1
  V  V3  1  0.288648  0.482604  0.326608  1
  V  V4  1  0.733300  0.502230  0.677869  1
  V  V5  1  0.973087  0.039807  0.759700  1
  V  V6  1  0.473519  0.293613  0.823200  1
  In  In7  1  0.511293  0.991219  0.000217  1
  O  O8  1  0.826175  0.975450  0.095769  1
  O  O9  1  0.368714  0.311330  0.161990  1
  O  O10  1  0.619862  0.840115  0.167953  1
  O  O11  1  0.252088  0.933720  0.216341  1
  O  O12  1  0.131398  0.424103  0.338651  1
  O  O13  1  0.680548  0.622570  0.331388  1
  O  O14  1  0.145980  0.761037  0.330939  1
  O  O15  1  0.973365  0.217550  0.404001  1
  O  O16  1  0.523631  0.456724  0.498118  1
  O  O17  1  0.982267  0.814297  0.600255  1
  O  O18  1  0.299245  0.373824  0.659494  1
  O  O19  1  0.843531  0.609263  0.662465  1
  O  O20  1  0.934222  0.240518  0.708167  1
  O  O21  1  0.414695  0.134523  0.832385  1
  O  O22  1  0.627317  0.670702  0.830059  1
  O  O23  1  0.750752  0.148084  0.823528  1
  O  O24  1  0.209467  0.979193  0.908806  1
  O  O25  1  0.456527  0.525041  0.998330  1
