# generated using pymatgen
data_LaTbCu5Ni3Pt2
_symmetry_space_group_name_H-M   'P 1'
_cell_length_a   4.02497900
_cell_length_b   5.28070253
_cell_length_c   8.71549814
_cell_angle_alpha   93.51401362
_cell_angle_beta   90.00000000
_cell_angle_gamma   90.00000000
_symmetry_Int_Tables_number   1
_chemical_formula_structural   LaTbCu5Ni3Pt2
_chemical_formula_sum   'La1 Tb1 Cu5 Ni3 Pt2'
_cell_volume   184.89715289
_cell_formula_units_Z   1
loop_
 _symmetry_equiv_pos_site_id
 _symmetry_equiv_pos_as_xyz
  1  'x, y, z'
loop_
 _atom_site_type_symbol
 _atom_site_label
 _atom_site_symmetry_multiplicity
 _atom_site_fract_x
 _atom_site_fract_y
 _atom_site_fract_z
 _atom_site_occupancy
  La  La0  1  0.000000  0.000000  0.500000  1
  Tb  Tb1  1  0.000000  0.500000  0.000000  1
  Cu  Cu2  1  0.000000  0.477356  0.331010  1
  Cu  Cu3  1  0.000000  0.978709  0.843910  1
  Cu  Cu4  1  0.000000  0.021291  0.156090  1
  Cu  Cu5  1  0.000000  0.522644  0.668990  1
  Cu  Cu6  1  0.500000  0.500000  0.500000  1
  Ni  Ni7  1  0.500000  0.000000  0.000000  1
  Ni  Ni8  1  0.500000  0.253840  0.243488  1
  Ni  Ni9  1  0.500000  0.746160  0.756512  1
  Pt  Pt10  1  0.500000  0.746635  0.243343  1
  Pt  Pt11  1  0.500000  0.253365  0.756657  1
