# generated using pymatgen
data_Nd12Pt3AuI12
_symmetry_space_group_name_H-M   'P 1'
_cell_length_a   10.94038892
_cell_length_b   10.94039009
_cell_length_c   10.83135000
_cell_angle_alpha   109.26944829
_cell_angle_beta   109.26945043
_cell_angle_gamma   109.67223282
_symmetry_Int_Tables_number   1
_chemical_formula_structural   Nd12Pt3AuI12
_chemical_formula_sum   'Nd12 Pt3 Au1 I12'
_cell_volume   1000.46449196
_cell_formula_units_Z   1
loop_
 _symmetry_equiv_pos_site_id
 _symmetry_equiv_pos_as_xyz
  1  'x, y, z'
loop_
 _atom_site_type_symbol
 _atom_site_label
 _atom_site_symmetry_multiplicity
 _atom_site_fract_x
 _atom_site_fract_y
 _atom_site_fract_z
 _atom_site_occupancy
  Nd  Nd0  1  0.041023  0.270511  0.020511  1
  Nd  Nd1  1  0.757716  0.023255  0.485238  1
  Nd  Nd2  1  0.265538  0.742284  0.227521  1
  Nd  Nd3  1  0.476745  0.742284  0.014762  1
  Nd  Nd4  1  0.757716  0.234462  0.272479  1
  Nd  Nd5  1  0.020401  0.479599  0.750000  1
  Nd  Nd6  1  0.229489  0.270511  0.750000  1
  Nd  Nd7  1  0.476745  0.234462  0.461984  1
  Nd  Nd8  1  0.459198  0.479599  0.229599  1
  Nd  Nd9  1  0.265538  0.023255  0.038016  1
  Nd  Nd10  1  0.020401  0.040802  0.270401  1
  Nd  Nd11  1  0.229489  0.458977  0.479489  1
  Pt  Pt12  1  0.249652  0.499305  0.999652  1
  Pt  Pt13  1  0.249652  0.250348  0.250000  1
  Pt  Pt14  1  0.000695  0.250348  0.500348  1
  Au  Au15  1  0.500000  0.000000  0.250000  1
  I  I16  1  0.757628  0.742372  0.250000  1
  I  I17  1  0.991024  0.508976  0.250000  1
  I  I18  1  0.250328  0.758494  0.742784  1
  I  I19  1  0.757628  0.515257  0.507628  1
  I  I20  1  0.508164  0.249672  0.992455  1
  I  I21  1  0.741506  0.991836  0.984289  1
  I  I22  1  0.991024  0.982047  0.741024  1
  I  I23  1  0.517953  0.508976  0.758976  1
  I  I24  1  0.250328  0.991836  0.507545  1
  I  I25  1  0.741506  0.249672  0.757216  1
  I  I26  1  0.508164  0.758494  0.515711  1
  I  I27  1  0.984743  0.742372  0.992372  1
