# generated using pymatgen
data_Tb4Ho3Co6Sn22Hg
_symmetry_space_group_name_H-M   'P 1'
_cell_length_a   9.67385700
_cell_length_b   9.67385546
_cell_length_c   10.00398900
_cell_angle_alpha   90.00000000
_cell_angle_beta   90.00000000
_cell_angle_gamma   119.99999501
_symmetry_Int_Tables_number   1
_chemical_formula_structural   Tb4Ho3Co6Sn22Hg
_chemical_formula_sum   'Tb4 Ho3 Co6 Sn22 Hg1'
_cell_volume   810.78016669
_cell_formula_units_Z   1
loop_
 _symmetry_equiv_pos_site_id
 _symmetry_equiv_pos_as_xyz
  1  'x, y, z'
loop_
 _atom_site_type_symbol
 _atom_site_label
 _atom_site_symmetry_multiplicity
 _atom_site_fract_x
 _atom_site_fract_y
 _atom_site_fract_z
 _atom_site_occupancy
  Tb  Tb0  1  0.000000  0.000000  0.000084  1
  Tb  Tb1  1  0.520854  0.479146  0.693589  1
  Tb  Tb2  1  0.520854  0.041707  0.693589  1
  Tb  Tb3  1  0.958293  0.479146  0.693589  1
  Ho  Ho4  1  0.041321  0.520662  0.306255  1
  Ho  Ho5  1  0.479338  0.958679  0.306255  1
  Ho  Ho6  1  0.479338  0.520662  0.306255  1
  Co  Co7  1  0.168068  0.831932  0.803062  1
  Co  Co8  1  0.168068  0.336137  0.803062  1
  Co  Co9  1  0.663863  0.831932  0.803062  1
  Co  Co10  1  0.336315  0.168157  0.197176  1
  Co  Co11  1  0.831843  0.663685  0.197176  1
  Co  Co12  1  0.831843  0.168157  0.197176  1
  Sn  Sn13  1  0.666667  0.333333  0.181498  1
  Sn  Sn14  1  0.666667  0.333333  0.880701  1
  Sn  Sn15  1  0.333333  0.666667  0.120390  1
  Sn  Sn16  1  0.346469  0.346413  0.000125  1
  Sn  Sn17  1  0.999944  0.653531  0.000125  1
  Sn  Sn18  1  0.653587  0.000056  0.000125  1
  Sn  Sn19  1  0.653587  0.653531  0.000125  1
  Sn  Sn20  1  0.333333  0.666667  0.818608  1
  Sn  Sn21  1  0.435020  0.217510  0.453008  1
  Sn  Sn22  1  0.217493  0.782507  0.546107  1
  Sn  Sn23  1  0.217493  0.434987  0.546107  1
  Sn  Sn24  1  0.565013  0.782507  0.546107  1
  Sn  Sn25  1  0.116933  0.883067  0.270009  1
  Sn  Sn26  1  0.782490  0.564980  0.453008  1
  Sn  Sn27  1  0.782490  0.217510  0.453008  1
  Sn  Sn28  1  0.346469  0.000056  0.000125  1
  Sn  Sn29  1  0.116933  0.233865  0.270009  1
  Sn  Sn30  1  0.766135  0.883067  0.270009  1
  Sn  Sn31  1  0.233362  0.116681  0.730133  1
  Sn  Sn32  1  0.883319  0.766638  0.730133  1
  Sn  Sn33  1  0.883319  0.116681  0.730133  1
  Sn  Sn34  1  0.999944  0.346413  0.000125  1
  Hg  Hg35  1  0.000000  0.000000  0.499951  1
