# generated using pymatgen
data_Zr3Zn(Co3Os)2
_symmetry_space_group_name_H-M   'P 1'
_cell_length_a   4.89875300
_cell_length_b   4.89875364
_cell_length_c   8.18788400
_cell_angle_alpha   90.00000000
_cell_angle_beta   90.00000000
_cell_angle_gamma   120.00000240
_symmetry_Int_Tables_number   1
_chemical_formula_structural   Zr3Zn(Co3Os)2
_chemical_formula_sum   'Zr3 Zn1 Co6 Os2'
_cell_volume   170.16625633
_cell_formula_units_Z   1
loop_
 _symmetry_equiv_pos_site_id
 _symmetry_equiv_pos_as_xyz
  1  'x, y, z'
loop_
 _atom_site_type_symbol
 _atom_site_label
 _atom_site_symmetry_multiplicity
 _atom_site_fract_x
 _atom_site_fract_y
 _atom_site_fract_z
 _atom_site_occupancy
  Zr  Zr0  1  0.666667  0.333333  0.550713  1
  Zr  Zr1  1  0.666667  0.333333  0.928231  1
  Zr  Zr2  1  0.333333  0.666667  0.094011  1
  Zn  Zn3  1  0.333333  0.666667  0.450284  1
  Co  Co4  1  0.830881  0.169119  0.249317  1
  Co  Co5  1  0.830881  0.661764  0.249317  1
  Co  Co6  1  0.338236  0.169119  0.249317  1
  Co  Co7  1  0.171431  0.828569  0.746517  1
  Co  Co8  1  0.171431  0.342861  0.746517  1
  Co  Co9  1  0.657139  0.828569  0.746517  1
  Os  Os10  1  0.000000  0.000000  0.494754  1
  Os  Os11  1  0.000000  0.000000  0.994506  1
