# generated using pymatgen
data_Tb2Dy6Sc12GaSi15
_symmetry_space_group_name_H-M   'P 1'
_cell_length_a   7.11220937
_cell_length_b   7.40496965
_cell_length_c   14.04934367
_cell_angle_alpha   89.99831774
_cell_angle_beta   89.97953097
_cell_angle_gamma   90.02769879
_symmetry_Int_Tables_number   1
_chemical_formula_structural   Tb2Dy6Sc12GaSi15
_chemical_formula_sum   'Tb2 Dy6 Sc12 Ga1 Si15'
_cell_volume   739.91830826
_cell_formula_units_Z   1
loop_
 _symmetry_equiv_pos_site_id
 _symmetry_equiv_pos_as_xyz
  1  'x, y, z'
loop_
 _atom_site_type_symbol
 _atom_site_label
 _atom_site_symmetry_multiplicity
 _atom_site_fract_x
 _atom_site_fract_y
 _atom_site_fract_z
 _atom_site_occupancy
  Tb  Tb0  1  0.011902  0.175311  0.097158  1
  Tb  Tb1  1  0.987913  0.824984  0.903488  1
  Dy  Dy2  1  0.487624  0.676219  0.903223  1
  Dy  Dy3  1  0.987420  0.826543  0.597634  1
  Dy  Dy4  1  0.512164  0.324046  0.097083  1
  Dy  Dy5  1  0.011010  0.173983  0.401395  1
  Dy  Dy6  1  0.512934  0.323478  0.401368  1
  Dy  Dy7  1  0.489809  0.678192  0.597647  1
  Sc  Sc8  1  0.161309  0.502355  0.751633  1
  Sc  Sc9  1  0.839008  0.497968  0.249905  1
  Sc  Sc10  1  0.338967  0.002401  0.249654  1
  Sc  Sc11  1  0.661616  0.996768  0.750134  1
  Sc  Sc12  1  0.332764  0.173639  0.626114  1
  Sc  Sc13  1  0.668401  0.824186  0.374320  1
  Sc  Sc14  1  0.169975  0.677265  0.373411  1
  Sc  Sc15  1  0.669848  0.823800  0.125288  1
  Sc  Sc16  1  0.828249  0.323452  0.625530  1
  Sc  Sc17  1  0.330026  0.175738  0.874991  1
  Sc  Sc18  1  0.830266  0.323347  0.875010  1
  Sc  Sc19  1  0.169344  0.676402  0.125388  1
  Ga  Ga20  1  0.160080  0.462094  0.539152  1
  Si  Si21  1  0.033697  0.118494  0.750608  1
  Si  Si22  1  0.966320  0.882686  0.249713  1
  Si  Si23  1  0.467462  0.616525  0.249851  1
  Si  Si24  1  0.532189  0.384281  0.749824  1
  Si  Si25  1  0.284875  0.873289  0.750272  1
  Si  Si26  1  0.714110  0.126748  0.249603  1
  Si  Si27  1  0.214353  0.373084  0.249552  1
  Si  Si28  1  0.785743  0.626459  0.750690  1
  Si  Si29  1  0.841556  0.536276  0.460394  1
  Si  Si30  1  0.341887  0.964195  0.460183  1
  Si  Si31  1  0.842283  0.535545  0.038829  1
  Si  Si32  1  0.657436  0.035966  0.538918  1
  Si  Si33  1  0.157629  0.464160  0.961687  1
  Si  Si34  1  0.656426  0.035614  0.960758  1
  Si  Si35  1  0.343405  0.964506  0.039591  1
