# generated using pymatgen
data_CsRb7Tb6BBr20
_symmetry_space_group_name_H-M   'P 1'
_cell_length_a   12.37246041
_cell_length_b   12.37246131
_cell_length_c   12.37246060
_cell_angle_alpha   59.49836022
_cell_angle_beta   59.49835660
_cell_angle_gamma   59.49835779
_symmetry_Int_Tables_number   1
_chemical_formula_structural   CsRb7Tb6BBr20
_chemical_formula_sum   'Cs1 Rb7 Tb6 B1 Br20'
_cell_volume   1323.94517786
_cell_formula_units_Z   1
loop_
 _symmetry_equiv_pos_site_id
 _symmetry_equiv_pos_as_xyz
  1  'x, y, z'
loop_
 _atom_site_type_symbol
 _atom_site_label
 _atom_site_symmetry_multiplicity
 _atom_site_fract_x
 _atom_site_fract_y
 _atom_site_fract_z
 _atom_site_occupancy
  Cs  Cs0  1  0.358278  0.358278  0.358278  1
  Rb  Rb1  1  0.640748  0.640748  0.640748  1
  Rb  Rb2  1  0.359798  0.359798  0.920330  1
  Rb  Rb3  1  0.359798  0.920330  0.359798  1
  Rb  Rb4  1  0.640887  0.640887  0.078603  1
  Rb  Rb5  1  0.640887  0.078603  0.640887  1
  Rb  Rb6  1  0.920330  0.359798  0.359798  1
  Rb  Rb7  1  0.078603  0.640887  0.640887  1
  Tb  Tb8  1  0.850479  0.151642  0.151642  1
  Tb  Tb9  1  0.149984  0.848275  0.848275  1
  Tb  Tb10  1  0.151642  0.850479  0.151642  1
  Tb  Tb11  1  0.848275  0.149984  0.848275  1
  Tb  Tb12  1  0.151642  0.151642  0.850479  1
  Tb  Tb13  1  0.848275  0.848275  0.149984  1
  B  B14  1  0.999957  0.999957  0.999957  1
  Br  Br15  1  0.332027  0.998715  0.998715  1
  Br  Br16  1  0.668062  0.001072  0.001072  1
  Br  Br17  1  0.000115  0.328968  0.671161  1
  Br  Br18  1  0.000115  0.671161  0.328968  1
  Br  Br19  1  0.998715  0.332027  0.998715  1
  Br  Br20  1  0.671161  0.000115  0.328968  1
  Br  Br21  1  0.001072  0.668062  0.001072  1
  Br  Br22  1  0.328968  0.000115  0.671161  1
  Br  Br23  1  0.998715  0.998715  0.332027  1
  Br  Br24  1  0.001072  0.001072  0.668062  1
  Br  Br25  1  0.671161  0.328968  0.000115  1
  Br  Br26  1  0.328968  0.671161  0.000115  1
  Br  Br27  1  0.685975  0.318823  0.318823  1
  Br  Br28  1  0.319454  0.680734  0.680734  1
  Br  Br29  1  0.318823  0.685975  0.318823  1
  Br  Br30  1  0.680734  0.319454  0.680734  1
  Br  Br31  1  0.318823  0.318823  0.685975  1
  Br  Br32  1  0.680734  0.680734  0.319454  1
  Br  Br33  1  0.245992  0.245992  0.245992  1
  Br  Br34  1  0.749731  0.749731  0.749731  1
