# generated using pymatgen
data_Lu7Pa3(In2Co)4
_symmetry_space_group_name_H-M   'P 1'
_cell_length_a   3.49751700
_cell_length_b   7.91467240
_cell_length_c   17.79027557
_cell_angle_alpha   90.47683578
_cell_angle_beta   90.00000000
_cell_angle_gamma   90.00000000
_symmetry_Int_Tables_number   1
_chemical_formula_structural   Lu7Pa3(In2Co)4
_chemical_formula_sum   'Lu7 Pa3 In8 Co4'
_cell_volume   492.44803938
_cell_formula_units_Z   1
loop_
 _symmetry_equiv_pos_site_id
 _symmetry_equiv_pos_as_xyz
  1  'x, y, z'
loop_
 _atom_site_type_symbol
 _atom_site_label
 _atom_site_symmetry_multiplicity
 _atom_site_fract_x
 _atom_site_fract_y
 _atom_site_fract_z
 _atom_site_occupancy
  Lu  Lu0  1  0.000000  0.384424  0.411507  1
  Lu  Lu1  1  0.000000  0.112139  0.912398  1
  Lu  Lu2  1  0.000000  0.247064  0.722996  1
  Lu  Lu3  1  0.000000  0.508773  0.999086  1
  Lu  Lu4  1  0.000000  0.256225  0.224721  1
  Lu  Lu5  1  0.000000  0.616898  0.589258  1
  Lu  Lu6  1  0.000000  0.000698  0.498034  1
  Pa  Pa7  1  0.000000  0.880093  0.092583  1
  Pa  Pa8  1  0.000000  0.743374  0.274876  1
  Pa  Pa9  1  0.000000  0.752752  0.772580  1
  In  In10  1  0.500000  0.212125  0.066768  1
  In  In11  1  0.500000  0.424616  0.850297  1
  In  In12  1  0.500000  0.549693  0.147750  1
  In  In13  1  0.500000  0.074050  0.348786  1
  In  In14  1  0.500000  0.938269  0.644888  1
  In  In15  1  0.500000  0.795091  0.932684  1
  In  In16  1  0.500000  0.704033  0.435345  1
  In  In17  1  0.500000  0.296117  0.567571  1
  Co  Co18  1  0.500000  0.951710  0.195524  1
  Co  Co19  1  0.500000  0.986687  0.801660  1
  Co  Co20  1  0.500000  0.555232  0.707160  1
  Co  Co21  1  0.500000  0.509938  0.303529  1
