# generated using pymatgen
data_La5NdIr18
_symmetry_space_group_name_H-M   'P 1'
_cell_length_a   5.41443017
_cell_length_b   5.41436970
_cell_length_c   17.73806533
_cell_angle_alpha   90.00006186
_cell_angle_beta   89.99515605
_cell_angle_gamma   119.99878633
_symmetry_Int_Tables_number   1
_chemical_formula_structural   La5NdIr18
_chemical_formula_sum   'La5 Nd1 Ir18'
_cell_volume   450.34241693
_cell_formula_units_Z   1
loop_
 _symmetry_equiv_pos_site_id
 _symmetry_equiv_pos_as_xyz
  1  'x, y, z'
loop_
 _atom_site_type_symbol
 _atom_site_label
 _atom_site_symmetry_multiplicity
 _atom_site_fract_x
 _atom_site_fract_y
 _atom_site_fract_z
 _atom_site_occupancy
  La  La0  1  0.333307  0.666645  0.958907  1
  La  La1  1  0.666681  0.333376  0.041050  1
  La  La2  1  0.666600  0.333304  0.459529  1
  La  La3  1  0.333313  0.666719  0.749451  1
  La  La4  1  0.666634  0.333284  0.250830  1
  Nd  Nd5  1  0.333425  0.666722  0.541058  1
  Ir  Ir6  1  0.166544  0.833377  0.372070  1
  Ir  Ir7  1  0.166541  0.333156  0.372073  1
  Ir  Ir8  1  0.666567  0.833274  0.372076  1
  Ir  Ir9  1  0.833956  0.166352  0.627929  1
  Ir  Ir10  1  0.833954  0.667590  0.627924  1
  Ir  Ir11  1  0.332776  0.166392  0.627820  1
  Ir  Ir12  1  0.833758  0.166108  0.870269  1
  Ir  Ir13  1  0.833759  0.667636  0.870274  1
  Ir  Ir14  1  0.332060  0.166033  0.870303  1
  Ir  Ir15  1  0.165978  0.834012  0.129476  1
  Ir  Ir16  1  0.165968  0.331951  0.129471  1
  Ir  Ir17  1  0.668142  0.834070  0.129531  1
  Ir  Ir18  1  0.333086  0.666525  0.250296  1
  Ir  Ir19  1  0.666308  0.333163  0.749352  1
  Ir  Ir20  1  0.000193  0.000096  0.251124  1
  Ir  Ir21  1  0.000531  0.000244  0.749130  1
  Ir  Ir22  1  0.999838  0.999921  0.500143  1
  Ir  Ir23  1  0.000085  0.000053  0.999913  1
