# generated using pymatgen
data_Y16Al4IrPd3
_symmetry_space_group_name_H-M   'P 1'
_cell_length_a   9.66282835
_cell_length_b   9.63647114
_cell_length_c   9.63648910
_cell_angle_alpha   59.77691405
_cell_angle_beta   59.93279741
_cell_angle_gamma   59.93271571
_symmetry_Int_Tables_number   1
_chemical_formula_structural   Y16Al4IrPd3
_chemical_formula_sum   'Y16 Al4 Ir1 Pd3'
_cell_volume   632.77293088
_cell_formula_units_Z   1
loop_
 _symmetry_equiv_pos_site_id
 _symmetry_equiv_pos_as_xyz
  1  'x, y, z'
loop_
 _atom_site_type_symbol
 _atom_site_label
 _atom_site_symmetry_multiplicity
 _atom_site_fract_x
 _atom_site_fract_y
 _atom_site_fract_z
 _atom_site_occupancy
  Y  Y0  1  0.357491  0.351593  0.351593  1
  Y  Y1  1  0.358483  0.352688  0.935872  1
  Y  Y2  1  0.358484  0.935874  0.352688  1
  Y  Y3  1  0.927445  0.357406  0.357406  1
  Y  Y4  1  0.804757  0.191911  0.191912  1
  Y  Y5  1  0.194619  0.806082  0.806082  1
  Y  Y6  1  0.193967  0.807484  0.192608  1
  Y  Y7  1  0.804135  0.192923  0.811255  1
  Y  Y8  1  0.193968  0.192609  0.807482  1
  Y  Y9  1  0.804135  0.811254  0.192922  1
  Y  Y10  1  0.935500  0.565127  0.565126  1
  Y  Y11  1  0.566041  0.936327  0.936327  1
  Y  Y12  1  0.567264  0.934271  0.562266  1
  Y  Y13  1  0.936715  0.563884  0.934504  1
  Y  Y14  1  0.567266  0.562265  0.934272  1
  Y  Y15  1  0.936717  0.934506  0.563884  1
  Al  Al16  1  0.577597  0.579306  0.579306  1
  Al  Al17  1  0.577242  0.578660  0.266228  1
  Al  Al18  1  0.577241  0.266228  0.578660  1
  Al  Al19  1  0.266057  0.578211  0.578213  1
  Ir  Ir20  1  0.569742  0.143158  0.143158  1
  Pd  Pd21  1  0.142139  0.145838  0.145838  1
  Pd  Pd22  1  0.141499  0.145379  0.567017  1
  Pd  Pd23  1  0.141499  0.567017  0.145378  1
