# generated using pymatgen
data_TmAl3Pt8
_symmetry_space_group_name_H-M   'P 1'
_cell_length_a   4.04135300
_cell_length_b   5.62083100
_cell_length_c   16.58539900
_cell_angle_alpha   90.00000000
_cell_angle_beta   90.00000000
_cell_angle_gamma   90.00000000
_symmetry_Int_Tables_number   1
_chemical_formula_structural   TmAl3Pt8
_chemical_formula_sum   'Tm2 Al6 Pt16'
_cell_volume   376.74998008
_cell_formula_units_Z   2
loop_
 _symmetry_equiv_pos_site_id
 _symmetry_equiv_pos_as_xyz
  1  'x, y, z'
loop_
 _atom_site_type_symbol
 _atom_site_label
 _atom_site_symmetry_multiplicity
 _atom_site_fract_x
 _atom_site_fract_y
 _atom_site_fract_z
 _atom_site_occupancy
  Tm  Tm0  1  0.000000  0.197713  0.750000  1
  Tm  Tm1  1  0.000000  0.802287  0.250000  1
  Al  Al2  1  0.000000  0.685731  0.591455  1
  Al  Al3  1  0.000000  0.314269  0.408545  1
  Al  Al4  1  0.000000  0.685731  0.908545  1
  Al  Al5  1  0.000000  0.314269  0.091455  1
  Al  Al6  1  0.500000  0.000000  0.500000  1
  Al  Al7  1  0.500000  0.000000  0.000000  1
  Pt  Pt8  1  0.500000  0.056544  0.346255  1
  Pt  Pt9  1  0.500000  0.943456  0.653745  1
  Pt  Pt10  1  0.500000  0.549502  0.164311  1
  Pt  Pt11  1  0.500000  0.450498  0.835689  1
  Pt  Pt12  1  0.500000  0.549502  0.335689  1
  Pt  Pt13  1  0.500000  0.450498  0.664311  1
  Pt  Pt14  1  0.000000  0.292978  0.250000  1
  Pt  Pt15  1  0.000000  0.707022  0.750000  1
  Pt  Pt16  1  0.500000  0.943456  0.846255  1
  Pt  Pt17  1  0.500000  0.056544  0.153745  1
  Pt  Pt18  1  0.500000  0.500000  0.500000  1
  Pt  Pt19  1  0.500000  0.500000  0.000000  1
  Pt  Pt20  1  0.000000  0.202530  0.566436  1
  Pt  Pt21  1  0.000000  0.797470  0.433564  1
  Pt  Pt22  1  0.000000  0.202530  0.933564  1
  Pt  Pt23  1  0.000000  0.797470  0.066436  1
