# generated using pymatgen
data_CeDy2Rh2Pb3
_symmetry_space_group_name_H-M   'P 1'
_cell_length_a   7.89020400
_cell_length_b   7.76902415
_cell_length_c   3.70560900
_cell_angle_alpha   90.00000000
_cell_angle_beta   90.00000000
_cell_angle_gamma   120.51732718
_symmetry_Int_Tables_number   1
_chemical_formula_structural   CeDy2Rh2Pb3
_chemical_formula_sum   'Ce1 Dy2 Rh2 Pb3'
_cell_volume   195.68489066
_cell_formula_units_Z   1
loop_
 _symmetry_equiv_pos_site_id
 _symmetry_equiv_pos_as_xyz
  1  'x, y, z'
loop_
 _atom_site_type_symbol
 _atom_site_label
 _atom_site_symmetry_multiplicity
 _atom_site_fract_x
 _atom_site_fract_y
 _atom_site_fract_z
 _atom_site_occupancy
  Ce  Ce0  1  0.581583  0.000000  0.500001  1
  Dy  Dy1  1  0.411610  0.411064  0.500001  1
  Dy  Dy2  1  0.000546  0.588936  0.500001  1
  Rh  Rh3  1  0.662817  0.316521  0.000000  1
  Rh  Rh4  1  0.346295  0.683480  0.000000  1
  Pb  Pb5  1  0.239788  0.000000  0.000000  1
  Pb  Pb6  1  0.004753  0.252141  0.000000  1
  Pb  Pb7  1  0.752611  0.747858  0.000000  1
