# generated using pymatgen
data_Tb6Dy10Cd3Ni4Ag
_symmetry_space_group_name_H-M   'P 1'
_cell_length_a   9.49961565
_cell_length_b   9.49961573
_cell_length_c   9.49961517
_cell_angle_alpha   60.20379714
_cell_angle_beta   60.20379804
_cell_angle_gamma   60.20380014
_symmetry_Int_Tables_number   1
_chemical_formula_structural   Tb6Dy10Cd3Ni4Ag
_chemical_formula_sum   'Tb6 Dy10 Cd3 Ni4 Ag1'
_cell_volume   608.97938743
_cell_formula_units_Z   1
loop_
 _symmetry_equiv_pos_site_id
 _symmetry_equiv_pos_as_xyz
  1  'x, y, z'
loop_
 _atom_site_type_symbol
 _atom_site_label
 _atom_site_symmetry_multiplicity
 _atom_site_fract_x
 _atom_site_fract_y
 _atom_site_fract_z
 _atom_site_occupancy
  Tb  Tb0  1  0.934984  0.562926  0.562926  1
  Tb  Tb1  1  0.561989  0.936646  0.936646  1
  Tb  Tb2  1  0.562926  0.934984  0.562926  1
  Tb  Tb3  1  0.936646  0.561989  0.936646  1
  Tb  Tb4  1  0.562926  0.562926  0.934984  1
  Tb  Tb5  1  0.936646  0.936646  0.561989  1
  Dy  Dy6  1  0.346961  0.346961  0.346961  1
  Dy  Dy7  1  0.349869  0.349869  0.951099  1
  Dy  Dy8  1  0.349869  0.951099  0.349869  1
  Dy  Dy9  1  0.951099  0.349869  0.349869  1
  Dy  Dy10  1  0.812229  0.189672  0.189672  1
  Dy  Dy11  1  0.188381  0.811397  0.811397  1
  Dy  Dy12  1  0.189672  0.812229  0.189672  1
  Dy  Dy13  1  0.811397  0.188381  0.811397  1
  Dy  Dy14  1  0.189672  0.189672  0.812229  1
  Dy  Dy15  1  0.811397  0.811397  0.188381  1
  Cd  Cd16  1  0.581429  0.581429  0.257765  1
  Cd  Cd17  1  0.581429  0.257765  0.581429  1
  Cd  Cd18  1  0.257765  0.581429  0.581429  1
  Ni  Ni19  1  0.143510  0.143510  0.143510  1
  Ni  Ni20  1  0.141950  0.141950  0.572807  1
  Ni  Ni21  1  0.141950  0.572807  0.141950  1
  Ni  Ni22  1  0.572807  0.141950  0.141950  1
  Ag  Ag23  1  0.582495  0.582495  0.582495  1
