# generated using pymatgen
data_Ac2Dy3Pb4
_symmetry_space_group_name_H-M   'P 1'
_cell_length_a   8.50725700
_cell_length_b   8.56525900
_cell_length_c   16.25161100
_cell_angle_alpha   90.00000000
_cell_angle_beta   90.00000000
_cell_angle_gamma   90.00000000
_symmetry_Int_Tables_number   1
_chemical_formula_structural   Ac2Dy3Pb4
_chemical_formula_sum   'Ac8 Dy12 Pb16'
_cell_volume   1184.20385676
_cell_formula_units_Z   4
loop_
 _symmetry_equiv_pos_site_id
 _symmetry_equiv_pos_as_xyz
  1  'x, y, z'
loop_
 _atom_site_type_symbol
 _atom_site_label
 _atom_site_symmetry_multiplicity
 _atom_site_fract_x
 _atom_site_fract_y
 _atom_site_fract_z
 _atom_site_occupancy
  Ac  Ac0  1  0.022362  0.176525  0.096215  1
  Ac  Ac1  1  0.522362  0.323475  0.403785  1
  Ac  Ac2  1  0.477638  0.676525  0.903785  1
  Ac  Ac3  1  0.977638  0.823475  0.596215  1
  Ac  Ac4  1  0.977638  0.823475  0.903785  1
  Ac  Ac5  1  0.477638  0.676525  0.596215  1
  Ac  Ac6  1  0.522362  0.323475  0.096215  1
  Ac  Ac7  1  0.022362  0.176525  0.403785  1
  Dy  Dy8  1  0.863999  0.656625  0.123290  1
  Dy  Dy9  1  0.363999  0.843375  0.376710  1
  Dy  Dy10  1  0.636001  0.156625  0.876710  1
  Dy  Dy11  1  0.136001  0.343375  0.623290  1
  Dy  Dy12  1  0.136001  0.343375  0.876710  1
  Dy  Dy13  1  0.636001  0.156625  0.623290  1
  Dy  Dy14  1  0.363999  0.843375  0.123290  1
  Dy  Dy15  1  0.863999  0.656625  0.376710  1
  Dy  Dy16  1  0.699128  0.994653  0.250000  1
  Dy  Dy17  1  0.199128  0.505347  0.250000  1
  Dy  Dy18  1  0.800872  0.494653  0.750000  1
  Dy  Dy19  1  0.300872  0.005347  0.750000  1
  Pb  Pb20  1  0.058850  0.864725  0.250000  1
  Pb  Pb21  1  0.558850  0.635275  0.250000  1
  Pb  Pb22  1  0.441150  0.364725  0.750000  1
  Pb  Pb23  1  0.941150  0.135275  0.750000  1
  Pb  Pb24  1  0.834292  0.355293  0.250000  1
  Pb  Pb25  1  0.334292  0.144707  0.250000  1
  Pb  Pb26  1  0.665708  0.855293  0.750000  1
  Pb  Pb27  1  0.165708  0.644707  0.750000  1
  Pb  Pb28  1  0.802771  0.454002  0.954341  1
  Pb  Pb29  1  0.302771  0.045998  0.545659  1
  Pb  Pb30  1  0.697229  0.954002  0.045659  1
  Pb  Pb31  1  0.197229  0.545998  0.454341  1
  Pb  Pb32  1  0.197229  0.545998  0.045659  1
  Pb  Pb33  1  0.697229  0.954002  0.454341  1
  Pb  Pb34  1  0.302771  0.045998  0.954341  1
  Pb  Pb35  1  0.802771  0.454002  0.545659  1
