# generated using pymatgen
data_V20Zn(MoC3)2
_symmetry_space_group_name_H-M   'P 1'
_cell_length_a   7.81538000
_cell_length_b   7.80995628
_cell_length_c   7.81238711
_cell_angle_alpha   60.00477073
_cell_angle_beta   60.01432661
_cell_angle_gamma   59.98278271
_symmetry_Int_Tables_number   1
_chemical_formula_structural   V20Zn(MoC3)2
_chemical_formula_sum   'V20 Zn1 Mo2 C6'
_cell_volume   337.18912592
_cell_formula_units_Z   1
loop_
 _symmetry_equiv_pos_site_id
 _symmetry_equiv_pos_as_xyz
  1  'x, y, z'
loop_
 _atom_site_type_symbol
 _atom_site_label
 _atom_site_symmetry_multiplicity
 _atom_site_fract_x
 _atom_site_fract_y
 _atom_site_fract_z
 _atom_site_occupancy
  V  V0  1  0.615180  0.614588  0.155345  1
  V  V1  1  0.614893  0.155687  0.614785  1
  V  V2  1  0.155444  0.614626  0.615031  1
  V  V3  1  0.615001  0.614513  0.614919  1
  V  V4  1  0.384820  0.385412  0.844655  1
  V  V5  1  0.385107  0.844313  0.385215  1
  V  V6  1  0.844556  0.385374  0.384969  1
  V  V7  1  0.384999  0.385487  0.385081  1
  V  V8  1  0.999758  0.000107  0.339611  1
  V  V9  1  0.660625  0.000161  0.339493  1
  V  V10  1  0.999985  0.660443  0.339702  1
  V  V11  1  0.660408  0.339489  0.000104  1
  V  V12  1  0.999815  0.339498  0.000220  1
  V  V13  1  0.000015  0.339557  0.660298  1
  V  V14  1  0.339592  0.660511  0.999896  1
  V  V15  1  0.339375  0.999839  0.660507  1
  V  V16  1  0.339502  0.999830  0.000088  1
  V  V17  1  0.000242  0.999893  0.660389  1
  V  V18  1  0.000185  0.660502  0.999780  1
  V  V19  1  0.660498  0.000170  0.999912  1
  Zn  Zn20  1  0.000000  0.000000  0.000000  1
  Mo  Mo21  1  0.750164  0.749740  0.749998  1
  Mo  Mo22  1  0.249836  0.250260  0.250002  1
  C  C23  1  0.725401  0.725443  0.274663  1
  C  C24  1  0.274527  0.725409  0.274646  1
  C  C25  1  0.725284  0.274601  0.274759  1
  C  C26  1  0.274599  0.274557  0.725337  1
  C  C27  1  0.725473  0.274591  0.725354  1
  C  C28  1  0.274716  0.725399  0.725241  1
