# generated using pymatgen
data_Ti3Cr2FeAs2P
_symmetry_space_group_name_H-M   'P 1'
_cell_length_a   6.48253029
_cell_length_b   6.48253053
_cell_length_c   3.35422800
_cell_angle_alpha   90.00000000
_cell_angle_beta   90.00000000
_cell_angle_gamma   120.57738314
_symmetry_Int_Tables_number   1
_chemical_formula_structural   Ti3Cr2FeAs2P
_chemical_formula_sum   'Ti3 Cr2 Fe1 As2 P1'
_cell_volume   121.35454703
_cell_formula_units_Z   1
loop_
 _symmetry_equiv_pos_site_id
 _symmetry_equiv_pos_as_xyz
  1  'x, y, z'
loop_
 _atom_site_type_symbol
 _atom_site_label
 _atom_site_symmetry_multiplicity
 _atom_site_fract_x
 _atom_site_fract_y
 _atom_site_fract_z
 _atom_site_occupancy
  Ti  Ti0  1  0.388895  0.388895  0.500000  1
  Ti  Ti1  1  0.604191  0.008586  0.500000  1
  Ti  Ti2  1  0.008586  0.604191  0.500000  1
  Cr  Cr3  1  0.243066  0.998883  0.000000  1
  Cr  Cr4  1  0.998883  0.243066  0.000000  1
  Fe  Fe5  1  0.758757  0.758757  0.000000  1
  As  As6  1  0.669647  0.342304  0.000000  1
  As  As7  1  0.342304  0.669647  0.000000  1
  P  P8  1  0.985670  0.985670  0.500000  1
