# generated using pymatgen
data_Er7LuHg4
_symmetry_space_group_name_H-M   'P 1'
_cell_length_a   6.98468033
_cell_length_b   5.04958100
_cell_length_c   9.15917943
_cell_angle_alpha   90.00000000
_cell_angle_beta   89.96497951
_cell_angle_gamma   90.00000000
_symmetry_Int_Tables_number   1
_chemical_formula_structural   Er7LuHg4
_chemical_formula_sum   'Er7 Lu1 Hg4'
_cell_volume   323.04153336
_cell_formula_units_Z   1
loop_
 _symmetry_equiv_pos_site_id
 _symmetry_equiv_pos_as_xyz
  1  'x, y, z'
loop_
 _atom_site_type_symbol
 _atom_site_label
 _atom_site_symmetry_multiplicity
 _atom_site_fract_x
 _atom_site_fract_y
 _atom_site_fract_z
 _atom_site_occupancy
  Er  Er0  1  0.017230  0.750000  0.193881  1
  Er  Er1  1  0.516445  0.750000  0.305757  1
  Er  Er2  1  0.830752  0.250000  0.425779  1
  Er  Er3  1  0.169369  0.750000  0.574274  1
  Er  Er4  1  0.483179  0.250000  0.694211  1
  Er  Er5  1  0.983578  0.250000  0.806078  1
  Er  Er6  1  0.668704  0.750000  0.925972  1
  Lu  Lu7  1  0.331170  0.250000  0.074229  1
  Hg  Hg8  1  0.762074  0.250000  0.102281  1
  Hg  Hg9  1  0.263002  0.250000  0.397072  1
  Hg  Hg10  1  0.737154  0.750000  0.602326  1
  Hg  Hg11  1  0.237340  0.750000  0.898138  1
