# generated using pymatgen
data_Hf4Ta5Re3
_symmetry_space_group_name_H-M   'P 1'
_cell_length_a   5.47421100
_cell_length_b   5.42518136
_cell_length_c   8.92165100
_cell_angle_alpha   90.00000000
_cell_angle_beta   90.00000000
_cell_angle_gamma   120.29940233
_symmetry_Int_Tables_number   1
_chemical_formula_structural   Hf4Ta5Re3
_chemical_formula_sum   'Hf4 Ta5 Re3'
_cell_volume   228.76705313
_cell_formula_units_Z   1
loop_
 _symmetry_equiv_pos_site_id
 _symmetry_equiv_pos_as_xyz
  1  'x, y, z'
loop_
 _atom_site_type_symbol
 _atom_site_label
 _atom_site_symmetry_multiplicity
 _atom_site_fract_x
 _atom_site_fract_y
 _atom_site_fract_z
 _atom_site_occupancy
  Hf  Hf0  1  0.332473  0.664947  0.066888  1
  Hf  Hf1  1  0.666842  0.333682  0.557473  1
  Hf  Hf2  1  0.666842  0.333682  0.942527  1
  Hf  Hf3  1  0.332473  0.664947  0.433112  1
  Ta  Ta4  1  0.006816  0.013633  0.003579  1
  Ta  Ta5  1  0.006816  0.013633  0.496421  1
  Ta  Ta6  1  0.828519  0.657038  0.250000  1
  Ta  Ta7  1  0.168226  0.826589  0.750000  1
  Ta  Ta8  1  0.658364  0.826589  0.750000  1
  Re  Re9  1  0.341496  0.164881  0.250000  1
  Re  Re10  1  0.823384  0.164881  0.250000  1
  Re  Re11  1  0.167749  0.335497  0.750000  1
