# generated using pymatgen
data_Sc14Al8Rh7
_symmetry_space_group_name_H-M   'P 1'
_cell_length_a   9.13303584
_cell_length_b   9.13303616
_cell_length_c   9.13303600
_cell_angle_alpha   60.00000057
_cell_angle_beta   59.99999941
_cell_angle_gamma   60.00000286
_symmetry_Int_Tables_number   1
_chemical_formula_structural   Sc14Al8Rh7
_chemical_formula_sum   'Sc14 Al8 Rh7'
_cell_volume   538.67958850
_cell_formula_units_Z   1
loop_
 _symmetry_equiv_pos_site_id
 _symmetry_equiv_pos_as_xyz
  1  'x, y, z'
loop_
 _atom_site_type_symbol
 _atom_site_label
 _atom_site_symmetry_multiplicity
 _atom_site_fract_x
 _atom_site_fract_y
 _atom_site_fract_z
 _atom_site_occupancy
  Sc  Sc0  1  0.681942  0.681942  0.318058  1
  Sc  Sc1  1  0.318058  0.681942  0.318058  1
  Sc  Sc2  1  0.681942  0.318058  0.318058  1
  Sc  Sc3  1  0.318058  0.318058  0.681942  1
  Sc  Sc4  1  0.681942  0.318058  0.681942  1
  Sc  Sc5  1  0.318058  0.681942  0.681942  1
  Sc  Sc6  1  0.877524  0.877524  0.367426  1
  Sc  Sc7  1  0.877524  0.367426  0.877524  1
  Sc  Sc8  1  0.367426  0.877524  0.877524  1
  Sc  Sc9  1  0.877524  0.877524  0.877524  1
  Sc  Sc10  1  0.122476  0.122476  0.632574  1
  Sc  Sc11  1  0.122476  0.632574  0.122476  1
  Sc  Sc12  1  0.632574  0.122476  0.122476  1
  Sc  Sc13  1  0.122476  0.122476  0.122476  1
  Al  Al14  1  0.663204  0.663204  0.010386  1
  Al  Al15  1  0.663204  0.010386  0.663204  1
  Al  Al16  1  0.010386  0.663204  0.663204  1
  Al  Al17  1  0.663204  0.663204  0.663204  1
  Al  Al18  1  0.336796  0.336796  0.989614  1
  Al  Al19  1  0.336796  0.989614  0.336796  1
  Al  Al20  1  0.989614  0.336796  0.336796  1
  Al  Al21  1  0.336796  0.336796  0.336796  1
  Rh  Rh22  1  0.000000  0.000000  0.000000  1
  Rh  Rh23  1  0.000000  0.000000  0.500000  1
  Rh  Rh24  1  0.500000  0.000000  0.500000  1
  Rh  Rh25  1  0.000000  0.500000  0.500000  1
  Rh  Rh26  1  0.500000  0.500000  0.000000  1
  Rh  Rh27  1  0.000000  0.500000  0.000000  1
  Rh  Rh28  1  0.500000  0.000000  0.000000  1
