# generated using pymatgen
data_PrTl(CuO2)4
_symmetry_space_group_name_H-M   'P 1'
_cell_length_a   6.33406136
_cell_length_b   6.33406089
_cell_length_c   6.33406000
_cell_angle_alpha   125.61220119
_cell_angle_beta   125.61219813
_cell_angle_gamma   80.52644952
_symmetry_Int_Tables_number   1
_chemical_formula_structural   PrTl(CuO2)4
_chemical_formula_sum   'Pr1 Tl1 Cu4 O8'
_cell_volume   162.00080431
_cell_formula_units_Z   1
loop_
 _symmetry_equiv_pos_site_id
 _symmetry_equiv_pos_as_xyz
  1  'x, y, z'
loop_
 _atom_site_type_symbol
 _atom_site_label
 _atom_site_symmetry_multiplicity
 _atom_site_fract_x
 _atom_site_fract_y
 _atom_site_fract_z
 _atom_site_occupancy
  Pr  Pr0  1  0.750000  0.250000  0.500000  1
  Tl  Tl1  1  0.000000  0.000000  0.000000  1
  Cu  Cu2  1  0.876566  0.620925  0.248804  1
  Cu  Cu3  1  0.372238  0.123434  0.744359  1
  Cu  Cu4  1  0.379075  0.627879  0.255641  1
  Cu  Cu5  1  0.372121  0.627762  0.751196  1
  O  O6  1  0.336460  0.980664  0.919157  1
  O  O7  1  0.702385  0.831895  0.434925  1
  O  O8  1  0.732540  0.297615  0.129509  1
  O  O9  1  0.582697  0.663540  0.644205  1
  O  O10  1  0.168105  0.603030  0.870491  1
  O  O11  1  0.019336  0.938493  0.355795  1
  O  O12  1  0.061507  0.417303  0.080843  1
  O  O13  1  0.396970  0.267460  0.565075  1
