# generated using pymatgen
data_LuZr3Re7Mo
_symmetry_space_group_name_H-M   'P 1'
_cell_length_a   5.34992201
_cell_length_b   5.35001549
_cell_length_c   8.69713100
_cell_angle_alpha   89.99966291
_cell_angle_beta   90.00022618
_cell_angle_gamma   119.99709392
_symmetry_Int_Tables_number   1
_chemical_formula_structural   LuZr3Re7Mo
_chemical_formula_sum   'Lu1 Zr3 Re7 Mo1'
_cell_volume   215.58664346
_cell_formula_units_Z   1
loop_
 _symmetry_equiv_pos_site_id
 _symmetry_equiv_pos_as_xyz
  1  'x, y, z'
loop_
 _atom_site_type_symbol
 _atom_site_label
 _atom_site_symmetry_multiplicity
 _atom_site_fract_x
 _atom_site_fract_y
 _atom_site_fract_z
 _atom_site_occupancy
  Lu  Lu0  1  0.666665  0.333331  0.938942  1
  Zr  Zr1  1  0.666673  0.333333  0.566985  1
  Zr  Zr2  1  0.333340  0.666678  0.433565  1
  Zr  Zr3  1  0.333332  0.666669  0.061782  1
  Re  Re4  1  0.999984  0.999986  0.000434  1
  Re  Re5  1  0.171106  0.342220  0.749382  1
  Re  Re6  1  0.171129  0.828874  0.749379  1
  Re  Re7  1  0.657773  0.828886  0.749379  1
  Re  Re8  1  0.828815  0.657615  0.250432  1
  Re  Re9  1  0.828789  0.171216  0.250433  1
  Re  Re10  1  0.342390  0.171190  0.250431  1
  Mo  Mo11  1  0.000001  0.000002  0.498858  1
