# generated using pymatgen
data_NaEu4(AsRu)10
_symmetry_space_group_name_H-M   'P 1'
_cell_length_a   9.40549000
_cell_length_b   8.54324846
_cell_length_c   9.40549000
_cell_angle_alpha   56.60119884
_cell_angle_beta   90.00000000
_cell_angle_gamma   56.60119080
_symmetry_Int_Tables_number   1
_chemical_formula_structural   NaEu4(AsRu)10
_chemical_formula_sum   'Na1 Eu4 As10 Ru10'
_cell_volume   474.37643967
_cell_formula_units_Z   1
loop_
 _symmetry_equiv_pos_site_id
 _symmetry_equiv_pos_as_xyz
  1  'x, y, z'
loop_
 _atom_site_type_symbol
 _atom_site_label
 _atom_site_symmetry_multiplicity
 _atom_site_fract_x
 _atom_site_fract_y
 _atom_site_fract_z
 _atom_site_occupancy
  Na  Na0  1  0.000000  0.000000  0.000000  1
  Eu  Eu1  1  0.198424  0.000000  0.602171  1
  Eu  Eu2  1  0.397829  0.000000  0.198424  1
  Eu  Eu3  1  0.602171  0.000000  0.801576  1
  Eu  Eu4  1  0.801576  0.000000  0.397829  1
  As  As5  1  0.164061  0.271038  0.764228  1
  As  As6  1  0.365427  0.269145  0.365427  1
  As  As7  1  0.564900  0.271038  0.964733  1
  As  As8  1  0.764228  0.271038  0.564900  1
  As  As9  1  0.964733  0.271038  0.164061  1
  As  As10  1  0.634573  0.730855  0.634573  1
  As  As11  1  0.835939  0.728962  0.235772  1
  As  As12  1  0.035266  0.728962  0.835939  1
  As  As13  1  0.235772  0.728962  0.435100  1
  As  As14  1  0.435100  0.728962  0.035266  1
  Ru  Ru15  1  0.949213  0.501752  0.848840  1
  Ru  Ru16  1  0.151160  0.498248  0.450964  1
  Ru  Ru17  1  0.350591  0.498248  0.050787  1
  Ru  Ru18  1  0.549036  0.501752  0.649409  1
  Ru  Ru19  1  0.750000  0.500000  0.250000  1
  Ru  Ru20  1  0.848840  0.501752  0.549036  1
  Ru  Ru21  1  0.050787  0.498248  0.151160  1
  Ru  Ru22  1  0.250000  0.500000  0.750000  1
  Ru  Ru23  1  0.450964  0.498248  0.350591  1
  Ru  Ru24  1  0.649409  0.501752  0.949213  1
