# generated using pymatgen
data_SrZr8Tl(PO4)12
_symmetry_space_group_name_H-M   'P 1'
_cell_length_a   8.93060122
_cell_length_b   9.36744502
_cell_length_c   12.94859843
_cell_angle_alpha   93.79869300
_cell_angle_beta   90.01718990
_cell_angle_gamma   89.98768525
_symmetry_Int_Tables_number   1
_chemical_formula_structural   SrZr8Tl(PO4)12
_chemical_formula_sum   'Sr1 Zr8 Tl1 P12 O48'
_cell_volume   1080.85984184
_cell_formula_units_Z   1
loop_
 _symmetry_equiv_pos_site_id
 _symmetry_equiv_pos_as_xyz
  1  'x, y, z'
loop_
 _atom_site_type_symbol
 _atom_site_label
 _atom_site_symmetry_multiplicity
 _atom_site_fract_x
 _atom_site_fract_y
 _atom_site_fract_z
 _atom_site_occupancy
  Sr  Sr0  1  0.000000  0.000000  0.000000  1
  Zr  Zr1  1  0.000253  0.715608  0.642124  1
  Zr  Zr2  1  0.499753  0.216672  0.141807  1
  Zr  Zr3  1  0.999747  0.284392  0.357876  1
  Zr  Zr4  1  0.500247  0.783328  0.858193  1
  Zr  Zr5  1  0.499698  0.200760  0.650380  1
  Zr  Zr6  1  0.000483  0.701182  0.148786  1
  Zr  Zr7  1  0.500302  0.799240  0.349620  1
  Zr  Zr8  1  0.999517  0.298818  0.851214  1
  Tl  Tl9  1  0.500000  0.500000  0.500000  1
  P  P10  1  0.213020  0.998518  0.757034  1
  P  P11  1  0.714759  0.498933  0.254480  1
  P  P12  1  0.637503  0.849590  0.608199  1
  P  P13  1  0.138056  0.351123  0.106977  1
  P  P14  1  0.147562  0.636640  0.393258  1
  P  P15  1  0.649181  0.136140  0.894122  1
  P  P16  1  0.786980  0.001482  0.242966  1
  P  P17  1  0.285241  0.501067  0.745520  1
  P  P18  1  0.362497  0.150410  0.391801  1
  P  P19  1  0.861944  0.648877  0.893023  1
  P  P20  1  0.852438  0.363360  0.606742  1
  P  P21  1  0.350819  0.863860  0.105878  1
  O  O22  1  0.368888  0.027477  0.113753  1
  O  O23  1  0.872268  0.526325  0.614787  1
  O  O24  1  0.688956  0.085734  0.170524  1
  O  O25  1  0.185677  0.583908  0.673750  1
  O  O26  1  0.442136  0.214574  0.300693  1
  O  O27  1  0.941694  0.712263  0.801430  1
  O  O28  1  0.631112  0.972523  0.886247  1
  O  O29  1  0.127732  0.473675  0.385213  1
  O  O30  1  0.311044  0.914266  0.829476  1
  O  O31  1  0.814323  0.416092  0.326250  1
  O  O32  1  0.557864  0.785426  0.699307  1
  O  O33  1  0.058306  0.287737  0.198570  1
  O  O34  1  0.065030  0.705859  0.487756  1
  O  O35  1  0.563459  0.204928  0.987331  1
  O  O36  1  0.126636  0.897888  0.679796  1
  O  O37  1  0.627892  0.397555  0.178142  1
  O  O38  1  0.807987  0.832128  0.614972  1
  O  O39  1  0.308774  0.334341  0.114591  1
  O  O40  1  0.934970  0.294141  0.512244  1
  O  O41  1  0.436541  0.795072  0.012669  1
  O  O42  1  0.873364  0.102112  0.320204  1
  O  O43  1  0.372108  0.602445  0.821858  1
  O  O44  1  0.192013  0.167872  0.385028  1
  O  O45  1  0.691226  0.665659  0.885409  1
  O  O46  1  0.900720  0.912252  0.173618  1
  O  O47  1  0.398187  0.409791  0.676575  1
  O  O48  1  0.420612  0.229709  0.494273  1
  O  O49  1  0.919187  0.732069  0.993760  1
  O  O50  1  0.681042  0.330628  0.596383  1
  O  O51  1  0.180190  0.831415  0.092637  1
  O  O52  1  0.099280  0.087748  0.826382  1
  O  O53  1  0.601813  0.590209  0.323425  1
  O  O54  1  0.579388  0.770291  0.505727  1
  O  O55  1  0.080813  0.267931  0.006240  1
  O  O56  1  0.318958  0.669372  0.403617  1
  O  O57  1  0.819810  0.168585  0.907363  1
  O  O58  1  0.309282  0.101563  0.696083  1
  O  O59  1  0.808298  0.602769  0.192339  1
  O  O60  1  0.599740  0.010333  0.603945  1
  O  O61  1  0.100867  0.511882  0.101848  1
  O  O62  1  0.592685  0.201697  0.794713  1
  O  O63  1  0.090627  0.703569  0.294391  1
  O  O64  1  0.690718  0.898437  0.303917  1
  O  O65  1  0.191702  0.397231  0.807661  1
  O  O66  1  0.400260  0.989667  0.396055  1
  O  O67  1  0.899133  0.488118  0.898152  1
  O  O68  1  0.407315  0.798303  0.205287  1
  O  O69  1  0.909373  0.296431  0.705609  1
