# generated using pymatgen
data_Gd10Si5Te
_symmetry_space_group_name_H-M   'P 1'
_cell_length_a   8.63921700
_cell_length_b   8.63921670
_cell_length_c   6.36360000
_cell_angle_alpha   90.00000000
_cell_angle_beta   90.00000000
_cell_angle_gamma   120.36813074
_symmetry_Int_Tables_number   1
_chemical_formula_structural   Gd10Si5Te
_chemical_formula_sum   'Gd10 Si5 Te1'
_cell_volume   409.78800776
_cell_formula_units_Z   1
loop_
 _symmetry_equiv_pos_site_id
 _symmetry_equiv_pos_as_xyz
  1  'x, y, z'
loop_
 _atom_site_type_symbol
 _atom_site_label
 _atom_site_symmetry_multiplicity
 _atom_site_fract_x
 _atom_site_fract_y
 _atom_site_fract_z
 _atom_site_occupancy
  Gd  Gd0  1  0.676153  0.331252  0.504803  1
  Gd  Gd1  1  0.331252  0.676153  0.504803  1
  Gd  Gd2  1  0.331252  0.676153  0.995197  1
  Gd  Gd3  1  0.676153  0.331252  0.995197  1
  Gd  Gd4  1  0.764317  0.764317  0.250000  1
  Gd  Gd5  1  0.241457  0.985311  0.250000  1
  Gd  Gd6  1  0.985311  0.241457  0.250000  1
  Gd  Gd7  1  0.242884  0.242884  0.750000  1
  Gd  Gd8  1  0.753641  0.999265  0.750000  1
  Gd  Gd9  1  0.999265  0.753641  0.750000  1
  Si  Si10  1  0.605427  0.998731  0.250000  1
  Si  Si11  1  0.998731  0.605427  0.250000  1
  Si  Si12  1  0.607312  0.607312  0.750000  1
  Si  Si13  1  0.392289  0.003268  0.750000  1
  Si  Si14  1  0.003268  0.392289  0.750000  1
  Te  Te15  1  0.391291  0.391291  0.250000  1
