# generated using pymatgen
data_Sc10Ga2SnSb3
_symmetry_space_group_name_H-M   'P 1'
_cell_length_a   8.32807874
_cell_length_b   8.32506840
_cell_length_c   6.01935000
_cell_angle_alpha   90.00000000
_cell_angle_beta   90.00000000
_cell_angle_gamma   120.05996815
_symmetry_Int_Tables_number   1
_chemical_formula_structural   Sc10Ga2SnSb3
_chemical_formula_sum   'Sc10 Ga2 Sn1 Sb3'
_cell_volume   361.20196901
_cell_formula_units_Z   1
loop_
 _symmetry_equiv_pos_site_id
 _symmetry_equiv_pos_as_xyz
  1  'x, y, z'
loop_
 _atom_site_type_symbol
 _atom_site_label
 _atom_site_symmetry_multiplicity
 _atom_site_fract_x
 _atom_site_fract_y
 _atom_site_fract_z
 _atom_site_occupancy
  Sc  Sc0  1  0.334818  0.668050  0.000290  1
  Sc  Sc1  1  0.652013  0.326642  0.499679  1
  Sc  Sc2  1  0.652013  0.326642  0.000321  1
  Sc  Sc3  1  0.334818  0.668050  0.499710  1
  Sc  Sc4  1  0.241502  0.010768  0.250000  1
  Sc  Sc5  1  0.242492  0.229858  0.750000  1
  Sc  Sc6  1  0.012905  0.772191  0.750000  1
  Sc  Sc7  1  0.013956  0.242414  0.250000  1
  Sc  Sc8  1  0.756829  0.754900  0.250000  1
  Sc  Sc9  1  0.754523  0.999594  0.750000  1
  Ga  Ga10  1  0.394424  0.397381  0.250000  1
  Ga  Ga11  1  0.395730  0.998160  0.750000  1
  Sn  Sn12  1  0.997694  0.605182  0.250000  1
  Sb  Sb13  1  0.610339  0.001316  0.250000  1
  Sb  Sb14  1  0.607969  0.608046  0.750000  1
  Sb  Sb15  1  0.997975  0.390807  0.750000  1
