# generated using pymatgen
data_Dy8V3Si16Mo9
_symmetry_space_group_name_H-M   'P 1'
_cell_length_a   6.87285741
_cell_length_b   6.87285769
_cell_length_c   12.77259701
_cell_angle_alpha   90.03212516
_cell_angle_beta   89.96787632
_cell_angle_gamma   89.75127245
_symmetry_Int_Tables_number   1
_chemical_formula_structural   Dy8V3Si16Mo9
_chemical_formula_sum   'Dy8 V3 Si16 Mo9'
_cell_volume   603.32269904
_cell_formula_units_Z   1
loop_
 _symmetry_equiv_pos_site_id
 _symmetry_equiv_pos_as_xyz
  1  'x, y, z'
loop_
 _atom_site_type_symbol
 _atom_site_label
 _atom_site_symmetry_multiplicity
 _atom_site_fract_x
 _atom_site_fract_y
 _atom_site_fract_z
 _atom_site_occupancy
  Dy  Dy0  1  0.999277  0.660447  0.031464  1
  Dy  Dy1  1  0.999988  0.339764  0.531799  1
  Dy  Dy2  1  0.660447  0.999277  0.968536  1
  Dy  Dy3  1  0.161107  0.501258  0.781601  1
  Dy  Dy4  1  0.838655  0.500671  0.281590  1
  Dy  Dy5  1  0.501258  0.161107  0.218399  1
  Dy  Dy6  1  0.500671  0.838655  0.718410  1
  Dy  Dy7  1  0.339764  0.999988  0.468201  1
  V  V8  1  0.831285  0.167669  0.749063  1
  V  V9  1  0.167669  0.831285  0.250937  1
  V  V10  1  0.331511  0.331511  0.000000  1
  Si  Si11  1  0.037243  0.713536  0.436981  1
  Si  Si12  1  0.960482  0.288635  0.935335  1
  Si  Si13  1  0.713536  0.037243  0.563019  1
  Si  Si14  1  0.211410  0.462064  0.185135  1
  Si  Si15  1  0.788006  0.537743  0.686060  1
  Si  Si16  1  0.462064  0.211410  0.814865  1
  Si  Si17  1  0.537743  0.788006  0.313940  1
  Si  Si18  1  0.288635  0.960482  0.064665  1
  Si  Si19  1  0.801748  0.872138  0.184789  1
  Si  Si20  1  0.302670  0.625989  0.564774  1
  Si  Si21  1  0.698272  0.371875  0.064832  1
  Si  Si22  1  0.625989  0.302670  0.435226  1
  Si  Si23  1  0.371875  0.698272  0.935168  1
  Si  Si24  1  0.128114  0.200455  0.314414  1
  Si  Si25  1  0.200455  0.128114  0.685586  1
  Si  Si26  1  0.872138  0.801748  0.815211  1
  Mo  Mo27  1  0.332983  0.502162  0.373974  1
  Mo  Mo28  1  0.842081  0.999883  0.372341  1
  Mo  Mo29  1  0.004457  0.160413  0.124850  1
  Mo  Mo30  1  0.999883  0.842081  0.627659  1
  Mo  Mo31  1  0.502162  0.332983  0.626026  1
  Mo  Mo32  1  0.160413  0.004457  0.875150  1
  Mo  Mo33  1  0.668401  0.668401  0.500000  1
  Mo  Mo34  1  0.497167  0.660443  0.124172  1
  Mo  Mo35  1  0.660443  0.497167  0.875828  1
