# generated using pymatgen
data_Tb16Cd3HgIr3Pt
_symmetry_space_group_name_H-M   'P 1'
_cell_length_a   9.66106556
_cell_length_b   9.66106476
_cell_length_c   9.66106483
_cell_angle_alpha   60.20795663
_cell_angle_beta   60.20795338
_cell_angle_gamma   60.20796561
_symmetry_Int_Tables_number   1
_chemical_formula_structural   Tb16Cd3HgIr3Pt
_chemical_formula_sum   'Tb16 Cd3 Hg1 Ir3 Pt1'
_cell_volume   640.61955685
_cell_formula_units_Z   1
loop_
 _symmetry_equiv_pos_site_id
 _symmetry_equiv_pos_as_xyz
  1  'x, y, z'
loop_
 _atom_site_type_symbol
 _atom_site_label
 _atom_site_symmetry_multiplicity
 _atom_site_fract_x
 _atom_site_fract_y
 _atom_site_fract_z
 _atom_site_occupancy
  Tb  Tb0  1  0.597953  0.597953  0.597953  1
  Tb  Tb1  1  0.603095  0.603095  0.197958  1
  Tb  Tb2  1  0.603095  0.197958  0.603095  1
  Tb  Tb3  1  0.197958  0.603095  0.603095  1
  Tb  Tb4  1  0.056365  0.440206  0.440206  1
  Tb  Tb5  1  0.437549  0.059572  0.059572  1
  Tb  Tb6  1  0.440206  0.056365  0.440206  1
  Tb  Tb7  1  0.059572  0.437549  0.059572  1
  Tb  Tb8  1  0.440206  0.440206  0.056365  1
  Tb  Tb9  1  0.059572  0.059572  0.437549  1
  Tb  Tb10  1  0.188158  0.812317  0.812317  1
  Tb  Tb11  1  0.812874  0.187239  0.187239  1
  Tb  Tb12  1  0.812317  0.188158  0.812317  1
  Tb  Tb13  1  0.187239  0.812874  0.187239  1
  Tb  Tb14  1  0.812317  0.812317  0.188158  1
  Tb  Tb15  1  0.187239  0.187239  0.812874  1
  Cd  Cd16  1  0.830619  0.830619  0.506573  1
  Cd  Cd17  1  0.830619  0.506573  0.830619  1
  Cd  Cd18  1  0.506573  0.830619  0.830619  1
  Hg  Hg19  1  0.834714  0.834714  0.834714  1
  Ir  Ir20  1  0.392196  0.392196  0.824438  1
  Ir  Ir21  1  0.392196  0.824438  0.392196  1
  Ir  Ir22  1  0.824438  0.392196  0.392196  1
  Pt  Pt23  1  0.392929  0.392929  0.392929  1
