# generated using pymatgen
data_Zr4Ti3Re3Mo2
_symmetry_space_group_name_H-M   'P 1'
_cell_length_a   5.37212051
_cell_length_b   5.30225527
_cell_length_c   8.87528300
_cell_angle_alpha   90.00000000
_cell_angle_beta   90.00000000
_cell_angle_gamma   120.11807463
_symmetry_Int_Tables_number   1
_chemical_formula_structural   Zr4Ti3Re3Mo2
_chemical_formula_sum   'Zr4 Ti3 Re3 Mo2'
_cell_volume   218.67607342
_cell_formula_units_Z   1
loop_
 _symmetry_equiv_pos_site_id
 _symmetry_equiv_pos_as_xyz
  1  'x, y, z'
loop_
 _atom_site_type_symbol
 _atom_site_label
 _atom_site_symmetry_multiplicity
 _atom_site_fract_x
 _atom_site_fract_y
 _atom_site_fract_z
 _atom_site_occupancy
  Zr  Zr0  1  0.330677  0.664905  0.436464  1
  Zr  Zr1  1  0.666361  0.334397  0.937323  1
  Zr  Zr2  1  0.666361  0.334397  0.562677  1
  Zr  Zr3  1  0.330677  0.664905  0.063536  1
  Ti  Ti4  1  0.660352  0.831673  0.750000  1
  Ti  Ti5  1  0.002993  0.000224  0.501304  1
  Ti  Ti6  1  0.002993  0.000224  0.998696  1
  Re  Re7  1  0.167808  0.337237  0.750000  1
  Re  Re8  1  0.166857  0.828230  0.750000  1
  Re  Re9  1  0.831704  0.664373  0.250000  1
  Mo  Mo10  1  0.341813  0.170784  0.250000  1
  Mo  Mo11  1  0.831400  0.168652  0.250000  1
