# generated using pymatgen
data_Ba8HoUSe12
_symmetry_space_group_name_H-M   'P 1'
_cell_length_a   9.05607065
_cell_length_b   9.05607007
_cell_length_c   9.05607103
_cell_angle_alpha   89.51065188
_cell_angle_beta   89.51065540
_cell_angle_gamma   89.51065721
_symmetry_Int_Tables_number   1
_chemical_formula_structural   Ba8HoUSe12
_chemical_formula_sum   'Ba8 Ho1 U1 Se12'
_cell_volume   742.62941051
_cell_formula_units_Z   1
loop_
 _symmetry_equiv_pos_site_id
 _symmetry_equiv_pos_as_xyz
  1  'x, y, z'
loop_
 _atom_site_type_symbol
 _atom_site_label
 _atom_site_symmetry_multiplicity
 _atom_site_fract_x
 _atom_site_fract_y
 _atom_site_fract_z
 _atom_site_occupancy
  Ba  Ba0  1  0.870943  0.621820  0.256951  1
  Ba  Ba1  1  0.256951  0.870943  0.621820  1
  Ba  Ba2  1  0.621820  0.256951  0.870943  1
  Ba  Ba3  1  0.743049  0.129057  0.378180  1
  Ba  Ba4  1  0.378180  0.743049  0.129057  1
  Ba  Ba5  1  0.129057  0.378180  0.743049  1
  Ba  Ba6  1  0.255139  0.255139  0.255139  1
  Ba  Ba7  1  0.744861  0.744861  0.744861  1
  Ho  Ho8  1  0.500000  0.500000  0.500000  1
  U  U9  1  0.000000  0.000000  0.000000  1
  Se  Se10  1  0.199475  0.564174  0.421039  1
  Se  Se11  1  0.421039  0.199475  0.564174  1
  Se  Se12  1  0.564174  0.421039  0.199475  1
  Se  Se13  1  0.927014  0.058691  0.708152  1
  Se  Se14  1  0.708152  0.927014  0.058691  1
  Se  Se15  1  0.058691  0.708152  0.927014  1
  Se  Se16  1  0.800525  0.435826  0.578961  1
  Se  Se17  1  0.578961  0.800525  0.435826  1
  Se  Se18  1  0.435826  0.578961  0.800525  1
  Se  Se19  1  0.072986  0.941309  0.291848  1
  Se  Se20  1  0.291848  0.072986  0.941309  1
  Se  Se21  1  0.941309  0.291848  0.072986  1
