# generated using pymatgen
data_Nd16Hg4RuPt3
_symmetry_space_group_name_H-M   'P 1'
_cell_length_a   9.99382112
_cell_length_b   9.99382091
_cell_length_c   9.99382101
_cell_angle_alpha   59.76460887
_cell_angle_beta   59.76460768
_cell_angle_gamma   59.76461397
_symmetry_Int_Tables_number   1
_chemical_formula_structural   Nd16Hg4RuPt3
_chemical_formula_sum   'Nd16 Hg4 Ru1 Pt3'
_cell_volume   702.02454170
_cell_formula_units_Z   1
loop_
 _symmetry_equiv_pos_site_id
 _symmetry_equiv_pos_as_xyz
  1  'x, y, z'
loop_
 _atom_site_type_symbol
 _atom_site_label
 _atom_site_symmetry_multiplicity
 _atom_site_fract_x
 _atom_site_fract_y
 _atom_site_fract_z
 _atom_site_occupancy
  Nd  Nd0  1  0.352214  0.352214  0.352214  1
  Nd  Nd1  1  0.348969  0.348969  0.947341  1
  Nd  Nd2  1  0.348969  0.947341  0.348969  1
  Nd  Nd3  1  0.947341  0.348969  0.348969  1
  Nd  Nd4  1  0.816199  0.189342  0.189342  1
  Nd  Nd5  1  0.188764  0.808582  0.808582  1
  Nd  Nd6  1  0.189342  0.816199  0.189342  1
  Nd  Nd7  1  0.808582  0.188764  0.808582  1
  Nd  Nd8  1  0.189342  0.189342  0.816199  1
  Nd  Nd9  1  0.808582  0.808582  0.188764  1
  Nd  Nd10  1  0.938069  0.563471  0.563471  1
  Nd  Nd11  1  0.559160  0.937404  0.937404  1
  Nd  Nd12  1  0.563471  0.938069  0.563471  1
  Nd  Nd13  1  0.937404  0.559160  0.937404  1
  Nd  Nd14  1  0.563471  0.563471  0.938069  1
  Nd  Nd15  1  0.937404  0.937404  0.559160  1
  Hg  Hg16  1  0.583465  0.583465  0.583465  1
  Hg  Hg17  1  0.584694  0.584694  0.245720  1
  Hg  Hg18  1  0.584694  0.245720  0.584694  1
  Hg  Hg19  1  0.245720  0.584694  0.584694  1
  Ru  Ru20  1  0.142920  0.142920  0.142920  1
  Pt  Pt21  1  0.145058  0.145058  0.571108  1
  Pt  Pt22  1  0.145058  0.571108  0.145058  1
  Pt  Pt23  1  0.571108  0.145058  0.145058  1
