# generated using pymatgen
data_TbY3HfRh5
_symmetry_space_group_name_H-M   'P 1'
_cell_length_a   3.41140700
_cell_length_b   3.41140700
_cell_length_c   17.04808300
_cell_angle_alpha   90.00000000
_cell_angle_beta   90.00000000
_cell_angle_gamma   90.00000000
_symmetry_Int_Tables_number   1
_chemical_formula_structural   TbY3HfRh5
_chemical_formula_sum   'Tb1 Y3 Hf1 Rh5'
_cell_volume   198.40043665
_cell_formula_units_Z   1
loop_
 _symmetry_equiv_pos_site_id
 _symmetry_equiv_pos_as_xyz
  1  'x, y, z'
loop_
 _atom_site_type_symbol
 _atom_site_label
 _atom_site_symmetry_multiplicity
 _atom_site_fract_x
 _atom_site_fract_y
 _atom_site_fract_z
 _atom_site_occupancy
  Tb  Tb0  1  0.000000  0.000000  0.197097  1
  Y  Y1  1  0.000000  0.000000  0.399213  1
  Y  Y2  1  0.000000  0.000000  0.601027  1
  Y  Y3  1  0.000000  0.000000  0.802935  1
  Hf  Hf4  1  0.000000  0.000000  0.999834  1
  Rh  Rh5  1  0.500000  0.500000  0.087340  1
  Rh  Rh6  1  0.500000  0.500000  0.295880  1
  Rh  Rh7  1  0.500000  0.500000  0.499983  1
  Rh  Rh8  1  0.500000  0.500000  0.703711  1
  Rh  Rh9  1  0.500000  0.500000  0.912980  1
