# generated using pymatgen
data_Sr4Tl3Cd5
_symmetry_space_group_name_H-M   'P 1'
_cell_length_a   5.14806400
_cell_length_b   8.14195208
_cell_length_c   8.87601318
_cell_angle_alpha   90.14863792
_cell_angle_beta   90.00000000
_cell_angle_gamma   90.00000000
_symmetry_Int_Tables_number   1
_chemical_formula_structural   Sr4Tl3Cd5
_chemical_formula_sum   'Sr4 Tl3 Cd5'
_cell_volume   372.03941786
_cell_formula_units_Z   1
loop_
 _symmetry_equiv_pos_site_id
 _symmetry_equiv_pos_as_xyz
  1  'x, y, z'
loop_
 _atom_site_type_symbol
 _atom_site_label
 _atom_site_symmetry_multiplicity
 _atom_site_fract_x
 _atom_site_fract_y
 _atom_site_fract_z
 _atom_site_occupancy
  Sr  Sr0  1  0.000000  0.252429  0.542885  1
  Sr  Sr1  1  0.499999  0.746953  0.040848  1
  Sr  Sr2  1  0.499999  0.249297  0.958266  1
  Sr  Sr3  1  0.000000  0.749867  0.459603  1
  Tl  Tl4  1  0.000000  0.052409  0.161726  1
  Tl  Tl5  1  0.499999  0.949852  0.662966  1
  Tl  Tl6  1  0.499999  0.450346  0.337666  1
  Cd  Cd7  1  0.000000  0.551082  0.834002  1
  Cd  Cd8  1  0.000000  0.942108  0.834373  1
  Cd  Cd9  1  0.499999  0.054909  0.335062  1
  Cd  Cd10  1  0.499999  0.553389  0.673902  1
  Cd  Cd11  1  0.000000  0.447360  0.158700  1
