# generated using pymatgen
data_NaHgF4
_symmetry_space_group_name_H-M   'P 1'
_cell_length_a   5.71906477
_cell_length_b   5.71903965
_cell_length_c   6.82868888
_cell_angle_alpha   114.75764677
_cell_angle_beta   114.75755322
_cell_angle_gamma   89.99805061
_symmetry_Int_Tables_number   1
_chemical_formula_structural   NaHgF4
_chemical_formula_sum   'Na2 Hg2 F8'
_cell_volume   179.96754004
_cell_formula_units_Z   2
loop_
 _symmetry_equiv_pos_site_id
 _symmetry_equiv_pos_as_xyz
  1  'x, y, z'
loop_
 _atom_site_type_symbol
 _atom_site_label
 _atom_site_symmetry_multiplicity
 _atom_site_fract_x
 _atom_site_fract_y
 _atom_site_fract_z
 _atom_site_occupancy
  Na  Na0  1  0.749998  0.750004  0.500001  1
  Na  Na1  1  0.250004  0.249998  0.500001  1
  Hg  Hg2  1  0.500000  0.999999  0.000000  1
  Hg  Hg3  1  0.999999  0.500000  0.000000  1
  F  F4  1  0.821463  0.932999  0.254578  1
  F  F5  1  0.933087  0.433087  0.254654  1
  F  F6  1  0.321667  0.821668  0.254614  1
  F  F7  1  0.432998  0.321467  0.254575  1
  F  F8  1  0.567002  0.678532  0.745424  1
  F  F9  1  0.678332  0.178333  0.745385  1
  F  F10  1  0.066913  0.566913  0.745345  1
  F  F11  1  0.178538  0.067001  0.745421  1
