# generated using pymatgen
data_Y20Cd2FeNiHg4
_symmetry_space_group_name_H-M   'P 1'
_cell_length_a   9.68314499
_cell_length_b   9.68314627
_cell_length_c   9.65727500
_cell_angle_alpha   90.00000000
_cell_angle_beta   90.00000000
_cell_angle_gamma   119.92651517
_symmetry_Int_Tables_number   1
_chemical_formula_structural   Y20Cd2FeNiHg4
_chemical_formula_sum   'Y20 Cd2 Fe1 Ni1 Hg4'
_cell_volume   784.76435430
_cell_formula_units_Z   1
loop_
 _symmetry_equiv_pos_site_id
 _symmetry_equiv_pos_as_xyz
  1  'x, y, z'
loop_
 _atom_site_type_symbol
 _atom_site_label
 _atom_site_symmetry_multiplicity
 _atom_site_fract_x
 _atom_site_fract_y
 _atom_site_fract_z
 _atom_site_occupancy
  Y  Y0  1  0.001441  0.998559  0.491339  1
  Y  Y1  1  0.001441  0.998559  0.008661  1
  Y  Y2  1  0.541133  0.458867  0.250000  1
  Y  Y3  1  0.541409  0.082534  0.250000  1
  Y  Y4  1  0.917466  0.458591  0.250000  1
  Y  Y5  1  0.456253  0.543747  0.750000  1
  Y  Y6  1  0.453812  0.913652  0.750000  1
  Y  Y7  1  0.086348  0.546188  0.750000  1
  Y  Y8  1  0.211828  0.788172  0.434640  1
  Y  Y9  1  0.211557  0.423335  0.435604  1
  Y  Y10  1  0.576665  0.788443  0.435604  1
  Y  Y11  1  0.790023  0.209977  0.563016  1
  Y  Y12  1  0.789306  0.579643  0.562967  1
  Y  Y13  1  0.420357  0.210694  0.562967  1
  Y  Y14  1  0.790023  0.209977  0.936984  1
  Y  Y15  1  0.789306  0.579643  0.937033  1
  Y  Y16  1  0.420357  0.210694  0.937033  1
  Y  Y17  1  0.211828  0.788172  0.065360  1
  Y  Y18  1  0.211557  0.423335  0.064396  1
  Y  Y19  1  0.576665  0.788443  0.064396  1
  Cd  Cd20  1  0.113914  0.229911  0.750000  1
  Cd  Cd21  1  0.770089  0.886086  0.750000  1
  Fe  Fe22  1  0.333570  0.666430  0.250000  1
  Ni  Ni23  1  0.666454  0.333546  0.750000  1
  Hg  Hg24  1  0.879043  0.120957  0.250000  1
  Hg  Hg25  1  0.878966  0.757042  0.250000  1
  Hg  Hg26  1  0.242958  0.121034  0.250000  1
  Hg  Hg27  1  0.116231  0.883769  0.750000  1
