# generated using pymatgen
data_PrThZn5Ga
_symmetry_space_group_name_H-M   'P 1'
_cell_length_a   8.44673500
_cell_length_b   8.44673464
_cell_length_c   8.94851100
_cell_angle_alpha   90.00000000
_cell_angle_beta   90.00000000
_cell_angle_gamma   149.12887880
_symmetry_Int_Tables_number   1
_chemical_formula_structural   PrThZn5Ga
_chemical_formula_sum   'Pr2 Th2 Zn10 Ga2'
_cell_volume   327.59545787
_cell_formula_units_Z   2
loop_
 _symmetry_equiv_pos_site_id
 _symmetry_equiv_pos_as_xyz
  1  'x, y, z'
loop_
 _atom_site_type_symbol
 _atom_site_label
 _atom_site_symmetry_multiplicity
 _atom_site_fract_x
 _atom_site_fract_y
 _atom_site_fract_z
 _atom_site_occupancy
  Pr  Pr0  1  0.000000  0.000000  0.500000  1
  Pr  Pr1  1  0.000000  0.000000  0.000000  1
  Th  Th2  1  0.205324  0.794676  0.250000  1
  Th  Th3  1  0.794676  0.205324  0.750000  1
  Zn  Zn4  1  0.813506  0.186494  0.392877  1
  Zn  Zn5  1  0.186494  0.813506  0.607123  1
  Zn  Zn6  1  0.813506  0.186494  0.107123  1
  Zn  Zn7  1  0.186494  0.813506  0.892877  1
  Zn  Zn8  1  0.651544  0.348456  0.479102  1
  Zn  Zn9  1  0.348456  0.651544  0.520898  1
  Zn  Zn10  1  0.651544  0.348456  0.020898  1
  Zn  Zn11  1  0.348456  0.651544  0.979102  1
  Zn  Zn12  1  0.403499  0.596501  0.250000  1
  Zn  Zn13  1  0.596501  0.403499  0.750000  1
  Ga  Ga14  1  0.557920  0.442080  0.250000  1
  Ga  Ga15  1  0.442080  0.557920  0.750000  1
