# generated using pymatgen
data_Er5Tm(CdIn4)2
_symmetry_space_group_name_H-M   'P 1'
_cell_length_a   6.32809529
_cell_length_b   6.32809426
_cell_length_c   10.41031400
_cell_angle_alpha   90.00000000
_cell_angle_beta   90.00000000
_cell_angle_gamma   102.42528131
_symmetry_Int_Tables_number   1
_chemical_formula_structural   Er5Tm(CdIn4)2
_chemical_formula_sum   'Er5 Tm1 Cd2 In8'
_cell_volume   407.11439930
_cell_formula_units_Z   1
loop_
 _symmetry_equiv_pos_site_id
 _symmetry_equiv_pos_as_xyz
  1  'x, y, z'
loop_
 _atom_site_type_symbol
 _atom_site_label
 _atom_site_symmetry_multiplicity
 _atom_site_fract_x
 _atom_site_fract_y
 _atom_site_fract_z
 _atom_site_occupancy
  Er  Er0  1  0.380874  0.380874  0.750000  1
  Er  Er1  1  0.203765  0.796495  0.499873  1
  Er  Er2  1  0.203765  0.796495  0.000127  1
  Er  Er3  1  0.796495  0.203765  0.499873  1
  Er  Er4  1  0.796495  0.203765  0.000127  1
  Tm  Tm5  1  0.619145  0.619145  0.250000  1
  Cd  Cd6  1  0.009367  0.009367  0.250000  1
  Cd  Cd7  1  0.990244  0.990244  0.750000  1
  In  In8  1  0.308187  0.308187  0.044163  1
  In  In9  1  0.692014  0.692014  0.956286  1
  In  In10  1  0.308187  0.308187  0.455837  1
  In  In11  1  0.692014  0.692014  0.543714  1
  In  In12  1  0.511441  0.071187  0.250000  1
  In  In13  1  0.928416  0.488404  0.750000  1
  In  In14  1  0.488404  0.928416  0.750000  1
  In  In15  1  0.071187  0.511441  0.250000  1
