# generated using pymatgen
data_Y2HoSi6Pd19Pt
_symmetry_space_group_name_H-M   'P 1'
_cell_length_a   8.72366740
_cell_length_b   8.72366827
_cell_length_c   8.72366728
_cell_angle_alpha   59.84825933
_cell_angle_beta   59.84825885
_cell_angle_gamma   59.84825556
_symmetry_Int_Tables_number   1
_chemical_formula_structural   Y2HoSi6Pd19Pt
_chemical_formula_sum   'Y2 Ho1 Si6 Pd19 Pt1'
_cell_volume   467.82583458
_cell_formula_units_Z   1
loop_
 _symmetry_equiv_pos_site_id
 _symmetry_equiv_pos_as_xyz
  1  'x, y, z'
loop_
 _atom_site_type_symbol
 _atom_site_label
 _atom_site_symmetry_multiplicity
 _atom_site_fract_x
 _atom_site_fract_y
 _atom_site_fract_z
 _atom_site_occupancy
  Y  Y0  1  0.250573  0.250573  0.250573  1
  Y  Y1  1  0.749631  0.749631  0.749631  1
  Ho  Ho2  1  0.999987  0.999987  0.999987  1
  Si  Si3  1  0.731089  0.268084  0.268084  1
  Si  Si4  1  0.267865  0.732678  0.732678  1
  Si  Si5  1  0.268084  0.731089  0.268084  1
  Si  Si6  1  0.732678  0.267865  0.732678  1
  Si  Si7  1  0.268084  0.268084  0.731089  1
  Si  Si8  1  0.732678  0.732678  0.267865  1
  Pd  Pd9  1  0.616227  0.616227  0.616227  1
  Pd  Pd10  1  0.383294  0.383294  0.849510  1
  Pd  Pd11  1  0.383294  0.849510  0.383294  1
  Pd  Pd12  1  0.617722  0.617722  0.149709  1
  Pd  Pd13  1  0.617722  0.149709  0.617722  1
  Pd  Pd14  1  0.849510  0.383294  0.383294  1
  Pd  Pd15  1  0.149709  0.617722  0.617722  1
  Pd  Pd16  1  0.344967  0.999748  0.999748  1
  Pd  Pd17  1  0.654869  0.999648  0.999648  1
  Pd  Pd18  1  0.999653  0.344851  0.654928  1
  Pd  Pd19  1  0.999653  0.654928  0.344851  1
  Pd  Pd20  1  0.999748  0.344967  0.999748  1
  Pd  Pd21  1  0.654928  0.999653  0.344851  1
  Pd  Pd22  1  0.999648  0.654869  0.999648  1
  Pd  Pd23  1  0.344851  0.999653  0.654928  1
  Pd  Pd24  1  0.999748  0.999748  0.344967  1
  Pd  Pd25  1  0.999648  0.999648  0.654869  1
  Pd  Pd26  1  0.654928  0.344851  0.999653  1
  Pd  Pd27  1  0.344851  0.654928  0.999653  1
  Pt  Pt28  1  0.384365  0.384365  0.384365  1
