# generated using pymatgen
data_Ho4Er6Os3Ru
_symmetry_space_group_name_H-M   'P 1'
_cell_length_a   6.31135566
_cell_length_b   7.32494282
_cell_length_c   8.37702409
_cell_angle_alpha   96.87474372
_cell_angle_beta   112.24005911
_cell_angle_gamma   90.04617712
_symmetry_Int_Tables_number   1
_chemical_formula_structural   Ho4Er6Os3Ru
_chemical_formula_sum   'Ho4 Er6 Os3 Ru1'
_cell_volume   355.43625114
_cell_formula_units_Z   1
loop_
 _symmetry_equiv_pos_site_id
 _symmetry_equiv_pos_as_xyz
  1  'x, y, z'
loop_
 _atom_site_type_symbol
 _atom_site_label
 _atom_site_symmetry_multiplicity
 _atom_site_fract_x
 _atom_site_fract_y
 _atom_site_fract_z
 _atom_site_occupancy
  Ho  Ho0  1  0.794207  0.583881  0.816530  1
  Ho  Ho1  1  0.975596  0.916221  0.183047  1
  Ho  Ho2  1  0.207842  0.416670  0.186209  1
  Ho  Ho3  1  0.024388  0.084934  0.817438  1
  Er  Er4  1  0.203921  0.683422  0.564892  1
  Er  Er5  1  0.640514  0.817007  0.436011  1
  Er  Er6  1  0.794492  0.315912  0.434368  1
  Er  Er7  1  0.360460  0.182135  0.563563  1
  Er  Er8  1  0.421042  0.749782  0.000054  1
  Er  Er9  1  0.579908  0.250176  0.000550  1
  Os  Os10  1  0.603598  0.922253  0.780328  1
  Os  Os11  1  0.821941  0.577884  0.219921  1
  Os  Os12  1  0.396084  0.077671  0.218673  1
  Ru  Ru13  1  0.176006  0.422051  0.778416  1
