# generated using pymatgen
data_NbTe28
_symmetry_space_group_name_H-M   'P 1'
_cell_length_a   9.64321328
_cell_length_b   12.58637905
_cell_length_c   13.63146100
_cell_angle_alpha   127.54007268
_cell_angle_beta   115.21443679
_cell_angle_gamma   83.44953815
_symmetry_Int_Tables_number   1
_chemical_formula_structural   NbTe28
_chemical_formula_sum   'Nb1 Te28'
_cell_volume   1162.22826969
_cell_formula_units_Z   1
loop_
 _symmetry_equiv_pos_site_id
 _symmetry_equiv_pos_as_xyz
  1  'x, y, z'
loop_
 _atom_site_type_symbol
 _atom_site_label
 _atom_site_symmetry_multiplicity
 _atom_site_fract_x
 _atom_site_fract_y
 _atom_site_fract_z
 _atom_site_occupancy
  Nb  Nb0  1  0.500000  0.000000  0.000000  1
  Te  Te1  1  0.203234  0.089451  0.438735  1
  Te  Te2  1  0.659374  0.126416  0.455074  1
  Te  Te3  1  0.160885  0.249454  0.734916  1
  Te  Te4  1  0.841816  0.324848  0.900436  1
  Te  Te5  1  0.176031  0.578838  0.723681  1
  Te  Te6  1  0.645489  0.596010  0.611568  1
  Te  Te7  1  0.340626  0.873584  0.544926  1
  Te  Te8  1  0.796766  0.910549  0.561265  1
  Te  Te9  1  0.158184  0.675152  0.099564  1
  Te  Te10  1  0.839115  0.750546  0.265084  1
  Te  Te11  1  0.354511  0.403990  0.388432  1
  Te  Te12  1  0.823969  0.421162  0.276319  1
  Te  Te13  1  0.738039  0.067978  0.815564  1
  Te  Te14  1  0.207693  0.976340  0.818603  1
  Te  Te15  1  0.839393  0.649497  0.007086  1
  Te  Te16  1  0.419767  0.792273  0.000457  1
  Te  Te17  1  0.553494  0.224288  0.277572  1
  Te  Te18  1  0.032824  0.264814  0.334996  1
  Te  Te19  1  0.792307  0.023660  0.181397  1
  Te  Te20  1  0.261961  0.932022  0.184436  1
  Te  Te21  1  0.580233  0.207727  0.999543  1
  Te  Te22  1  0.160607  0.350503  0.992914  1
  Te  Te23  1  0.967176  0.735186  0.665004  1
  Te  Te24  1  0.446506  0.775712  0.722428  1
  Te  Te25  1  0.936753  0.371818  0.654948  1
  Te  Te26  1  0.498776  0.260629  0.610678  1
  Te  Te27  1  0.501224  0.739371  0.389322  1
  Te  Te28  1  0.063247  0.628182  0.345052  1
