# generated using pymatgen
data_Sr2YbInPt2
_symmetry_space_group_name_H-M   'P 1'
_cell_length_a   4.59035500
_cell_length_b   7.77943900
_cell_length_c   8.88341700
_cell_angle_alpha   90.00000000
_cell_angle_beta   90.00000000
_cell_angle_gamma   90.00000000
_symmetry_Int_Tables_number   1
_chemical_formula_structural   Sr2YbInPt2
_chemical_formula_sum   'Sr4 Yb2 In2 Pt4'
_cell_volume   317.23025638
_cell_formula_units_Z   2
loop_
 _symmetry_equiv_pos_site_id
 _symmetry_equiv_pos_as_xyz
  1  'x, y, z'
loop_
 _atom_site_type_symbol
 _atom_site_label
 _atom_site_symmetry_multiplicity
 _atom_site_fract_x
 _atom_site_fract_y
 _atom_site_fract_z
 _atom_site_occupancy
  Sr  Sr0  1  0.750000  0.958193  0.674748  1
  Sr  Sr1  1  0.250000  0.014987  0.321012  1
  Sr  Sr2  1  0.750000  0.485013  0.821012  1
  Sr  Sr3  1  0.250000  0.541807  0.174748  1
  Yb  Yb4  1  0.750000  0.365315  0.437153  1
  Yb  Yb5  1  0.250000  0.134685  0.937153  1
  In  In6  1  0.250000  0.647582  0.565687  1
  In  In7  1  0.750000  0.852418  0.065687  1
  Pt  Pt8  1  0.250000  0.773613  0.881213  1
  Pt  Pt9  1  0.250000  0.275884  0.620187  1
  Pt  Pt10  1  0.750000  0.726387  0.381213  1
  Pt  Pt11  1  0.750000  0.224116  0.120187  1
