# generated using pymatgen
data_Lu3Al8(SiOs)4
_symmetry_space_group_name_H-M   'P 1'
_cell_length_a   8.65937817
_cell_length_b   8.65937840
_cell_length_c   9.37132800
_cell_angle_alpha   90.00000000
_cell_angle_beta   90.00000000
_cell_angle_gamma   120.08212472
_symmetry_Int_Tables_number   1
_chemical_formula_structural   Lu3Al8(SiOs)4
_chemical_formula_sum   'Lu6 Al16 Si8 Os8'
_cell_volume   608.05827328
_cell_formula_units_Z   2
loop_
 _symmetry_equiv_pos_site_id
 _symmetry_equiv_pos_as_xyz
  1  'x, y, z'
loop_
 _atom_site_type_symbol
 _atom_site_label
 _atom_site_symmetry_multiplicity
 _atom_site_fract_x
 _atom_site_fract_y
 _atom_site_fract_z
 _atom_site_occupancy
  Lu  Lu0  1  0.193250  0.389877  0.250000  1
  Lu  Lu1  1  0.806750  0.610123  0.750000  1
  Lu  Lu2  1  0.610123  0.806750  0.250000  1
  Lu  Lu3  1  0.389877  0.193250  0.750000  1
  Lu  Lu4  1  0.196027  0.803973  0.250000  1
  Lu  Lu5  1  0.803973  0.196027  0.750000  1
  Al  Al6  1  0.165333  0.328846  0.578983  1
  Al  Al7  1  0.834667  0.671154  0.421017  1
  Al  Al8  1  0.671154  0.834667  0.578983  1
  Al  Al9  1  0.834667  0.671154  0.078983  1
  Al  Al10  1  0.328846  0.165333  0.421017  1
  Al  Al11  1  0.165333  0.328846  0.921017  1
  Al  Al12  1  0.164487  0.835513  0.578927  1
  Al  Al13  1  0.328846  0.165333  0.078983  1
  Al  Al14  1  0.835513  0.164487  0.421073  1
  Al  Al15  1  0.671154  0.834667  0.921017  1
  Al  Al16  1  0.835513  0.164487  0.078927  1
  Al  Al17  1  0.164487  0.835513  0.921073  1
  Al  Al18  1  0.564736  0.435264  0.250000  1
  Al  Al19  1  0.435264  0.564736  0.750000  1
  Al  Al20  1  0.000266  0.999734  0.250000  1
  Al  Al21  1  0.999734  0.000266  0.750000  1
  Si  Si22  1  0.334916  0.665084  0.042331  1
  Si  Si23  1  0.665084  0.334916  0.957669  1
  Si  Si24  1  0.665084  0.334916  0.542331  1
  Si  Si25  1  0.334916  0.665084  0.457669  1
  Si  Si26  1  0.563314  0.123641  0.250000  1
  Si  Si27  1  0.436686  0.876359  0.750000  1
  Si  Si28  1  0.876359  0.436686  0.250000  1
  Si  Si29  1  0.123641  0.563314  0.750000  1
  Os  Os30  1  0.500000  0.000000  0.000000  1
  Os  Os31  1  0.000000  0.500000  0.000000  1
  Os  Os32  1  0.500000  0.000000  0.500000  1
  Os  Os33  1  0.500000  0.500000  0.000000  1
  Os  Os34  1  0.000000  0.500000  0.500000  1
  Os  Os35  1  0.500000  0.500000  0.500000  1
  Os  Os36  1  0.000000  0.000000  0.000000  1
  Os  Os37  1  0.000000  0.000000  0.500000  1
