# generated using pymatgen
data_Ba3PrRhO6
_symmetry_space_group_name_H-M   'P 1'
_cell_length_a   7.25021964
_cell_length_b   7.25021899
_cell_length_c   7.25022041
_cell_angle_alpha   92.64642015
_cell_angle_beta   92.64642298
_cell_angle_gamma   92.64642110
_symmetry_Int_Tables_number   1
_chemical_formula_structural   Ba3PrRhO6
_chemical_formula_sum   'Ba6 Pr2 Rh2 O12'
_cell_volume   379.85444179
_cell_formula_units_Z   2
loop_
 _symmetry_equiv_pos_site_id
 _symmetry_equiv_pos_as_xyz
  1  'x, y, z'
loop_
 _atom_site_type_symbol
 _atom_site_label
 _atom_site_symmetry_multiplicity
 _atom_site_fract_x
 _atom_site_fract_y
 _atom_site_fract_z
 _atom_site_occupancy
  Ba  Ba0  1  0.250000  0.880941  0.619059  1
  Ba  Ba1  1  0.880941  0.619059  0.250000  1
  Ba  Ba2  1  0.750000  0.119059  0.380941  1
  Ba  Ba3  1  0.380941  0.750000  0.119059  1
  Ba  Ba4  1  0.119059  0.380941  0.750000  1
  Ba  Ba5  1  0.619059  0.250000  0.880941  1
  Pr  Pr6  1  0.750000  0.750000  0.750000  1
  Pr  Pr7  1  0.250000  0.250000  0.250000  1
  Rh  Rh8  1  0.500000  0.500000  0.500000  1
  Rh  Rh9  1  0.000000  0.000000  0.000000  1
  O  O10  1  0.588292  0.781963  0.456444  1
  O  O11  1  0.456444  0.588292  0.781963  1
  O  O12  1  0.781963  0.456444  0.588292  1
  O  O13  1  0.911708  0.043556  0.718037  1
  O  O14  1  0.718037  0.911708  0.043556  1
  O  O15  1  0.043556  0.718037  0.911708  1
  O  O16  1  0.411708  0.218037  0.543556  1
  O  O17  1  0.543556  0.411708  0.218037  1
  O  O18  1  0.218037  0.543556  0.411708  1
  O  O19  1  0.088292  0.956444  0.281963  1
  O  O20  1  0.956444  0.281963  0.088292  1
  O  O21  1  0.281963  0.088292  0.956444  1
