# generated using pymatgen
data_LiLa6OsBr12
_symmetry_space_group_name_H-M   'P 1'
_cell_length_a   9.91263644
_cell_length_b   9.60494485
_cell_length_c   9.75099683
_cell_angle_alpha   107.96742190
_cell_angle_beta   108.54585606
_cell_angle_gamma   107.91620239
_symmetry_Int_Tables_number   1
_chemical_formula_structural   LiLa6OsBr12
_chemical_formula_sum   'Li1 La6 Os1 Br12'
_cell_volume   747.73551208
_cell_formula_units_Z   1
loop_
 _symmetry_equiv_pos_site_id
 _symmetry_equiv_pos_as_xyz
  1  'x, y, z'
loop_
 _atom_site_type_symbol
 _atom_site_label
 _atom_site_symmetry_multiplicity
 _atom_site_fract_x
 _atom_site_fract_y
 _atom_site_fract_z
 _atom_site_occupancy
  Li  Li0  1  0.500000  0.500000  0.500000  1
  La  La1  1  0.336157  0.131788  0.035516  1
  La  La2  1  0.032855  0.310573  0.116745  1
  La  La3  1  0.125005  0.034927  0.324853  1
  La  La4  1  0.874995  0.965073  0.675148  1
  La  La5  1  0.967145  0.689428  0.883256  1
  La  La6  1  0.663844  0.868212  0.964485  1
  Os  Os7  1  0.000000  0.000000  0.000000  1
  Br  Br8  1  0.685548  0.209067  0.066311  1
  Br  Br9  1  0.381208  0.471958  0.185551  1
  Br  Br10  1  0.065841  0.680917  0.209829  1
  Br  Br11  1  0.795474  0.935468  0.318410  1
  Br  Br12  1  0.466361  0.183174  0.381083  1
  Br  Br13  1  0.185790  0.384611  0.470125  1
  Br  Br14  1  0.814210  0.615390  0.529875  1
  Br  Br15  1  0.533639  0.816827  0.618917  1
  Br  Br16  1  0.204527  0.064533  0.681590  1
  Br  Br17  1  0.934159  0.319083  0.790172  1
  Br  Br18  1  0.618793  0.528042  0.814449  1
  Br  Br19  1  0.314453  0.790933  0.933689  1
