# generated using pymatgen
data_TbZnInCu4
_symmetry_space_group_name_H-M   'P 1'
_cell_length_a   5.07251300
_cell_length_b   8.28099200
_cell_length_c   10.65634000
_cell_angle_alpha   90.00000000
_cell_angle_beta   90.00000000
_cell_angle_gamma   90.00000000
_symmetry_Int_Tables_number   1
_chemical_formula_structural   TbZnInCu4
_chemical_formula_sum   'Tb4 Zn4 In4 Cu16'
_cell_volume   447.62424594
_cell_formula_units_Z   4
loop_
 _symmetry_equiv_pos_site_id
 _symmetry_equiv_pos_as_xyz
  1  'x, y, z'
loop_
 _atom_site_type_symbol
 _atom_site_label
 _atom_site_symmetry_multiplicity
 _atom_site_fract_x
 _atom_site_fract_y
 _atom_site_fract_z
 _atom_site_occupancy
  Tb  Tb0  1  0.250000  0.751460  0.058683  1
  Tb  Tb1  1  0.750000  0.248540  0.941317  1
  Tb  Tb2  1  0.750000  0.748540  0.558683  1
  Tb  Tb3  1  0.250000  0.251460  0.441317  1
  Zn  Zn4  1  0.250000  0.813003  0.740011  1
  Zn  Zn5  1  0.750000  0.186997  0.259989  1
  Zn  Zn6  1  0.750000  0.686997  0.240011  1
  Zn  Zn7  1  0.250000  0.313003  0.759989  1
  In  In8  1  0.250000  0.636526  0.362916  1
  In  In9  1  0.750000  0.363474  0.637084  1
  In  In10  1  0.750000  0.863474  0.862916  1
  In  In11  1  0.250000  0.136526  0.137084  1
  Cu  Cu12  1  0.503494  0.566502  0.812364  1
  Cu  Cu13  1  0.496506  0.433498  0.187636  1
  Cu  Cu14  1  0.496506  0.933498  0.312364  1
  Cu  Cu15  1  0.003494  0.433498  0.187636  1
  Cu  Cu16  1  0.503494  0.066502  0.687636  1
  Cu  Cu17  1  0.996506  0.566502  0.812364  1
  Cu  Cu18  1  0.996506  0.066502  0.687636  1
  Cu  Cu19  1  0.003494  0.933498  0.312364  1
  Cu  Cu20  1  0.250000  0.555537  0.602992  1
  Cu  Cu21  1  0.750000  0.444463  0.397008  1
  Cu  Cu22  1  0.750000  0.944463  0.102992  1
  Cu  Cu23  1  0.250000  0.055537  0.897008  1
  Cu  Cu24  1  0.250000  0.916498  0.514792  1
  Cu  Cu25  1  0.750000  0.083502  0.485208  1
  Cu  Cu26  1  0.750000  0.583502  0.014792  1
  Cu  Cu27  1  0.250000  0.416498  0.985208  1
