# generated using pymatgen
data_Li3Nd2Sm2Zn(Si2Sn)2
_symmetry_space_group_name_H-M   'P 1'
_cell_length_a   9.73998200
_cell_length_b   9.73998184
_cell_length_c   6.84944300
_cell_angle_alpha   90.00000000
_cell_angle_beta   90.00000000
_cell_angle_gamma   153.22842139
_symmetry_Int_Tables_number   1
_chemical_formula_structural   Li3Nd2Sm2Zn(Si2Sn)2
_chemical_formula_sum   'Li3 Nd2 Sm2 Zn1 Si4 Sn2'
_cell_volume   292.68698910
_cell_formula_units_Z   1
loop_
 _symmetry_equiv_pos_site_id
 _symmetry_equiv_pos_as_xyz
  1  'x, y, z'
loop_
 _atom_site_type_symbol
 _atom_site_label
 _atom_site_symmetry_multiplicity
 _atom_site_fract_x
 _atom_site_fract_y
 _atom_site_fract_z
 _atom_site_occupancy
  Li  Li0  1  0.183120  0.816880  0.442999  1
  Li  Li1  1  0.184214  0.815786  0.056635  1
  Li  Li2  1  0.817488  0.182512  0.941720  1
  Nd  Nd3  1  0.547340  0.452660  0.251770  1
  Nd  Nd4  1  0.452010  0.547990  0.751285  1
  Sm  Sm5  1  0.351048  0.648952  0.249476  1
  Sm  Sm6  1  0.647682  0.352318  0.746825  1
  Zn  Zn7  1  0.818199  0.181801  0.553393  1
  Si  Si8  1  0.941997  0.058003  0.071843  1
  Si  Si9  1  0.057367  0.942633  0.928184  1
  Si  Si10  1  0.056456  0.943544  0.576429  1
  Si  Si11  1  0.942638  0.057362  0.424899  1
  Sn  Sn12  1  0.720390  0.279610  0.248661  1
  Sn  Sn13  1  0.280051  0.719949  0.755881  1
