# generated using pymatgen
data_KBaAs4RuRh3
_symmetry_space_group_name_H-M   'P 1'
_cell_length_a   7.13019758
_cell_length_b   7.13727062
_cell_length_c   5.79333100
_cell_angle_alpha   90.00000000
_cell_angle_beta   90.00000000
_cell_angle_gamma   132.13673215
_symmetry_Int_Tables_number   1
_chemical_formula_structural   KBaAs4RuRh3
_chemical_formula_sum   'K1 Ba1 As4 Ru1 Rh3'
_cell_volume   218.62513855
_cell_formula_units_Z   1
loop_
 _symmetry_equiv_pos_site_id
 _symmetry_equiv_pos_as_xyz
  1  'x, y, z'
loop_
 _atom_site_type_symbol
 _atom_site_label
 _atom_site_symmetry_multiplicity
 _atom_site_fract_x
 _atom_site_fract_y
 _atom_site_fract_z
 _atom_site_occupancy
  K  K0  1  0.000000  0.000000  0.001036  1
  Ba  Ba1  1  0.500000  0.500000  0.498144  1
  As  As2  1  0.640992  0.349901  0.995978  1
  As  As3  1  0.149982  0.858524  0.504552  1
  As  As4  1  0.850018  0.141476  0.504552  1
  As  As5  1  0.359008  0.650099  0.995978  1
  Ru  Ru6  1  0.500000  0.000000  0.749997  1
  Rh  Rh7  1  0.000000  0.500000  0.250198  1
  Rh  Rh8  1  0.000000  0.500000  0.749735  1
  Rh  Rh9  1  0.500000  0.000000  0.249829  1
