# generated using pymatgen
data_DyTm2(NiIr2)3
_symmetry_space_group_name_H-M   'P 1'
_cell_length_a   5.28110265
_cell_length_b   5.28110381
_cell_length_c   8.73597577
_cell_angle_alpha   72.40649455
_cell_angle_beta   72.40648982
_cell_angle_gamma   59.99999549
_symmetry_Int_Tables_number   1
_chemical_formula_structural   DyTm2(NiIr2)3
_chemical_formula_sum   'Dy1 Tm2 Ni3 Ir6'
_cell_volume   197.73521808
_cell_formula_units_Z   1
loop_
 _symmetry_equiv_pos_site_id
 _symmetry_equiv_pos_as_xyz
  1  'x, y, z'
loop_
 _atom_site_type_symbol
 _atom_site_label
 _atom_site_symmetry_multiplicity
 _atom_site_fract_x
 _atom_site_fract_y
 _atom_site_fract_z
 _atom_site_occupancy
  Dy  Dy0  1  0.000000  0.000000  0.000000  1
  Tm  Tm1  1  0.140634  0.140634  0.578097  1
  Tm  Tm2  1  0.859366  0.859366  0.421903  1
  Ni  Ni3  1  0.333062  0.333062  0.000815  1
  Ni  Ni4  1  0.666938  0.666938  0.999185  1
  Ni  Ni5  1  0.500000  0.500000  0.500000  1
  Ir  Ir6  1  0.080931  0.582968  0.753133  1
  Ir  Ir7  1  0.582968  0.582968  0.753133  1
  Ir  Ir8  1  0.582968  0.080931  0.753133  1
  Ir  Ir9  1  0.919069  0.417032  0.246867  1
  Ir  Ir10  1  0.417032  0.417032  0.246867  1
  Ir  Ir11  1  0.417032  0.919069  0.246867  1
