# generated using pymatgen
data_Dy2Ho6Ti9Si16Mo3
_symmetry_space_group_name_H-M   'P 1'
_cell_length_a   6.99631341
_cell_length_b   6.99655115
_cell_length_c   12.85816239
_cell_angle_alpha   90.00837386
_cell_angle_beta   89.96628615
_cell_angle_gamma   89.99033917
_symmetry_Int_Tables_number   1
_chemical_formula_structural   Dy2Ho6Ti9Si16Mo3
_chemical_formula_sum   'Dy2 Ho6 Ti9 Si16 Mo3'
_cell_volume   629.40775541
_cell_formula_units_Z   1
loop_
 _symmetry_equiv_pos_site_id
 _symmetry_equiv_pos_as_xyz
  1  'x, y, z'
loop_
 _atom_site_type_symbol
 _atom_site_label
 _atom_site_symmetry_multiplicity
 _atom_site_fract_x
 _atom_site_fract_y
 _atom_site_fract_z
 _atom_site_occupancy
  Dy  Dy0  1  0.340283  0.002301  0.466441  1
  Dy  Dy1  1  0.498548  0.841834  0.718164  1
  Ho  Ho2  1  0.500129  0.158380  0.216569  1
  Ho  Ho3  1  0.842131  0.498862  0.281868  1
  Ho  Ho4  1  0.158361  0.500109  0.783400  1
  Ho  Ho5  1  0.659151  0.999744  0.966912  1
  Ho  Ho6  1  0.001975  0.340502  0.533555  1
  Ho  Ho7  1  0.999681  0.659112  0.033146  1
  Ti  Ti8  1  0.673230  0.672995  0.499964  1
  Ti  Ti9  1  0.152182  0.008647  0.876130  1
  Ti  Ti10  1  0.491424  0.652421  0.125176  1
  Ti  Ti11  1  0.507761  0.346788  0.627086  1
  Ti  Ti12  1  0.652557  0.491424  0.874918  1
  Ti  Ti13  1  0.346858  0.507536  0.372881  1
  Ti  Ti14  1  0.848446  0.991924  0.374736  1
  Ti  Ti15  1  0.008447  0.152226  0.123942  1
  Ti  Ti16  1  0.991901  0.848381  0.625220  1
  Si  Si17  1  0.201830  0.130388  0.684207  1
  Si  Si18  1  0.369328  0.701218  0.934184  1
  Si  Si19  1  0.631193  0.297784  0.434178  1
  Si  Si20  1  0.701368  0.369334  0.065928  1
  Si  Si21  1  0.297176  0.630297  0.565727  1
  Si  Si22  1  0.798282  0.869499  0.184381  1
  Si  Si23  1  0.129916  0.202443  0.315687  1
  Si  Si24  1  0.869878  0.798150  0.815656  1
  Si  Si25  1  0.291683  0.952698  0.064922  1
  Si  Si26  1  0.546946  0.790783  0.314878  1
  Si  Si27  1  0.452337  0.209121  0.815447  1
  Si  Si28  1  0.791178  0.546548  0.684989  1
  Si  Si29  1  0.208657  0.452423  0.184619  1
  Si  Si30  1  0.708537  0.048461  0.565821  1
  Si  Si31  1  0.952676  0.291769  0.935099  1
  Si  Si32  1  0.047903  0.707719  0.434159  1
  Mo  Mo33  1  0.327084  0.327107  0.000044  1
  Mo  Mo34  1  0.173778  0.827056  0.249184  1
  Mo  Mo35  1  0.827184  0.174018  0.750779  1
