# generated using pymatgen
data_Tb8Er12(Ir3Ru)3
_symmetry_space_group_name_H-M   'P 1'
_cell_length_a   10.81505200
_cell_length_b   10.81505200
_cell_length_c   6.41325100
_cell_angle_alpha   90.00000000
_cell_angle_beta   90.00000000
_cell_angle_gamma   90.00000000
_symmetry_Int_Tables_number   1
_chemical_formula_structural   Tb8Er12(Ir3Ru)3
_chemical_formula_sum   'Tb8 Er12 Ir9 Ru3'
_cell_volume   750.12814633
_cell_formula_units_Z   1
loop_
 _symmetry_equiv_pos_site_id
 _symmetry_equiv_pos_as_xyz
  1  'x, y, z'
loop_
 _atom_site_type_symbol
 _atom_site_label
 _atom_site_symmetry_multiplicity
 _atom_site_fract_x
 _atom_site_fract_y
 _atom_site_fract_z
 _atom_site_occupancy
  Tb  Tb0  1  0.292064  0.087274  0.376998  1
  Tb  Tb1  1  0.292121  0.913234  0.877445  1
  Tb  Tb2  1  0.707879  0.086766  0.877445  1
  Tb  Tb3  1  0.707936  0.912726  0.376998  1
  Tb  Tb4  1  0.586766  0.792121  0.877445  1
  Tb  Tb5  1  0.587274  0.207936  0.376998  1
  Tb  Tb6  1  0.412726  0.792064  0.376998  1
  Tb  Tb7  1  0.413234  0.207879  0.877445  1
  Er  Er8  1  0.207112  0.413733  0.623423  1
  Er  Er9  1  0.206921  0.586370  0.120524  1
  Er  Er10  1  0.793079  0.413630  0.120524  1
  Er  Er11  1  0.792888  0.586267  0.623423  1
  Er  Er12  1  0.913630  0.706921  0.120524  1
  Er  Er13  1  0.913733  0.292888  0.623423  1
  Er  Er14  1  0.086267  0.707112  0.623423  1
  Er  Er15  1  0.086370  0.293079  0.120524  1
  Er  Er16  1  0.000000  0.000000  0.500389  1
  Er  Er17  1  0.000000  0.000000  0.000439  1
  Er  Er18  1  0.500000  0.500000  0.000439  1
  Er  Er19  1  0.500000  0.500000  0.500389  1
  Ir  Ir20  1  0.850129  0.153771  0.250794  1
  Ir  Ir21  1  0.850056  0.846230  0.750387  1
  Ir  Ir22  1  0.149944  0.153770  0.750387  1
  Ir  Ir23  1  0.149871  0.846229  0.250794  1
  Ir  Ir24  1  0.653770  0.350056  0.750387  1
  Ir  Ir25  1  0.653771  0.649871  0.250794  1
  Ir  Ir26  1  0.346229  0.350129  0.250794  1
  Ir  Ir27  1  0.346230  0.649944  0.750387  1
  Ir  Ir28  1  0.000000  0.500000  0.377662  1
  Ru  Ru29  1  0.500000  0.000000  0.122222  1
  Ru  Ru30  1  0.500000  0.000000  0.622159  1
  Ru  Ru31  1  0.000000  0.500000  0.878015  1
