# generated using pymatgen
data_Cs2LaPr9Os2Br17
_symmetry_space_group_name_H-M   'P 1'
_cell_length_a   9.70491134
_cell_length_b   11.30249551
_cell_length_c   11.30253520
_cell_angle_alpha   107.77502260
_cell_angle_beta   93.82782171
_cell_angle_gamma   93.82964675
_symmetry_Int_Tables_number   1
_chemical_formula_structural   Cs2LaPr9Os2Br17
_chemical_formula_sum   'Cs2 La1 Pr9 Os2 Br17'
_cell_volume   1172.98670736
_cell_formula_units_Z   1
loop_
 _symmetry_equiv_pos_site_id
 _symmetry_equiv_pos_as_xyz
  1  'x, y, z'
loop_
 _atom_site_type_symbol
 _atom_site_label
 _atom_site_symmetry_multiplicity
 _atom_site_fract_x
 _atom_site_fract_y
 _atom_site_fract_z
 _atom_site_occupancy
  Cs  Cs0  1  0.999507  0.821929  0.177596  1
  Cs  Cs1  1  0.999509  0.177599  0.821925  1
  La  La2  1  0.559290  0.832858  0.832862  1
  Pr  Pr3  1  0.437913  0.163097  0.163086  1
  Pr  Pr4  1  0.575305  0.507765  0.205013  1
  Pr  Pr5  1  0.834089  0.288695  0.288703  1
  Pr  Pr6  1  0.307665  0.441002  0.440982  1
  Pr  Pr7  1  0.424438  0.803694  0.485184  1
  Pr  Pr8  1  0.575241  0.205001  0.507734  1
  Pr  Pr9  1  0.692315  0.567128  0.567133  1
  Pr  Pr10  1  0.171107  0.709742  0.709753  1
  Pr  Pr11  1  0.424484  0.485201  0.803706  1
  Os  Os12  1  0.571503  0.358245  0.358238  1
  Os  Os13  1  0.431245  0.646520  0.646523  1
  Br  Br14  1  0.578520  0.682309  0.022290  1
  Br  Br15  1  0.713328  0.066263  0.066277  1
  Br  Br16  1  0.855770  0.448157  0.121071  1
  Br  Br17  1  0.136145  0.207239  0.207209  1
  Br  Br18  1  0.285312  0.603675  0.256378  1
  Br  Br19  1  0.420606  0.980330  0.309791  1
  Br  Br20  1  0.714182  0.744968  0.396763  1
  Br  Br21  1  0.855735  0.121091  0.448183  1
  Br  Br22  1  0.999916  0.500742  0.500808  1
  Br  Br23  1  0.144263  0.879121  0.548870  1
  Br  Br24  1  0.285298  0.256422  0.603700  1
  Br  Br25  1  0.578487  0.022245  0.682274  1
  Br  Br26  1  0.714216  0.396741  0.744912  1
  Br  Br27  1  0.868199  0.792102  0.792087  1
  Br  Br28  1  0.144331  0.548864  0.879166  1
  Br  Br29  1  0.281405  0.931402  0.931428  1
  Br  Br30  1  0.420677  0.309853  0.980355  1
