# generated using pymatgen
data_Ac4(NdPd)3
_symmetry_space_group_name_H-M   'P 1'
_cell_length_a   6.73042200
_cell_length_b   10.60714772
_cell_length_c   10.60714750
_cell_angle_alpha   119.99743570
_cell_angle_beta   90.00000000
_cell_angle_gamma   90.00000000
_symmetry_Int_Tables_number   1
_chemical_formula_structural   Ac4(NdPd)3
_chemical_formula_sum   'Ac8 Nd6 Pd6'
_cell_volume   655.81504208
_cell_formula_units_Z   2
loop_
 _symmetry_equiv_pos_site_id
 _symmetry_equiv_pos_as_xyz
  1  'x, y, z'
loop_
 _atom_site_type_symbol
 _atom_site_label
 _atom_site_symmetry_multiplicity
 _atom_site_fract_x
 _atom_site_fract_y
 _atom_site_fract_z
 _atom_site_occupancy
  Ac  Ac0  1  0.456234  0.333441  0.666559  1
  Ac  Ac1  1  0.956234  0.666559  0.333441  1
  Ac  Ac2  1  0.244416  0.129735  0.870265  1
  Ac  Ac3  1  0.244536  0.740869  0.870405  1
  Ac  Ac4  1  0.244536  0.129595  0.259131  1
  Ac  Ac5  1  0.744416  0.870265  0.129735  1
  Ac  Ac6  1  0.744536  0.259131  0.129595  1
  Ac  Ac7  1  0.744536  0.870405  0.740869  1
  Nd  Nd8  1  0.436959  0.539388  0.460612  1
  Nd  Nd9  1  0.436610  0.921462  0.460762  1
  Nd  Nd10  1  0.436610  0.539238  0.078538  1
  Nd  Nd11  1  0.936959  0.460612  0.539388  1
  Nd  Nd12  1  0.936610  0.078538  0.539238  1
  Nd  Nd13  1  0.936610  0.460762  0.921462  1
  Pd  Pd14  1  0.197656  0.809805  0.190195  1
  Pd  Pd15  1  0.197723  0.380073  0.190049  1
  Pd  Pd16  1  0.197723  0.809951  0.619927  1
  Pd  Pd17  1  0.697656  0.190195  0.809805  1
  Pd  Pd18  1  0.697723  0.619927  0.809951  1
  Pd  Pd19  1  0.697723  0.190049  0.380073  1
