# generated using pymatgen
data_Tm4Sc2Al17Si7Os8
_symmetry_space_group_name_H-M   'P 1'
_cell_length_a   8.63856803
_cell_length_b   8.63345259
_cell_length_c   9.42686500
_cell_angle_alpha   90.00000000
_cell_angle_beta   90.00000000
_cell_angle_gamma   120.06452019
_symmetry_Int_Tables_number   1
_chemical_formula_structural   Tm4Sc2Al17Si7Os8
_chemical_formula_sum   'Tm4 Sc2 Al17 Si7 Os8'
_cell_volume   608.47321073
_cell_formula_units_Z   1
loop_
 _symmetry_equiv_pos_site_id
 _symmetry_equiv_pos_as_xyz
  1  'x, y, z'
loop_
 _atom_site_type_symbol
 _atom_site_label
 _atom_site_symmetry_multiplicity
 _atom_site_fract_x
 _atom_site_fract_y
 _atom_site_fract_z
 _atom_site_occupancy
  Tm  Tm0  1  0.611791  0.807983  0.250000  1
  Tm  Tm1  1  0.387477  0.190777  0.750000  1
  Tm  Tm2  1  0.195760  0.805614  0.250000  1
  Tm  Tm3  1  0.802245  0.190847  0.750000  1
  Sc  Sc4  1  0.195736  0.395213  0.250000  1
  Sc  Sc5  1  0.803436  0.608046  0.750000  1
  Al  Al6  1  0.164352  0.329716  0.576827  1
  Al  Al7  1  0.834278  0.671100  0.421748  1
  Al  Al8  1  0.671546  0.833892  0.578898  1
  Al  Al9  1  0.834278  0.671100  0.078252  1
  Al  Al10  1  0.329465  0.167036  0.420652  1
  Al  Al11  1  0.164352  0.329716  0.923173  1
  Al  Al12  1  0.162191  0.833018  0.577636  1
  Al  Al13  1  0.329465  0.167036  0.079348  1
  Al  Al14  1  0.837038  0.165195  0.419844  1
  Al  Al15  1  0.671546  0.833892  0.921102  1
  Al  Al16  1  0.837038  0.165195  0.080156  1
  Al  Al17  1  0.162191  0.833018  0.922364  1
  Al  Al18  1  0.122508  0.564024  0.750000  1
  Al  Al19  1  0.562948  0.436311  0.250000  1
  Al  Al20  1  0.439801  0.565092  0.750000  1
  Al  Al21  1  0.004963  0.009175  0.250000  1
  Al  Al22  1  0.994970  0.991050  0.750000  1
  Si  Si23  1  0.332661  0.662782  0.042968  1
  Si  Si24  1  0.667770  0.337853  0.956157  1
  Si  Si25  1  0.667770  0.337853  0.543843  1
  Si  Si26  1  0.332661  0.662782  0.457032  1
  Si  Si27  1  0.565233  0.125339  0.250000  1
  Si  Si28  1  0.435744  0.872260  0.750000  1
  Si  Si29  1  0.876683  0.435327  0.250000  1
  Os  Os30  1  0.501049  0.001224  0.000766  1
  Os  Os31  1  0.998721  0.499310  0.006854  1
  Os  Os32  1  0.501049  0.001224  0.499234  1
  Os  Os33  1  0.500667  0.500158  0.000135  1
  Os  Os34  1  0.998721  0.499310  0.493146  1
  Os  Os35  1  0.500667  0.500158  0.499865  1
  Os  Os36  1  0.000614  0.000186  0.999830  1
  Os  Os37  1  0.000614  0.000186  0.500170  1
