# generated using pymatgen
data_Lu7(IrSe)2
_symmetry_space_group_name_H-M   'P 1'
_cell_length_a   8.91869167
_cell_length_b   8.91869113
_cell_length_c   8.91869110
_cell_angle_alpha   155.16551689
_cell_angle_beta   118.64696068
_cell_angle_gamma   67.23600924
_symmetry_Int_Tables_number   1
_chemical_formula_structural   Lu7(IrSe)2
_chemical_formula_sum   'Lu7 Ir2 Se2'
_cell_volume   259.24265925
_cell_formula_units_Z   1
loop_
 _symmetry_equiv_pos_site_id
 _symmetry_equiv_pos_as_xyz
  1  'x, y, z'
loop_
 _atom_site_type_symbol
 _atom_site_label
 _atom_site_symmetry_multiplicity
 _atom_site_fract_x
 _atom_site_fract_y
 _atom_site_fract_z
 _atom_site_occupancy
  Lu  Lu0  1  0.541458  0.125762  0.415696  1
  Lu  Lu1  1  0.289933  0.874238  0.415696  1
  Lu  Lu2  1  0.947412  0.318275  0.629137  1
  Lu  Lu3  1  0.310862  0.681725  0.629137  1
  Lu  Lu4  1  0.619494  0.359283  0.260211  1
  Lu  Lu5  1  0.900927  0.640717  0.260211  1
  Lu  Lu6  1  0.001386  0.000000  0.001386  1
  Ir  Ir7  1  0.166811  0.237273  0.929538  1
  Ir  Ir8  1  0.692265  0.762727  0.929538  1
  Se  Se9  1  0.262010  0.500000  0.762010  1
  Se  Se10  1  0.658298  0.000000  0.658298  1
