# generated using pymatgen
data_Dy2Lu2Th(FeB3)2
_symmetry_space_group_name_H-M   'P 1'
_cell_length_a   5.40219362
_cell_length_b   5.40219412
_cell_length_c   8.08520464
_cell_angle_alpha   70.48345908
_cell_angle_beta   70.48345843
_cell_angle_gamma   59.99998073
_symmetry_Int_Tables_number   1
_chemical_formula_structural   Dy2Lu2Th(FeB3)2
_chemical_formula_sum   'Dy2 Lu2 Th1 Fe2 B6'
_cell_volume   188.52750815
_cell_formula_units_Z   1
loop_
 _symmetry_equiv_pos_site_id
 _symmetry_equiv_pos_as_xyz
  1  'x, y, z'
loop_
 _atom_site_type_symbol
 _atom_site_label
 _atom_site_symmetry_multiplicity
 _atom_site_fract_x
 _atom_site_fract_y
 _atom_site_fract_z
 _atom_site_occupancy
  Dy  Dy0  1  0.414118  0.414118  0.757646  1
  Dy  Dy1  1  0.585882  0.585882  0.242354  1
  Lu  Lu2  1  0.249584  0.249584  0.251249  1
  Lu  Lu3  1  0.750416  0.750416  0.748751  1
  Th  Th4  1  0.000000  0.000000  0.000000  1
  Fe  Fe5  1  0.112078  0.112078  0.663765  1
  Fe  Fe6  1  0.887922  0.887922  0.336235  1
  B  B7  1  0.167640  0.832360  0.500000  1
  B  B8  1  0.832360  0.500000  0.500000  1
  B  B9  1  0.500000  0.167640  0.500000  1
  B  B10  1  0.167640  0.500000  0.500000  1
  B  B11  1  0.500000  0.832360  0.500000  1
  B  B12  1  0.832360  0.167640  0.500000  1
