# generated using pymatgen
data_Lu2Th3Ge3C
_symmetry_space_group_name_H-M   'P 1'
_cell_length_a   8.77540800
_cell_length_b   8.77513094
_cell_length_c   6.35270801
_cell_angle_alpha   89.99453684
_cell_angle_beta   90.00272643
_cell_angle_gamma   119.99895939
_symmetry_Int_Tables_number   1
_chemical_formula_structural   Lu2Th3Ge3C
_chemical_formula_sum   'Lu4 Th6 Ge6 C2'
_cell_volume   423.65759943
_cell_formula_units_Z   2
loop_
 _symmetry_equiv_pos_site_id
 _symmetry_equiv_pos_as_xyz
  1  'x, y, z'
loop_
 _atom_site_type_symbol
 _atom_site_label
 _atom_site_symmetry_multiplicity
 _atom_site_fract_x
 _atom_site_fract_y
 _atom_site_fract_z
 _atom_site_occupancy
  Lu  Lu0  1  0.666680  0.333341  0.499999  1
  Lu  Lu1  1  0.333320  0.666662  0.499999  1
  Lu  Lu2  1  0.333310  0.666657  0.999998  1
  Lu  Lu3  1  0.666690  0.333346  0.999998  1
  Th  Th4  1  0.767342  0.767313  0.249998  1
  Th  Th5  1  0.232658  0.999971  0.249998  1
  Th  Th6  1  0.000000  0.232701  0.249998  1
  Th  Th7  1  0.232654  0.232689  0.750011  1
  Th  Th8  1  0.767346  0.000036  0.750011  1
  Th  Th9  1  0.000000  0.767310  0.749998  1
  Ge  Ge10  1  0.404510  0.404504  0.249997  1
  Ge  Ge11  1  0.595490  0.999993  0.249997  1
  Ge  Ge12  1  0.000000  0.595458  0.250007  1
  Ge  Ge13  1  0.595492  0.595483  0.750002  1
  Ge  Ge14  1  0.404508  0.999991  0.750002  1
  Ge  Ge15  1  0.000000  0.404542  0.749988  1
  C  C16  1  0.000000  0.000001  0.500000  1
  C  C17  1  0.000000  0.000001  0.999999  1
