# generated using pymatgen
data_Li8SmTh7Pb8
_symmetry_space_group_name_H-M   'P 1'
_cell_length_a   9.82485800
_cell_length_b   9.82485833
_cell_length_c   7.37725300
_cell_angle_alpha   90.00000000
_cell_angle_beta   90.00000000
_cell_angle_gamma   119.99999888
_symmetry_Int_Tables_number   1
_chemical_formula_structural   Li8SmTh7Pb8
_chemical_formula_sum   'Li8 Sm1 Th7 Pb8'
_cell_volume   616.70560175
_cell_formula_units_Z   1
loop_
 _symmetry_equiv_pos_site_id
 _symmetry_equiv_pos_as_xyz
  1  'x, y, z'
loop_
 _atom_site_type_symbol
 _atom_site_label
 _atom_site_symmetry_multiplicity
 _atom_site_fract_x
 _atom_site_fract_y
 _atom_site_fract_z
 _atom_site_occupancy
  Li  Li0  1  0.833861  0.166139  0.747229  1
  Li  Li1  1  0.833861  0.667724  0.747229  1
  Li  Li2  1  0.332276  0.166139  0.747229  1
  Li  Li3  1  0.165722  0.834278  0.231898  1
  Li  Li4  1  0.165722  0.331444  0.231898  1
  Li  Li5  1  0.668556  0.834278  0.231898  1
  Li  Li6  1  0.666667  0.333333  0.278752  1
  Li  Li7  1  0.333333  0.666667  0.779919  1
  Sm  Sm8  1  0.000000  0.000000  0.001289  1
  Th  Th9  1  0.496427  0.503573  0.503700  1
  Th  Th10  1  0.496427  0.992854  0.503700  1
  Th  Th11  1  0.007146  0.503573  0.503700  1
  Th  Th12  1  0.503482  0.496518  0.003739  1
  Th  Th13  1  0.503482  0.006963  0.003739  1
  Th  Th14  1  0.993037  0.496518  0.003739  1
  Th  Th15  1  0.000000  0.000000  0.501759  1
  Pb  Pb16  1  0.833759  0.166241  0.257017  1
  Pb  Pb17  1  0.833759  0.667518  0.257017  1
  Pb  Pb18  1  0.332482  0.166241  0.257017  1
  Pb  Pb19  1  0.166048  0.833952  0.758370  1
  Pb  Pb20  1  0.166048  0.332098  0.758370  1
  Pb  Pb21  1  0.667902  0.833952  0.758370  1
  Pb  Pb22  1  0.666667  0.333333  0.744910  1
  Pb  Pb23  1  0.333333  0.666667  0.245525  1
