# generated using pymatgen
data_Ca3PrBi3Sb3Rh7
_symmetry_space_group_name_H-M   'P 1'
_cell_length_a   7.77171419
_cell_length_b   7.75292148
_cell_length_c   7.75291889
_cell_angle_alpha   109.48651009
_cell_angle_beta   109.50969782
_cell_angle_gamma   109.50969149
_symmetry_Int_Tables_number   1
_chemical_formula_structural   Ca3PrBi3Sb3Rh7
_chemical_formula_sum   'Ca3 Pr1 Bi3 Sb3 Rh7'
_cell_volume   359.19491462
_cell_formula_units_Z   1
loop_
 _symmetry_equiv_pos_site_id
 _symmetry_equiv_pos_as_xyz
  1  'x, y, z'
loop_
 _atom_site_type_symbol
 _atom_site_label
 _atom_site_symmetry_multiplicity
 _atom_site_fract_x
 _atom_site_fract_y
 _atom_site_fract_z
 _atom_site_occupancy
  Ca  Ca0  1  0.475522  0.000192  0.000192  1
  Ca  Ca1  1  0.003014  0.508214  0.999487  1
  Ca  Ca2  1  0.003014  0.999487  0.508214  1
  Pr  Pr3  1  0.489724  0.487940  0.487940  1
  Bi  Bi4  1  0.983375  0.301652  0.301652  1
  Bi  Bi5  1  0.691384  0.006138  0.698890  1
  Bi  Bi6  1  0.691384  0.698890  0.006138  1
  Sb  Sb7  1  0.999915  0.674044  0.674044  1
  Sb  Sb8  1  0.322399  0.992395  0.326820  1
  Sb  Sb9  1  0.322399  0.326820  0.992395  1
  Rh  Rh10  1  0.044584  0.003981  0.003981  1
  Rh  Rh11  1  0.496983  0.748684  0.252860  1
  Rh  Rh12  1  0.743969  0.501406  0.250583  1
  Rh  Rh13  1  0.245691  0.746662  0.500055  1
  Rh  Rh14  1  0.245691  0.500055  0.746662  1
  Rh  Rh15  1  0.496983  0.252860  0.748684  1
  Rh  Rh16  1  0.743969  0.250583  0.501406  1
