# generated using pymatgen
data_PrSm5Co4(P6Ru7)2
_symmetry_space_group_name_H-M   'P 1'
_cell_length_a   3.95670800
_cell_length_b   11.03688100
_cell_length_c   12.64633600
_cell_angle_alpha   90.00000000
_cell_angle_beta   90.00000000
_cell_angle_gamma   90.00000000
_symmetry_Int_Tables_number   1
_chemical_formula_structural   PrSm5Co4(P6Ru7)2
_chemical_formula_sum   'Pr1 Sm5 Co4 P12 Ru14'
_cell_volume   552.26189331
_cell_formula_units_Z   1
loop_
 _symmetry_equiv_pos_site_id
 _symmetry_equiv_pos_as_xyz
  1  'x, y, z'
loop_
 _atom_site_type_symbol
 _atom_site_label
 _atom_site_symmetry_multiplicity
 _atom_site_fract_x
 _atom_site_fract_y
 _atom_site_fract_z
 _atom_site_occupancy
  Pr  Pr0  1  0.000000  0.500000  0.528028  1
  Sm  Sm1  1  0.500000  0.000000  0.472135  1
  Sm  Sm2  1  0.500000  0.820717  0.204432  1
  Sm  Sm3  1  0.500000  0.179283  0.204432  1
  Sm  Sm4  1  0.000000  0.679967  0.795715  1
  Sm  Sm5  1  0.000000  0.320033  0.795715  1
  Co  Co6  1  0.500000  0.500000  0.699793  1
  Co  Co7  1  0.000000  0.000000  0.301869  1
  Co  Co8  1  0.000000  0.500000  0.986653  1
  Co  Co9  1  0.500000  0.000000  0.013564  1
  P  P10  1  0.500000  0.500000  0.880061  1
  P  P11  1  0.000000  0.000000  0.120415  1
  P  P12  1  0.500000  0.500000  0.336799  1
  P  P13  1  0.000000  0.000000  0.661952  1
  P  P14  1  0.500000  0.306129  0.616946  1
  P  P15  1  0.500000  0.693871  0.616946  1
  P  P16  1  0.000000  0.191565  0.383067  1
  P  P17  1  0.000000  0.808435  0.383067  1
  P  P18  1  0.500000  0.850407  0.898398  1
  P  P19  1  0.500000  0.149593  0.898398  1
  P  P20  1  0.000000  0.649996  0.101485  1
  P  P21  1  0.000000  0.350004  0.101485  1
  Ru  Ru22  1  0.500000  0.500000  0.153202  1
  Ru  Ru23  1  0.000000  0.000000  0.846255  1
  Ru  Ru24  1  0.500000  0.334447  0.989848  1
  Ru  Ru25  1  0.500000  0.665553  0.989848  1
  Ru  Ru26  1  0.000000  0.165463  0.010207  1
  Ru  Ru27  1  0.000000  0.834537  0.010207  1
  Ru  Ru28  1  0.500000  0.297481  0.427985  1
  Ru  Ru29  1  0.500000  0.702519  0.427985  1
  Ru  Ru30  1  0.000000  0.199605  0.571616  1
  Ru  Ru31  1  0.000000  0.800395  0.571616  1
  Ru  Ru32  1  0.500000  0.877897  0.715483  1
  Ru  Ru33  1  0.500000  0.122103  0.715483  1
  Ru  Ru34  1  0.000000  0.622674  0.284455  1
  Ru  Ru35  1  0.000000  0.377326  0.284455  1
