# generated using pymatgen
data_Lu3In4AgRu
_symmetry_space_group_name_H-M   'P 1'
_cell_length_a   8.02952500
_cell_length_b   8.02952370
_cell_length_c   3.66564300
_cell_angle_alpha   90.00000000
_cell_angle_beta   90.00000000
_cell_angle_gamma   119.99999298
_symmetry_Int_Tables_number   1
_chemical_formula_structural   Lu3In4AgRu
_chemical_formula_sum   'Lu3 In4 Ag1 Ru1'
_cell_volume   204.67295884
_cell_formula_units_Z   1
loop_
 _symmetry_equiv_pos_site_id
 _symmetry_equiv_pos_as_xyz
  1  'x, y, z'
loop_
 _atom_site_type_symbol
 _atom_site_label
 _atom_site_symmetry_multiplicity
 _atom_site_fract_x
 _atom_site_fract_y
 _atom_site_fract_z
 _atom_site_occupancy
  Lu  Lu0  1  0.376497  0.419889  0.000000  1
  Lu  Lu1  1  0.043392  0.623502  0.000000  1
  Lu  Lu2  1  0.580111  0.956609  0.000000  1
  In  In3  1  0.999936  0.272878  0.500000  1
  In  In4  1  0.666666  0.333334  0.500000  1
  In  In5  1  0.727123  0.727058  0.500000  1
  In  In6  1  0.272942  0.000065  0.500000  1
  Ag  Ag7  1  0.000000  0.000000  0.000000  1
  Ru  Ru8  1  0.333333  0.666666  0.500000  1
