# generated using pymatgen
data_ScPaTcB6
_symmetry_space_group_name_H-M   'P 1'
_cell_length_a   3.63946400
_cell_length_b   8.98042200
_cell_length_c   11.35314100
_cell_angle_alpha   90.00000000
_cell_angle_beta   90.00000000
_cell_angle_gamma   90.00000000
_symmetry_Int_Tables_number   1
_chemical_formula_structural   ScPaTcB6
_chemical_formula_sum   'Sc4 Pa4 Tc4 B24'
_cell_volume   371.06518141
_cell_formula_units_Z   4
loop_
 _symmetry_equiv_pos_site_id
 _symmetry_equiv_pos_as_xyz
  1  'x, y, z'
loop_
 _atom_site_type_symbol
 _atom_site_label
 _atom_site_symmetry_multiplicity
 _atom_site_fract_x
 _atom_site_fract_y
 _atom_site_fract_z
 _atom_site_occupancy
  Sc  Sc0  1  0.000000  0.445169  0.125549  1
  Sc  Sc1  1  0.000000  0.554831  0.874451  1
  Sc  Sc2  1  0.000000  0.945169  0.374451  1
  Sc  Sc3  1  0.000000  0.054831  0.625549  1
  Pa  Pa4  1  0.000000  0.820951  0.085903  1
  Pa  Pa5  1  0.000000  0.179049  0.914097  1
  Pa  Pa6  1  0.000000  0.320951  0.414097  1
  Pa  Pa7  1  0.000000  0.679049  0.585903  1
  Tc  Tc8  1  0.000000  0.140728  0.181077  1
  Tc  Tc9  1  0.000000  0.859272  0.818923  1
  Tc  Tc10  1  0.000000  0.640728  0.318923  1
  Tc  Tc11  1  0.000000  0.359272  0.681077  1
  B  B12  1  0.500000  0.054150  0.066772  1
  B  B13  1  0.500000  0.945850  0.933228  1
  B  B14  1  0.500000  0.554150  0.433228  1
  B  B15  1  0.500000  0.445850  0.566772  1
  B  B16  1  0.500000  0.253486  0.081168  1
  B  B17  1  0.500000  0.746514  0.918832  1
  B  B18  1  0.500000  0.753486  0.418832  1
  B  B19  1  0.500000  0.246514  0.581168  1
  B  B20  1  0.500000  0.294720  0.235356  1
  B  B21  1  0.500000  0.705280  0.764644  1
  B  B22  1  0.500000  0.794720  0.264644  1
  B  B23  1  0.500000  0.205280  0.735356  1
  B  B24  1  0.500000  0.129975  0.317577  1
  B  B25  1  0.500000  0.870025  0.682423  1
  B  B26  1  0.500000  0.629975  0.182423  1
  B  B27  1  0.500000  0.370025  0.817577  1
  B  B28  1  0.500000  0.481842  0.285254  1
  B  B29  1  0.500000  0.518158  0.714746  1
  B  B30  1  0.500000  0.981842  0.214746  1
  B  B31  1  0.500000  0.018158  0.785254  1
  B  B32  1  0.500000  0.100543  0.472693  1
  B  B33  1  0.500000  0.899457  0.527307  1
  B  B34  1  0.500000  0.600543  0.027307  1
  B  B35  1  0.500000  0.399457  0.972693  1
