# generated using pymatgen
data_K4BiSb3Pt2
_symmetry_space_group_name_H-M   'P 1'
_cell_length_a   8.17073974
_cell_length_b   8.08749380
_cell_length_c   6.63500000
_cell_angle_alpha   90.00000000
_cell_angle_beta   90.00000000
_cell_angle_gamma   129.31159802
_symmetry_Int_Tables_number   1
_chemical_formula_structural   K4BiSb3Pt2
_chemical_formula_sum   'K4 Bi1 Sb3 Pt2'
_cell_volume   339.23104350
_cell_formula_units_Z   1
loop_
 _symmetry_equiv_pos_site_id
 _symmetry_equiv_pos_as_xyz
  1  'x, y, z'
loop_
 _atom_site_type_symbol
 _atom_site_label
 _atom_site_symmetry_multiplicity
 _atom_site_fract_x
 _atom_site_fract_y
 _atom_site_fract_z
 _atom_site_occupancy
  K  K0  1  0.589921  0.386639  0.750000  1
  K  K1  1  0.389309  0.584289  0.250000  1
  K  K2  1  0.180386  0.799226  0.750000  1
  K  K3  1  0.807981  0.195776  0.250000  1
  Bi  Bi4  1  0.678290  0.893295  0.750000  1
  Sb  Sb5  1  0.892553  0.689276  0.250000  1
  Sb  Sb6  1  0.315830  0.095237  0.250000  1
  Sb  Sb7  1  0.111396  0.322866  0.750000  1
  Pt  Pt8  1  0.017167  0.016698  0.001277  1
  Pt  Pt9  1  0.017167  0.016698  0.498723  1
