# generated using pymatgen
data_Li12GeP7Pt8
_symmetry_space_group_name_H-M   'P 1'
_cell_length_a   5.40723300
_cell_length_b   7.21791279
_cell_length_c   12.15877000
_cell_angle_alpha   90.09438284
_cell_angle_beta   90.00000000
_cell_angle_gamma   90.00000000
_symmetry_Int_Tables_number   1
_chemical_formula_structural   Li12GeP7Pt8
_chemical_formula_sum   'Li12 Ge1 P7 Pt8'
_cell_volume   474.54321531
_cell_formula_units_Z   1
loop_
 _symmetry_equiv_pos_site_id
 _symmetry_equiv_pos_as_xyz
  1  'x, y, z'
loop_
 _atom_site_type_symbol
 _atom_site_label
 _atom_site_symmetry_multiplicity
 _atom_site_fract_x
 _atom_site_fract_y
 _atom_site_fract_z
 _atom_site_occupancy
  Li  Li0  1  0.652490  0.236014  0.250176  1
  Li  Li1  1  0.341226  0.764895  0.751696  1
  Li  Li2  1  0.341226  0.735105  0.248304  1
  Li  Li3  1  0.652490  0.263986  0.749824  1
  Li  Li4  1  0.121018  0.377856  0.110060  1
  Li  Li5  1  0.880317  0.622597  0.889511  1
  Li  Li6  1  0.877118  0.620530  0.608988  1
  Li  Li7  1  0.877118  0.879470  0.391012  1
  Li  Li8  1  0.126870  0.378438  0.391072  1
  Li  Li9  1  0.126870  0.121562  0.608928  1
  Li  Li10  1  0.121018  0.122144  0.889940  1
  Li  Li11  1  0.880317  0.877403  0.110489  1
  Ge  Ge12  1  0.642519  0.250000  0.500000  1
  P  P13  1  0.126711  0.087701  0.248512  1
  P  P14  1  0.876160  0.917044  0.751239  1
  P  P15  1  0.876160  0.582956  0.248761  1
  P  P16  1  0.126711  0.412299  0.751488  1
  P  P17  1  0.618925  0.250000  0.000000  1
  P  P18  1  0.382629  0.750000  0.000000  1
  P  P19  1  0.370302  0.750000  0.500000  1
  Pt  Pt20  1  0.363940  0.039098  0.092947  1
  Pt  Pt21  1  0.637647  0.960948  0.906691  1
  Pt  Pt22  1  0.633548  0.950672  0.596878  1
  Pt  Pt23  1  0.633548  0.549328  0.403122  1
  Pt  Pt24  1  0.355769  0.028463  0.403322  1
  Pt  Pt25  1  0.355769  0.471537  0.596678  1
  Pt  Pt26  1  0.363940  0.460902  0.907053  1
  Pt  Pt27  1  0.637647  0.539052  0.093309  1
