# generated using pymatgen
data_ErZr5Zn23P
_symmetry_space_group_name_H-M   'P 1'
_cell_length_a   8.79307436
_cell_length_b   8.79552596
_cell_length_c   8.79552600
_cell_angle_alpha   59.98156183
_cell_angle_beta   60.00921788
_cell_angle_gamma   60.00922303
_symmetry_Int_Tables_number   1
_chemical_formula_structural   ErZr5Zn23P
_chemical_formula_sum   'Er1 Zr5 Zn23 P1'
_cell_volume   481.00470098
_cell_formula_units_Z   1
loop_
 _symmetry_equiv_pos_site_id
 _symmetry_equiv_pos_as_xyz
  1  'x, y, z'
loop_
 _atom_site_type_symbol
 _atom_site_label
 _atom_site_symmetry_multiplicity
 _atom_site_fract_x
 _atom_site_fract_y
 _atom_site_fract_z
 _atom_site_occupancy
  Er  Er0  1  0.711407  0.288593  0.288593  1
  Zr  Zr1  1  0.289847  0.710153  0.710153  1
  Zr  Zr2  1  0.291986  0.708014  0.295649  1
  Zr  Zr3  1  0.704351  0.295649  0.708014  1
  Zr  Zr4  1  0.291986  0.295649  0.708014  1
  Zr  Zr5  1  0.704351  0.708014  0.295649  1
  Zn  Zn6  1  0.128223  0.120192  0.120192  1
  Zn  Zn7  1  0.877520  0.877220  0.877220  1
  Zn  Zn8  1  0.122780  0.122480  0.631963  1
  Zn  Zn9  1  0.122780  0.631963  0.122480  1
  Zn  Zn10  1  0.879808  0.871777  0.368607  1
  Zn  Zn11  1  0.879808  0.368607  0.871777  1
  Zn  Zn12  1  0.631393  0.120192  0.120192  1
  Zn  Zn13  1  0.368037  0.877220  0.877220  1
  Zn  Zn14  1  0.499570  0.000430  0.000430  1
  Zn  Zn15  1  0.999570  0.500430  0.500430  1
  Zn  Zn16  1  0.000530  0.500749  0.999470  1
  Zn  Zn17  1  0.499251  0.999470  0.500749  1
  Zn  Zn18  1  0.000530  0.999470  0.500749  1
  Zn  Zn19  1  0.499251  0.500749  0.999470  1
  Zn  Zn20  1  0.331351  0.333760  0.333760  1
  Zn  Zn21  1  0.664505  0.666320  0.666320  1
  Zn  Zn22  1  0.333680  0.335495  0.997146  1
  Zn  Zn23  1  0.333680  0.997146  0.335495  1
  Zn  Zn24  1  0.666240  0.668649  0.998869  1
  Zn  Zn25  1  0.666240  0.998869  0.668649  1
  Zn  Zn26  1  0.001131  0.333760  0.333760  1
  Zn  Zn27  1  0.002854  0.666320  0.666320  1
  Zn  Zn28  1  0.000438  0.999562  0.999562  1
  P  P29  1  0.496906  0.503094  0.503094  1
