# generated using pymatgen
data_Tm4Re7W
_symmetry_space_group_name_H-M   'P 1'
_cell_length_a   5.42171900
_cell_length_b   5.42171978
_cell_length_c   8.77978500
_cell_angle_alpha   90.00000000
_cell_angle_beta   90.00000000
_cell_angle_gamma   120.00000133
_symmetry_Int_Tables_number   1
_chemical_formula_structural   Tm4Re7W
_chemical_formula_sum   'Tm4 Re7 W1'
_cell_volume   223.50568770
_cell_formula_units_Z   1
loop_
 _symmetry_equiv_pos_site_id
 _symmetry_equiv_pos_as_xyz
  1  'x, y, z'
loop_
 _atom_site_type_symbol
 _atom_site_label
 _atom_site_symmetry_multiplicity
 _atom_site_fract_x
 _atom_site_fract_y
 _atom_site_fract_z
 _atom_site_occupancy
  Tm  Tm0  1  0.333333  0.666667  0.436898  1
  Tm  Tm1  1  0.666667  0.333333  0.563102  1
  Tm  Tm2  1  0.666667  0.333333  0.938013  1
  Tm  Tm3  1  0.333333  0.666667  0.061987  1
  Re  Re4  1  0.000000  0.000000  0.000000  1
  Re  Re5  1  0.828533  0.171467  0.249479  1
  Re  Re6  1  0.828533  0.657065  0.249479  1
  Re  Re7  1  0.342935  0.171467  0.249479  1
  Re  Re8  1  0.171467  0.828533  0.750521  1
  Re  Re9  1  0.171467  0.342935  0.750521  1
  Re  Re10  1  0.657065  0.828533  0.750521  1
  W  W11  1  0.000000  0.000000  0.500000  1
