# generated using pymatgen
data_Er2TmTh(InCu2)2
_symmetry_space_group_name_H-M   'P 1'
_cell_length_a   7.58494611
_cell_length_b   7.58494610
_cell_length_c   3.70871500
_cell_angle_alpha   90.00000000
_cell_angle_beta   90.00000000
_cell_angle_gamma   90.80617583
_symmetry_Int_Tables_number   1
_chemical_formula_structural   Er2TmTh(InCu2)2
_chemical_formula_sum   'Er2 Tm1 Th1 In2 Cu4'
_cell_volume   213.34647303
_cell_formula_units_Z   1
loop_
 _symmetry_equiv_pos_site_id
 _symmetry_equiv_pos_as_xyz
  1  'x, y, z'
loop_
 _atom_site_type_symbol
 _atom_site_label
 _atom_site_symmetry_multiplicity
 _atom_site_fract_x
 _atom_site_fract_y
 _atom_site_fract_z
 _atom_site_occupancy
  Er  Er0  1  0.173739  0.327745  0.500000  1
  Er  Er1  1  0.827745  0.673739  0.500000  1
  Tm  Tm2  1  0.325259  0.825259  0.500000  1
  Th  Th3  1  0.674220  0.174220  0.500000  1
  In  In4  1  0.493619  0.506798  0.000000  1
  In  In5  1  0.006798  0.993619  0.000000  1
  Cu  Cu6  1  0.121725  0.621725  0.000000  1
  Cu  Cu7  1  0.884709  0.384709  0.000000  1
  Cu  Cu8  1  0.617549  0.874635  0.000000  1
  Cu  Cu9  1  0.374635  0.117549  0.000000  1
