# generated using pymatgen
data_Y3Ho5Pd4
_symmetry_space_group_name_H-M   'P 1'
_cell_length_a   4.86994000
_cell_length_b   7.11682838
_cell_length_c   8.76097076
_cell_angle_alpha   89.82126032
_cell_angle_beta   90.00000000
_cell_angle_gamma   90.00000000
_symmetry_Int_Tables_number   1
_chemical_formula_structural   Y3Ho5Pd4
_chemical_formula_sum   'Y3 Ho5 Pd4'
_cell_volume   303.64086605
_cell_formula_units_Z   1
loop_
 _symmetry_equiv_pos_site_id
 _symmetry_equiv_pos_as_xyz
  1  'x, y, z'
loop_
 _atom_site_type_symbol
 _atom_site_label
 _atom_site_symmetry_multiplicity
 _atom_site_fract_x
 _atom_site_fract_y
 _atom_site_fract_z
 _atom_site_occupancy
  Y  Y0  1  0.250000  0.484932  0.173711  1
  Y  Y1  1  0.750000  0.515337  0.825839  1
  Y  Y2  1  0.250000  0.984746  0.326039  1
  Ho  Ho3  1  0.750000  0.015133  0.672562  1
  Ho  Ho4  1  0.750000  0.646554  0.421912  1
  Ho  Ho5  1  0.250000  0.352932  0.578624  1
  Ho  Ho6  1  0.750000  0.145750  0.078385  1
  Ho  Ho7  1  0.250000  0.854682  0.920721  1
  Pd  Pd8  1  0.250000  0.255438  0.905441  1
  Pd  Pd9  1  0.750000  0.744235  0.094575  1
  Pd  Pd10  1  0.250000  0.757111  0.595290  1
  Pd  Pd11  1  0.750000  0.243149  0.406900  1
