# generated using pymatgen
data_CsV3(SeO7)2
_symmetry_space_group_name_H-M   'P 1'
_cell_length_a   8.55647590
_cell_length_b   8.55647562
_cell_length_c   8.55647534
_cell_angle_alpha   49.54429808
_cell_angle_beta   49.54430103
_cell_angle_gamma   49.54429419
_symmetry_Int_Tables_number   1
_chemical_formula_structural   CsV3(SeO7)2
_chemical_formula_sum   'Cs1 V3 Se2 O14'
_cell_volume   333.43689882
_cell_formula_units_Z   1
loop_
 _symmetry_equiv_pos_site_id
 _symmetry_equiv_pos_as_xyz
  1  'x, y, z'
loop_
 _atom_site_type_symbol
 _atom_site_label
 _atom_site_symmetry_multiplicity
 _atom_site_fract_x
 _atom_site_fract_y
 _atom_site_fract_z
 _atom_site_occupancy
  Cs  Cs0  1  0.000000  0.000000  0.000000  1
  V  V1  1  0.500000  0.956165  0.043835  1
  V  V2  1  0.043835  0.500000  0.956165  1
  V  V3  1  0.956165  0.043835  0.500000  1
  Se  Se4  1  0.720773  0.720773  0.720773  1
  Se  Se5  1  0.279227  0.279227  0.279227  1
  O  O6  1  0.648707  0.648707  0.648707  1
  O  O7  1  0.351293  0.351293  0.351293  1
  O  O8  1  0.490364  0.872306  0.879884  1
  O  O9  1  0.879884  0.490364  0.872306  1
  O  O10  1  0.872306  0.879884  0.490364  1
  O  O11  1  0.509636  0.120116  0.127694  1
  O  O12  1  0.127694  0.509636  0.120116  1
  O  O13  1  0.120116  0.127694  0.509636  1
  O  O14  1  0.724748  0.722167  0.095347  1
  O  O15  1  0.095347  0.724748  0.722167  1
  O  O16  1  0.722167  0.095347  0.724748  1
  O  O17  1  0.277833  0.275252  0.904653  1
  O  O18  1  0.904653  0.277833  0.275252  1
  O  O19  1  0.275252  0.904653  0.277833  1
