# generated using pymatgen
data_CePrHo2(MoN3)4
_symmetry_space_group_name_H-M   'P 1'
_cell_length_a   7.25655773
_cell_length_b   7.25655699
_cell_length_c   6.17181213
_cell_angle_alpha   76.24943600
_cell_angle_beta   76.24942969
_cell_angle_gamma   83.41867908
_symmetry_Int_Tables_number   1
_chemical_formula_structural   CePrHo2(MoN3)4
_chemical_formula_sum   'Ce1 Pr1 Ho2 Mo4 N12'
_cell_volume   306.04893186
_cell_formula_units_Z   1
loop_
 _symmetry_equiv_pos_site_id
 _symmetry_equiv_pos_as_xyz
  1  'x, y, z'
loop_
 _atom_site_type_symbol
 _atom_site_label
 _atom_site_symmetry_multiplicity
 _atom_site_fract_x
 _atom_site_fract_y
 _atom_site_fract_z
 _atom_site_occupancy
  Ce  Ce0  1  0.310664  0.689336  0.750000  1
  Pr  Pr1  1  0.687268  0.312732  0.250000  1
  Ho  Ho2  1  0.914298  0.085702  0.750000  1
  Ho  Ho3  1  0.086337  0.913663  0.250000  1
  Mo  Mo4  1  0.803324  0.619238  0.742249  1
  Mo  Mo5  1  0.197526  0.382314  0.257000  1
  Mo  Mo6  1  0.617686  0.802474  0.243000  1
  Mo  Mo7  1  0.380762  0.196676  0.757751  1
  N  N8  1  0.215722  0.999902  0.855908  1
  N  N9  1  0.340660  0.376894  0.488216  1
  N  N10  1  0.659483  0.624706  0.511505  1
  N  N11  1  0.618297  0.107233  0.662483  1
  N  N12  1  0.000098  0.784278  0.644092  1
  N  N13  1  0.783896  0.996793  0.144094  1
  N  N14  1  0.110614  0.621007  0.152614  1
  N  N15  1  0.892767  0.381703  0.837517  1
  N  N16  1  0.003207  0.216104  0.355906  1
  N  N17  1  0.375294  0.340517  0.988495  1
  N  N18  1  0.623106  0.659340  0.011784  1
  N  N19  1  0.378993  0.889386  0.347386  1
