# generated using pymatgen
data_Sr2La(YbPt2)2
_symmetry_space_group_name_H-M   'P 1'
_cell_length_a   7.75522200
_cell_length_b   7.92422000
_cell_length_c   15.10929500
_cell_angle_alpha   90.00000000
_cell_angle_beta   90.00000000
_cell_angle_gamma   90.00000000
_symmetry_Int_Tables_number   1
_chemical_formula_structural   Sr2La(YbPt2)2
_chemical_formula_sum   'Sr8 La4 Yb8 Pt16'
_cell_volume   928.52790340
_cell_formula_units_Z   4
loop_
 _symmetry_equiv_pos_site_id
 _symmetry_equiv_pos_as_xyz
  1  'x, y, z'
loop_
 _atom_site_type_symbol
 _atom_site_label
 _atom_site_symmetry_multiplicity
 _atom_site_fract_x
 _atom_site_fract_y
 _atom_site_fract_z
 _atom_site_occupancy
  Sr  Sr0  1  0.503632  0.323887  0.903319  1
  Sr  Sr1  1  0.003632  0.176113  0.596681  1
  Sr  Sr2  1  0.496368  0.676113  0.403319  1
  Sr  Sr3  1  0.996368  0.823887  0.096681  1
  Sr  Sr4  1  0.501138  0.677514  0.098176  1
  Sr  Sr5  1  0.001138  0.822486  0.401824  1
  Sr  Sr6  1  0.498862  0.322486  0.598176  1
  Sr  Sr7  1  0.998862  0.177514  0.901824  1
  La  La8  1  0.339601  0.834158  0.876986  1
  La  La9  1  0.839601  0.665842  0.623014  1
  La  La10  1  0.660399  0.165842  0.376987  1
  La  La11  1  0.160399  0.334158  0.123013  1
  Yb  Yb12  1  0.661239  0.167302  0.122619  1
  Yb  Yb13  1  0.161239  0.332698  0.377381  1
  Yb  Yb14  1  0.338761  0.832698  0.622620  1
  Yb  Yb15  1  0.838761  0.667302  0.877380  1
  Yb  Yb16  1  0.178725  0.493574  0.749738  1
  Yb  Yb17  1  0.678725  0.006426  0.750262  1
  Yb  Yb18  1  0.821275  0.506426  0.249738  1
  Yb  Yb19  1  0.321275  0.993574  0.250262  1
  Pt  Pt20  1  0.333330  0.040012  0.043783  1
  Pt  Pt21  1  0.833330  0.459988  0.456217  1
  Pt  Pt22  1  0.666670  0.959988  0.543783  1
  Pt  Pt23  1  0.166670  0.540012  0.956217  1
  Pt  Pt24  1  0.664921  0.961455  0.957056  1
  Pt  Pt25  1  0.164921  0.538545  0.542944  1
  Pt  Pt26  1  0.335079  0.038545  0.457056  1
  Pt  Pt27  1  0.835079  0.461455  0.042944  1
  Pt  Pt28  1  0.544612  0.628809  0.750933  1
  Pt  Pt29  1  0.044612  0.871191  0.749067  1
  Pt  Pt30  1  0.455388  0.371191  0.250933  1
  Pt  Pt31  1  0.955388  0.128809  0.249067  1
  Pt  Pt32  1  0.303931  0.125873  0.750097  1
  Pt  Pt33  1  0.803931  0.374127  0.749903  1
  Pt  Pt34  1  0.696069  0.874127  0.250097  1
  Pt  Pt35  1  0.196069  0.625873  0.249903  1
