# generated using pymatgen
data_BaCrNiP2
_symmetry_space_group_name_H-M   'P 1'
_cell_length_a   6.93334726
_cell_length_b   6.93334771
_cell_length_c   6.93334785
_cell_angle_alpha   147.56187100
_cell_angle_beta   147.56187026
_cell_angle_gamma   46.53255045
_symmetry_Int_Tables_number   1
_chemical_formula_structural   BaCrNiP2
_chemical_formula_sum   'Ba1 Cr1 Ni1 P2'
_cell_volume   95.54932465
_cell_formula_units_Z   1
loop_
 _symmetry_equiv_pos_site_id
 _symmetry_equiv_pos_as_xyz
  1  'x, y, z'
loop_
 _atom_site_type_symbol
 _atom_site_label
 _atom_site_symmetry_multiplicity
 _atom_site_fract_x
 _atom_site_fract_y
 _atom_site_fract_z
 _atom_site_occupancy
  Ba  Ba0  1  0.000000  0.000000  0.000000  1
  Cr  Cr1  1  0.750000  0.250000  0.500000  1
  Ni  Ni2  1  0.250000  0.750000  0.500000  1
  P  P3  1  0.656406  0.656406  0.000000  1
  P  P4  1  0.343594  0.343594  0.000000  1
