# generated using pymatgen
data_Pr2Y6Si12IrRh3
_symmetry_space_group_name_H-M   'P 1'
_cell_length_a   8.21149700
_cell_length_b   8.21150398
_cell_length_c   8.08735600
_cell_angle_alpha   90.00006978
_cell_angle_beta   90.00001396
_cell_angle_gamma   120.00005649
_symmetry_Int_Tables_number   1
_chemical_formula_structural   Pr2Y6Si12IrRh3
_chemical_formula_sum   'Pr2 Y6 Si12 Ir1 Rh3'
_cell_volume   472.26090118
_cell_formula_units_Z   1
loop_
 _symmetry_equiv_pos_site_id
 _symmetry_equiv_pos_as_xyz
  1  'x, y, z'
loop_
 _atom_site_type_symbol
 _atom_site_label
 _atom_site_symmetry_multiplicity
 _atom_site_fract_x
 _atom_site_fract_y
 _atom_site_fract_z
 _atom_site_occupancy
  Pr  Pr0  1  0.000000  0.999999  0.248947  1
  Pr  Pr1  1  0.000000  0.000001  0.750158  1
  Y  Y2  1  0.508402  0.491600  0.250238  1
  Y  Y3  1  0.508401  0.016803  0.250239  1
  Y  Y4  1  0.983198  0.491598  0.250238  1
  Y  Y5  1  0.490800  0.509198  0.749818  1
  Y  Y6  1  0.490801  0.981602  0.749818  1
  Y  Y7  1  0.018398  0.509200  0.749817  1
  Si  Si8  1  0.168076  0.831923  0.499859  1
  Si  Si9  1  0.168076  0.336153  0.499858  1
  Si  Si10  1  0.663847  0.831923  0.499859  1
  Si  Si11  1  0.831219  0.168782  0.499503  1
  Si  Si12  1  0.831219  0.662436  0.499503  1
  Si  Si13  1  0.337564  0.168782  0.499503  1
  Si  Si14  1  0.831354  0.168646  0.000443  1
  Si  Si15  1  0.831354  0.662708  0.000443  1
  Si  Si16  1  0.337292  0.168646  0.000443  1
  Si  Si17  1  0.168570  0.831430  0.998976  1
  Si  Si18  1  0.168570  0.337141  0.998976  1
  Si  Si19  1  0.662859  0.831430  0.998976  1
  Ir  Ir20  1  0.333333  0.666667  0.469572  1
  Rh  Rh21  1  0.666667  0.333333  0.532845  1
  Rh  Rh22  1  0.666667  0.333333  0.966117  1
  Rh  Rh23  1  0.333334  0.666666  0.035855  1
