# generated using pymatgen
data_K8TaGaSe8
_symmetry_space_group_name_H-M   'P 1'
_cell_length_a   8.43616816
_cell_length_b   10.00658700
_cell_length_c   14.88271200
_cell_angle_alpha   90.00000000
_cell_angle_beta   91.59171338
_cell_angle_gamma   90.00000000
_symmetry_Int_Tables_number   1
_chemical_formula_structural   K8TaGaSe8
_chemical_formula_sum   'K16 Ta2 Ga2 Se16'
_cell_volume   1255.87285390
_cell_formula_units_Z   2
loop_
 _symmetry_equiv_pos_site_id
 _symmetry_equiv_pos_as_xyz
  1  'x, y, z'
loop_
 _atom_site_type_symbol
 _atom_site_label
 _atom_site_symmetry_multiplicity
 _atom_site_fract_x
 _atom_site_fract_y
 _atom_site_fract_z
 _atom_site_occupancy
  K  K0  1  0.000000  0.000000  0.000000  1
  K  K1  1  0.500000  0.000000  0.500000  1
  K  K2  1  0.000000  0.500000  0.000000  1
  K  K3  1  0.500000  0.500000  0.500000  1
  K  K4  1  0.992813  0.750000  0.442903  1
  K  K5  1  0.474937  0.250000  0.087439  1
  K  K6  1  0.007187  0.250000  0.557097  1
  K  K7  1  0.525063  0.750000  0.912561  1
  K  K8  1  0.848371  0.063225  0.281171  1
  K  K9  1  0.339394  0.962570  0.230263  1
  K  K10  1  0.151629  0.563225  0.718829  1
  K  K11  1  0.660606  0.462570  0.769737  1
  K  K12  1  0.151629  0.936775  0.718829  1
  K  K13  1  0.660606  0.037430  0.769737  1
  K  K14  1  0.848371  0.436775  0.281171  1
  K  K15  1  0.339394  0.537430  0.230263  1
  Ta  Ta16  1  0.740755  0.750000  0.164156  1
  Ta  Ta17  1  0.259245  0.250000  0.835844  1
  Ga  Ga18  1  0.759492  0.750000  0.669032  1
  Ga  Ga19  1  0.240508  0.250000  0.330968  1
  Se  Se20  1  0.972675  0.250000  0.829229  1
  Se  Se21  1  0.533275  0.250000  0.316323  1
  Se  Se22  1  0.466725  0.750000  0.683677  1
  Se  Se23  1  0.027325  0.750000  0.170771  1
  Se  Se24  1  0.647832  0.552188  0.086764  1
  Se  Se25  1  0.158586  0.451484  0.408415  1
  Se  Se26  1  0.352168  0.052188  0.913236  1
  Se  Se27  1  0.841414  0.951484  0.591585  1
  Se  Se28  1  0.352168  0.447812  0.913236  1
  Se  Se29  1  0.841414  0.548516  0.591585  1
  Se  Se30  1  0.647832  0.947812  0.086764  1
  Se  Se31  1  0.158586  0.048516  0.408415  1
  Se  Se32  1  0.635764  0.750000  0.313792  1
  Se  Se33  1  0.118879  0.250000  0.173273  1
  Se  Se34  1  0.364236  0.250000  0.686208  1
  Se  Se35  1  0.881121  0.750000  0.826727  1
