# generated using pymatgen
data_Pr4Ho6Ga3Si5
_symmetry_space_group_name_H-M   'P 1'
_cell_length_a   7.55250400
_cell_length_b   7.89082203
_cell_length_c   15.03320806
_cell_angle_alpha   89.98972465
_cell_angle_beta   90.00000000
_cell_angle_gamma   90.00000000
_symmetry_Int_Tables_number   1
_chemical_formula_structural   Pr4Ho6Ga3Si5
_chemical_formula_sum   'Pr8 Ho12 Ga6 Si10'
_cell_volume   895.91100976
_cell_formula_units_Z   2
loop_
 _symmetry_equiv_pos_site_id
 _symmetry_equiv_pos_as_xyz
  1  'x, y, z'
loop_
 _atom_site_type_symbol
 _atom_site_label
 _atom_site_symmetry_multiplicity
 _atom_site_fract_x
 _atom_site_fract_y
 _atom_site_fract_z
 _atom_site_occupancy
  Pr  Pr0  1  0.981168  0.823475  0.093255  1
  Pr  Pr1  1  0.481168  0.676525  0.406745  1
  Pr  Pr2  1  0.520455  0.318976  0.898151  1
  Pr  Pr3  1  0.020455  0.181024  0.601849  1
  Pr  Pr4  1  0.024088  0.178212  0.897301  1
  Pr  Pr5  1  0.524088  0.321788  0.602699  1
  Pr  Pr6  1  0.476903  0.673276  0.094155  1
  Pr  Pr7  1  0.976903  0.826724  0.405845  1
  Ho  Ho8  1  0.655361  0.990616  0.251492  1
  Ho  Ho9  1  0.155361  0.509384  0.248508  1
  Ho  Ho10  1  0.847442  0.492898  0.748734  1
  Ho  Ho11  1  0.347442  0.007102  0.751266  1
  Ho  Ho12  1  0.680298  0.824639  0.874253  1
  Ho  Ho13  1  0.180298  0.675361  0.625747  1
  Ho  Ho14  1  0.821081  0.322253  0.122940  1
  Ho  Ho15  1  0.321081  0.177747  0.377060  1
  Ho  Ho16  1  0.318841  0.178320  0.121137  1
  Ho  Ho17  1  0.818841  0.321680  0.378863  1
  Ho  Ho18  1  0.181505  0.675337  0.875599  1
  Ho  Ho19  1  0.681505  0.824663  0.624401  1
  Ga  Ga20  1  0.767158  0.620795  0.249751  1
  Ga  Ga21  1  0.267158  0.879205  0.250249  1
  Ga  Ga22  1  0.848698  0.533065  0.958481  1
  Ga  Ga23  1  0.348698  0.966935  0.541519  1
  Ga  Ga24  1  0.649269  0.033831  0.039148  1
  Ga  Ga25  1  0.149269  0.466169  0.460852  1
  Si  Si26  1  0.727968  0.121075  0.750442  1
  Si  Si27  1  0.227968  0.378925  0.749558  1
  Si  Si28  1  0.025657  0.117974  0.249337  1
  Si  Si29  1  0.525657  0.382026  0.250663  1
  Si  Si30  1  0.476779  0.614660  0.750721  1
  Si  Si31  1  0.976779  0.885340  0.749279  1
  Si  Si32  1  0.145282  0.466152  0.038666  1
  Si  Si33  1  0.645282  0.033848  0.461334  1
  Si  Si34  1  0.352045  0.965941  0.959425  1
  Si  Si35  1  0.852045  0.534059  0.540575  1
