# generated using pymatgen
data_Er9LuSn5Sb
_symmetry_space_group_name_H-M   'P 1'
_cell_length_a   8.87387901
_cell_length_b   8.88103000
_cell_length_c   6.44216204
_cell_angle_alpha   89.98713826
_cell_angle_beta   90.00620081
_cell_angle_gamma   119.97501757
_symmetry_Int_Tables_number   1
_chemical_formula_structural   Er9LuSn5Sb
_chemical_formula_sum   'Er9 Lu1 Sn5 Sb1'
_cell_volume   439.79306768
_cell_formula_units_Z   1
loop_
 _symmetry_equiv_pos_site_id
 _symmetry_equiv_pos_as_xyz
  1  'x, y, z'
loop_
 _atom_site_type_symbol
 _atom_site_label
 _atom_site_symmetry_multiplicity
 _atom_site_fract_x
 _atom_site_fract_y
 _atom_site_fract_z
 _atom_site_occupancy
  Er  Er0  1  0.997393  0.760264  0.749846  1
  Er  Er1  1  0.001097  0.238691  0.250106  1
  Er  Er2  1  0.762328  0.761362  0.250155  1
  Er  Er3  1  0.762126  0.999957  0.749877  1
  Er  Er4  1  0.237120  0.239782  0.749918  1
  Er  Er5  1  0.238718  0.999943  0.250090  1
  Er  Er6  1  0.667536  0.334172  0.000231  1
  Er  Er7  1  0.667497  0.334164  0.499804  1
  Er  Er8  1  0.333361  0.665856  0.000237  1
  Lu  Lu9  1  0.333329  0.665733  0.499675  1
  Sn  Sn10  1  0.395375  0.394631  0.250356  1
  Sn  Sn11  1  0.001529  0.605742  0.250405  1
  Sn  Sn12  1  0.000040  0.395675  0.749615  1
  Sn  Sn13  1  0.603994  0.604758  0.749638  1
  Sn  Sn14  1  0.605602  0.999614  0.250349  1
  Sb  Sb15  1  0.392954  0.999658  0.749699  1
