# generated using pymatgen
data_Ho16Ag4PtRh3
_symmetry_space_group_name_H-M   'P 1'
_cell_length_a   9.51698581
_cell_length_b   9.50312513
_cell_length_c   9.51698500
_cell_angle_alpha   59.95174649
_cell_angle_beta   60.00000629
_cell_angle_gamma   59.95174640
_symmetry_Int_Tables_number   1
_chemical_formula_structural   Ho16Ag4PtRh3
_chemical_formula_sum   'Ho16 Ag4 Pt1 Rh3'
_cell_volume   608.18140596
_cell_formula_units_Z   1
loop_
 _symmetry_equiv_pos_site_id
 _symmetry_equiv_pos_as_xyz
  1  'x, y, z'
loop_
 _atom_site_type_symbol
 _atom_site_label
 _atom_site_symmetry_multiplicity
 _atom_site_fract_x
 _atom_site_fract_y
 _atom_site_fract_z
 _atom_site_occupancy
  Ho  Ho0  1  0.185178  0.184400  0.815211  1
  Ho  Ho1  1  0.605601  0.603521  0.185276  1
  Ho  Ho2  1  0.438586  0.064138  0.438586  1
  Ho  Ho3  1  0.436946  0.437846  0.062603  1
  Ho  Ho4  1  0.815211  0.184400  0.815211  1
  Ho  Ho5  1  0.185036  0.813956  0.185036  1
  Ho  Ho6  1  0.438586  0.064138  0.058690  1
  Ho  Ho7  1  0.185036  0.813956  0.815974  1
  Ho  Ho8  1  0.062603  0.437846  0.062603  1
  Ho  Ho9  1  0.815974  0.813956  0.185036  1
  Ho  Ho10  1  0.185276  0.603521  0.605601  1
  Ho  Ho11  1  0.062603  0.437846  0.436946  1
  Ho  Ho12  1  0.058690  0.064138  0.438586  1
  Ho  Ho13  1  0.815211  0.184400  0.185178  1
  Ho  Ho14  1  0.603574  0.189281  0.603574  1
  Ho  Ho15  1  0.605601  0.603521  0.605601  1
  Ag  Ag16  1  0.831980  0.831494  0.831980  1
  Ag  Ag17  1  0.831980  0.831494  0.504546  1
  Ag  Ag18  1  0.504546  0.831494  0.831980  1
  Ag  Ag19  1  0.832136  0.503592  0.832136  1
  Pt  Pt20  1  0.394316  0.817053  0.394316  1
  Rh  Rh21  1  0.393841  0.394670  0.393841  1
  Rh  Rh22  1  0.817648  0.394670  0.393841  1
  Rh  Rh23  1  0.393841  0.394670  0.817648  1
