# generated using pymatgen
data_Ho5TiRhO12
_symmetry_space_group_name_H-M   'P 1'
_cell_length_a   6.78004631
_cell_length_b   6.78004528
_cell_length_c   7.32979040
_cell_angle_alpha   74.21639272
_cell_angle_beta   74.21640334
_cell_angle_gamma   50.77755391
_symmetry_Int_Tables_number   1
_chemical_formula_structural   Ho5TiRhO12
_chemical_formula_sum   'Ho5 Ti1 Rh1 O12'
_cell_volume   248.91655738
_cell_formula_units_Z   1
loop_
 _symmetry_equiv_pos_site_id
 _symmetry_equiv_pos_as_xyz
  1  'x, y, z'
loop_
 _atom_site_type_symbol
 _atom_site_label
 _atom_site_symmetry_multiplicity
 _atom_site_fract_x
 _atom_site_fract_y
 _atom_site_fract_z
 _atom_site_occupancy
  Ho  Ho0  1  0.301843  0.305645  0.359747  1
  Ho  Ho1  1  0.694355  0.698157  0.640253  1
  Ho  Ho2  1  0.316835  0.305278  0.827200  1
  Ho  Ho3  1  0.694722  0.683165  0.172800  1
  Ho  Ho4  1  0.999753  0.000247  0.500000  1
  Ti  Ti5  1  0.223079  0.776921  0.000000  1
  Rh  Rh6  1  0.751885  0.248115  0.000000  1
  O  O7  1  0.906067  0.422599  0.915582  1
  O  O8  1  0.429589  0.900019  0.917062  1
  O  O9  1  0.099981  0.570411  0.082938  1
  O  O10  1  0.577401  0.093933  0.084418  1
  O  O11  1  0.099573  0.592167  0.576350  1
  O  O12  1  0.599195  0.094666  0.572548  1
  O  O13  1  0.905334  0.400805  0.427452  1
  O  O14  1  0.407833  0.900427  0.423650  1
  O  O15  1  0.999566  0.999080  0.808733  1
  O  O16  1  0.000920  0.000434  0.191267  1
  O  O17  1  0.496148  0.504078  0.813373  1
  O  O18  1  0.495922  0.503852  0.186627  1
