# generated using pymatgen
data_Sc5MnOsC7
_symmetry_space_group_name_H-M   'P 1'
_cell_length_a   7.72609284
_cell_length_b   7.72609422
_cell_length_c   3.25603500
_cell_angle_alpha   90.00000000
_cell_angle_beta   90.00000000
_cell_angle_gamma   121.09226774
_symmetry_Int_Tables_number   1
_chemical_formula_structural   Sc5MnOsC7
_chemical_formula_sum   'Sc5 Mn1 Os1 C7'
_cell_volume   166.43842101
_cell_formula_units_Z   1
loop_
 _symmetry_equiv_pos_site_id
 _symmetry_equiv_pos_as_xyz
  1  'x, y, z'
loop_
 _atom_site_type_symbol
 _atom_site_label
 _atom_site_symmetry_multiplicity
 _atom_site_fract_x
 _atom_site_fract_y
 _atom_site_fract_z
 _atom_site_occupancy
  Sc  Sc0  1  0.080911  0.339084  0.500000  1
  Sc  Sc1  1  0.343319  0.084244  0.500000  1
  Sc  Sc2  1  0.501182  0.498818  0.000000  1
  Sc  Sc3  1  0.915756  0.656681  0.500000  1
  Sc  Sc4  1  0.660916  0.919089  0.500000  1
  Mn  Mn5  1  0.711111  0.288889  0.000000  1
  Os  Os6  1  0.284916  0.715084  0.000000  1
  C  C7  1  0.998867  0.001133  0.000000  1
  C  C8  1  0.989123  0.489197  0.000000  1
  C  C9  1  0.510803  0.010877  0.000000  1
  C  C10  1  0.177580  0.178111  0.000000  1
  C  C11  1  0.821889  0.822420  0.000000  1
  C  C12  1  0.625102  0.374898  0.500000  1
  C  C13  1  0.378526  0.621474  0.500000  1
