# generated using pymatgen
data_Dy2Y2TcB12Ru
_symmetry_space_group_name_H-M   'P 1'
_cell_length_a   3.67966000
_cell_length_b   9.15815490
_cell_length_c   11.55005617
_cell_angle_alpha   89.85179999
_cell_angle_beta   90.00000000
_cell_angle_gamma   90.00000000
_symmetry_Int_Tables_number   1
_chemical_formula_structural   Dy2Y2TcB12Ru
_chemical_formula_sum   'Dy4 Y4 Tc2 B24 Ru2'
_cell_volume   389.22284266
_cell_formula_units_Z   2
loop_
 _symmetry_equiv_pos_site_id
 _symmetry_equiv_pos_as_xyz
  1  'x, y, z'
loop_
 _atom_site_type_symbol
 _atom_site_label
 _atom_site_symmetry_multiplicity
 _atom_site_fract_x
 _atom_site_fract_y
 _atom_site_fract_z
 _atom_site_occupancy
  Dy  Dy0  1  0.000000  0.942125  0.370367  1
  Dy  Dy1  1  0.000000  0.057875  0.629633  1
  Dy  Dy2  1  0.000000  0.442972  0.130212  1
  Dy  Dy3  1  0.000000  0.557028  0.869788  1
  Y  Y4  1  0.000000  0.325184  0.415645  1
  Y  Y5  1  0.000000  0.674816  0.584355  1
  Y  Y6  1  0.000000  0.821389  0.087372  1
  Y  Y7  1  0.000000  0.178611  0.912628  1
  Tc  Tc8  1  0.000000  0.638542  0.320222  1
  Tc  Tc9  1  0.000000  0.361458  0.679778  1
  B  B10  1  0.500000  0.553294  0.432859  1
  B  B11  1  0.500000  0.446706  0.567141  1
  B  B12  1  0.500000  0.053984  0.067147  1
  B  B13  1  0.500000  0.946016  0.932853  1
  B  B14  1  0.500000  0.748352  0.418701  1
  B  B15  1  0.500000  0.251648  0.581299  1
  B  B16  1  0.500000  0.248329  0.081323  1
  B  B17  1  0.500000  0.751671  0.918677  1
  B  B18  1  0.500000  0.791234  0.265383  1
  B  B19  1  0.500000  0.208766  0.734617  1
  B  B20  1  0.500000  0.290303  0.234112  1
  B  B21  1  0.500000  0.709697  0.765888  1
  B  B22  1  0.500000  0.631341  0.185385  1
  B  B23  1  0.500000  0.368659  0.814615  1
  B  B24  1  0.500000  0.131033  0.313774  1
  B  B25  1  0.500000  0.868967  0.686226  1
  B  B26  1  0.500000  0.983524  0.211829  1
  B  B27  1  0.500000  0.016476  0.788171  1
  B  B28  1  0.500000  0.483064  0.287676  1
  B  B29  1  0.500000  0.516936  0.712324  1
  B  B30  1  0.500000  0.603739  0.028597  1
  B  B31  1  0.500000  0.396261  0.971403  1
  B  B32  1  0.500000  0.103813  0.471077  1
  B  B33  1  0.500000  0.896187  0.528923  1
  Ru  Ru34  1  0.000000  0.137747  0.178415  1
  Ru  Ru35  1  0.000000  0.862253  0.821585  1
