# generated using pymatgen
data_Lu4Cu3PtPb2
_symmetry_space_group_name_H-M   'P 1'
_cell_length_a   7.67975754
_cell_length_b   7.67827300
_cell_length_c   7.11211830
_cell_angle_alpha   90.00000000
_cell_angle_beta   90.04847790
_cell_angle_gamma   90.00000000
_symmetry_Int_Tables_number   1
_chemical_formula_structural   Lu4Cu3PtPb2
_chemical_formula_sum   'Lu8 Cu6 Pt2 Pb4'
_cell_volume   419.38208561
_cell_formula_units_Z   2
loop_
 _symmetry_equiv_pos_site_id
 _symmetry_equiv_pos_as_xyz
  1  'x, y, z'
loop_
 _atom_site_type_symbol
 _atom_site_label
 _atom_site_symmetry_multiplicity
 _atom_site_fract_x
 _atom_site_fract_y
 _atom_site_fract_z
 _atom_site_occupancy
  Lu  Lu0  1  0.677886  0.683995  0.999207  1
  Lu  Lu1  1  0.340140  0.346272  0.505436  1
  Lu  Lu2  1  0.820912  0.173321  0.496145  1
  Lu  Lu3  1  0.658699  0.665056  0.501971  1
  Lu  Lu4  1  0.320912  0.326679  0.996145  1
  Lu  Lu5  1  0.177886  0.816005  0.499207  1
  Lu  Lu6  1  0.840140  0.153728  0.005436  1
  Lu  Lu7  1  0.158699  0.834944  0.001971  1
  Cu  Cu8  1  0.885076  0.881824  0.727269  1
  Cu  Cu9  1  0.118429  0.119048  0.726591  1
  Cu  Cu10  1  0.629214  0.376469  0.778016  1
  Cu  Cu11  1  0.618429  0.380952  0.226591  1
  Cu  Cu12  1  0.385076  0.618176  0.227269  1
  Cu  Cu13  1  0.129214  0.123531  0.278016  1
  Pt  Pt14  1  0.879951  0.879777  0.269756  1
  Pt  Pt15  1  0.379951  0.620223  0.769756  1
  Pb  Pb16  1  0.497785  0.008314  0.747637  1
  Pb  Pb17  1  0.491910  0.005578  0.247973  1
  Pb  Pb18  1  0.991910  0.494422  0.747973  1
  Pb  Pb19  1  0.997785  0.491686  0.247637  1
