# generated using pymatgen
data_U4GaGeIr6
_symmetry_space_group_name_H-M   'P 1'
_cell_length_a   5.57452300
_cell_length_b   5.57461873
_cell_length_c   7.86657300
_cell_angle_alpha   89.99864419
_cell_angle_beta   90.00063910
_cell_angle_gamma   120.00029679
_symmetry_Int_Tables_number   1
_chemical_formula_structural   U4GaGeIr6
_chemical_formula_sum   'U4 Ga1 Ge1 Ir6'
_cell_volume   211.70825446
_cell_formula_units_Z   1
loop_
 _symmetry_equiv_pos_site_id
 _symmetry_equiv_pos_as_xyz
  1  'x, y, z'
loop_
 _atom_site_type_symbol
 _atom_site_label
 _atom_site_symmetry_multiplicity
 _atom_site_fract_x
 _atom_site_fract_y
 _atom_site_fract_z
 _atom_site_occupancy
  U  U0  1  0.666634  0.333275  0.573352  1
  U  U1  1  0.333366  0.666725  0.426648  1
  U  U2  1  0.333343  0.666706  0.071821  1
  U  U3  1  0.666657  0.333294  0.928179  1
  Ga  Ga4  1  0.000000  0.000000  0.000000  1
  Ge  Ge5  1  0.000000  0.000000  0.500000  1
  Ir  Ir6  1  0.170304  0.340609  0.749635  1
  Ir  Ir7  1  0.659302  0.829588  0.749638  1
  Ir  Ir8  1  0.170283  0.829590  0.749639  1
  Ir  Ir9  1  0.829696  0.659391  0.250365  1
  Ir  Ir10  1  0.340698  0.170412  0.250362  1
  Ir  Ir11  1  0.829717  0.170410  0.250361  1
