# generated using pymatgen
data_DyRuF7
_symmetry_space_group_name_H-M   'P 1'
_cell_length_a   5.52274300
_cell_length_b   8.91938541
_cell_length_c   11.98888566
_cell_angle_alpha   62.82019049
_cell_angle_beta   90.00000000
_cell_angle_gamma   90.00000000
_symmetry_Int_Tables_number   1
_chemical_formula_structural   DyRuF7
_chemical_formula_sum   'Dy4 Ru4 F28'
_cell_volume   525.35433571
_cell_formula_units_Z   4
loop_
 _symmetry_equiv_pos_site_id
 _symmetry_equiv_pos_as_xyz
  1  'x, y, z'
loop_
 _atom_site_type_symbol
 _atom_site_label
 _atom_site_symmetry_multiplicity
 _atom_site_fract_x
 _atom_site_fract_y
 _atom_site_fract_z
 _atom_site_occupancy
  Dy  Dy0  1  0.758791  0.811540  0.767316  1
  Dy  Dy1  1  0.258791  0.188460  0.732684  1
  Dy  Dy2  1  0.241209  0.188460  0.232684  1
  Dy  Dy3  1  0.741209  0.811540  0.267316  1
  Ru  Ru4  1  0.756936  0.272659  0.956119  1
  Ru  Ru5  1  0.256936  0.727341  0.543881  1
  Ru  Ru6  1  0.243064  0.727341  0.043881  1
  Ru  Ru7  1  0.743064  0.272659  0.456119  1
  F  F8  1  0.440278  0.705956  0.915784  1
  F  F9  1  0.940278  0.294044  0.584216  1
  F  F10  1  0.559722  0.294044  0.084216  1
  F  F11  1  0.059722  0.705956  0.415784  1
  F  F12  1  0.443419  0.276571  0.544989  1
  F  F13  1  0.943419  0.723429  0.955011  1
  F  F14  1  0.556581  0.723429  0.455011  1
  F  F15  1  0.056581  0.276571  0.044989  1
  F  F16  1  0.773257  0.513330  0.861529  1
  F  F17  1  0.273257  0.486670  0.638471  1
  F  F18  1  0.226743  0.486670  0.138471  1
  F  F19  1  0.726743  0.513330  0.361529  1
  F  F20  1  0.755928  0.032644  0.049066  1
  F  F21  1  0.255928  0.967356  0.450934  1
  F  F22  1  0.244072  0.967356  0.950934  1
  F  F23  1  0.744072  0.032644  0.549066  1
  F  F24  1  0.965983  0.727573  0.638172  1
  F  F25  1  0.465983  0.272427  0.861828  1
  F  F26  1  0.034017  0.272427  0.361828  1
  F  F27  1  0.534017  0.727573  0.138172  1
  F  F28  1  0.048283  0.747447  0.174340  1
  F  F29  1  0.548283  0.252553  0.325660  1
  F  F30  1  0.951717  0.252553  0.825660  1
  F  F31  1  0.451717  0.747447  0.674340  1
  F  F32  1  0.416568  0.970741  0.231547  1
  F  F33  1  0.916568  0.029259  0.268453  1
  F  F34  1  0.583432  0.029259  0.768453  1
  F  F35  1  0.083432  0.970741  0.731547  1
