# generated using pymatgen
data_Nb3GePdN
_symmetry_space_group_name_H-M   'P 1'
_cell_length_a   7.05514000
_cell_length_b   7.05514000
_cell_length_c   7.05514000
_cell_angle_alpha   90.00000000
_cell_angle_beta   90.00000000
_cell_angle_gamma   90.00000000
_symmetry_Int_Tables_number   1
_chemical_formula_structural   Nb3GePdN
_chemical_formula_sum   'Nb12 Ge4 Pd4 N4'
_cell_volume   351.16959646
_cell_formula_units_Z   4
loop_
 _symmetry_equiv_pos_site_id
 _symmetry_equiv_pos_as_xyz
  1  'x, y, z'
loop_
 _atom_site_type_symbol
 _atom_site_label
 _atom_site_symmetry_multiplicity
 _atom_site_fract_x
 _atom_site_fract_y
 _atom_site_fract_z
 _atom_site_occupancy
  Nb  Nb0  1  0.786699  0.954551  0.379830  1
  Nb  Nb1  1  0.713301  0.045449  0.879830  1
  Nb  Nb2  1  0.213301  0.454551  0.120170  1
  Nb  Nb3  1  0.286699  0.545449  0.620170  1
  Nb  Nb4  1  0.954551  0.379830  0.786699  1
  Nb  Nb5  1  0.045449  0.879830  0.713301  1
  Nb  Nb6  1  0.454551  0.120170  0.213301  1
  Nb  Nb7  1  0.545449  0.620170  0.286699  1
  Nb  Nb8  1  0.379830  0.786699  0.954551  1
  Nb  Nb9  1  0.879830  0.713301  0.045449  1
  Nb  Nb10  1  0.120170  0.213301  0.454551  1
  Nb  Nb11  1  0.620170  0.286699  0.545449  1
  Ge  Ge12  1  0.572437  0.427563  0.927563  1
  Ge  Ge13  1  0.427563  0.927563  0.572437  1
  Ge  Ge14  1  0.927563  0.572437  0.427563  1
  Ge  Ge15  1  0.072437  0.072437  0.072437  1
  Pd  Pd16  1  0.180022  0.819978  0.319978  1
  Pd  Pd17  1  0.319978  0.180022  0.819978  1
  Pd  Pd18  1  0.819978  0.319978  0.180022  1
  Pd  Pd19  1  0.680022  0.680022  0.680022  1
  N  N20  1  0.875395  0.124605  0.624605  1
  N  N21  1  0.624605  0.875395  0.124605  1
  N  N22  1  0.124605  0.624605  0.875395  1
  N  N23  1  0.375395  0.375395  0.375395  1
