# generated using pymatgen
data_PrY(Co3Si2)2
_symmetry_space_group_name_H-M   'P 1'
_cell_length_a   6.33637363
_cell_length_b   6.33637420
_cell_length_c   6.33657066
_cell_angle_alpha   130.43903009
_cell_angle_beta   113.90891616
_cell_angle_gamma   86.90709991
_symmetry_Int_Tables_number   1
_chemical_formula_structural   PrY(Co3Si2)2
_chemical_formula_sum   'Pr1 Y1 Co6 Si4'
_cell_volume   168.84720127
_cell_formula_units_Z   1
loop_
 _symmetry_equiv_pos_site_id
 _symmetry_equiv_pos_as_xyz
  1  'x, y, z'
loop_
 _atom_site_type_symbol
 _atom_site_label
 _atom_site_symmetry_multiplicity
 _atom_site_fract_x
 _atom_site_fract_y
 _atom_site_fract_z
 _atom_site_occupancy
  Pr  Pr0  1  0.750088  0.471813  0.721901  1
  Y  Y1  1  0.250042  0.532813  0.282854  1
  Co  Co2  1  0.999523  0.998852  0.498376  1
  Co  Co3  1  0.500565  0.998792  0.999357  1
  Co  Co4  1  0.722334  0.997381  0.722572  1
  Co  Co5  1  0.225191  0.500237  0.722572  1
  Co  Co6  1  0.274670  0.997380  0.275040  1
  Co  Co7  1  0.777660  0.500370  0.275040  1
  Si  Si8  1  0.083039  0.876581  0.793430  1
  Si  Si9  1  0.922566  0.130241  0.207715  1
  Si  Si10  1  0.577474  0.785150  0.207715  1
  Si  Si11  1  0.416849  0.210390  0.793430  1
