# generated using pymatgen
data_Hf18Re8SiP
_symmetry_space_group_name_H-M   'P 1'
_cell_length_a   8.54970100
_cell_length_b   8.54970102
_cell_length_c   8.65584000
_cell_angle_alpha   90.00000000
_cell_angle_beta   90.00000000
_cell_angle_gamma   120.00000378
_symmetry_Int_Tables_number   1
_chemical_formula_structural   Hf18Re8SiP
_chemical_formula_sum   'Hf18 Re8 Si1 P1'
_cell_volume   547.95095751
_cell_formula_units_Z   1
loop_
 _symmetry_equiv_pos_site_id
 _symmetry_equiv_pos_as_xyz
  1  'x, y, z'
loop_
 _atom_site_type_symbol
 _atom_site_label
 _atom_site_symmetry_multiplicity
 _atom_site_fract_x
 _atom_site_fract_y
 _atom_site_fract_z
 _atom_site_occupancy
  Hf  Hf0  1  0.195466  0.804534  0.453010  1
  Hf  Hf1  1  0.195466  0.390931  0.453010  1
  Hf  Hf2  1  0.609069  0.804534  0.453010  1
  Hf  Hf3  1  0.803417  0.196583  0.548237  1
  Hf  Hf4  1  0.803417  0.606834  0.548237  1
  Hf  Hf5  1  0.393166  0.196583  0.548237  1
  Hf  Hf6  1  0.803417  0.196583  0.951763  1
  Hf  Hf7  1  0.803417  0.606834  0.951763  1
  Hf  Hf8  1  0.393166  0.196583  0.951763  1
  Hf  Hf9  1  0.195466  0.804534  0.046990  1
  Hf  Hf10  1  0.195466  0.390931  0.046990  1
  Hf  Hf11  1  0.609069  0.804534  0.046990  1
  Hf  Hf12  1  0.539199  0.460801  0.250000  1
  Hf  Hf13  1  0.539199  0.078397  0.250000  1
  Hf  Hf14  1  0.921603  0.460801  0.250000  1
  Hf  Hf15  1  0.460368  0.539632  0.750000  1
  Hf  Hf16  1  0.460368  0.920736  0.750000  1
  Hf  Hf17  1  0.079264  0.539632  0.750000  1
  Re  Re18  1  0.890572  0.109428  0.250000  1
  Re  Re19  1  0.890572  0.781143  0.250000  1
  Re  Re20  1  0.218857  0.109428  0.250000  1
  Re  Re21  1  0.109449  0.890551  0.750000  1
  Re  Re22  1  0.109449  0.218899  0.750000  1
  Re  Re23  1  0.781101  0.890551  0.750000  1
  Re  Re24  1  0.000000  0.000000  0.500023  1
  Re  Re25  1  0.000000  0.000000  0.999977  1
  Si  Si26  1  0.333333  0.666667  0.250000  1
  P  P27  1  0.666667  0.333333  0.750000  1
