# generated using pymatgen
data_Cs2V(TeO4)3
_symmetry_space_group_name_H-M   'P 1'
_cell_length_a   7.20811542
_cell_length_b   7.20811566
_cell_length_c   7.20811680
_cell_angle_alpha   61.08935638
_cell_angle_beta   61.08935234
_cell_angle_gamma   61.08936115
_symmetry_Int_Tables_number   1
_chemical_formula_structural   Cs2V(TeO4)3
_chemical_formula_sum   'Cs2 V1 Te3 O12'
_cell_volume   271.31380890
_cell_formula_units_Z   1
loop_
 _symmetry_equiv_pos_site_id
 _symmetry_equiv_pos_as_xyz
  1  'x, y, z'
loop_
 _atom_site_type_symbol
 _atom_site_label
 _atom_site_symmetry_multiplicity
 _atom_site_fract_x
 _atom_site_fract_y
 _atom_site_fract_z
 _atom_site_occupancy
  Cs  Cs0  1  0.128802  0.128802  0.128802  1
  Cs  Cs1  1  0.871198  0.871198  0.871198  1
  V  V2  1  0.500000  0.500000  0.500000  1
  Te  Te3  1  0.000000  0.500000  0.500000  1
  Te  Te4  1  0.500000  0.500000  0.000000  1
  Te  Te5  1  0.500000  0.000000  0.500000  1
  O  O6  1  0.432645  0.818013  0.432645  1
  O  O7  1  0.824360  0.431554  0.824360  1
  O  O8  1  0.431554  0.824360  0.824360  1
  O  O9  1  0.818013  0.432645  0.432645  1
  O  O10  1  0.824360  0.824360  0.431554  1
  O  O11  1  0.432645  0.432645  0.818013  1
  O  O12  1  0.567355  0.181987  0.567355  1
  O  O13  1  0.175640  0.568446  0.175640  1
  O  O14  1  0.568446  0.175640  0.175640  1
  O  O15  1  0.181987  0.567355  0.567355  1
  O  O16  1  0.175640  0.175640  0.568446  1
  O  O17  1  0.567355  0.567355  0.181987  1
