# generated using pymatgen
data_V4TcOs3O20
_symmetry_space_group_name_H-M   'P 1'
_cell_length_a   5.45485500
_cell_length_b   6.88544373
_cell_length_c   11.90299125
_cell_angle_alpha   90.05262595
_cell_angle_beta   90.00000000
_cell_angle_gamma   90.00000000
_symmetry_Int_Tables_number   1
_chemical_formula_structural   V4TcOs3O20
_chemical_formula_sum   'V4 Tc1 Os3 O20'
_cell_volume   447.06541619
_cell_formula_units_Z   1
loop_
 _symmetry_equiv_pos_site_id
 _symmetry_equiv_pos_as_xyz
  1  'x, y, z'
loop_
 _atom_site_type_symbol
 _atom_site_label
 _atom_site_symmetry_multiplicity
 _atom_site_fract_x
 _atom_site_fract_y
 _atom_site_fract_z
 _atom_site_occupancy
  V  V0  1  0.250000  0.967597  0.844386  1
  V  V1  1  0.750000  0.032362  0.156307  1
  V  V2  1  0.750000  0.468580  0.655944  1
  V  V3  1  0.250000  0.532014  0.343640  1
  Tc  Tc4  1  0.250000  0.151869  0.555516  1
  Os  Os5  1  0.750000  0.845052  0.443553  1
  Os  Os6  1  0.750000  0.653473  0.943087  1
  Os  Os7  1  0.250000  0.346168  0.057006  1
  O  O8  1  0.250000  0.183377  0.919800  1
  O  O9  1  0.750000  0.817079  0.080384  1
  O  O10  1  0.750000  0.683959  0.580504  1
  O  O11  1  0.250000  0.318174  0.418605  1
  O  O12  1  0.250000  0.011140  0.702112  1
  O  O13  1  0.750000  0.987852  0.299199  1
  O  O14  1  0.750000  0.511702  0.801785  1
  O  O15  1  0.250000  0.488605  0.198181  1
  O  O16  1  0.000044  0.499957  0.000007  1
  O  O17  1  0.499956  0.499957  0.000007  1
  O  O18  1  0.000590  0.999316  0.499807  1
  O  O19  1  0.499410  0.999316  0.499807  1
  O  O20  1  0.005259  0.172184  0.118026  1
  O  O21  1  0.505450  0.827434  0.882215  1
  O  O22  1  0.996030  0.671208  0.380600  1
  O  O23  1  0.496528  0.330399  0.619340  1
  O  O24  1  0.994550  0.827434  0.882215  1
  O  O25  1  0.494741  0.172184  0.118026  1
  O  O26  1  0.003472  0.330399  0.619340  1
  O  O27  1  0.503970  0.671208  0.380600  1
