# generated using pymatgen
data_DyHo3Ga4(IrPt)2
_symmetry_space_group_name_H-M   'P 1'
_cell_length_a   4.41730900
_cell_length_b   6.80771580
_cell_length_c   7.71060278
_cell_angle_alpha   90.17319359
_cell_angle_beta   90.00000000
_cell_angle_gamma   90.00000000
_symmetry_Int_Tables_number   1
_chemical_formula_structural   DyHo3Ga4(IrPt)2
_chemical_formula_sum   'Dy1 Ho3 Ga4 Ir2 Pt2'
_cell_volume   231.87052405
_cell_formula_units_Z   1
loop_
 _symmetry_equiv_pos_site_id
 _symmetry_equiv_pos_as_xyz
  1  'x, y, z'
loop_
 _atom_site_type_symbol
 _atom_site_label
 _atom_site_symmetry_multiplicity
 _atom_site_fract_x
 _atom_site_fract_y
 _atom_site_fract_z
 _atom_site_occupancy
  Dy  Dy0  1  0.250000  0.478719  0.190516  1
  Ho  Ho1  1  0.250000  0.978554  0.309653  1
  Ho  Ho2  1  0.750000  0.014320  0.697358  1
  Ho  Ho3  1  0.750000  0.514588  0.802480  1
  Ga  Ga4  1  0.250000  0.336696  0.575540  1
  Ga  Ga5  1  0.250000  0.836789  0.924521  1
  Ga  Ga6  1  0.750000  0.669526  0.430001  1
  Ga  Ga7  1  0.750000  0.169171  0.070004  1
  Ir  Ir8  1  0.250000  0.227470  0.896761  1
  Ir  Ir9  1  0.250000  0.728013  0.602354  1
  Pt  Pt10  1  0.750000  0.774047  0.103305  1
  Pt  Pt11  1  0.750000  0.272106  0.397506  1
