# generated using pymatgen
data_Hf6Nb4(GaGe)3
_symmetry_space_group_name_H-M   'P 1'
_cell_length_a   7.93246300
_cell_length_b   7.93035503
_cell_length_c   5.43464400
_cell_angle_alpha   90.00000000
_cell_angle_beta   90.00000000
_cell_angle_gamma   120.00879750
_symmetry_Int_Tables_number   1
_chemical_formula_structural   Hf6Nb4(GaGe)3
_chemical_formula_sum   'Hf6 Nb4 Ga3 Ge3'
_cell_volume   296.04921301
_cell_formula_units_Z   1
loop_
 _symmetry_equiv_pos_site_id
 _symmetry_equiv_pos_as_xyz
  1  'x, y, z'
loop_
 _atom_site_type_symbol
 _atom_site_label
 _atom_site_symmetry_multiplicity
 _atom_site_fract_x
 _atom_site_fract_y
 _atom_site_fract_z
 _atom_site_occupancy
  Hf  Hf0  1  0.748584  0.748584  0.250000  1
  Hf  Hf1  1  0.748045  0.000000  0.750000  1
  Hf  Hf2  1  0.999999  0.251416  0.250000  1
  Hf  Hf3  1  0.250045  0.250184  0.750000  1
  Hf  Hf4  1  0.249847  0.000000  0.250000  1
  Hf  Hf5  1  0.999862  0.749816  0.750000  1
  Nb  Nb6  1  0.667255  0.333422  0.999890  1
  Nb  Nb7  1  0.667255  0.333422  0.500110  1
  Nb  Nb8  1  0.333832  0.666578  0.500110  1
  Nb  Nb9  1  0.333832  0.666578  0.999890  1
  Ga  Ga10  1  0.000805  0.605786  0.250000  1
  Ga  Ga11  1  0.395019  0.394214  0.250000  1
  Ga  Ga12  1  0.394296  0.000000  0.750000  1
  Ge  Ge13  1  0.604834  0.000000  0.250000  1
  Ge  Ge14  1  0.605677  0.604865  0.750000  1
  Ge  Ge15  1  0.000812  0.395135  0.750000  1
