# generated using pymatgen
data_Sr6Sn8SbCl
_symmetry_space_group_name_H-M   'P 1'
_cell_length_a   8.95531998
_cell_length_b   8.95531944
_cell_length_c   8.95531974
_cell_angle_alpha   119.95935063
_cell_angle_beta   119.95935143
_cell_angle_gamma   90.07042188
_symmetry_Int_Tables_number   1
_chemical_formula_structural   Sr6Sn8SbCl
_chemical_formula_sum   'Sr6 Sn8 Sb1 Cl1'
_cell_volume   508.15321857
_cell_formula_units_Z   1
loop_
 _symmetry_equiv_pos_site_id
 _symmetry_equiv_pos_as_xyz
  1  'x, y, z'
loop_
 _atom_site_type_symbol
 _atom_site_label
 _atom_site_symmetry_multiplicity
 _atom_site_fract_x
 _atom_site_fract_y
 _atom_site_fract_z
 _atom_site_occupancy
  Sr  Sr0  1  0.257021  0.257021  0.000000  1
  Sr  Sr1  1  0.742979  0.742979  0.000000  1
  Sr  Sr2  1  0.162641  0.664535  0.827177  1
  Sr  Sr3  1  0.837359  0.335465  0.172823  1
  Sr  Sr4  1  0.664535  0.837359  0.501894  1
  Sr  Sr5  1  0.335465  0.162641  0.498106  1
  Sn  Sn6  1  0.831947  0.329988  0.785011  1
  Sn  Sn7  1  0.168053  0.670012  0.214989  1
  Sn  Sn8  1  0.544978  0.046936  0.214989  1
  Sn  Sn9  1  0.329988  0.544978  0.498042  1
  Sn  Sn10  1  0.953064  0.168053  0.498042  1
  Sn  Sn11  1  0.455022  0.953064  0.785011  1
  Sn  Sn12  1  0.670012  0.455022  0.501958  1
  Sn  Sn13  1  0.046936  0.831947  0.501958  1
  Sb  Sb14  1  0.000000  0.000000  0.000000  1
  Cl  Cl15  1  0.500000  0.500000  0.000000  1
