# generated using pymatgen
data_Re2Ir2OsRu3
_symmetry_space_group_name_H-M   'P 1'
_cell_length_a   5.49713572
_cell_length_b   5.51020857
_cell_length_c   4.37532300
_cell_angle_alpha   90.00000000
_cell_angle_beta   90.00000000
_cell_angle_gamma   120.08650239
_symmetry_Int_Tables_number   1
_chemical_formula_structural   Re2Ir2OsRu3
_chemical_formula_sum   'Re2 Ir2 Os1 Ru3'
_cell_volume   114.67428295
_cell_formula_units_Z   1
loop_
 _symmetry_equiv_pos_site_id
 _symmetry_equiv_pos_as_xyz
  1  'x, y, z'
loop_
 _atom_site_type_symbol
 _atom_site_label
 _atom_site_symmetry_multiplicity
 _atom_site_fract_x
 _atom_site_fract_y
 _atom_site_fract_z
 _atom_site_occupancy
  Re  Re0  1  0.333025  0.666910  0.750000  1
  Re  Re1  1  0.669693  0.332085  0.250000  1
  Ir  Ir2  1  0.832981  0.665360  0.750000  1
  Ir  Ir3  1  0.334873  0.166237  0.750000  1
  Os  Os4  1  0.166122  0.336219  0.250000  1
  Ru  Ru5  1  0.664955  0.833332  0.250000  1
  Ru  Ru6  1  0.167181  0.832568  0.250000  1
  Ru  Ru7  1  0.831171  0.167289  0.750000  1
