# generated using pymatgen
data_Re3I8Br
_symmetry_space_group_name_H-M   'P 1'
_cell_length_a   11.31788773
_cell_length_b   9.52854590
_cell_length_c   10.09591228
_cell_angle_alpha   70.50724849
_cell_angle_beta   89.99230764
_cell_angle_gamma   89.91102740
_symmetry_Int_Tables_number   1
_chemical_formula_structural   Re3I8Br
_chemical_formula_sum   'Re6 I16 Br2'
_cell_volume   1026.36781464
_cell_formula_units_Z   2
loop_
 _symmetry_equiv_pos_site_id
 _symmetry_equiv_pos_as_xyz
  1  'x, y, z'
loop_
 _atom_site_type_symbol
 _atom_site_label
 _atom_site_symmetry_multiplicity
 _atom_site_fract_x
 _atom_site_fract_y
 _atom_site_fract_z
 _atom_site_occupancy
  Re  Re0  1  0.749597  0.158429  0.656264  1
  Re  Re1  1  0.860851  0.158256  0.866779  1
  Re  Re2  1  0.360926  0.841658  0.134078  1
  Re  Re3  1  0.139526  0.841319  0.133836  1
  Re  Re4  1  0.638635  0.158008  0.867021  1
  Re  Re5  1  0.250256  0.842555  0.343541  1
  I  I6  1  0.409329  0.142801  0.018506  1
  I  I7  1  0.993911  0.158359  0.636749  1
  I  I8  1  0.251403  0.573557  0.520870  1
  I  I9  1  0.590152  0.856414  0.983390  1
  I  I10  1  0.749820  0.148646  0.112766  1
  I  I11  1  0.006050  0.843451  0.363183  1
  I  I12  1  0.251115  0.849509  0.888174  1
  I  I13  1  0.749089  0.425914  0.475451  1
  I  I14  1  0.494691  0.842549  0.363201  1
  I  I15  1  0.588027  0.443984  0.812378  1
  I  I16  1  0.092689  0.554889  0.189494  1
  I  I17  1  0.089955  0.143293  0.016966  1
  I  I18  1  0.911019  0.856483  0.983655  1
  I  I19  1  0.505170  0.158357  0.637157  1
  I  I20  1  0.910435  0.444383  0.811631  1
  I  I21  1  0.750014  0.895097  0.624566  1
  Br  Br22  1  0.407239  0.576141  0.186295  1
  Br  Br23  1  0.250100  0.085948  0.374048  1
