# generated using pymatgen
data_Tb3Ho(Tm4Bi3)4
_symmetry_space_group_name_H-M   'P 1'
_cell_length_a   8.19404402
_cell_length_b   9.44329300
_cell_length_c   11.92617703
_cell_angle_alpha   90.00000000
_cell_angle_beta   89.99122255
_cell_angle_gamma   90.00000000
_symmetry_Int_Tables_number   1
_chemical_formula_structural   Tb3Ho(Tm4Bi3)4
_chemical_formula_sum   'Tb3 Ho1 Tm16 Bi12'
_cell_volume   922.83276267
_cell_formula_units_Z   1
loop_
 _symmetry_equiv_pos_site_id
 _symmetry_equiv_pos_as_xyz
  1  'x, y, z'
loop_
 _atom_site_type_symbol
 _atom_site_label
 _atom_site_symmetry_multiplicity
 _atom_site_fract_x
 _atom_site_fract_y
 _atom_site_fract_z
 _atom_site_occupancy
  Tb  Tb0  1  0.314028  0.250000  0.218222  1
  Tb  Tb1  1  0.814018  0.250000  0.281752  1
  Tb  Tb2  1  0.686079  0.750000  0.781806  1
  Ho  Ho3  1  0.186135  0.750000  0.717941  1
  Tm  Tm4  1  0.353506  0.750000  0.217535  1
  Tm  Tm5  1  0.853582  0.750000  0.282490  1
  Tm  Tm6  1  0.646452  0.250000  0.782469  1
  Tm  Tm7  1  0.146427  0.250000  0.717531  1
  Tm  Tm8  1  0.692076  0.565783  0.059650  1
  Tm  Tm9  1  0.192143  0.934186  0.440417  1
  Tm  Tm10  1  0.307895  0.065790  0.940294  1
  Tm  Tm11  1  0.807832  0.434170  0.559656  1
  Tm  Tm12  1  0.307895  0.434210  0.940294  1
  Tm  Tm13  1  0.807832  0.065830  0.559656  1
  Tm  Tm14  1  0.692076  0.934217  0.059650  1
  Tm  Tm15  1  0.192143  0.565814  0.440417  1
  Tm  Tm16  1  0.476764  0.250000  0.489479  1
  Tm  Tm17  1  0.976832  0.250000  0.010543  1
  Tm  Tm18  1  0.523078  0.750000  0.510670  1
  Tm  Tm19  1  0.023266  0.750000  0.989345  1
  Bi  Bi20  1  0.403780  0.750000  0.958670  1
  Bi  Bi21  1  0.904525  0.750000  0.541535  1
  Bi  Bi22  1  0.595982  0.250000  0.041152  1
  Bi  Bi23  1  0.095938  0.250000  0.458854  1
  Bi  Bi24  1  0.566032  0.994929  0.326190  1
  Bi  Bi25  1  0.065978  0.505043  0.173860  1
  Bi  Bi26  1  0.433576  0.495301  0.673900  1
  Bi  Bi27  1  0.934273  0.004808  0.826036  1
  Bi  Bi28  1  0.433576  0.004699  0.673900  1
  Bi  Bi29  1  0.934273  0.495192  0.826036  1
  Bi  Bi30  1  0.566032  0.505071  0.326190  1
  Bi  Bi31  1  0.065978  0.994957  0.173860  1
