# generated using pymatgen
data_Nd2Ga7CoNiAg
_symmetry_space_group_name_H-M   'P 1'
_cell_length_a   4.20841856
_cell_length_b   6.46685940
_cell_length_c   8.19349632
_cell_angle_alpha   90.72261804
_cell_angle_beta   104.88113823
_cell_angle_gamma   90.00000202
_symmetry_Int_Tables_number   1
_chemical_formula_structural   Nd2Ga7CoNiAg
_chemical_formula_sum   'Nd2 Ga7 Co1 Ni1 Ag1'
_cell_volume   215.49084108
_cell_formula_units_Z   1
loop_
 _symmetry_equiv_pos_site_id
 _symmetry_equiv_pos_as_xyz
  1  'x, y, z'
loop_
 _atom_site_type_symbol
 _atom_site_label
 _atom_site_symmetry_multiplicity
 _atom_site_fract_x
 _atom_site_fract_y
 _atom_site_fract_z
 _atom_site_occupancy
  Nd  Nd0  1  0.880287  0.761381  0.760572  1
  Nd  Nd1  1  0.120450  0.238078  0.240901  1
  Ga  Ga2  1  0.498891  0.002486  0.997782  1
  Ga  Ga3  1  0.073104  0.737988  0.146210  1
  Ga  Ga4  1  0.927811  0.260978  0.855620  1
  Ga  Ga5  1  0.687936  0.548417  0.375873  1
  Ga  Ga6  1  0.311764  0.454027  0.623528  1
  Ga  Ga7  1  0.689363  0.943500  0.378727  1
  Ga  Ga8  1  0.310969  0.053269  0.621938  1
  Co  Co9  1  0.220857  0.750122  0.441714  1
  Ni  Ni10  1  0.779023  0.251253  0.558047  1
  Ag  Ag11  1  0.499544  0.498501  0.999089  1
