# generated using pymatgen
data_ThCd3Pd8
_symmetry_space_group_name_H-M   'P 1'
_cell_length_a   4.22004605
_cell_length_b   5.80263658
_cell_length_c   17.31533388
_cell_angle_alpha   89.95227535
_cell_angle_beta   89.99631396
_cell_angle_gamma   90.02649716
_symmetry_Int_Tables_number   1
_chemical_formula_structural   ThCd3Pd8
_chemical_formula_sum   'Th2 Cd6 Pd16'
_cell_volume   424.00720193
_cell_formula_units_Z   2
loop_
 _symmetry_equiv_pos_site_id
 _symmetry_equiv_pos_as_xyz
  1  'x, y, z'
loop_
 _atom_site_type_symbol
 _atom_site_label
 _atom_site_symmetry_multiplicity
 _atom_site_fract_x
 _atom_site_fract_y
 _atom_site_fract_z
 _atom_site_occupancy
  Th  Th0  1  0.523946  0.843832  0.206156  1
  Th  Th1  1  0.528074  0.234213  0.706101  1
  Cd  Cd2  1  0.524100  0.339172  0.042803  1
  Cd  Cd3  1  0.525650  0.338236  0.369431  1
  Cd  Cd4  1  0.026882  0.040317  0.456011  1
  Cd  Cd5  1  0.527964  0.742255  0.542895  1
  Cd  Cd6  1  0.526306  0.738593  0.869492  1
  Cd  Cd7  1  0.025166  0.039307  0.956017  1
  Pd  Pd8  1  0.524204  0.829282  0.036278  1
  Pd  Pd9  1  0.023586  0.099891  0.120923  1
  Pd  Pd10  1  0.023740  0.592981  0.121840  1
  Pd  Pd11  1  0.523795  0.345107  0.206107  1
  Pd  Pd12  1  0.024658  0.591941  0.290640  1
  Pd  Pd13  1  0.024456  0.098857  0.291196  1
  Pd  Pd14  1  0.525881  0.828079  0.376081  1
  Pd  Pd15  1  0.026944  0.540241  0.456348  1
  Pd  Pd16  1  0.527858  0.252512  0.536218  1
  Pd  Pd17  1  0.028383  0.980933  0.620794  1
  Pd  Pd18  1  0.028386  0.487718  0.621979  1
  Pd  Pd19  1  0.528263  0.732827  0.706193  1
  Pd  Pd20  1  0.027360  0.483981  0.790735  1
  Pd  Pd21  1  0.027491  0.976879  0.791089  1
  Pd  Pd22  1  0.526178  0.248471  0.875939  1
  Pd  Pd23  1  0.025064  0.539340  0.956272  1
