# generated using pymatgen
data_Cs3(PdO2)2
_symmetry_space_group_name_H-M   'P 1'
_cell_length_a   6.20345115
_cell_length_b   6.20345191
_cell_length_c   11.73765800
_cell_angle_alpha   90.00000000
_cell_angle_beta   90.00000000
_cell_angle_gamma   115.65172244
_symmetry_Int_Tables_number   1
_chemical_formula_structural   Cs3(PdO2)2
_chemical_formula_sum   'Cs6 Pd4 O8'
_cell_volume   407.17966141
_cell_formula_units_Z   2
loop_
 _symmetry_equiv_pos_site_id
 _symmetry_equiv_pos_as_xyz
  1  'x, y, z'
loop_
 _atom_site_type_symbol
 _atom_site_label
 _atom_site_symmetry_multiplicity
 _atom_site_fract_x
 _atom_site_fract_y
 _atom_site_fract_z
 _atom_site_occupancy
  Cs  Cs0  1  0.349242  0.650758  0.923448  1
  Cs  Cs1  1  0.650758  0.349242  0.423448  1
  Cs  Cs2  1  0.650758  0.349242  0.076552  1
  Cs  Cs3  1  0.349242  0.650758  0.576552  1
  Cs  Cs4  1  0.713847  0.286153  0.750000  1
  Cs  Cs5  1  0.286153  0.713847  0.250000  1
  Pd  Pd6  1  0.000000  0.000000  0.000000  1
  Pd  Pd7  1  0.000000  0.000000  0.500000  1
  Pd  Pd8  1  0.067686  0.932314  0.750000  1
  Pd  Pd9  1  0.932314  0.067686  0.250000  1
  O  O10  1  0.731086  0.872915  0.116298  1
  O  O11  1  0.268914  0.127085  0.616298  1
  O  O12  1  0.872915  0.731086  0.883702  1
  O  O13  1  0.127085  0.268914  0.383702  1
  O  O14  1  0.268914  0.127085  0.883702  1
  O  O15  1  0.731086  0.872915  0.383702  1
  O  O16  1  0.127085  0.268914  0.116298  1
  O  O17  1  0.872915  0.731086  0.616298  1
