# generated using pymatgen
data_Nb6Cu4SeS11
_symmetry_space_group_name_H-M   'P 1'
_cell_length_a   3.39407131
_cell_length_b   8.95039417
_cell_length_c   13.21461646
_cell_angle_alpha   90.28859139
_cell_angle_beta   90.00230211
_cell_angle_gamma   79.10284272
_symmetry_Int_Tables_number   1
_chemical_formula_structural   Nb6Cu4SeS11
_chemical_formula_sum   'Nb6 Cu4 Se1 S11'
_cell_volume   394.19341682
_cell_formula_units_Z   1
loop_
 _symmetry_equiv_pos_site_id
 _symmetry_equiv_pos_as_xyz
  1  'x, y, z'
loop_
 _atom_site_type_symbol
 _atom_site_label
 _atom_site_symmetry_multiplicity
 _atom_site_fract_x
 _atom_site_fract_y
 _atom_site_fract_z
 _atom_site_occupancy
  Nb  Nb0  1  0.444513  0.109100  0.250376  1
  Nb  Nb1  1  0.776299  0.446760  0.250440  1
  Nb  Nb2  1  0.110368  0.778663  0.249521  1
  Nb  Nb3  1  0.887761  0.224465  0.748244  1
  Nb  Nb4  1  0.223720  0.554365  0.749652  1
  Nb  Nb5  1  0.555088  0.890305  0.747460  1
  Cu  Cu6  1  0.443879  0.106974  0.034957  1
  Cu  Cu7  1  0.227921  0.543976  0.965676  1
  Cu  Cu8  1  0.887841  0.228739  0.535192  1
  Cu  Cu9  1  0.113256  0.773895  0.463537  1
  Se  Se10  1  0.104204  0.789529  0.880439  1
  S  S11  1  0.445680  0.107918  0.626556  1
  S  S12  1  0.774175  0.451028  0.629749  1
  S  S13  1  0.111218  0.776027  0.631654  1
  S  S14  1  0.888403  0.223269  0.367236  1
  S  S15  1  0.225398  0.552145  0.369454  1
  S  S16  1  0.553312  0.894285  0.371596  1
  S  S17  1  0.887012  0.225460  0.129667  1
  S  S18  1  0.223774  0.554361  0.132519  1
  S  S19  1  0.558884  0.883480  0.130307  1
  S  S20  1  0.442613  0.113861  0.865697  1
  S  S21  1  0.781346  0.438063  0.870070  1
