# generated using pymatgen
data_Li4Ac3ThSi8
_symmetry_space_group_name_H-M   'P 1'
_cell_length_a   3.96583000
_cell_length_b   7.88725827
_cell_length_c   10.97173292
_cell_angle_alpha   90.00841855
_cell_angle_beta   90.00000000
_cell_angle_gamma   90.00000000
_symmetry_Int_Tables_number   1
_chemical_formula_structural   Li4Ac3ThSi8
_chemical_formula_sum   'Li4 Ac3 Th1 Si8'
_cell_volume   343.19059564
_cell_formula_units_Z   1
loop_
 _symmetry_equiv_pos_site_id
 _symmetry_equiv_pos_as_xyz
  1  'x, y, z'
loop_
 _atom_site_type_symbol
 _atom_site_label
 _atom_site_symmetry_multiplicity
 _atom_site_fract_x
 _atom_site_fract_y
 _atom_site_fract_z
 _atom_site_occupancy
  Li  Li0  1  0.250000  0.991517  0.389425  1
  Li  Li1  1  0.250000  0.501677  0.112231  1
  Li  Li2  1  0.750000  0.001020  0.606502  1
  Li  Li3  1  0.750000  0.503309  0.888192  1
  Ac  Ac4  1  0.250000  0.144570  0.867700  1
  Ac  Ac5  1  0.250000  0.638552  0.632554  1
  Ac  Ac6  1  0.750000  0.860862  0.134816  1
  Th  Th7  1  0.750000  0.363440  0.367747  1
  Si  Si8  1  0.250000  0.221486  0.564435  1
  Si  Si9  1  0.250000  0.720427  0.924868  1
  Si  Si10  1  0.750000  0.767609  0.423937  1
  Si  Si11  1  0.750000  0.288549  0.084384  1
  Si  Si12  1  0.250000  0.659233  0.321341  1
  Si  Si13  1  0.250000  0.179445  0.188164  1
  Si  Si14  1  0.750000  0.327268  0.669921  1
  Si  Si15  1  0.750000  0.831037  0.823786  1
