# generated using pymatgen
data_Yb4Y5Er(CuPb3)2
_symmetry_space_group_name_H-M   'P 1'
_cell_length_a   9.22750414
_cell_length_b   9.22750399
_cell_length_c   6.77684100
_cell_angle_alpha   90.00000000
_cell_angle_beta   90.00000000
_cell_angle_gamma   120.05701172
_symmetry_Int_Tables_number   1
_chemical_formula_structural   Yb4Y5Er(CuPb3)2
_chemical_formula_sum   'Yb4 Y5 Er1 Cu2 Pb6'
_cell_volume   499.43230961
_cell_formula_units_Z   1
loop_
 _symmetry_equiv_pos_site_id
 _symmetry_equiv_pos_as_xyz
  1  'x, y, z'
loop_
 _atom_site_type_symbol
 _atom_site_label
 _atom_site_symmetry_multiplicity
 _atom_site_fract_x
 _atom_site_fract_y
 _atom_site_fract_z
 _atom_site_occupancy
  Yb  Yb0  1  0.333195  0.666114  0.999743  1
  Yb  Yb1  1  0.666114  0.333195  0.999743  1
  Yb  Yb2  1  0.666114  0.333195  0.500257  1
  Yb  Yb3  1  0.333195  0.666114  0.500257  1
  Y  Y4  1  0.259670  0.999842  0.250000  1
  Y  Y5  1  0.739425  0.998839  0.750000  1
  Y  Y6  1  0.999842  0.259670  0.250000  1
  Y  Y7  1  0.998839  0.739425  0.750000  1
  Y  Y8  1  0.741891  0.741891  0.250000  1
  Er  Er9  1  0.258030  0.258030  0.750000  1
  Cu  Cu10  1  0.003385  0.003385  0.996846  1
  Cu  Cu11  1  0.003385  0.003385  0.503154  1
  Pb  Pb12  1  0.612955  0.999889  0.250000  1
  Pb  Pb13  1  0.385776  0.000937  0.750000  1
  Pb  Pb14  1  0.999889  0.612955  0.250000  1
  Pb  Pb15  1  0.000937  0.385776  0.750000  1
  Pb  Pb16  1  0.386606  0.386606  0.250000  1
  Pb  Pb17  1  0.610750  0.610750  0.750000  1
