# generated using pymatgen
data_Y4Pt3Au
_symmetry_space_group_name_H-M   'P 1'
_cell_length_a   4.59127000
_cell_length_b   5.62883585
_cell_length_c   7.07096815
_cell_angle_alpha   89.52008367
_cell_angle_beta   90.00000000
_cell_angle_gamma   90.00000000
_symmetry_Int_Tables_number   1
_chemical_formula_structural   Y4Pt3Au
_chemical_formula_sum   'Y4 Pt3 Au1'
_cell_volume   182.73219168
_cell_formula_units_Z   1
loop_
 _symmetry_equiv_pos_site_id
 _symmetry_equiv_pos_as_xyz
  1  'x, y, z'
loop_
 _atom_site_type_symbol
 _atom_site_label
 _atom_site_symmetry_multiplicity
 _atom_site_fract_x
 _atom_site_fract_y
 _atom_site_fract_z
 _atom_site_occupancy
  Y  Y0  1  0.500000  0.645739  0.686537  1
  Y  Y1  1  0.500000  0.853962  0.180175  1
  Y  Y2  1  0.000000  0.363568  0.308709  1
  Y  Y3  1  0.000000  0.139488  0.826042  1
  Pt  Pt4  1  0.500000  0.342415  0.040965  1
  Pt  Pt5  1  0.000000  0.845653  0.460506  1
  Pt  Pt6  1  0.000000  0.655142  0.956707  1
  Au  Au7  1  0.500000  0.154031  0.540358  1
