# generated using pymatgen
data_Ho3Er2Zr(SnIr)6
_symmetry_space_group_name_H-M   'P 1'
_cell_length_a   7.45735329
_cell_length_b   7.51907233
_cell_length_c   7.76053600
_cell_angle_alpha   90.00000000
_cell_angle_beta   90.00000000
_cell_angle_gamma   120.33420708
_symmetry_Int_Tables_number   1
_chemical_formula_structural   Ho3Er2Zr(SnIr)6
_chemical_formula_sum   'Ho3 Er2 Zr1 Sn6 Ir6'
_cell_volume   375.57691216
_cell_formula_units_Z   1
loop_
 _symmetry_equiv_pos_site_id
 _symmetry_equiv_pos_as_xyz
  1  'x, y, z'
loop_
 _atom_site_type_symbol
 _atom_site_label
 _atom_site_symmetry_multiplicity
 _atom_site_fract_x
 _atom_site_fract_y
 _atom_site_fract_z
 _atom_site_occupancy
  Ho  Ho0  1  0.597000  0.593560  0.750000  1
  Ho  Ho1  1  0.001619  0.408985  0.750000  1
  Ho  Ho2  1  0.402658  0.995679  0.750000  1
  Er  Er3  1  0.406096  0.005416  0.250000  1
  Er  Er4  1  0.595968  0.596329  0.250000  1
  Zr  Zr5  1  0.998886  0.398372  0.250000  1
  Sn  Sn6  1  0.264440  0.262264  0.501501  1
  Sn  Sn7  1  0.264440  0.262264  0.998499  1
  Sn  Sn8  1  0.734946  0.996894  0.999019  1
  Sn  Sn9  1  0.000553  0.742127  0.491801  1
  Sn  Sn10  1  0.734946  0.996894  0.500981  1
  Sn  Sn11  1  0.000553  0.742127  0.008199  1
  Ir  Ir12  1  0.677171  0.335431  0.492083  1
  Ir  Ir13  1  0.677171  0.335431  0.007917  1
  Ir  Ir14  1  0.322042  0.658066  0.014984  1
  Ir  Ir15  1  0.322042  0.658066  0.485016  1
  Ir  Ir16  1  0.999543  0.998758  0.750000  1
  Ir  Ir17  1  0.999929  0.013336  0.250000  1
