# generated using pymatgen
data_CaTbTm2Sb6Rh7
_symmetry_space_group_name_H-M   'P 1'
_cell_length_a   7.61793138
_cell_length_b   7.59535976
_cell_length_c   7.57191635
_cell_angle_alpha   109.31845338
_cell_angle_beta   109.39390796
_cell_angle_gamma   109.51832027
_symmetry_Int_Tables_number   1
_chemical_formula_structural   CaTbTm2Sb6Rh7
_chemical_formula_sum   'Ca1 Tb1 Tm2 Sb6 Rh7'
_cell_volume   338.02216744
_cell_formula_units_Z   1
loop_
 _symmetry_equiv_pos_site_id
 _symmetry_equiv_pos_as_xyz
  1  'x, y, z'
loop_
 _atom_site_type_symbol
 _atom_site_label
 _atom_site_symmetry_multiplicity
 _atom_site_fract_x
 _atom_site_fract_y
 _atom_site_fract_z
 _atom_site_occupancy
  Ca  Ca0  1  0.000000  0.000000  0.500000  1
  Tb  Tb1  1  0.000000  0.500000  0.000000  1
  Tm  Tm2  1  0.500000  0.000000  0.000000  1
  Tm  Tm3  1  0.500000  0.500000  0.500000  1
  Sb  Sb4  1  0.000000  0.315809  0.318935  1
  Sb  Sb5  1  0.683202  0.998875  0.681271  1
  Sb  Sb6  1  0.683202  0.684327  0.001931  1
  Sb  Sb7  1  0.000000  0.684191  0.681065  1
  Sb  Sb8  1  0.316798  0.001125  0.318729  1
  Sb  Sb9  1  0.316798  0.315673  0.998069  1
  Rh  Rh10  1  0.000000  0.000000  0.000000  1
  Rh  Rh11  1  0.493493  0.746747  0.246747  1
  Rh  Rh12  1  0.744720  0.491610  0.246487  1
  Rh  Rh13  1  0.255280  0.746890  0.501766  1
  Rh  Rh14  1  0.255280  0.508390  0.753513  1
  Rh  Rh15  1  0.506507  0.253253  0.753253  1
  Rh  Rh16  1  0.744720  0.253110  0.498234  1
