# generated using pymatgen
data_Tb13Er3In2(HgRh2)2
_symmetry_space_group_name_H-M   'P 1'
_cell_length_a   9.65473430
_cell_length_b   9.65016667
_cell_length_c   9.64552696
_cell_angle_alpha   59.95693296
_cell_angle_beta   59.93118667
_cell_angle_gamma   59.85902518
_symmetry_Int_Tables_number   1
_chemical_formula_structural   Tb13Er3In2(HgRh2)2
_chemical_formula_sum   'Tb13 Er3 In2 Hg2 Rh4'
_cell_volume   634.24093538
_cell_formula_units_Z   1
loop_
 _symmetry_equiv_pos_site_id
 _symmetry_equiv_pos_as_xyz
  1  'x, y, z'
loop_
 _atom_site_type_symbol
 _atom_site_label
 _atom_site_symmetry_multiplicity
 _atom_site_fract_x
 _atom_site_fract_y
 _atom_site_fract_z
 _atom_site_occupancy
  Tb  Tb0  1  0.647356  0.053319  0.649133  1
  Tb  Tb1  1  0.062372  0.062974  0.437493  1
  Tb  Tb2  1  0.438335  0.437343  0.060747  1
  Tb  Tb3  1  0.651300  0.650087  0.649441  1
  Tb  Tb4  1  0.813200  0.189202  0.188971  1
  Tb  Tb5  1  0.189188  0.812483  0.809575  1
  Tb  Tb6  1  0.052483  0.647246  0.649198  1
  Tb  Tb7  1  0.439327  0.064590  0.059146  1
  Tb  Tb8  1  0.437815  0.064500  0.435928  1
  Tb  Tb9  1  0.064687  0.438503  0.059845  1
  Tb  Tb10  1  0.649622  0.649317  0.050695  1
  Tb  Tb11  1  0.189181  0.813174  0.189744  1
  Tb  Tb12  1  0.064436  0.437091  0.436296  1
  Er  Er13  1  0.808983  0.809940  0.191281  1
  Er  Er14  1  0.811687  0.189874  0.809493  1
  Er  Er15  1  0.188456  0.188963  0.812819  1
  In  In16  1  0.418420  0.744445  0.419861  1
  In  In17  1  0.744743  0.418246  0.420069  1
  Hg  Hg18  1  0.414880  0.415091  0.415191  1
  Hg  Hg19  1  0.414738  0.414465  0.757020  1
  Rh  Rh20  1  0.858322  0.425963  0.856404  1
  Rh  Rh21  1  0.856124  0.858170  0.858217  1
  Rh  Rh22  1  0.856923  0.856611  0.426496  1
  Rh  Rh23  1  0.427420  0.858401  0.856939  1
