# generated using pymatgen
data_Tb10Ho2Tc3Ru
_symmetry_space_group_name_H-M   'P 1'
_cell_length_a   6.29133702
_cell_length_b   7.41516900
_cell_length_c   9.20482644
_cell_angle_alpha   90.00106019
_cell_angle_beta   90.06424609
_cell_angle_gamma   89.97524208
_symmetry_Int_Tables_number   1
_chemical_formula_structural   Tb10Ho2Tc3Ru
_chemical_formula_sum   'Tb10 Ho2 Tc3 Ru1'
_cell_volume   429.41706013
_cell_formula_units_Z   1
loop_
 _symmetry_equiv_pos_site_id
 _symmetry_equiv_pos_as_xyz
  1  'x, y, z'
loop_
 _atom_site_type_symbol
 _atom_site_label
 _atom_site_symmetry_multiplicity
 _atom_site_fract_x
 _atom_site_fract_y
 _atom_site_fract_z
 _atom_site_occupancy
  Tb  Tb0  1  0.334715  0.676597  0.063782  1
  Tb  Tb1  1  0.162986  0.175657  0.436997  1
  Tb  Tb2  1  0.662707  0.324557  0.562657  1
  Tb  Tb3  1  0.836252  0.824344  0.937643  1
  Tb  Tb4  1  0.662892  0.324176  0.937326  1
  Tb  Tb5  1  0.836086  0.823941  0.562348  1
  Tb  Tb6  1  0.873898  0.540847  0.250055  1
  Tb  Tb7  1  0.625412  0.039594  0.249931  1
  Tb  Tb8  1  0.131159  0.458454  0.749994  1
  Tb  Tb9  1  0.372830  0.957696  0.750015  1
  Ho  Ho10  1  0.335048  0.676449  0.436363  1
  Ho  Ho11  1  0.162769  0.175544  0.062820  1
  Tc  Tc12  1  0.040103  0.884450  0.250122  1
  Tc  Tc13  1  0.461768  0.386638  0.249884  1
  Tc  Tc14  1  0.962293  0.115216  0.750441  1
  Ru  Ru15  1  0.539083  0.615840  0.749623  1
