# generated using pymatgen
data_Cs(ZrS2)2
_symmetry_space_group_name_H-M   'P 1'
_cell_length_a   6.36142900
_cell_length_b   7.35489500
_cell_length_c   17.17359600
_cell_angle_alpha   90.00000000
_cell_angle_beta   90.00000000
_cell_angle_gamma   90.00000000
_symmetry_Int_Tables_number   1
_chemical_formula_structural   Cs(ZrS2)2
_chemical_formula_sum   'Cs4 Zr8 S16'
_cell_volume   803.51206742
_cell_formula_units_Z   4
loop_
 _symmetry_equiv_pos_site_id
 _symmetry_equiv_pos_as_xyz
  1  'x, y, z'
loop_
 _atom_site_type_symbol
 _atom_site_label
 _atom_site_symmetry_multiplicity
 _atom_site_fract_x
 _atom_site_fract_y
 _atom_site_fract_z
 _atom_site_occupancy
  Cs  Cs0  1  0.346694  0.000000  0.000000  1
  Cs  Cs1  1  0.653306  0.500000  0.500000  1
  Cs  Cs2  1  0.038835  0.000000  0.500000  1
  Cs  Cs3  1  0.961165  0.500000  0.000000  1
  Zr  Zr4  1  0.999203  0.000000  0.248337  1
  Zr  Zr5  1  0.999203  0.000000  0.751663  1
  Zr  Zr6  1  0.000797  0.500000  0.251663  1
  Zr  Zr7  1  0.000797  0.500000  0.748337  1
  Zr  Zr8  1  0.500000  0.250000  0.250000  1
  Zr  Zr9  1  0.500000  0.750000  0.750000  1
  Zr  Zr10  1  0.500000  0.750000  0.250000  1
  Zr  Zr11  1  0.500000  0.250000  0.750000  1
  S  S12  1  0.834248  0.248331  0.338664  1
  S  S13  1  0.834248  0.751669  0.661336  1
  S  S14  1  0.165752  0.748331  0.161336  1
  S  S15  1  0.165752  0.251669  0.838664  1
  S  S16  1  0.165752  0.251669  0.161336  1
  S  S17  1  0.165752  0.748331  0.838664  1
  S  S18  1  0.834248  0.751669  0.338664  1
  S  S19  1  0.834248  0.248331  0.661336  1
  S  S20  1  0.666039  0.000000  0.161862  1
  S  S21  1  0.666039  0.000000  0.838138  1
  S  S22  1  0.333961  0.500000  0.338138  1
  S  S23  1  0.333961  0.500000  0.661862  1
  S  S24  1  0.334287  0.000000  0.336237  1
  S  S25  1  0.334287  0.000000  0.663763  1
  S  S26  1  0.665713  0.500000  0.163763  1
  S  S27  1  0.665713  0.500000  0.836237  1
