# generated using pymatgen
data_DyEr19(Bi2Pt)4
_symmetry_space_group_name_H-M   'P 1'
_cell_length_a   8.01609144
_cell_length_b   8.98135800
_cell_length_c   12.35778369
_cell_angle_alpha   90.00000000
_cell_angle_beta   90.03823961
_cell_angle_gamma   90.00000000
_symmetry_Int_Tables_number   1
_chemical_formula_structural   DyEr19(Bi2Pt)4
_chemical_formula_sum   'Dy1 Er19 Bi8 Pt4'
_cell_volume   889.70322143
_cell_formula_units_Z   1
loop_
 _symmetry_equiv_pos_site_id
 _symmetry_equiv_pos_as_xyz
  1  'x, y, z'
loop_
 _atom_site_type_symbol
 _atom_site_label
 _atom_site_symmetry_multiplicity
 _atom_site_fract_x
 _atom_site_fract_y
 _atom_site_fract_z
 _atom_site_occupancy
  Dy  Dy0  1  0.665413  0.750000  0.710727  1
  Er  Er1  1  0.334858  0.250000  0.290034  1
  Er  Er2  1  0.165078  0.250000  0.790022  1
  Er  Er3  1  0.834876  0.750000  0.209965  1
  Er  Er4  1  0.130454  0.750000  0.806417  1
  Er  Er5  1  0.869785  0.250000  0.193543  1
  Er  Er6  1  0.630094  0.250000  0.693463  1
  Er  Er7  1  0.369858  0.750000  0.306571  1
  Er  Er8  1  0.551117  0.750000  0.999798  1
  Er  Er9  1  0.448757  0.250000  0.000475  1
  Er  Er10  1  0.051369  0.250000  0.500230  1
  Er  Er11  1  0.949143  0.750000  0.499491  1
  Er  Er12  1  0.823340  0.453655  0.931437  1
  Er  Er13  1  0.176706  0.546130  0.068610  1
  Er  Er14  1  0.323141  0.545999  0.568303  1
  Er  Er15  1  0.176706  0.953870  0.068610  1
  Er  Er16  1  0.676806  0.453733  0.431412  1
  Er  Er17  1  0.823340  0.046345  0.931437  1
  Er  Er18  1  0.676806  0.046267  0.431412  1
  Er  Er19  1  0.323141  0.954001  0.568303  1
  Bi  Bi20  1  0.935927  0.008929  0.672467  1
  Bi  Bi21  1  0.064656  0.991572  0.327240  1
  Bi  Bi22  1  0.434497  0.992104  0.827704  1
  Bi  Bi23  1  0.064656  0.508428  0.327240  1
  Bi  Bi24  1  0.564725  0.008558  0.172754  1
  Bi  Bi25  1  0.935927  0.491071  0.672467  1
  Bi  Bi26  1  0.564725  0.491442  0.172754  1
  Bi  Bi27  1  0.434497  0.507896  0.827704  1
  Pt  Pt28  1  0.923652  0.750000  0.989740  1
  Pt  Pt29  1  0.076187  0.250000  0.010248  1
  Pt  Pt30  1  0.423655  0.250000  0.510183  1
  Pt  Pt31  1  0.576107  0.750000  0.489238  1
