# generated using pymatgen
data_Os2NCl8
_symmetry_space_group_name_H-M   'P 1'
_cell_length_a   6.83812145
_cell_length_b   6.86237744
_cell_length_c   6.79280340
_cell_angle_alpha   90.10967356
_cell_angle_beta   98.35173697
_cell_angle_gamma   96.48701852
_symmetry_Int_Tables_number   1
_chemical_formula_structural   Os2NCl8
_chemical_formula_sum   'Os2 N1 Cl8'
_cell_volume   313.30346880
_cell_formula_units_Z   1
loop_
 _symmetry_equiv_pos_site_id
 _symmetry_equiv_pos_as_xyz
  1  'x, y, z'
loop_
 _atom_site_type_symbol
 _atom_site_label
 _atom_site_symmetry_multiplicity
 _atom_site_fract_x
 _atom_site_fract_y
 _atom_site_fract_z
 _atom_site_occupancy
  Os  Os0  1  0.049114  0.418452  0.766399  1
  Os  Os1  1  0.950886  0.581548  0.233601  1
  N  N2  1  0.000000  0.500000  0.000000  1
  Cl  Cl3  1  0.654239  0.384404  0.214623  1
  Cl  Cl4  1  0.893716  0.677716  0.578667  1
  Cl  Cl5  1  0.250844  0.773568  0.302576  1
  Cl  Cl6  1  0.792518  0.844218  0.118633  1
  Cl  Cl7  1  0.207482  0.155782  0.881367  1
  Cl  Cl8  1  0.345761  0.615596  0.785377  1
  Cl  Cl9  1  0.106284  0.322284  0.421333  1
  Cl  Cl10  1  0.749156  0.226432  0.697424  1
