# generated using pymatgen
data_LuZn3PdAu
_symmetry_space_group_name_H-M   'P 1'
_cell_length_a   5.22103871
_cell_length_b   5.22103880
_cell_length_c   5.23426200
_cell_angle_alpha   60.08352719
_cell_angle_beta   60.08352659
_cell_angle_gamma   59.99998595
_symmetry_Int_Tables_number   1
_chemical_formula_structural   LuZn3PdAu
_chemical_formula_sum   'Lu1 Zn3 Pd1 Au1'
_cell_volume   101.01861163
_cell_formula_units_Z   1
loop_
 _symmetry_equiv_pos_site_id
 _symmetry_equiv_pos_as_xyz
  1  'x, y, z'
loop_
 _atom_site_type_symbol
 _atom_site_label
 _atom_site_symmetry_multiplicity
 _atom_site_fract_x
 _atom_site_fract_y
 _atom_site_fract_z
 _atom_site_occupancy
  Lu  Lu0  1  0.998672  0.998672  0.003983  1
  Zn  Zn1  1  0.624470  0.130187  0.620873  1
  Zn  Zn2  1  0.130187  0.624470  0.620873  1
  Zn  Zn3  1  0.624470  0.624470  0.620873  1
  Pd  Pd4  1  0.627715  0.627715  0.116856  1
  Au  Au5  1  0.244485  0.244485  0.266544  1
