# generated using pymatgen
data_HoTm2Al3Si2Ni
_symmetry_space_group_name_H-M   'P 1'
_cell_length_a   6.81658500
_cell_length_b   6.82678320
_cell_length_c   4.12036500
_cell_angle_alpha   90.00000000
_cell_angle_beta   90.00000000
_cell_angle_gamma   119.95059125
_symmetry_Int_Tables_number   1
_chemical_formula_structural   HoTm2Al3Si2Ni
_chemical_formula_sum   'Ho1 Tm2 Al3 Si2 Ni1'
_cell_volume   166.13659143
_cell_formula_units_Z   1
loop_
 _symmetry_equiv_pos_site_id
 _symmetry_equiv_pos_as_xyz
  1  'x, y, z'
loop_
 _atom_site_type_symbol
 _atom_site_label
 _atom_site_symmetry_multiplicity
 _atom_site_fract_x
 _atom_site_fract_y
 _atom_site_fract_z
 _atom_site_occupancy
  Ho  Ho0  1  0.406265  0.000000  0.000000  1
  Tm  Tm1  1  0.000088  0.405500  0.000000  1
  Tm  Tm2  1  0.594588  0.594500  0.000000  1
  Al  Al3  1  0.766008  0.000000  0.500000  1
  Al  Al4  1  0.233694  0.234424  0.500000  1
  Al  Al5  1  0.999269  0.765577  0.500000  1
  Si  Si6  1  0.667720  0.335354  0.500000  1
  Si  Si7  1  0.332367  0.664647  0.500000  1
  Ni  Ni8  1  0.000004  0.000000  0.000000  1
