# generated using pymatgen
data_Pr4B16Os3Ru11
_symmetry_space_group_name_H-M   'P 1'
_cell_length_a   6.48740304
_cell_length_b   6.48542504
_cell_length_c   10.15371600
_cell_angle_alpha   90.00000000
_cell_angle_beta   90.00000000
_cell_angle_gamma   89.98730669
_symmetry_Int_Tables_number   1
_chemical_formula_structural   Pr4B16Os3Ru11
_chemical_formula_sum   'Pr4 B16 Os3 Ru11'
_cell_volume   427.20303098
_cell_formula_units_Z   1
loop_
 _symmetry_equiv_pos_site_id
 _symmetry_equiv_pos_as_xyz
  1  'x, y, z'
loop_
 _atom_site_type_symbol
 _atom_site_label
 _atom_site_symmetry_multiplicity
 _atom_site_fract_x
 _atom_site_fract_y
 _atom_site_fract_z
 _atom_site_occupancy
  Pr  Pr0  1  0.732825  0.875606  0.000000  1
  Pr  Pr1  1  0.123813  0.734352  0.500000  1
  Pr  Pr2  1  0.881327  0.265516  0.500000  1
  Pr  Pr3  1  0.266010  0.124062  0.000000  1
  B  B4  1  0.500700  0.000099  0.589317  1
  B  B5  1  0.500700  0.000099  0.410683  1
  B  B6  1  0.897678  0.273623  0.167394  1
  B  B7  1  0.102306  0.726198  0.832632  1
  B  B8  1  0.499210  0.500619  0.340522  1
  B  B9  1  0.500191  0.500102  0.840877  1
  B  B10  1  0.271197  0.102100  0.666030  1
  B  B11  1  0.102306  0.726198  0.167368  1
  B  B12  1  0.271197  0.102100  0.333970  1
  B  B13  1  0.897678  0.273623  0.832606  1
  B  B14  1  0.499210  0.500619  0.659478  1
  B  B15  1  0.500191  0.500102  0.159123  1
  B  B16  1  0.000024  0.499809  0.910915  1
  B  B17  1  0.726608  0.897631  0.667744  1
  B  B18  1  0.726608  0.897631  0.332256  1
  B  B19  1  0.000024  0.499809  0.089085  1
  Os  Os20  1  0.399382  0.287121  0.500000  1
  Os  Os21  1  0.999596  0.999758  0.249662  1
  Os  Os22  1  0.999596  0.999758  0.750338  1
  Ru  Ru23  1  0.204714  0.399960  0.751947  1
  Ru  Ru24  1  0.399498  0.795936  0.251997  1
  Ru  Ru25  1  0.204714  0.399960  0.248053  1
  Ru  Ru26  1  0.600352  0.712565  0.500000  1
  Ru  Ru27  1  0.600922  0.204472  0.748050  1
  Ru  Ru28  1  0.286921  0.600243  0.000000  1
  Ru  Ru29  1  0.713060  0.399078  0.000000  1
  Ru  Ru30  1  0.795513  0.600423  0.247740  1
  Ru  Ru31  1  0.795513  0.600423  0.752260  1
  Ru  Ru32  1  0.399498  0.795936  0.748003  1
  Ru  Ru33  1  0.600922  0.204472  0.251950  1
