# generated using pymatgen
data_Y3HoAl17SiIr5Pd
_symmetry_space_group_name_H-M   'P 1'
_cell_length_a   7.56821229
_cell_length_b   7.56907007
_cell_length_c   9.47445100
_cell_angle_alpha   89.96358962
_cell_angle_beta   89.96648503
_cell_angle_gamma   119.59011884
_symmetry_Int_Tables_number   1
_chemical_formula_structural   Y3HoAl17SiIr5Pd
_chemical_formula_sum   'Y3 Ho1 Al17 Si1 Ir5 Pd1'
_cell_volume   471.95344351
_cell_formula_units_Z   1
loop_
 _symmetry_equiv_pos_site_id
 _symmetry_equiv_pos_as_xyz
  1  'x, y, z'
loop_
 _atom_site_type_symbol
 _atom_site_label
 _atom_site_symmetry_multiplicity
 _atom_site_fract_x
 _atom_site_fract_y
 _atom_site_fract_z
 _atom_site_occupancy
  Y  Y0  1  0.993330  0.675687  0.250581  1
  Y  Y1  1  0.003287  0.329236  0.749455  1
  Y  Y2  1  0.676159  0.994759  0.250612  1
  Ho  Ho3  1  0.329777  0.004436  0.749282  1
  Al  Al4  1  0.874700  0.873374  0.749546  1
  Al  Al5  1  0.004987  0.337057  0.077740  1
  Al  Al6  1  0.002421  0.669869  0.923936  1
  Al  Al7  1  0.999418  0.665346  0.574157  1
  Al  Al8  1  0.337457  0.000243  0.425156  1
  Al  Al9  1  0.000512  0.337191  0.423904  1
  Al  Al10  1  0.665190  0.998905  0.574896  1
  Al  Al11  1  0.665106  0.994869  0.923726  1
  Al  Al12  1  0.333411  0.997777  0.076770  1
  Al  Al13  1  0.331956  0.331760  0.555426  1
  Al  Al14  1  0.664167  0.664036  0.449091  1
  Al  Al15  1  0.662833  0.665979  0.055418  1
  Al  Al16  1  0.329990  0.332990  0.939927  1
  Al  Al17  1  0.337173  0.550294  0.250568  1
  Al  Al18  1  0.661018  0.452938  0.747461  1
  Al  Al19  1  0.547136  0.335634  0.252455  1
  Al  Al20  1  0.451256  0.661165  0.749526  1
  Si  Si21  1  0.131955  0.131038  0.250280  1
  Ir  Ir22  1  0.327001  0.670195  0.000275  1
  Ir  Ir23  1  0.327079  0.670057  0.499775  1
  Ir  Ir24  1  0.670154  0.326759  0.499821  1
  Ir  Ir25  1  0.000783  0.001122  0.006813  1
  Ir  Ir26  1  0.000971  0.000724  0.493031  1
  Pd  Pd27  1  0.670774  0.326565  0.000375  1
