# generated using pymatgen
data_Yb2DyYAl8
_symmetry_space_group_name_H-M   'P 1'
_cell_length_a   9.58539906
_cell_length_b   9.58539861
_cell_length_c   9.58539886
_cell_angle_alpha   34.13485902
_cell_angle_beta   34.13485011
_cell_angle_gamma   34.13485708
_symmetry_Int_Tables_number   1
_chemical_formula_structural   Yb2DyYAl8
_chemical_formula_sum   'Yb2 Dy1 Y1 Al8'
_cell_volume   247.24968408
_cell_formula_units_Z   1
loop_
 _symmetry_equiv_pos_site_id
 _symmetry_equiv_pos_as_xyz
  1  'x, y, z'
loop_
 _atom_site_type_symbol
 _atom_site_label
 _atom_site_symmetry_multiplicity
 _atom_site_fract_x
 _atom_site_fract_y
 _atom_site_fract_z
 _atom_site_occupancy
  Yb  Yb0  1  0.186710  0.186710  0.186710  1
  Yb  Yb1  1  0.813168  0.813168  0.813168  1
  Dy  Dy2  1  0.688608  0.688608  0.688608  1
  Y  Y3  1  0.311559  0.311559  0.311559  1
  Al  Al4  1  0.999984  0.999984  0.999984  1
  Al  Al5  1  0.500019  0.500019  0.500019  1
  Al  Al6  1  0.745056  0.249365  0.249365  1
  Al  Al7  1  0.255119  0.750523  0.750523  1
  Al  Al8  1  0.249365  0.745056  0.249365  1
  Al  Al9  1  0.750523  0.255119  0.750523  1
  Al  Al10  1  0.249365  0.249365  0.745056  1
  Al  Al11  1  0.750523  0.750523  0.255119  1
