# generated using pymatgen
data_LiTm4Pb3C
_symmetry_space_group_name_H-M   'P 1'
_cell_length_a   8.94134500
_cell_length_b   8.94134619
_cell_length_c   6.27567400
_cell_angle_alpha   90.00000000
_cell_angle_beta   90.00000000
_cell_angle_gamma   119.99999930
_symmetry_Int_Tables_number   1
_chemical_formula_structural   LiTm4Pb3C
_chemical_formula_sum   'Li2 Tm8 Pb6 C2'
_cell_volume   434.50699530
_cell_formula_units_Z   2
loop_
 _symmetry_equiv_pos_site_id
 _symmetry_equiv_pos_as_xyz
  1  'x, y, z'
loop_
 _atom_site_type_symbol
 _atom_site_label
 _atom_site_symmetry_multiplicity
 _atom_site_fract_x
 _atom_site_fract_y
 _atom_site_fract_z
 _atom_site_occupancy
  Li  Li0  1  0.333333  0.666667  0.000000  1
  Li  Li1  1  0.666667  0.333333  0.000000  1
  Tm  Tm2  1  0.209387  0.000000  0.253081  1
  Tm  Tm3  1  0.790613  0.000000  0.746919  1
  Tm  Tm4  1  0.000000  0.209387  0.253081  1
  Tm  Tm5  1  0.000000  0.790613  0.746919  1
  Tm  Tm6  1  0.790613  0.790613  0.253081  1
  Tm  Tm7  1  0.209387  0.209387  0.746919  1
  Tm  Tm8  1  0.666667  0.333333  0.500000  1
  Tm  Tm9  1  0.333333  0.666667  0.500000  1
  Pb  Pb10  1  0.586200  0.000000  0.249042  1
  Pb  Pb11  1  0.413800  0.000000  0.750958  1
  Pb  Pb12  1  0.000000  0.586200  0.249042  1
  Pb  Pb13  1  0.000000  0.413800  0.750958  1
  Pb  Pb14  1  0.413800  0.413800  0.249042  1
  Pb  Pb15  1  0.586200  0.586200  0.750958  1
  C  C16  1  0.000000  0.000000  0.000000  1
  C  C17  1  0.000000  0.000000  0.500000  1
