# generated using pymatgen
data_Th4TaNb3N8
_symmetry_space_group_name_H-M   'P 1'
_cell_length_a   3.41888800
_cell_length_b   5.89884277
_cell_length_c   11.13857308
_cell_angle_alpha   89.91083092
_cell_angle_beta   90.00000000
_cell_angle_gamma   90.00000000
_symmetry_Int_Tables_number   1
_chemical_formula_structural   Th4TaNb3N8
_chemical_formula_sum   'Th4 Ta1 Nb3 N8'
_cell_volume   224.63670858
_cell_formula_units_Z   1
loop_
 _symmetry_equiv_pos_site_id
 _symmetry_equiv_pos_as_xyz
  1  'x, y, z'
loop_
 _atom_site_type_symbol
 _atom_site_label
 _atom_site_symmetry_multiplicity
 _atom_site_fract_x
 _atom_site_fract_y
 _atom_site_fract_z
 _atom_site_occupancy
  Th  Th0  1  0.250000  0.577319  0.856960  1
  Th  Th1  1  0.750000  0.420808  0.143486  1
  Th  Th2  1  0.750000  0.922375  0.356908  1
  Th  Th3  1  0.250000  0.077713  0.643933  1
  Ta  Ta4  1  0.250000  0.926783  0.095402  1
  Nb  Nb5  1  0.750000  0.073606  0.905315  1
  Nb  Nb6  1  0.750000  0.571425  0.594082  1
  Nb  Nb7  1  0.250000  0.429019  0.405196  1
  N  N8  1  0.250000  0.665286  0.245660  1
  N  N9  1  0.750000  0.339544  0.751491  1
  N  N10  1  0.750000  0.838102  0.748893  1
  N  N11  1  0.250000  0.158761  0.249261  1
  N  N12  1  0.250000  0.756141  0.506514  1
  N  N13  1  0.750000  0.244292  0.492854  1
  N  N14  1  0.750000  0.746106  0.009738  1
  N  N15  1  0.250000  0.252719  0.994303  1
