# generated using pymatgen
data_Y6Al24Co3CuOs4
_symmetry_space_group_name_H-M   'P 1'
_cell_length_a   8.73756151
_cell_length_b   8.83661778
_cell_length_c   9.38982882
_cell_angle_alpha   89.99999948
_cell_angle_beta   90.07611449
_cell_angle_gamma   120.37573799
_symmetry_Int_Tables_number   1
_chemical_formula_structural   Y6Al24Co3CuOs4
_chemical_formula_sum   'Y6 Al24 Co3 Cu1 Os4'
_cell_volume   625.47118382
_cell_formula_units_Z   1
loop_
 _symmetry_equiv_pos_site_id
 _symmetry_equiv_pos_as_xyz
  1  'x, y, z'
loop_
 _atom_site_type_symbol
 _atom_site_label
 _atom_site_symmetry_multiplicity
 _atom_site_fract_x
 _atom_site_fract_y
 _atom_site_fract_z
 _atom_site_occupancy
  Y  Y0  1  0.199777  0.385904  0.248877  1
  Y  Y1  1  0.800223  0.614096  0.751123  1
  Y  Y2  1  0.608252  0.804125  0.252325  1
  Y  Y3  1  0.391748  0.195875  0.747675  1
  Y  Y4  1  0.199777  0.813873  0.248877  1
  Y  Y5  1  0.800223  0.186127  0.751123  1
  Al  Al6  1  0.333580  0.666791  0.018655  1
  Al  Al7  1  0.666420  0.333209  0.981345  1
  Al  Al8  1  0.674168  0.337083  0.518036  1
  Al  Al9  1  0.325832  0.662917  0.481964  1
  Al  Al10  1  0.157999  0.320904  0.574922  1
  Al  Al11  1  0.842001  0.679096  0.425078  1
  Al  Al12  1  0.677332  0.838666  0.574916  1
  Al  Al13  1  0.837566  0.682269  0.079033  1
  Al  Al14  1  0.322668  0.161334  0.425084  1
  Al  Al15  1  0.162434  0.317731  0.920967  1
  Al  Al16  1  0.157999  0.837097  0.574922  1
  Al  Al17  1  0.323025  0.161513  0.075640  1
  Al  Al18  1  0.842001  0.162903  0.425078  1
  Al  Al19  1  0.676975  0.838487  0.924360  1
  Al  Al20  1  0.837566  0.155296  0.079033  1
  Al  Al21  1  0.162434  0.844704  0.920967  1
  Al  Al22  1  0.564843  0.125432  0.249986  1
  Al  Al23  1  0.435157  0.874568  0.750014  1
  Al  Al24  1  0.885095  0.442548  0.256352  1
  Al  Al25  1  0.114905  0.557452  0.743648  1
  Al  Al26  1  0.564843  0.439412  0.249986  1
  Al  Al27  1  0.435157  0.560588  0.750014  1
  Al  Al28  1  0.002671  0.001336  0.250910  1
  Al  Al29  1  0.997329  0.998664  0.749090  1
  Co  Co30  1  0.000000  0.500000  0.500000  1
  Co  Co31  1  0.000000  0.000000  0.000000  1
  Co  Co32  1  0.000000  0.000000  0.500000  1
  Cu  Cu33  1  0.000000  0.500000  0.000000  1
  Os  Os34  1  0.500000  0.000000  0.000000  1
  Os  Os35  1  0.500000  0.000000  0.500000  1
  Os  Os36  1  0.500000  0.500000  0.000000  1
  Os  Os37  1  0.500000  0.500000  0.500000  1
