# generated using pymatgen
data_Hf17Sc(Re4P)2
_symmetry_space_group_name_H-M   'P 1'
_cell_length_a   8.55830500
_cell_length_b   8.55830529
_cell_length_c   8.60885700
_cell_angle_alpha   90.00000000
_cell_angle_beta   90.00000000
_cell_angle_gamma   119.87607943
_symmetry_Int_Tables_number   1
_chemical_formula_structural   Hf17Sc(Re4P)2
_chemical_formula_sum   'Hf17 Sc1 Re8 P2'
_cell_volume   546.75481034
_cell_formula_units_Z   1
loop_
 _symmetry_equiv_pos_site_id
 _symmetry_equiv_pos_as_xyz
  1  'x, y, z'
loop_
 _atom_site_type_symbol
 _atom_site_label
 _atom_site_symmetry_multiplicity
 _atom_site_fract_x
 _atom_site_fract_y
 _atom_site_fract_z
 _atom_site_occupancy
  Hf  Hf0  1  0.196225  0.803775  0.452031  1
  Hf  Hf1  1  0.196410  0.391583  0.450877  1
  Hf  Hf2  1  0.608417  0.803590  0.450877  1
  Hf  Hf3  1  0.803093  0.196907  0.547936  1
  Hf  Hf4  1  0.804015  0.608728  0.548904  1
  Hf  Hf5  1  0.391272  0.195985  0.548904  1
  Hf  Hf6  1  0.803093  0.196907  0.952064  1
  Hf  Hf7  1  0.804015  0.608728  0.951096  1
  Hf  Hf8  1  0.391272  0.195985  0.951096  1
  Hf  Hf9  1  0.196225  0.803775  0.047969  1
  Hf  Hf10  1  0.196410  0.391583  0.049123  1
  Hf  Hf11  1  0.608417  0.803590  0.049123  1
  Hf  Hf12  1  0.539142  0.077366  0.250000  1
  Hf  Hf13  1  0.922634  0.460858  0.250000  1
  Hf  Hf14  1  0.458598  0.541402  0.750000  1
  Hf  Hf15  1  0.460376  0.920615  0.750000  1
  Hf  Hf16  1  0.079385  0.539624  0.750000  1
  Sc  Sc17  1  0.541955  0.458045  0.250000  1
  Re  Re18  1  0.891140  0.108860  0.250000  1
  Re  Re19  1  0.891304  0.780042  0.250000  1
  Re  Re20  1  0.219958  0.108696  0.250000  1
  Re  Re21  1  0.109113  0.890887  0.750000  1
  Re  Re22  1  0.108978  0.219654  0.750000  1
  Re  Re23  1  0.780346  0.891022  0.750000  1
  Re  Re24  1  0.999777  0.000223  0.499841  1
  Re  Re25  1  0.999777  0.000223  0.000159  1
  P  P26  1  0.332393  0.667607  0.250000  1
  P  P27  1  0.666261  0.333739  0.750000  1
