# generated using pymatgen
data_Y4ZrTi3Ir4
_symmetry_space_group_name_H-M   'P 1'
_cell_length_a   4.39619400
_cell_length_b   6.98714882
_cell_length_c   8.19929623
_cell_angle_alpha   89.90230199
_cell_angle_beta   90.00000000
_cell_angle_gamma   90.00000000
_symmetry_Int_Tables_number   1
_chemical_formula_structural   Y4ZrTi3Ir4
_chemical_formula_sum   'Y4 Zr1 Ti3 Ir4'
_cell_volume   251.85628245
_cell_formula_units_Z   1
loop_
 _symmetry_equiv_pos_site_id
 _symmetry_equiv_pos_as_xyz
  1  'x, y, z'
loop_
 _atom_site_type_symbol
 _atom_site_label
 _atom_site_symmetry_multiplicity
 _atom_site_fract_x
 _atom_site_fract_y
 _atom_site_fract_z
 _atom_site_occupancy
  Y  Y0  1  0.250000  0.981991  0.313019  1
  Y  Y1  1  0.250000  0.485614  0.180961  1
  Y  Y2  1  0.750000  0.006006  0.683345  1
  Y  Y3  1  0.750000  0.521173  0.826008  1
  Zr  Zr4  1  0.250000  0.354119  0.573178  1
  Ti  Ti5  1  0.250000  0.862648  0.934399  1
  Ti  Ti6  1  0.750000  0.639857  0.431767  1
  Ti  Ti7  1  0.750000  0.139888  0.066237  1
  Ir  Ir8  1  0.250000  0.219260  0.911590  1
  Ir  Ir9  1  0.250000  0.728845  0.591403  1
  Ir  Ir10  1  0.750000  0.783090  0.093865  1
  Ir  Ir11  1  0.750000  0.277508  0.394227  1
