# generated using pymatgen
data_Ta10Ga4GeAs
_symmetry_space_group_name_H-M   'P 1'
_cell_length_a   6.70582914
_cell_length_b   7.67246551
_cell_length_c   6.70952169
_cell_angle_alpha   115.88933920
_cell_angle_beta   90.08029722
_cell_angle_gamma   115.87398900
_symmetry_Int_Tables_number   1
_chemical_formula_structural   Ta10Ga4GeAs
_chemical_formula_sum   'Ta10 Ga4 Ge1 As1'
_cell_volume   271.45948311
_cell_formula_units_Z   1
loop_
 _symmetry_equiv_pos_site_id
 _symmetry_equiv_pos_as_xyz
  1  'x, y, z'
loop_
 _atom_site_type_symbol
 _atom_site_label
 _atom_site_symmetry_multiplicity
 _atom_site_fract_x
 _atom_site_fract_y
 _atom_site_fract_z
 _atom_site_occupancy
  Ta  Ta0  1  0.997526  0.000000  0.999586  1
  Ta  Ta1  1  0.501734  0.000000  0.501146  1
  Ta  Ta2  1  0.506222  0.690389  0.684135  1
  Ta  Ta3  1  0.182980  0.689743  0.006855  1
  Ta  Ta4  1  0.684299  0.691507  0.183710  1
  Ta  Ta5  1  0.008271  0.691803  0.507704  1
  Ta  Ta6  1  0.493239  0.310257  0.317115  1
  Ta  Ta7  1  0.815834  0.309611  0.993748  1
  Ta  Ta8  1  0.316468  0.308197  0.815903  1
  Ta  Ta9  1  0.992793  0.308493  0.492203  1
  Ga  Ga10  1  0.749639  0.500015  0.750741  1
  Ga  Ga11  1  0.249623  0.499985  0.250725  1
  Ga  Ga12  1  0.139205  0.000000  0.361171  1
  Ga  Ga13  1  0.363808  0.000000  0.865719  1
  Ge  Ge14  1  0.632465  0.000000  0.134619  1
  As  As15  1  0.865896  0.000000  0.634919  1
