# generated using pymatgen
data_Sc2In(Co3B2)3
_symmetry_space_group_name_H-M   'P 1'
_cell_length_a   5.69653204
_cell_length_b   5.69653275
_cell_length_c   5.69653240
_cell_angle_alpha   95.51312633
_cell_angle_beta   95.51313212
_cell_angle_gamma   95.51312789
_symmetry_Int_Tables_number   1
_chemical_formula_structural   Sc2In(Co3B2)3
_chemical_formula_sum   'Sc2 In1 Co9 B6'
_cell_volume   182.11156050
_cell_formula_units_Z   1
loop_
 _symmetry_equiv_pos_site_id
 _symmetry_equiv_pos_as_xyz
  1  'x, y, z'
loop_
 _atom_site_type_symbol
 _atom_site_label
 _atom_site_symmetry_multiplicity
 _atom_site_fract_x
 _atom_site_fract_y
 _atom_site_fract_z
 _atom_site_occupancy
  Sc  Sc0  1  0.672081  0.672081  0.672081  1
  Sc  Sc1  1  0.327919  0.327919  0.327919  1
  In  In2  1  0.000000  0.000000  0.000000  1
  Co  Co3  1  0.000000  0.000000  0.500000  1
  Co  Co4  1  0.500000  0.000000  0.000000  1
  Co  Co5  1  0.000000  0.500000  0.000000  1
  Co  Co6  1  0.701553  0.201088  0.701553  1
  Co  Co7  1  0.701553  0.701553  0.201088  1
  Co  Co8  1  0.201088  0.701553  0.701553  1
  Co  Co9  1  0.298447  0.798912  0.298447  1
  Co  Co10  1  0.298447  0.298447  0.798912  1
  Co  Co11  1  0.798912  0.298447  0.298447  1
  B  B12  1  0.613831  0.386169  0.000000  1
  B  B13  1  0.000000  0.613831  0.386169  1
  B  B14  1  0.386169  0.000000  0.613831  1
  B  B15  1  0.000000  0.386169  0.613831  1
  B  B16  1  0.613831  0.000000  0.386169  1
  B  B17  1  0.386169  0.613831  0.000000  1
