# generated using pymatgen
data_Tb5Ho2Co4Sn23Os2
_symmetry_space_group_name_H-M   'P 1'
_cell_length_a   9.76679258
_cell_length_b   9.76679180
_cell_length_c   10.05379801
_cell_angle_alpha   90.46092246
_cell_angle_beta   89.53907193
_cell_angle_gamma   119.87365235
_symmetry_Int_Tables_number   1
_chemical_formula_structural   Tb5Ho2Co4Sn23Os2
_chemical_formula_sum   'Tb5 Ho2 Co4 Sn23 Os2'
_cell_volume   831.56737287
_cell_formula_units_Z   1
loop_
 _symmetry_equiv_pos_site_id
 _symmetry_equiv_pos_as_xyz
  1  'x, y, z'
loop_
 _atom_site_type_symbol
 _atom_site_label
 _atom_site_symmetry_multiplicity
 _atom_site_fract_x
 _atom_site_fract_y
 _atom_site_fract_z
 _atom_site_occupancy
  Tb  Tb0  1  0.000000  0.000000  0.000000  1
  Tb  Tb1  1  0.481728  0.959518  0.304824  1
  Tb  Tb2  1  0.518272  0.040482  0.695176  1
  Tb  Tb3  1  0.040482  0.518272  0.304824  1
  Tb  Tb4  1  0.959518  0.481728  0.695176  1
  Ho  Ho5  1  0.480362  0.519638  0.306831  1
  Ho  Ho6  1  0.519638  0.480362  0.693169  1
  Co  Co7  1  0.830084  0.662220  0.198129  1
  Co  Co8  1  0.169916  0.337780  0.801871  1
  Co  Co9  1  0.337780  0.169916  0.198129  1
  Co  Co10  1  0.662220  0.830084  0.801871  1
  Sn  Sn11  1  0.349704  0.003674  0.004321  1
  Sn  Sn12  1  0.650296  0.996326  0.995679  1
  Sn  Sn13  1  0.003674  0.349704  0.995679  1
  Sn  Sn14  1  0.996326  0.650296  0.004321  1
  Sn  Sn15  1  0.653833  0.653833  0.000000  1
  Sn  Sn16  1  0.346167  0.346167  0.000000  1
  Sn  Sn17  1  0.334430  0.665570  0.819070  1
  Sn  Sn18  1  0.665570  0.334430  0.180930  1
  Sn  Sn19  1  0.000000  0.000000  0.500000  1
  Sn  Sn20  1  0.780564  0.219436  0.458452  1
  Sn  Sn21  1  0.219436  0.780564  0.541548  1
  Sn  Sn22  1  0.781727  0.564673  0.451285  1
  Sn  Sn23  1  0.218273  0.435327  0.548715  1
  Sn  Sn24  1  0.435327  0.218273  0.451285  1
  Sn  Sn25  1  0.564673  0.781727  0.548715  1
  Sn  Sn26  1  0.334730  0.665270  0.117220  1
  Sn  Sn27  1  0.665270  0.334730  0.882780  1
  Sn  Sn28  1  0.117101  0.882899  0.270251  1
  Sn  Sn29  1  0.882899  0.117101  0.729749  1
  Sn  Sn30  1  0.124420  0.236418  0.275786  1
  Sn  Sn31  1  0.875580  0.763582  0.724214  1
  Sn  Sn32  1  0.763582  0.875580  0.275786  1
  Sn  Sn33  1  0.236418  0.124420  0.724214  1
  Os  Os34  1  0.832612  0.167388  0.198609  1
  Os  Os35  1  0.167388  0.832612  0.801391  1
