# generated using pymatgen
data_Pm4AgAu3
_symmetry_space_group_name_H-M   'P 1'
_cell_length_a   7.46447685
_cell_length_b   5.84402456
_cell_length_c   4.80574800
_cell_angle_alpha   90.00000000
_cell_angle_beta   90.00000000
_cell_angle_gamma   90.20178708
_symmetry_Int_Tables_number   1
_chemical_formula_structural   Pm4AgAu3
_chemical_formula_sum   'Pm4 Ag1 Au3'
_cell_volume   209.63785541
_cell_formula_units_Z   1
loop_
 _symmetry_equiv_pos_site_id
 _symmetry_equiv_pos_as_xyz
  1  'x, y, z'
loop_
 _atom_site_type_symbol
 _atom_site_label
 _atom_site_symmetry_multiplicity
 _atom_site_fract_x
 _atom_site_fract_y
 _atom_site_fract_z
 _atom_site_occupancy
  Pm  Pm0  1  0.105257  0.513463  0.000000  1
  Pm  Pm1  1  0.596340  0.731242  0.000000  1
  Pm  Pm2  1  0.234568  0.025806  0.499999  1
  Pm  Pm3  1  0.727437  0.229147  0.499999  1
  Ag  Ag4  1  0.880818  0.726210  0.499999  1
  Au  Au5  1  0.459527  0.223994  0.000000  1
  Au  Au6  1  0.954820  0.016194  0.000000  1
  Au  Au7  1  0.374566  0.533946  0.499999  1
