# generated using pymatgen
data_La5HgRu2
_symmetry_space_group_name_H-M   'P 1'
_cell_length_a   9.12326887
_cell_length_b   9.12326714
_cell_length_c   9.12326781
_cell_angle_alpha   127.87733910
_cell_angle_beta   127.87733736
_cell_angle_gamma   76.82382327
_symmetry_Int_Tables_number   1
_chemical_formula_structural   La5HgRu2
_chemical_formula_sum   'La10 Hg2 Ru4'
_cell_volume   459.38155445
_cell_formula_units_Z   2
loop_
 _symmetry_equiv_pos_site_id
 _symmetry_equiv_pos_as_xyz
  1  'x, y, z'
loop_
 _atom_site_type_symbol
 _atom_site_label
 _atom_site_symmetry_multiplicity
 _atom_site_fract_x
 _atom_site_fract_y
 _atom_site_fract_z
 _atom_site_occupancy
  La  La0  1  0.000000  0.000000  0.000000  1
  La  La1  1  0.500000  0.500000  0.000000  1
  La  La2  1  0.792906  0.292906  0.823270  1
  La  La3  1  0.207094  0.707094  0.176730  1
  La  La4  1  0.469637  0.969637  0.176730  1
  La  La5  1  0.292906  0.469637  0.500000  1
  La  La6  1  0.030363  0.207094  0.500000  1
  La  La7  1  0.530363  0.030363  0.823270  1
  La  La8  1  0.707094  0.530363  0.500000  1
  La  La9  1  0.969637  0.792906  0.500000  1
  Hg  Hg10  1  0.250000  0.250000  0.000000  1
  Hg  Hg11  1  0.750000  0.750000  0.000000  1
  Ru  Ru12  1  0.142868  0.642868  0.785734  1
  Ru  Ru13  1  0.857132  0.357132  0.214266  1
  Ru  Ru14  1  0.642868  0.857132  0.500000  1
  Ru  Ru15  1  0.357132  0.142868  0.500000  1
