# generated using pymatgen
data_Li3La12Yb4MgRu4
_symmetry_space_group_name_H-M   'P 1'
_cell_length_a   10.09727738
_cell_length_b   10.13809879
_cell_length_c   10.10599470
_cell_angle_alpha   59.89486853
_cell_angle_beta   60.42629478
_cell_angle_gamma   59.86617128
_symmetry_Int_Tables_number   1
_chemical_formula_structural   Li3La12Yb4MgRu4
_chemical_formula_sum   'Li3 La12 Yb4 Mg1 Ru4'
_cell_volume   732.50853731
_cell_formula_units_Z   1
loop_
 _symmetry_equiv_pos_site_id
 _symmetry_equiv_pos_as_xyz
  1  'x, y, z'
loop_
 _atom_site_type_symbol
 _atom_site_label
 _atom_site_symmetry_multiplicity
 _atom_site_fract_x
 _atom_site_fract_y
 _atom_site_fract_z
 _atom_site_occupancy
  Li  Li0  1  0.825815  0.827287  0.826292  1
  Li  Li1  1  0.521635  0.825650  0.827065  1
  Li  Li2  1  0.825815  0.520606  0.826292  1
  La  La3  1  0.590477  0.593019  0.223485  1
  La  La4  1  0.435321  0.065313  0.063763  1
  La  La5  1  0.063569  0.436939  0.062553  1
  La  La6  1  0.440679  0.060337  0.438647  1
  La  La7  1  0.223171  0.593643  0.589543  1
  La  La8  1  0.063437  0.436623  0.435278  1
  La  La9  1  0.593830  0.221570  0.591820  1
  La  La10  1  0.593830  0.592780  0.591820  1
  La  La11  1  0.187266  0.810394  0.191946  1
  La  La12  1  0.809386  0.190968  0.808678  1
  La  La13  1  0.063437  0.064662  0.435278  1
  La  La14  1  0.435321  0.435603  0.063763  1
  Yb  Yb15  1  0.809801  0.190533  0.189742  1
  Yb  Yb16  1  0.189791  0.190891  0.809607  1
  Yb  Yb17  1  0.809801  0.809924  0.189742  1
  Yb  Yb18  1  0.189791  0.809712  0.809607  1
  Mg  Mg19  1  0.827484  0.826048  0.520420  1
  Ru  Ru20  1  0.842030  0.384378  0.389213  1
  Ru  Ru21  1  0.385187  0.388025  0.385232  1
  Ru  Ru22  1  0.385187  0.841555  0.385232  1
  Ru  Ru23  1  0.387940  0.383539  0.844981  1
