# generated using pymatgen
data_Y15Lu5Bi12
_symmetry_space_group_name_H-M   'P 1'
_cell_length_a   8.22091339
_cell_length_b   9.50841306
_cell_length_c   12.04171942
_cell_angle_alpha   90.00171883
_cell_angle_beta   90.08646061
_cell_angle_gamma   89.98742630
_symmetry_Int_Tables_number   1
_chemical_formula_structural   Y15Lu5Bi12
_chemical_formula_sum   'Y15 Lu5 Bi12'
_cell_volume   941.27410555
_cell_formula_units_Z   1
loop_
 _symmetry_equiv_pos_site_id
 _symmetry_equiv_pos_as_xyz
  1  'x, y, z'
loop_
 _atom_site_type_symbol
 _atom_site_label
 _atom_site_symmetry_multiplicity
 _atom_site_fract_x
 _atom_site_fract_y
 _atom_site_fract_z
 _atom_site_occupancy
  Y  Y0  1  0.185789  0.750281  0.718973  1
  Y  Y1  1  0.685907  0.750177  0.781047  1
  Y  Y2  1  0.814371  0.250212  0.280798  1
  Y  Y3  1  0.313952  0.250246  0.218355  1
  Y  Y4  1  0.806590  0.063171  0.560000  1
  Y  Y5  1  0.692427  0.936230  0.058990  1
  Y  Y6  1  0.193472  0.563036  0.440093  1
  Y  Y7  1  0.694041  0.562373  0.059765  1
  Y  Y8  1  0.192859  0.936977  0.440166  1
  Y  Y9  1  0.306657  0.062624  0.940516  1
  Y  Y10  1  0.806442  0.437124  0.559923  1
  Y  Y11  1  0.355640  0.751234  0.215736  1
  Y  Y12  1  0.854923  0.750414  0.283928  1
  Y  Y13  1  0.643689  0.251314  0.784473  1
  Y  Y14  1  0.146905  0.251318  0.716583  1
  Lu  Lu15  1  0.025625  0.750094  0.989166  1
  Lu  Lu16  1  0.525184  0.750569  0.511098  1
  Lu  Lu17  1  0.976112  0.250741  0.010856  1
  Lu  Lu18  1  0.474595  0.250249  0.489142  1
  Lu  Lu19  1  0.306476  0.432448  0.940567  1
  Bi  Bi20  1  0.433554  0.003862  0.671840  1
  Bi  Bi21  1  0.934274  0.496786  0.828695  1
  Bi  Bi22  1  0.566190  0.503823  0.328131  1
  Bi  Bi23  1  0.066348  0.996740  0.171506  1
  Bi  Bi24  1  0.566536  0.997060  0.328421  1
  Bi  Bi25  1  0.066606  0.504143  0.171342  1
  Bi  Bi26  1  0.433117  0.497083  0.671733  1
  Bi  Bi27  1  0.933387  0.004316  0.828639  1
  Bi  Bi28  1  0.405308  0.745264  0.957359  1
  Bi  Bi29  1  0.906884  0.749931  0.541726  1
  Bi  Bi30  1  0.593274  0.250157  0.041716  1
  Bi  Bi31  1  0.092865  0.250006  0.458718  1
