# generated using pymatgen
data_Zr10GaSiBiPb5
_symmetry_space_group_name_H-M   'P 1'
_cell_length_a   8.84844877
_cell_length_b   8.84844886
_cell_length_c   5.96638820
_cell_angle_alpha   89.98506012
_cell_angle_beta   89.98506398
_cell_angle_gamma   119.89530974
_symmetry_Int_Tables_number   1
_chemical_formula_structural   Zr10GaSiBiPb5
_chemical_formula_sum   'Zr10 Ga1 Si1 Bi1 Pb5'
_cell_volume   404.97997538
_cell_formula_units_Z   1
loop_
 _symmetry_equiv_pos_site_id
 _symmetry_equiv_pos_as_xyz
  1  'x, y, z'
loop_
 _atom_site_type_symbol
 _atom_site_label
 _atom_site_symmetry_multiplicity
 _atom_site_fract_x
 _atom_site_fract_y
 _atom_site_fract_z
 _atom_site_occupancy
  Zr  Zr0  1  0.666782  0.333237  0.500101  1
  Zr  Zr1  1  0.333237  0.666782  0.500101  1
  Zr  Zr2  1  0.333199  0.666780  0.999880  1
  Zr  Zr3  1  0.666780  0.333199  0.999880  1
  Zr  Zr4  1  0.741361  0.741361  0.244302  1
  Zr  Zr5  1  0.258487  0.999309  0.244199  1
  Zr  Zr6  1  0.999309  0.258487  0.244199  1
  Zr  Zr7  1  0.258408  0.258408  0.755804  1
  Zr  Zr8  1  0.741119  0.999788  0.755772  1
  Zr  Zr9  1  0.999788  0.741119  0.755772  1
  Ga  Ga10  1  0.999825  0.999825  0.499899  1
  Si  Si11  1  0.999875  0.999875  0.999983  1
  Bi  Bi12  1  0.392957  0.392957  0.252905  1
  Pb  Pb13  1  0.608511  0.000052  0.253094  1
  Pb  Pb14  1  0.000052  0.608511  0.253094  1
  Pb  Pb15  1  0.609158  0.609158  0.747118  1
  Pb  Pb16  1  0.391551  0.999599  0.746948  1
  Pb  Pb17  1  0.999599  0.391551  0.746948  1
