# generated using pymatgen
data_Cs12Ta(In2P3)3
_symmetry_space_group_name_H-M   'P 1'
_cell_length_a   9.51135016
_cell_length_b   9.55720225
_cell_length_c   25.04643700
_cell_angle_alpha   86.84386368
_cell_angle_beta   87.15268637
_cell_angle_gamma   63.56418617
_symmetry_Int_Tables_number   1
_chemical_formula_structural   Cs12Ta(In2P3)3
_chemical_formula_sum   'Cs24 Ta2 In12 P18'
_cell_volume   2034.79661409
_cell_formula_units_Z   2
loop_
 _symmetry_equiv_pos_site_id
 _symmetry_equiv_pos_as_xyz
  1  'x, y, z'
loop_
 _atom_site_type_symbol
 _atom_site_label
 _atom_site_symmetry_multiplicity
 _atom_site_fract_x
 _atom_site_fract_y
 _atom_site_fract_z
 _atom_site_occupancy
  Cs  Cs0  1  0.059496  0.947341  0.307282  1
  Cs  Cs1  1  0.848395  0.393597  0.259216  1
  Cs  Cs2  1  0.664903  0.441830  0.433089  1
  Cs  Cs3  1  0.465257  0.881024  0.384501  1
  Cs  Cs4  1  0.380415  0.788076  0.180137  1
  Cs  Cs5  1  0.200321  0.038395  0.533218  1
  Cs  Cs6  1  0.175975  0.233752  0.132439  1
  Cs  Cs7  1  0.712943  0.866642  0.251794  1
  Cs  Cs8  1  0.474089  0.686365  0.813310  1
  Cs  Cs9  1  0.940504  0.052659  0.692718  1
  Cs  Cs10  1  0.757804  0.306019  0.065413  1
  Cs  Cs11  1  0.287057  0.133358  0.748206  1
  Cs  Cs12  1  0.335097  0.558170  0.566911  1
  Cs  Cs13  1  0.534743  0.118976  0.615499  1
  Cs  Cs14  1  0.463185  0.235174  0.983675  1
  Cs  Cs15  1  0.151605  0.606403  0.740784  1
  Cs  Cs16  1  0.619585  0.211924  0.819863  1
  Cs  Cs17  1  0.000000  0.500000  0.500000  1
  Cs  Cs18  1  0.242196  0.693981  0.934587  1
  Cs  Cs19  1  0.536815  0.764826  0.016325  1
  Cs  Cs20  1  0.799679  0.961605  0.466782  1
  Cs  Cs21  1  0.525911  0.313635  0.186690  1
  Cs  Cs22  1  0.000000  0.500000  0.000000  1
  Cs  Cs23  1  0.824025  0.766248  0.867561  1
  Ta  Ta24  1  0.758238  0.442210  0.611900  1
  Ta  Ta25  1  0.241762  0.557790  0.388100  1
  In  In26  1  0.477428  0.764883  0.665034  1
  In  In27  1  0.175572  0.502808  0.267259  1
  In  In28  1  0.920482  0.118493  0.941097  1
  In  In29  1  0.707543  0.936926  0.104398  1
  In  In30  1  0.522572  0.235117  0.334966  1
  In  In31  1  0.079518  0.881507  0.058903  1
  In  In32  1  0.129652  0.272147  0.375767  1
  In  In33  1  0.870348  0.727853  0.624233  1
  In  In34  1  0.053459  0.658530  0.158056  1
  In  In35  1  0.824428  0.497192  0.732741  1
  In  In36  1  0.946541  0.341470  0.841944  1
  In  In37  1  0.292457  0.063074  0.895602  1
  P  P38  1  0.155284  0.083732  0.003192  1
  P  P39  1  0.789606  0.247230  0.554508  1
  P  P40  1  0.591352  0.445510  0.689338  1
  P  P41  1  0.210394  0.752770  0.445492  1
  P  P42  1  0.363263  0.298126  0.431843  1
  P  P43  1  0.298489  0.185737  0.278476  1
  P  P44  1  0.013174  0.403299  0.643875  1
  P  P45  1  0.721570  0.413596  0.917045  1
  P  P46  1  0.636737  0.701874  0.568157  1
  P  P47  1  0.194085  0.375393  0.864090  1
  P  P48  1  0.048439  0.027496  0.842546  1
  P  P49  1  0.701511  0.814263  0.721524  1
  P  P50  1  0.278430  0.586404  0.082955  1
  P  P51  1  0.844716  0.916268  0.996808  1
  P  P52  1  0.408648  0.554490  0.310662  1
  P  P53  1  0.951561  0.972504  0.157454  1
  P  P54  1  0.986826  0.596701  0.356126  1
  P  P55  1  0.805915  0.624607  0.135910  1
