# generated using pymatgen
data_Sc4Nb2ReSi6Tc5
_symmetry_space_group_name_H-M   'P 1'
_cell_length_a   7.70729993
_cell_length_b   7.69898420
_cell_length_c   7.71202945
_cell_angle_alpha   126.21341596
_cell_angle_beta   128.34018731
_cell_angle_gamma   77.81099996
_symmetry_Int_Tables_number   1
_chemical_formula_structural   Sc4Nb2ReSi6Tc5
_chemical_formula_sum   'Sc4 Nb2 Re1 Si6 Tc5'
_cell_volume   280.73090923
_cell_formula_units_Z   1
loop_
 _symmetry_equiv_pos_site_id
 _symmetry_equiv_pos_as_xyz
  1  'x, y, z'
loop_
 _atom_site_type_symbol
 _atom_site_label
 _atom_site_symmetry_multiplicity
 _atom_site_fract_x
 _atom_site_fract_y
 _atom_site_fract_z
 _atom_site_occupancy
  Sc  Sc0  1  0.551114  0.098259  0.047341  1
  Sc  Sc1  1  0.449521  0.495938  0.547920  1
  Sc  Sc2  1  0.948007  0.495943  0.046458  1
  Sc  Sc3  1  0.050931  0.098167  0.547119  1
  Nb  Nb4  1  0.749789  0.896378  0.646594  1
  Nb  Nb5  1  0.249862  0.896422  0.146728  1
  Re  Re6  1  0.373917  0.504426  0.130271  1
  Si  Si7  1  0.751482  0.496547  0.247118  1
  Si  Si8  1  0.249451  0.496624  0.745146  1
  Si  Si9  1  0.333551  0.828636  0.495162  1
  Si  Si10  1  0.665719  0.160816  0.495081  1
  Si  Si11  1  0.834157  0.829607  0.995495  1
  Si  Si12  1  0.166863  0.163066  0.996228  1
  Tc  Tc13  1  0.499515  0.233136  0.733638  1
  Tc  Tc14  1  0.000177  0.233757  0.233648  1
  Tc  Tc15  1  0.126118  0.756367  0.630176  1
  Tc  Tc16  1  0.873746  0.502968  0.629155  1
  Tc  Tc17  1  0.626079  0.755143  0.128922  1
