# generated using pymatgen
data_YEr3(CBr)2
_symmetry_space_group_name_H-M   'P 1'
_cell_length_a   3.66252500
_cell_length_b   3.66252502
_cell_length_c   14.03227200
_cell_angle_alpha   90.00000000
_cell_angle_beta   90.00000000
_cell_angle_gamma   119.99999082
_symmetry_Int_Tables_number   1
_chemical_formula_structural   YEr3(CBr)2
_chemical_formula_sum   'Y1 Er3 C2 Br2'
_cell_volume   163.01210814
_cell_formula_units_Z   1
loop_
 _symmetry_equiv_pos_site_id
 _symmetry_equiv_pos_as_xyz
  1  'x, y, z'
loop_
 _atom_site_type_symbol
 _atom_site_label
 _atom_site_symmetry_multiplicity
 _atom_site_fract_x
 _atom_site_fract_y
 _atom_site_fract_z
 _atom_site_occupancy
  Y  Y0  1  0.333333  0.666667  0.910056  1
  Er  Er1  1  0.333333  0.666667  0.588495  1
  Er  Er2  1  0.666667  0.333333  0.410850  1
  Er  Er3  1  0.666667  0.333333  0.089764  1
  C  C4  1  0.000000  0.000000  0.003136  1
  C  C5  1  0.000000  0.000000  0.499640  1
  Br  Br6  1  0.333333  0.666667  0.250711  1
  Br  Br7  1  0.666667  0.333333  0.747348  1
