# generated using pymatgen
data_Tm5Co19Si11B
_symmetry_space_group_name_H-M   'P 1'
_cell_length_a   12.04715368
_cell_length_b   12.00322764
_cell_length_c   3.69864100
_cell_angle_alpha   90.00000000
_cell_angle_beta   90.00000000
_cell_angle_gamma   119.87945789
_symmetry_Int_Tables_number   1
_chemical_formula_structural   Tm5Co19Si11B
_chemical_formula_sum   'Tm5 Co19 Si11 B1'
_cell_volume   463.74746081
_cell_formula_units_Z   1
loop_
 _symmetry_equiv_pos_site_id
 _symmetry_equiv_pos_as_xyz
  1  'x, y, z'
loop_
 _atom_site_type_symbol
 _atom_site_label
 _atom_site_symmetry_multiplicity
 _atom_site_fract_x
 _atom_site_fract_y
 _atom_site_fract_z
 _atom_site_occupancy
  Tm  Tm0  1  0.669410  0.331256  0.000000  1
  Tm  Tm1  1  0.330590  0.661848  0.000000  1
  Tm  Tm2  1  0.178680  0.187508  0.500000  1
  Tm  Tm3  1  0.821320  0.008827  0.500000  1
  Tm  Tm4  1  0.000000  0.815985  0.500000  1
  Co  Co5  1  0.827995  0.194092  0.000000  1
  Co  Co6  1  0.804273  0.624538  0.000000  1
  Co  Co7  1  0.377088  0.180213  0.000000  1
  Co  Co8  1  0.195727  0.820267  0.000000  1
  Co  Co9  1  0.622912  0.803126  0.000000  1
  Co  Co10  1  0.172005  0.366098  0.000000  1
  Co  Co11  1  0.558884  0.558124  0.000000  1
  Co  Co12  1  0.441116  0.999240  0.000000  1
  Co  Co13  1  0.000000  0.438349  0.000000  1
  Co  Co14  1  0.646480  0.123936  0.500000  1
  Co  Co15  1  0.876692  0.518678  0.500000  1
  Co  Co16  1  0.479439  0.355656  0.500000  1
  Co  Co17  1  0.123308  0.641986  0.500000  1
  Co  Co18  1  0.520561  0.876218  0.500000  1
  Co  Co19  1  0.353520  0.477455  0.500000  1
  Co  Co20  1  0.720543  0.720939  0.500000  1
  Co  Co21  1  0.279457  0.000396  0.500000  1
  Co  Co22  1  0.000000  0.269108  0.500000  1
  Co  Co23  1  0.000000  0.019852  0.000000  1
  Si  Si24  1  0.369666  0.369889  0.000000  1
  Si  Si25  1  0.630334  0.000223  0.000000  1
  Si  Si26  1  0.000000  0.628381  0.000000  1
  Si  Si27  1  0.843655  0.315553  0.500000  1
  Si  Si28  1  0.682598  0.521600  0.500000  1
  Si  Si29  1  0.478898  0.160188  0.500000  1
  Si  Si30  1  0.317402  0.839003  0.500000  1
  Si  Si31  1  0.521102  0.681291  0.500000  1
  Si  Si32  1  0.156345  0.471898  0.500000  1
  Si  Si33  1  0.820970  0.823124  0.000000  1
  Si  Si34  1  0.179030  0.002154  0.000000  1
  B  B35  1  0.000000  0.193001  0.000000  1
