# generated using pymatgen
data_SrPrPt7O18
_symmetry_space_group_name_H-M   'P 1'
_cell_length_a   6.73167984
_cell_length_b   7.12723939
_cell_length_c   7.55227669
_cell_angle_alpha   92.52212472
_cell_angle_beta   96.77141492
_cell_angle_gamma   114.30956433
_symmetry_Int_Tables_number   1
_chemical_formula_structural   SrPrPt7O18
_chemical_formula_sum   'Sr1 Pr1 Pt7 O18'
_cell_volume   326.19532657
_cell_formula_units_Z   1
loop_
 _symmetry_equiv_pos_site_id
 _symmetry_equiv_pos_as_xyz
  1  'x, y, z'
loop_
 _atom_site_type_symbol
 _atom_site_label
 _atom_site_symmetry_multiplicity
 _atom_site_fract_x
 _atom_site_fract_y
 _atom_site_fract_z
 _atom_site_occupancy
  Sr  Sr0  1  0.317339  0.691035  0.612727  1
  Pr  Pr1  1  0.679399  0.305351  0.403342  1
  Pt  Pt2  1  0.606090  0.714895  0.116192  1
  Pt  Pt3  1  0.197200  0.879034  0.183178  1
  Pt  Pt4  1  0.176506  0.382893  0.199593  1
  Pt  Pt5  1  0.999220  0.001505  0.498724  1
  Pt  Pt6  1  0.824005  0.618897  0.799392  1
  Pt  Pt7  1  0.803616  0.121581  0.817638  1
  Pt  Pt8  1  0.397648  0.284164  0.884207  1
  O  O9  1  0.695203  0.488463  0.023053  1
  O  O10  1  0.876007  0.223854  0.074989  1
  O  O11  1  0.314999  0.183443  0.127781  1
  O  O12  1  0.512164  0.933644  0.189249  1
  O  O13  1  0.913015  0.903085  0.233457  1
  O  O14  1  0.090161  0.604175  0.282454  1
  O  O15  1  0.490876  0.554191  0.324471  1
  O  O16  1  0.056604  0.288128  0.428215  1
  O  O17  1  0.291577  0.012366  0.438236  1
  O  O18  1  0.711992  0.001414  0.558045  1
  O  O19  1  0.924291  0.708307  0.564156  1
  O  O20  1  0.516008  0.433213  0.670334  1
  O  O21  1  0.904226  0.394197  0.711799  1
  O  O22  1  0.088451  0.099926  0.764198  1
  O  O23  1  0.490797  0.066548  0.816053  1
  O  O24  1  0.690386  0.818853  0.874198  1
  O  O25  1  0.123694  0.775829  0.926841  1
  O  O26  1  0.308525  0.511007  0.977478  1
