# generated using pymatgen
data_Sc12P5C3Se
_symmetry_space_group_name_H-M   'P 1'
_cell_length_a   10.75373500
_cell_length_b   10.75373551
_cell_length_c   3.62991200
_cell_angle_alpha   90.00000000
_cell_angle_beta   90.00000000
_cell_angle_gamma   120.00000150
_symmetry_Int_Tables_number   1
_chemical_formula_structural   Sc12P5C3Se
_chemical_formula_sum   'Sc12 P5 C3 Se1'
_cell_volume   363.53430774
_cell_formula_units_Z   1
loop_
 _symmetry_equiv_pos_site_id
 _symmetry_equiv_pos_as_xyz
  1  'x, y, z'
loop_
 _atom_site_type_symbol
 _atom_site_label
 _atom_site_symmetry_multiplicity
 _atom_site_fract_x
 _atom_site_fract_y
 _atom_site_fract_z
 _atom_site_occupancy
  Sc  Sc0  1  0.812400  0.000000  0.000000  1
  Sc  Sc1  1  0.187600  0.187600  0.000000  1
  Sc  Sc2  1  0.000000  0.812400  0.000000  1
  Sc  Sc3  1  0.000000  0.538485  0.000000  1
  Sc  Sc4  1  0.461515  0.461515  0.000000  1
  Sc  Sc5  1  0.538485  0.000000  0.000000  1
  Sc  Sc6  1  0.444894  0.202952  0.500000  1
  Sc  Sc7  1  0.797048  0.241942  0.500000  1
  Sc  Sc8  1  0.758058  0.555106  0.500000  1
  Sc  Sc9  1  0.555106  0.758058  0.500000  1
  Sc  Sc10  1  0.241942  0.797048  0.500000  1
  Sc  Sc11  1  0.202952  0.444894  0.500000  1
  P  P12  1  0.666667  0.333333  0.000000  1
  P  P13  1  0.333333  0.666667  0.000000  1
  P  P14  1  0.000000  0.292296  0.000000  1
  P  P15  1  0.707704  0.707704  0.000000  1
  P  P16  1  0.292296  0.000000  0.000000  1
  C  C17  1  0.000000  0.667578  0.500000  1
  C  C18  1  0.332422  0.332422  0.500000  1
  C  C19  1  0.667578  0.000000  0.500000  1
  Se  Se20  1  0.000000  0.000000  0.500000  1
