# generated using pymatgen
data_Tb3Ho13(TmPb4)4
_symmetry_space_group_name_H-M   'P 1'
_cell_length_a   8.17936667
_cell_length_b   8.25357095
_cell_length_c   15.59868600
_cell_angle_alpha   90.00238803
_cell_angle_beta   90.03657968
_cell_angle_gamma   89.97255700
_symmetry_Int_Tables_number   1
_chemical_formula_structural   Tb3Ho13(TmPb4)4
_chemical_formula_sum   'Tb3 Ho13 Tm4 Pb16'
_cell_volume   1053.05109392
_cell_formula_units_Z   1
loop_
 _symmetry_equiv_pos_site_id
 _symmetry_equiv_pos_as_xyz
  1  'x, y, z'
loop_
 _atom_site_type_symbol
 _atom_site_label
 _atom_site_symmetry_multiplicity
 _atom_site_fract_x
 _atom_site_fract_y
 _atom_site_fract_z
 _atom_site_occupancy
  Tb  Tb0  1  0.963929  0.823272  0.400370  1
  Tb  Tb1  1  0.536081  0.323364  0.599536  1
  Tb  Tb2  1  0.036321  0.176517  0.900436  1
  Ho  Ho3  1  0.376928  0.841386  0.878935  1
  Ho  Ho4  1  0.876663  0.658555  0.621214  1
  Ho  Ho5  1  0.623329  0.158364  0.378739  1
  Ho  Ho6  1  0.123239  0.341544  0.121117  1
  Ho  Ho7  1  0.623211  0.158422  0.121082  1
  Ho  Ho8  1  0.123334  0.341538  0.378853  1
  Ho  Ho9  1  0.376691  0.841522  0.621169  1
  Ho  Ho10  1  0.877006  0.658576  0.878862  1
  Ho  Ho11  1  0.536899  0.323726  0.900020  1
  Ho  Ho12  1  0.036769  0.176407  0.599995  1
  Ho  Ho13  1  0.463332  0.676375  0.400171  1
  Ho  Ho14  1  0.963136  0.823546  0.099901  1
  Ho  Ho15  1  0.463280  0.676362  0.099677  1
  Tm  Tm16  1  0.208311  0.504545  0.750075  1
  Tm  Tm17  1  0.708267  0.995455  0.750052  1
  Tm  Tm18  1  0.791614  0.495590  0.249837  1
  Tm  Tm19  1  0.291807  0.004490  0.249877  1
  Pb  Pb20  1  0.281546  0.032467  0.043439  1
  Pb  Pb21  1  0.781309  0.466878  0.456682  1
  Pb  Pb22  1  0.718713  0.966928  0.543369  1
  Pb  Pb23  1  0.219241  0.533463  0.956936  1
  Pb  Pb24  1  0.717927  0.966031  0.957082  1
  Pb  Pb25  1  0.217699  0.534275  0.542903  1
  Pb  Pb26  1  0.282410  0.034181  0.457285  1
  Pb  Pb27  1  0.781319  0.466678  0.042854  1
  Pb  Pb28  1  0.571338  0.626087  0.749897  1
  Pb  Pb29  1  0.071313  0.873813  0.750050  1
  Pb  Pb30  1  0.428579  0.374204  0.249947  1
  Pb  Pb31  1  0.928611  0.125875  0.250097  1
  Pb  Pb32  1  0.348085  0.154604  0.750321  1
  Pb  Pb33  1  0.848122  0.345439  0.749677  1
  Pb  Pb34  1  0.651429  0.844911  0.249914  1
  Pb  Pb35  1  0.152212  0.654610  0.249625  1
