# generated using pymatgen
data_LaNi9As5
_symmetry_space_group_name_H-M   'P 1'
_cell_length_a   6.70856800
_cell_length_b   6.70856686
_cell_length_c   11.18604300
_cell_angle_alpha   90.00000000
_cell_angle_beta   90.00000000
_cell_angle_gamma   120.00000560
_symmetry_Int_Tables_number   1
_chemical_formula_structural   LaNi9As5
_chemical_formula_sum   'La2 Ni18 As10'
_cell_volume   435.98010404
_cell_formula_units_Z   2
loop_
 _symmetry_equiv_pos_site_id
 _symmetry_equiv_pos_as_xyz
  1  'x, y, z'
loop_
 _atom_site_type_symbol
 _atom_site_label
 _atom_site_symmetry_multiplicity
 _atom_site_fract_x
 _atom_site_fract_y
 _atom_site_fract_z
 _atom_site_occupancy
  La  La0  1  0.000000  0.000000  0.000000  1
  La  La1  1  0.000000  0.000000  0.500000  1
  Ni  Ni2  1  0.535175  0.464825  0.105331  1
  Ni  Ni3  1  0.070351  0.535175  0.605331  1
  Ni  Ni4  1  0.464825  0.929649  0.605331  1
  Ni  Ni5  1  0.535175  0.070351  0.105331  1
  Ni  Ni6  1  0.929649  0.464825  0.105331  1
  Ni  Ni7  1  0.070351  0.535175  0.894669  1
  Ni  Ni8  1  0.464825  0.929649  0.894669  1
  Ni  Ni9  1  0.464825  0.535175  0.605331  1
  Ni  Ni10  1  0.464825  0.535175  0.894669  1
  Ni  Ni11  1  0.535175  0.464825  0.394669  1
  Ni  Ni12  1  0.929649  0.464825  0.394669  1
  Ni  Ni13  1  0.535175  0.070351  0.394669  1
  Ni  Ni14  1  0.208840  0.791160  0.250000  1
  Ni  Ni15  1  0.417680  0.208840  0.750000  1
  Ni  Ni16  1  0.791160  0.582320  0.750000  1
  Ni  Ni17  1  0.208840  0.417680  0.250000  1
  Ni  Ni18  1  0.582320  0.791160  0.250000  1
  Ni  Ni19  1  0.791160  0.208840  0.750000  1
  As  As20  1  0.828293  0.171707  0.250000  1
  As  As21  1  0.656584  0.828293  0.750000  1
  As  As22  1  0.171707  0.343416  0.750000  1
  As  As23  1  0.828293  0.656584  0.250000  1
  As  As24  1  0.343416  0.171707  0.250000  1
  As  As25  1  0.171707  0.828293  0.750000  1
  As  As26  1  0.333333  0.666667  0.060883  1
  As  As27  1  0.666667  0.333333  0.560883  1
  As  As28  1  0.666667  0.333333  0.939117  1
  As  As29  1  0.333333  0.666667  0.439117  1
