# generated using pymatgen
data_Th6Al24Fe3Tc5
_symmetry_space_group_name_H-M   'P 1'
_cell_length_a   8.95980700
_cell_length_b   8.94286120
_cell_length_c   9.58209568
_cell_angle_alpha   89.75601804
_cell_angle_beta   90.00000000
_cell_angle_gamma   120.06270622
_symmetry_Int_Tables_number   1
_chemical_formula_structural   Th6Al24Fe3Tc5
_chemical_formula_sum   'Th6 Al24 Fe3 Tc5'
_cell_volume   664.48664793
_cell_formula_units_Z   1
loop_
 _symmetry_equiv_pos_site_id
 _symmetry_equiv_pos_as_xyz
  1  'x, y, z'
loop_
 _atom_site_type_symbol
 _atom_site_label
 _atom_site_symmetry_multiplicity
 _atom_site_fract_x
 _atom_site_fract_y
 _atom_site_fract_z
 _atom_site_occupancy
  Th  Th0  1  0.804478  0.196943  0.750239  1
  Th  Th1  1  0.195522  0.803057  0.249761  1
  Th  Th2  1  0.392465  0.196943  0.750239  1
  Th  Th3  1  0.607535  0.803057  0.249761  1
  Th  Th4  1  0.803502  0.607004  0.748481  1
  Th  Th5  1  0.196498  0.392996  0.251519  1
  Al  Al6  1  0.666619  0.333237  0.998656  1
  Al  Al7  1  0.333381  0.666763  0.001344  1
  Al  Al8  1  0.336386  0.672773  0.496910  1
  Al  Al9  1  0.663614  0.327227  0.503090  1
  Al  Al10  1  0.838746  0.157129  0.423760  1
  Al  Al11  1  0.161254  0.842871  0.576240  1
  Al  Al12  1  0.318383  0.157129  0.423760  1
  Al  Al13  1  0.159113  0.841902  0.922617  1
  Al  Al14  1  0.681617  0.842871  0.576240  1
  Al  Al15  1  0.840887  0.158098  0.077383  1
  Al  Al16  1  0.840815  0.681630  0.422562  1
  Al  Al17  1  0.682789  0.841902  0.922617  1
  Al  Al18  1  0.159185  0.318370  0.577438  1
  Al  Al19  1  0.317211  0.158098  0.077383  1
  Al  Al20  1  0.158564  0.317129  0.923347  1
  Al  Al21  1  0.841436  0.682871  0.076653  1
  Al  Al22  1  0.436762  0.564479  0.749360  1
  Al  Al23  1  0.563238  0.435521  0.250640  1
  Al  Al24  1  0.127718  0.564479  0.749360  1
  Al  Al25  1  0.872282  0.435521  0.250640  1
  Al  Al26  1  0.438529  0.877058  0.745234  1
  Al  Al27  1  0.561471  0.122942  0.254766  1
  Al  Al28  1  0.000277  0.000554  0.750145  1
  Al  Al29  1  0.999723  0.999446  0.249855  1
  Fe  Fe30  1  0.500000  0.000000  0.500000  1
  Fe  Fe31  1  0.000000  0.000000  0.000000  1
  Fe  Fe32  1  0.000000  0.000000  0.500000  1
  Tc  Tc33  1  0.500000  0.500000  0.000000  1
  Tc  Tc34  1  0.000000  0.500000  0.000000  1
  Tc  Tc35  1  0.500000  0.500000  0.500000  1
  Tc  Tc36  1  0.500000  0.000000  0.000000  1
  Tc  Tc37  1  0.000000  0.500000  0.500000  1
