# generated using pymatgen
data_La5Nd11Cd3InIr4
_symmetry_space_group_name_H-M   'P 1'
_cell_length_a   10.00461708
_cell_length_b   10.03753619
_cell_length_c   10.03753622
_cell_angle_alpha   59.87148731
_cell_angle_beta   60.06816314
_cell_angle_gamma   60.06816888
_symmetry_Int_Tables_number   1
_chemical_formula_structural   La5Nd11Cd3InIr4
_chemical_formula_sum   'La5 Nd11 Cd3 In1 Ir4'
_cell_volume   712.79062478
_cell_formula_units_Z   1
loop_
 _symmetry_equiv_pos_site_id
 _symmetry_equiv_pos_as_xyz
  1  'x, y, z'
loop_
 _atom_site_type_symbol
 _atom_site_label
 _atom_site_symmetry_multiplicity
 _atom_site_fract_x
 _atom_site_fract_y
 _atom_site_fract_z
 _atom_site_occupancy
  La  La0  1  0.345617  0.348190  0.348190  1
  La  La1  1  0.349295  0.348116  0.955286  1
  La  La2  1  0.349295  0.955286  0.348116  1
  La  La3  1  0.953679  0.350450  0.350450  1
  La  La4  1  0.812502  0.187173  0.187173  1
  Nd  Nd5  1  0.189241  0.808976  0.808976  1
  Nd  Nd6  1  0.191109  0.808749  0.188640  1
  Nd  Nd7  1  0.808527  0.188993  0.806775  1
  Nd  Nd8  1  0.191109  0.188640  0.808749  1
  Nd  Nd9  1  0.808527  0.806775  0.188993  1
  Nd  Nd10  1  0.939767  0.563450  0.563450  1
  Nd  Nd11  1  0.561789  0.937200  0.937200  1
  Nd  Nd12  1  0.561763  0.940206  0.562983  1
  Nd  Nd13  1  0.938961  0.561936  0.937432  1
  Nd  Nd14  1  0.561763  0.562983  0.940206  1
  Nd  Nd15  1  0.938961  0.937432  0.561936  1
  Cd  Cd16  1  0.578885  0.582138  0.257788  1
  Cd  Cd17  1  0.578885  0.257788  0.582138  1
  Cd  Cd18  1  0.257831  0.580111  0.580111  1
  In  In19  1  0.581314  0.581320  0.581320  1
  Ir  Ir20  1  0.137873  0.143061  0.143061  1
  Ir  Ir21  1  0.143146  0.142025  0.575132  1
  Ir  Ir22  1  0.143146  0.575132  0.142025  1
  Ir  Ir23  1  0.577014  0.143868  0.143868  1
