# generated using pymatgen
data_Sr7Yb3
_symmetry_space_group_name_H-M   'P 1'
_cell_length_a   16.33355060
_cell_length_b   16.33355060
_cell_length_c   6.51610000
_cell_angle_alpha   90.00000000
_cell_angle_beta   90.00000000
_cell_angle_gamma   163.88019422
_symmetry_Int_Tables_number   1
_chemical_formula_structural   Sr7Yb3
_chemical_formula_sum   'Sr7 Yb3'
_cell_volume   482.66026558
_cell_formula_units_Z   1
loop_
 _symmetry_equiv_pos_site_id
 _symmetry_equiv_pos_as_xyz
  1  'x, y, z'
loop_
 _atom_site_type_symbol
 _atom_site_label
 _atom_site_symmetry_multiplicity
 _atom_site_fract_x
 _atom_site_fract_y
 _atom_site_fract_z
 _atom_site_occupancy
  Sr  Sr0  1  0.000000  0.000000  0.000000  1
  Sr  Sr1  1  0.602919  0.397081  0.000000  1
  Sr  Sr2  1  0.397081  0.602919  0.000000  1
  Sr  Sr3  1  0.901427  0.098572  0.500000  1
  Sr  Sr4  1  0.700291  0.299709  0.500000  1
  Sr  Sr5  1  0.299709  0.700291  0.500000  1
  Sr  Sr6  1  0.098572  0.901427  0.500000  1
  Yb  Yb7  1  0.797267  0.202733  0.000000  1
  Yb  Yb8  1  0.202733  0.797267  0.000000  1
  Yb  Yb9  1  0.500000  0.500000  0.500000  1
