# generated using pymatgen
data_Zr2U2H15
_symmetry_space_group_name_H-M   'P 1'
_cell_length_a   7.25736288
_cell_length_b   7.25736204
_cell_length_c   7.25736236
_cell_angle_alpha   109.44071854
_cell_angle_beta   109.44072319
_cell_angle_gamma   109.44071643
_symmetry_Int_Tables_number   1
_chemical_formula_structural   Zr2U2H15
_chemical_formula_sum   'Zr4 U4 H30'
_cell_volume   294.58051496
_cell_formula_units_Z   2
loop_
 _symmetry_equiv_pos_site_id
 _symmetry_equiv_pos_as_xyz
  1  'x, y, z'
loop_
 _atom_site_type_symbol
 _atom_site_label
 _atom_site_symmetry_multiplicity
 _atom_site_fract_x
 _atom_site_fract_y
 _atom_site_fract_z
 _atom_site_occupancy
  Zr  Zr0  1  0.998863  0.588343  0.494488  1
  Zr  Zr1  1  0.588343  0.494488  0.998863  1
  Zr  Zr2  1  0.494488  0.998863  0.588343  1
  Zr  Zr3  1  0.410104  0.410104  0.410104  1
  U  U4  1  0.910331  0.910331  0.910331  1
  U  U5  1  0.500255  0.003685  0.089439  1
  U  U6  1  0.003685  0.089439  0.500255  1
  U  U7  1  0.089439  0.500255  0.003685  1
  H  H8  1  0.648667  0.974572  0.388619  1
  H  H9  1  0.239035  0.320940  0.854218  1
  H  H10  1  0.190649  0.419083  0.527288  1
  H  H11  1  0.102569  0.281160  0.137893  1
  H  H12  1  0.281160  0.137893  0.102569  1
  H  H13  1  0.137893  0.102569  0.281160  1
  H  H14  1  0.463262  0.158761  0.870657  1
  H  H15  1  0.710524  0.336692  0.808417  1
  H  H16  1  0.623041  0.374504  0.252132  1
  H  H17  1  0.252132  0.623041  0.374504  1
  H  H18  1  0.747216  0.874248  0.126433  1
  H  H19  1  0.126433  0.747216  0.874248  1
  H  H20  1  0.374504  0.252132  0.623041  1
  H  H21  1  0.874248  0.126433  0.747216  1
  H  H22  1  0.774222  0.583877  0.608822  1
  H  H23  1  0.320940  0.854218  0.239035  1
  H  H24  1  0.388619  0.648667  0.974572  1
  H  H25  1  0.974572  0.388619  0.648667  1
  H  H26  1  0.527288  0.190649  0.419083  1
  H  H27  1  0.419083  0.527288  0.190649  1
  H  H28  1  0.854218  0.239035  0.320940  1
  H  H29  1  0.895021  0.677469  0.034504  1
  H  H30  1  0.808417  0.710524  0.336692  1
  H  H31  1  0.158761  0.870657  0.463262  1
  H  H32  1  0.677469  0.034504  0.895021  1
  H  H33  1  0.336692  0.808417  0.710524  1
  H  H34  1  0.870657  0.463262  0.158761  1
  H  H35  1  0.608822  0.774222  0.583877  1
  H  H36  1  0.583877  0.608822  0.774222  1
  H  H37  1  0.034504  0.895021  0.677469  1
