# generated using pymatgen
data_NdEu4Bi7Se16
_symmetry_space_group_name_H-M   'P 1'
_cell_length_a   4.20859600
_cell_length_b   12.43183201
_cell_length_c   15.38111627
_cell_angle_alpha   90.15431874
_cell_angle_beta   90.00000000
_cell_angle_gamma   90.00000000
_symmetry_Int_Tables_number   1
_chemical_formula_structural   NdEu4Bi7Se16
_chemical_formula_sum   'Nd1 Eu4 Bi7 Se16'
_cell_volume   804.74567455
_cell_formula_units_Z   1
loop_
 _symmetry_equiv_pos_site_id
 _symmetry_equiv_pos_as_xyz
  1  'x, y, z'
loop_
 _atom_site_type_symbol
 _atom_site_label
 _atom_site_symmetry_multiplicity
 _atom_site_fract_x
 _atom_site_fract_y
 _atom_site_fract_z
 _atom_site_occupancy
  Nd  Nd0  1  0.750000  0.421731  0.903669  1
  Eu  Eu1  1  0.750000  0.255115  0.162377  1
  Eu  Eu2  1  0.750000  0.753011  0.337084  1
  Eu  Eu3  1  0.250000  0.740669  0.839698  1
  Eu  Eu4  1  0.250000  0.245808  0.662022  1
  Bi  Bi5  1  0.750000  0.924164  0.597806  1
  Bi  Bi6  1  0.250000  0.578575  0.101361  1
  Bi  Bi7  1  0.250000  0.075823  0.400673  1
  Bi  Bi8  1  0.750000  0.424594  0.390794  1
  Bi  Bi9  1  0.750000  0.925281  0.109050  1
  Bi  Bi10  1  0.250000  0.575446  0.613841  1
  Bi  Bi11  1  0.250000  0.075494  0.886661  1
  Se  Se12  1  0.750000  0.145461  0.532058  1
  Se  Se13  1  0.750000  0.645096  0.972302  1
  Se  Se14  1  0.250000  0.854390  0.466573  1
  Se  Se15  1  0.250000  0.353958  0.030481  1
  Se  Se16  1  0.750000  0.216827  0.807003  1
  Se  Se17  1  0.750000  0.717265  0.689238  1
  Se  Se18  1  0.250000  0.785475  0.187837  1
  Se  Se19  1  0.250000  0.283996  0.311383  1
  Se  Se20  1  0.750000  0.412646  0.584081  1
  Se  Se21  1  0.750000  0.915003  0.914602  1
  Se  Se22  1  0.250000  0.587356  0.416475  1
  Se  Se23  1  0.250000  0.087434  0.082917  1
  Se  Se24  1  0.750000  0.511201  0.214453  1
  Se  Se25  1  0.750000  0.010398  0.286265  1
  Se  Se26  1  0.250000  0.489346  0.787100  1
  Se  Se27  1  0.250000  0.988438  0.712197  1
