# generated using pymatgen
data_Ho20IrRu9Rh2
_symmetry_space_group_name_H-M   'P 1'
_cell_length_a   10.77770033
_cell_length_b   10.77718491
_cell_length_c   6.36473926
_cell_angle_alpha   89.98670411
_cell_angle_beta   90.03797879
_cell_angle_gamma   89.97931048
_symmetry_Int_Tables_number   1
_chemical_formula_structural   Ho20IrRu9Rh2
_chemical_formula_sum   'Ho20 Ir1 Ru9 Rh2'
_cell_volume   739.28504320
_cell_formula_units_Z   1
loop_
 _symmetry_equiv_pos_site_id
 _symmetry_equiv_pos_as_xyz
  1  'x, y, z'
loop_
 _atom_site_type_symbol
 _atom_site_label
 _atom_site_symmetry_multiplicity
 _atom_site_fract_x
 _atom_site_fract_y
 _atom_site_fract_z
 _atom_site_occupancy
  Ho  Ho0  1  0.292221  0.086151  0.376316  1
  Ho  Ho1  1  0.291345  0.914688  0.876602  1
  Ho  Ho2  1  0.707014  0.086140  0.876941  1
  Ho  Ho3  1  0.706737  0.914643  0.375662  1
  Ho  Ho4  1  0.584482  0.792203  0.877066  1
  Ho  Ho5  1  0.585527  0.205991  0.375113  1
  Ho  Ho6  1  0.413864  0.793320  0.376141  1
  Ho  Ho7  1  0.411711  0.207517  0.876869  1
  Ho  Ho8  1  0.208106  0.413179  0.623273  1
  Ho  Ho9  1  0.207020  0.585981  0.123833  1
  Ho  Ho10  1  0.794369  0.414279  0.124888  1
  Ho  Ho11  1  0.792848  0.586003  0.622733  1
  Ho  Ho12  1  0.914753  0.706580  0.124293  1
  Ho  Ho13  1  0.915674  0.291342  0.623294  1
  Ho  Ho14  1  0.087090  0.707082  0.623165  1
  Ho  Ho15  1  0.086250  0.292112  0.123648  1
  Ho  Ho16  1  0.001324  0.000904  0.498724  1
  Ho  Ho17  1  0.000812  0.001074  0.001269  1
  Ho  Ho18  1  0.500062  0.500413  0.002008  1
  Ho  Ho19  1  0.499383  0.500239  0.498062  1
  Ir  Ir20  1  0.346753  0.653382  0.749856  1
  Ru  Ru21  1  0.845902  0.152574  0.250232  1
  Ru  Ru22  1  0.152956  0.152817  0.750281  1
  Ru  Ru23  1  0.152485  0.846000  0.249703  1
  Ru  Ru24  1  0.652791  0.652649  0.250334  1
  Ru  Ru25  1  0.348379  0.348213  0.249713  1
  Ru  Ru26  1  0.501377  0.000328  0.123764  1
  Ru  Ru27  1  0.500784  0.000453  0.625504  1
  Ru  Ru28  1  0.999107  0.500101  0.874555  1
  Ru  Ru29  1  0.999176  0.500612  0.376139  1
  Rh  Rh30  1  0.846310  0.846365  0.749873  1
  Rh  Rh31  1  0.653388  0.346665  0.750148  1
