# generated using pymatgen
data_Tb10Tl3In(HgPd)4
_symmetry_space_group_name_H-M   'P 1'
_cell_length_a   8.06377314
_cell_length_b   18.49346208
_cell_length_c   3.65758400
_cell_angle_alpha   90.00000000
_cell_angle_beta   90.00000000
_cell_angle_gamma   89.88255153
_symmetry_Int_Tables_number   1
_chemical_formula_structural   Tb10Tl3In(HgPd)4
_chemical_formula_sum   'Tb10 Tl3 In1 Hg4 Pd4'
_cell_volume   545.44368609
_cell_formula_units_Z   1
loop_
 _symmetry_equiv_pos_site_id
 _symmetry_equiv_pos_as_xyz
  1  'x, y, z'
loop_
 _atom_site_type_symbol
 _atom_site_label
 _atom_site_symmetry_multiplicity
 _atom_site_fract_x
 _atom_site_fract_y
 _atom_site_fract_z
 _atom_site_occupancy
  Tb  Tb0  1  0.501803  0.500259  0.000000  1
  Tb  Tb1  1  0.000958  0.998597  0.000000  1
  Tb  Tb2  1  0.743352  0.284561  0.000000  1
  Tb  Tb3  1  0.255664  0.715960  0.000000  1
  Tb  Tb4  1  0.754326  0.784507  0.000000  1
  Tb  Tb5  1  0.242691  0.215615  0.000000  1
  Tb  Tb6  1  0.610351  0.083547  0.000000  1
  Tb  Tb7  1  0.389454  0.916134  0.000000  1
  Tb  Tb8  1  0.892088  0.584705  0.000000  1
  Tb  Tb9  1  0.109809  0.416837  0.000000  1
  Tl  Tl10  1  0.581419  0.649215  0.500000  1
  Tl  Tl11  1  0.418863  0.350430  0.500000  1
  Tl  Tl12  1  0.919090  0.149700  0.500000  1
  In  In13  1  0.080041  0.849018  0.500000  1
  Hg  Hg14  1  0.714556  0.932566  0.500000  1
  Hg  Hg15  1  0.289864  0.065781  0.500000  1
  Hg  Hg16  1  0.790388  0.433919  0.500000  1
  Hg  Hg17  1  0.211214  0.566277  0.500000  1
  Pd  Pd18  1  0.530231  0.196196  0.500000  1
  Pd  Pd19  1  0.464844  0.803440  0.500000  1
  Pd  Pd20  1  0.970665  0.698498  0.500000  1
  Pd  Pd21  1  0.028331  0.304241  0.500000  1
