# generated using pymatgen
data_Tl2Ir3RhPb2O13
_symmetry_space_group_name_H-M   'P 1'
_cell_length_a   7.27608023
_cell_length_b   7.31620929
_cell_length_c   7.31620895
_cell_angle_alpha   60.38815998
_cell_angle_beta   60.17598489
_cell_angle_gamma   60.17600083
_symmetry_Int_Tables_number   1
_chemical_formula_structural   Tl2Ir3RhPb2O13
_chemical_formula_sum   'Tl2 Ir3 Rh1 Pb2 O13'
_cell_volume   276.92967286
_cell_formula_units_Z   1
loop_
 _symmetry_equiv_pos_site_id
 _symmetry_equiv_pos_as_xyz
  1  'x, y, z'
loop_
 _atom_site_type_symbol
 _atom_site_label
 _atom_site_symmetry_multiplicity
 _atom_site_fract_x
 _atom_site_fract_y
 _atom_site_fract_z
 _atom_site_occupancy
  Tl  Tl0  1  0.996369  0.997277  0.997277  1
  Tl  Tl1  1  0.507540  0.997893  0.997893  1
  Ir  Ir2  1  0.998092  0.500938  0.500938  1
  Ir  Ir3  1  0.500477  0.501153  0.998071  1
  Ir  Ir4  1  0.500477  0.998071  0.501153  1
  Rh  Rh5  1  0.500162  0.501094  0.501094  1
  Pb  Pb6  1  0.999751  0.000843  0.499791  1
  Pb  Pb7  1  0.999751  0.499791  0.000843  1
  O  O8  1  0.832238  0.420876  0.420876  1
  O  O9  1  0.421828  0.825850  0.825850  1
  O  O10  1  0.421899  0.421794  0.831021  1
  O  O11  1  0.826433  0.825693  0.421794  1
  O  O12  1  0.826433  0.421794  0.825693  1
  O  O13  1  0.421899  0.831021  0.421794  1
  O  O14  1  0.169159  0.577746  0.577746  1
  O  O15  1  0.579068  0.173528  0.173528  1
  O  O16  1  0.578472  0.577807  0.169040  1
  O  O17  1  0.174064  0.174494  0.577979  1
  O  O18  1  0.174064  0.577979  0.174494  1
  O  O19  1  0.578472  0.169040  0.577807  1
  O  O20  1  0.118353  0.130317  0.130317  1
