# generated using pymatgen
data_Sr2Zn7Cu3
_symmetry_space_group_name_H-M   'P 1'
_cell_length_a   5.18615304
_cell_length_b   6.65511437
_cell_length_c   12.96276600
_cell_angle_alpha   90.00000000
_cell_angle_beta   90.00000000
_cell_angle_gamma   90.14436561
_symmetry_Int_Tables_number   1
_chemical_formula_structural   Sr2Zn7Cu3
_chemical_formula_sum   'Sr4 Zn14 Cu6'
_cell_volume   447.40121078
_cell_formula_units_Z   2
loop_
 _symmetry_equiv_pos_site_id
 _symmetry_equiv_pos_as_xyz
  1  'x, y, z'
loop_
 _atom_site_type_symbol
 _atom_site_label
 _atom_site_symmetry_multiplicity
 _atom_site_fract_x
 _atom_site_fract_y
 _atom_site_fract_z
 _atom_site_occupancy
  Sr  Sr0  1  0.253325  0.642120  0.915115  1
  Sr  Sr1  1  0.246675  0.857880  0.415115  1
  Sr  Sr2  1  0.752443  0.357532  0.085733  1
  Sr  Sr3  1  0.747557  0.142468  0.585733  1
  Zn  Zn4  1  0.242692  0.349244  0.716202  1
  Zn  Zn5  1  0.257308  0.150756  0.216202  1
  Zn  Zn6  1  0.744914  0.656175  0.281510  1
  Zn  Zn7  1  0.755086  0.843825  0.781510  1
  Zn  Zn8  1  0.245630  0.944945  0.710805  1
  Zn  Zn9  1  0.254370  0.555055  0.210805  1
  Zn  Zn10  1  0.742496  0.048668  0.285683  1
  Zn  Zn11  1  0.757504  0.451332  0.785683  1
  Zn  Zn12  1  0.499913  0.154895  0.857082  1
  Zn  Zn13  1  0.000087  0.345105  0.357082  1
  Zn  Zn14  1  0.255562  0.422961  0.520140  1
  Zn  Zn15  1  0.244438  0.077039  0.020140  1
  Zn  Zn16  1  0.742781  0.586130  0.483333  1
  Zn  Zn17  1  0.757219  0.913870  0.983333  1
  Cu  Cu18  1  0.000694  0.150607  0.855469  1
  Cu  Cu19  1  0.499306  0.349393  0.355469  1
  Cu  Cu20  1  0.501902  0.848418  0.142545  1
  Cu  Cu21  1  0.998098  0.651582  0.642545  1
  Cu  Cu22  1  0.000037  0.848615  0.146382  1
  Cu  Cu23  1  0.499963  0.651385  0.646382  1
