# generated using pymatgen
data_ErTm3Os5Ru3
_symmetry_space_group_name_H-M   'P 1'
_cell_length_a   5.31357802
_cell_length_b   5.18119528
_cell_length_c   8.91798000
_cell_angle_alpha   89.99647897
_cell_angle_beta   90.00263249
_cell_angle_gamma   119.65299523
_symmetry_Int_Tables_number   1
_chemical_formula_structural   ErTm3Os5Ru3
_chemical_formula_sum   'Er1 Tm3 Os5 Ru3'
_cell_volume   213.36448342
_cell_formula_units_Z   1
loop_
 _symmetry_equiv_pos_site_id
 _symmetry_equiv_pos_as_xyz
  1  'x, y, z'
loop_
 _atom_site_type_symbol
 _atom_site_label
 _atom_site_symmetry_multiplicity
 _atom_site_fract_x
 _atom_site_fract_y
 _atom_site_fract_z
 _atom_site_occupancy
  Er  Er0  1  0.667768  0.333807  0.566223  1
  Tm  Tm1  1  0.331603  0.665465  0.433044  1
  Tm  Tm2  1  0.331659  0.665495  0.066727  1
  Tm  Tm3  1  0.668168  0.334516  0.933865  1
  Os  Os4  1  0.170374  0.339365  0.750509  1
  Os  Os5  1  0.173098  0.830266  0.750479  1
  Os  Os6  1  0.657143  0.828714  0.750531  1
  Os  Os7  1  0.835924  0.662469  0.249612  1
  Os  Os8  1  0.833096  0.173113  0.249634  1
  Ru  Ru9  1  0.992166  0.996611  0.499365  1
  Ru  Ru10  1  0.991951  0.996544  0.000406  1
  Ru  Ru11  1  0.347050  0.173631  0.249606  1
