# generated using pymatgen
data_Dy8Zr11Si16Hg
_symmetry_space_group_name_H-M   'P 1'
_cell_length_a   7.09473700
_cell_length_b   7.31511178
_cell_length_c   14.00287900
_cell_angle_alpha   90.00000000
_cell_angle_beta   90.00000000
_cell_angle_gamma   89.74539806
_symmetry_Int_Tables_number   1
_chemical_formula_structural   Dy8Zr11Si16Hg
_chemical_formula_sum   'Dy8 Zr11 Si16 Hg1'
_cell_volume   726.72536064
_cell_formula_units_Z   1
loop_
 _symmetry_equiv_pos_site_id
 _symmetry_equiv_pos_as_xyz
  1  'x, y, z'
loop_
 _atom_site_type_symbol
 _atom_site_label
 _atom_site_symmetry_multiplicity
 _atom_site_fract_x
 _atom_site_fract_y
 _atom_site_fract_z
 _atom_site_occupancy
  Dy  Dy0  1  0.011037  0.174760  0.099458  1
  Dy  Dy1  1  0.986888  0.820388  0.902852  1
  Dy  Dy2  1  0.483857  0.674271  0.902214  1
  Dy  Dy3  1  0.986888  0.820388  0.597148  1
  Dy  Dy4  1  0.512836  0.324462  0.096513  1
  Dy  Dy5  1  0.011037  0.174760  0.400542  1
  Dy  Dy6  1  0.512836  0.324462  0.403487  1
  Dy  Dy7  1  0.483857  0.674271  0.597786  1
  Zr  Zr8  1  0.840681  0.504529  0.250000  1
  Zr  Zr9  1  0.340717  0.998691  0.250000  1
  Zr  Zr10  1  0.658358  0.000513  0.750000  1
  Zr  Zr11  1  0.324156  0.183135  0.625397  1
  Zr  Zr12  1  0.669380  0.821563  0.376308  1
  Zr  Zr13  1  0.170397  0.682136  0.374941  1
  Zr  Zr14  1  0.669380  0.821563  0.123692  1
  Zr  Zr15  1  0.841021  0.321660  0.625031  1
  Zr  Zr16  1  0.324156  0.183135  0.874603  1
  Zr  Zr17  1  0.841021  0.321660  0.874969  1
  Zr  Zr18  1  0.170397  0.682136  0.125059  1
  Si  Si19  1  0.030285  0.095569  0.750000  1
  Si  Si20  1  0.963439  0.883541  0.250000  1
  Si  Si21  1  0.465819  0.617945  0.250000  1
  Si  Si22  1  0.545525  0.374800  0.750000  1
  Si  Si23  1  0.290320  0.885150  0.750000  1
  Si  Si24  1  0.715092  0.126707  0.250000  1
  Si  Si25  1  0.217446  0.374376  0.250000  1
  Si  Si26  1  0.768567  0.626306  0.750000  1
  Si  Si27  1  0.163039  0.460174  0.527198  1
  Si  Si28  1  0.841580  0.532467  0.460809  1
  Si  Si29  1  0.342965  0.969344  0.460948  1
  Si  Si30  1  0.841580  0.532467  0.039191  1
  Si  Si31  1  0.655022  0.032870  0.542466  1
  Si  Si32  1  0.163039  0.460174  0.972802  1
  Si  Si33  1  0.655022  0.032870  0.957534  1
  Si  Si34  1  0.342965  0.969344  0.039052  1
  Hg  Hg35  1  0.159395  0.517416  0.750000  1
