# generated using pymatgen
data_Tb16In4IrRu3
_symmetry_space_group_name_H-M   'P 1'
_cell_length_a   9.67669460
_cell_length_b   9.67295559
_cell_length_c   9.68322700
_cell_angle_alpha   59.96609041
_cell_angle_beta   59.97831691
_cell_angle_gamma   59.95149465
_symmetry_Int_Tables_number   1
_chemical_formula_structural   Tb16In4IrRu3
_chemical_formula_sum   'Tb16 In4 Ir1 Ru3'
_cell_volume   640.39719173
_cell_formula_units_Z   1
loop_
 _symmetry_equiv_pos_site_id
 _symmetry_equiv_pos_as_xyz
  1  'x, y, z'
loop_
 _atom_site_type_symbol
 _atom_site_label
 _atom_site_symmetry_multiplicity
 _atom_site_fract_x
 _atom_site_fract_y
 _atom_site_fract_z
 _atom_site_occupancy
  Tb  Tb0  1  0.098492  0.704547  0.098487  1
  Tb  Tb1  1  0.941202  0.939921  0.559441  1
  Tb  Tb2  1  0.940600  0.561091  0.940632  1
  Tb  Tb3  1  0.310393  0.689371  0.310441  1
  Tb  Tb4  1  0.940608  0.561080  0.557706  1
  Tb  Tb5  1  0.310971  0.310704  0.689177  1
  Tb  Tb6  1  0.098990  0.097863  0.098938  1
  Tb  Tb7  1  0.557671  0.561085  0.940639  1
  Tb  Tb8  1  0.098978  0.097918  0.704193  1
  Tb  Tb9  1  0.689182  0.310659  0.689209  1
  Tb  Tb10  1  0.689813  0.689375  0.310408  1
  Tb  Tb11  1  0.689205  0.310666  0.310925  1
  Tb  Tb12  1  0.310367  0.689400  0.689821  1
  Tb  Tb13  1  0.559441  0.939901  0.559460  1
  Tb  Tb14  1  0.704175  0.097865  0.098987  1
  Tb  Tb15  1  0.559440  0.939873  0.941236  1
  In  In16  1  0.331745  0.331636  0.331663  1
  In  In17  1  0.004824  0.331644  0.331695  1
  In  In18  1  0.331772  0.004615  0.332051  1
  In  In19  1  0.331773  0.331867  0.004555  1
  Ir  Ir20  1  0.891251  0.326199  0.891256  1
  Ru  Ru21  1  0.889906  0.890907  0.889855  1
  Ru  Ru22  1  0.889877  0.890912  0.329353  1
  Ru  Ru23  1  0.329325  0.890900  0.889872  1
