# generated using pymatgen
data_Sr2Al3Au14
_symmetry_space_group_name_H-M   'P 1'
_cell_length_a   7.26850842
_cell_length_b   7.26850872
_cell_length_c   7.27168568
_cell_angle_alpha   97.07141448
_cell_angle_beta   97.07142035
_cell_angle_gamma   82.88156002
_symmetry_Int_Tables_number   1
_chemical_formula_structural   Sr2Al3Au14
_chemical_formula_sum   'Sr2 Al3 Au14'
_cell_volume   376.03538410
_cell_formula_units_Z   1
loop_
 _symmetry_equiv_pos_site_id
 _symmetry_equiv_pos_as_xyz
  1  'x, y, z'
loop_
 _atom_site_type_symbol
 _atom_site_label
 _atom_site_symmetry_multiplicity
 _atom_site_fract_x
 _atom_site_fract_y
 _atom_site_fract_z
 _atom_site_occupancy
  Sr  Sr0  1  0.151066  0.151066  0.348060  1
  Sr  Sr1  1  0.848935  0.848935  0.651940  1
  Al  Al2  1  0.500000  0.000000  0.000000  1
  Al  Al3  1  0.000000  0.500000  0.000000  1
  Al  Al4  1  0.500000  0.500000  0.500000  1
  Au  Au5  1  0.798843  0.201157  0.000000  1
  Au  Au6  1  0.201157  0.798843  0.000000  1
  Au  Au7  1  0.396686  0.396686  0.102702  1
  Au  Au8  1  0.844275  0.844275  0.135754  1
  Au  Au9  1  0.800444  0.500475  0.300579  1
  Au  Au10  1  0.500475  0.800444  0.300579  1
  Au  Au11  1  0.636189  0.156466  0.343749  1
  Au  Au12  1  0.156466  0.636189  0.343749  1
  Au  Au13  1  0.843534  0.363811  0.656251  1
  Au  Au14  1  0.363811  0.843534  0.656251  1
  Au  Au15  1  0.499525  0.199556  0.699421  1
  Au  Au16  1  0.199556  0.499525  0.699421  1
  Au  Au17  1  0.155725  0.155725  0.864246  1
  Au  Au18  1  0.603314  0.603314  0.897298  1
