# generated using pymatgen
data_Ce16PmAl12
_symmetry_space_group_name_H-M   'P 1'
_cell_length_a   9.56762866
_cell_length_b   9.56762950
_cell_length_c   9.56762900
_cell_angle_alpha   109.47121534
_cell_angle_beta   109.47121713
_cell_angle_gamma   109.47122535
_symmetry_Int_Tables_number   1
_chemical_formula_structural   Ce16PmAl12
_chemical_formula_sum   'Ce16 Pm1 Al12'
_cell_volume   674.20367873
_cell_formula_units_Z   1
loop_
 _symmetry_equiv_pos_site_id
 _symmetry_equiv_pos_as_xyz
  1  'x, y, z'
loop_
 _atom_site_type_symbol
 _atom_site_label
 _atom_site_symmetry_multiplicity
 _atom_site_fract_x
 _atom_site_fract_y
 _atom_site_fract_z
 _atom_site_occupancy
  Ce  Ce0  1  0.721585  0.309412  0.309412  1
  Ce  Ce1  1  0.278415  0.587827  0.587827  1
  Ce  Ce2  1  0.375635  0.375635  0.375635  1
  Ce  Ce3  1  0.624365  0.000000  0.000000  1
  Ce  Ce4  1  0.000000  0.690588  0.412173  1
  Ce  Ce5  1  0.412173  0.000000  0.690588  1
  Ce  Ce6  1  0.587827  0.587827  0.278415  1
  Ce  Ce7  1  0.000000  0.000000  0.624365  1
  Ce  Ce8  1  0.690588  0.412173  0.000000  1
  Ce  Ce9  1  0.309412  0.721585  0.309412  1
  Ce  Ce10  1  0.309412  0.309412  0.721585  1
  Ce  Ce11  1  0.690588  0.000000  0.412173  1
  Ce  Ce12  1  0.000000  0.624365  0.000000  1
  Ce  Ce13  1  0.412173  0.690588  0.000000  1
  Ce  Ce14  1  0.587827  0.278415  0.587827  1
  Ce  Ce15  1  0.000000  0.412173  0.690588  1
  Pm  Pm16  1  0.000000  0.000000  0.000000  1
  Al  Al17  1  0.177874  0.819909  0.819909  1
  Al  Al18  1  0.822126  0.642035  0.642035  1
  Al  Al19  1  0.000000  0.357965  0.180091  1
  Al  Al20  1  0.357965  0.180091  0.000000  1
  Al  Al21  1  0.642035  0.822126  0.642035  1
  Al  Al22  1  0.180091  0.357965  0.000000  1
  Al  Al23  1  0.819909  0.177874  0.819909  1
  Al  Al24  1  0.819909  0.819909  0.177874  1
  Al  Al25  1  0.180091  0.000000  0.357965  1
  Al  Al26  1  0.642035  0.642035  0.822126  1
  Al  Al27  1  0.357965  0.000000  0.180091  1
  Al  Al28  1  0.000000  0.180091  0.357965  1
