# generated using pymatgen
data_Ba4Mn3CrN8
_symmetry_space_group_name_H-M   'P 1'
_cell_length_a   6.44008045
_cell_length_b   6.44214664
_cell_length_c   7.80213288
_cell_angle_alpha   90.45506906
_cell_angle_beta   89.53802206
_cell_angle_gamma   126.20252673
_symmetry_Int_Tables_number   1
_chemical_formula_structural   Ba4Mn3CrN8
_chemical_formula_sum   'Ba4 Mn3 Cr1 N8'
_cell_volume   261.18961735
_cell_formula_units_Z   1
loop_
 _symmetry_equiv_pos_site_id
 _symmetry_equiv_pos_as_xyz
  1  'x, y, z'
loop_
 _atom_site_type_symbol
 _atom_site_label
 _atom_site_symmetry_multiplicity
 _atom_site_fract_x
 _atom_site_fract_y
 _atom_site_fract_z
 _atom_site_occupancy
  Ba  Ba0  1  0.840682  0.159432  0.559847  1
  Ba  Ba1  1  0.156112  0.843940  0.436923  1
  Ba  Ba2  1  0.657411  0.342781  0.058956  1
  Ba  Ba3  1  0.343270  0.656894  0.940716  1
  Mn  Mn4  1  0.549595  0.449764  0.631453  1
  Mn  Mn5  1  0.448059  0.551915  0.365714  1
  Mn  Mn6  1  0.947799  0.052654  0.137385  1
  Cr  Cr7  1  0.049524  0.950060  0.865933  1
  N  N8  1  0.892121  0.107973  0.911671  1
  N  N9  1  0.109812  0.890344  0.084347  1
  N  N10  1  0.608326  0.391613  0.414234  1
  N  N11  1  0.390679  0.609347  0.587463  1
  N  N12  1  0.341223  0.159299  0.751147  1
  N  N13  1  0.162377  0.337577  0.251604  1
  N  N14  1  0.662540  0.837692  0.251570  1
  N  N15  1  0.840470  0.658715  0.751039  1
