# generated using pymatgen
data_Tm6InHg9
_symmetry_space_group_name_H-M   'P 1'
_cell_length_a   6.32135715
_cell_length_b   6.32135712
_cell_length_c   10.06518900
_cell_angle_alpha   90.00000000
_cell_angle_beta   90.00000000
_cell_angle_gamma   104.37643005
_symmetry_Int_Tables_number   1
_chemical_formula_structural   Tm6InHg9
_chemical_formula_sum   'Tm6 In1 Hg9'
_cell_volume   389.60573004
_cell_formula_units_Z   1
loop_
 _symmetry_equiv_pos_site_id
 _symmetry_equiv_pos_as_xyz
  1  'x, y, z'
loop_
 _atom_site_type_symbol
 _atom_site_label
 _atom_site_symmetry_multiplicity
 _atom_site_fract_x
 _atom_site_fract_y
 _atom_site_fract_z
 _atom_site_occupancy
  Tm  Tm0  1  0.555711  0.555711  0.250000  1
  Tm  Tm1  1  0.435914  0.435914  0.750000  1
  Tm  Tm2  1  0.214990  0.779538  0.504147  1
  Tm  Tm3  1  0.214990  0.779538  0.995853  1
  Tm  Tm4  1  0.779538  0.214990  0.504147  1
  Tm  Tm5  1  0.779538  0.214990  0.995853  1
  In  In6  1  0.991609  0.991609  0.250000  1
  Hg  Hg7  1  0.037853  0.037853  0.750000  1
  Hg  Hg8  1  0.282907  0.282907  0.026549  1
  Hg  Hg9  1  0.704300  0.704300  0.973962  1
  Hg  Hg10  1  0.282907  0.282907  0.473451  1
  Hg  Hg11  1  0.704300  0.704300  0.526038  1
  Hg  Hg12  1  0.493153  0.029397  0.250000  1
  Hg  Hg13  1  0.966379  0.526515  0.750000  1
  Hg  Hg14  1  0.526515  0.966379  0.750000  1
  Hg  Hg15  1  0.029397  0.493153  0.250000  1
