# generated using pymatgen
data_Tb3Ta2Sn(B2Ru5)2
_symmetry_space_group_name_H-M   'P 1'
_cell_length_a   9.64404764
_cell_length_b   9.72026293
_cell_length_c   3.11439000
_cell_angle_alpha   90.00000000
_cell_angle_beta   90.00000000
_cell_angle_gamma   90.82188880
_symmetry_Int_Tables_number   1
_chemical_formula_structural   Tb3Ta2Sn(B2Ru5)2
_chemical_formula_sum   'Tb3 Ta2 Sn1 B4 Ru10'
_cell_volume   291.92122437
_cell_formula_units_Z   1
loop_
 _symmetry_equiv_pos_site_id
 _symmetry_equiv_pos_as_xyz
  1  'x, y, z'
loop_
 _atom_site_type_symbol
 _atom_site_label
 _atom_site_symmetry_multiplicity
 _atom_site_fract_x
 _atom_site_fract_y
 _atom_site_fract_z
 _atom_site_occupancy
  Tb  Tb0  1  0.821599  0.672793  0.000000  1
  Tb  Tb1  1  0.177062  0.326453  0.000000  1
  Tb  Tb2  1  0.323899  0.826905  0.000000  1
  Ta  Ta3  1  0.682578  0.166941  0.000000  1
  Ta  Ta4  1  0.004043  0.998773  0.000000  1
  Sn  Sn5  1  0.497318  0.507173  0.000000  1
  B  B6  1  0.623981  0.884798  0.000000  1
  B  B7  1  0.382424  0.125052  0.000000  1
  B  B8  1  0.115242  0.620203  0.000000  1
  B  B9  1  0.875556  0.374384  0.000000  1
  Ru  Ru10  1  0.571288  0.729988  0.500000  1
  Ru  Ru11  1  0.447085  0.276011  0.500000  1
  Ru  Ru12  1  0.065197  0.780893  0.500000  1
  Ru  Ru13  1  0.918796  0.212214  0.500000  1
  Ru  Ru14  1  0.272715  0.574622  0.500000  1
  Ru  Ru15  1  0.713274  0.403737  0.500000  1
  Ru  Ru16  1  0.222525  0.071870  0.500000  1
  Ru  Ru17  1  0.781619  0.941543  0.500000  1
  Ru  Ru18  1  0.510445  0.010248  0.500000  1
  Ru  Ru19  1  0.993357  0.495402  0.500000  1
