# generated using pymatgen
data_Hf4FeB4Ru10W
_symmetry_space_group_name_H-M   'P 1'
_cell_length_a   9.37953000
_cell_length_b   9.37953000
_cell_length_c   3.07963100
_cell_angle_alpha   90.00000000
_cell_angle_beta   90.00000000
_cell_angle_gamma   90.00000000
_symmetry_Int_Tables_number   1
_chemical_formula_structural   Hf4FeB4Ru10W
_chemical_formula_sum   'Hf4 Fe1 B4 Ru10 W1'
_cell_volume   270.93233271
_cell_formula_units_Z   1
loop_
 _symmetry_equiv_pos_site_id
 _symmetry_equiv_pos_as_xyz
  1  'x, y, z'
loop_
 _atom_site_type_symbol
 _atom_site_label
 _atom_site_symmetry_multiplicity
 _atom_site_fract_x
 _atom_site_fract_y
 _atom_site_fract_z
 _atom_site_occupancy
  Hf  Hf0  1  0.673818  0.178288  0.000000  1
  Hf  Hf1  1  0.326182  0.821712  0.000000  1
  Hf  Hf2  1  0.178288  0.326182  0.000000  1
  Hf  Hf3  1  0.821712  0.673818  0.000000  1
  Fe  Fe4  1  0.500000  0.500000  0.000000  1
  B  B5  1  0.127659  0.617782  0.000000  1
  B  B6  1  0.872341  0.382218  0.000000  1
  B  B7  1  0.617782  0.872341  0.000000  1
  B  B8  1  0.382218  0.127659  0.000000  1
  Ru  Ru9  1  0.216469  0.070965  0.500000  1
  Ru  Ru10  1  0.783531  0.929035  0.500000  1
  Ru  Ru11  1  0.070965  0.783531  0.500000  1
  Ru  Ru12  1  0.713339  0.429881  0.500000  1
  Ru  Ru13  1  0.929035  0.216469  0.500000  1
  Ru  Ru14  1  0.286661  0.570119  0.500000  1
  Ru  Ru15  1  0.570119  0.713339  0.500000  1
  Ru  Ru16  1  0.429881  0.286661  0.500000  1
  Ru  Ru17  1  0.500000  0.000000  0.500000  1
  Ru  Ru18  1  0.000000  0.500000  0.500000  1
  W  W19  1  0.000000  0.000000  0.000000  1
