# generated using pymatgen
data_La2Cd3InRh2
_symmetry_space_group_name_H-M   'P 1'
_cell_length_a   5.42115754
_cell_length_b   5.42115798
_cell_length_c   8.60392770
_cell_angle_alpha   90.04557757
_cell_angle_beta   89.95442288
_cell_angle_gamma   132.40371695
_symmetry_Int_Tables_number   1
_chemical_formula_structural   La2Cd3InRh2
_chemical_formula_sum   'La2 Cd3 In1 Rh2'
_cell_volume   186.71499084
_cell_formula_units_Z   1
loop_
 _symmetry_equiv_pos_site_id
 _symmetry_equiv_pos_as_xyz
  1  'x, y, z'
loop_
 _atom_site_type_symbol
 _atom_site_label
 _atom_site_symmetry_multiplicity
 _atom_site_fract_x
 _atom_site_fract_y
 _atom_site_fract_z
 _atom_site_occupancy
  La  La0  1  0.060456  0.939544  0.253963  1
  La  La1  1  0.939757  0.060243  0.749417  1
  Cd  Cd2  1  0.650477  0.349523  0.543634  1
  Cd  Cd3  1  0.350950  0.649050  0.457372  1
  Cd  Cd4  1  0.645017  0.354983  0.953916  1
  In  In5  1  0.347965  0.652035  0.044971  1
  Rh  Rh6  1  0.209731  0.790269  0.753445  1
  Rh  Rh7  1  0.795646  0.204354  0.243282  1
