# generated using pymatgen
data_DyHo7(CoB14)2
_symmetry_space_group_name_H-M   'P 1'
_cell_length_a   7.19800224
_cell_length_b   7.19740024
_cell_length_c   7.47845400
_cell_angle_alpha   90.00000000
_cell_angle_beta   90.00000000
_cell_angle_gamma   89.97016484
_symmetry_Int_Tables_number   1
_chemical_formula_structural   DyHo7(CoB14)2
_chemical_formula_sum   'Dy1 Ho7 Co2 B28'
_cell_volume   387.43548924
_cell_formula_units_Z   1
loop_
 _symmetry_equiv_pos_site_id
 _symmetry_equiv_pos_as_xyz
  1  'x, y, z'
loop_
 _atom_site_type_symbol
 _atom_site_label
 _atom_site_symmetry_multiplicity
 _atom_site_fract_x
 _atom_site_fract_y
 _atom_site_fract_z
 _atom_site_occupancy
  Dy  Dy0  1  0.169934  0.307010  0.500000  1
  Ho  Ho1  1  0.192930  0.330124  0.000000  1
  Ho  Ho2  1  0.669869  0.192939  0.000000  1
  Ho  Ho3  1  0.330150  0.807071  0.000000  1
  Ho  Ho4  1  0.692857  0.169836  0.500000  1
  Ho  Ho5  1  0.307082  0.830095  0.500000  1
  Ho  Ho6  1  0.807031  0.669875  0.000000  1
  Ho  Ho7  1  0.830106  0.692968  0.500000  1
  Co  Co8  1  0.999975  0.999955  0.000000  1
  Co  Co9  1  0.500323  0.500194  0.500000  1
  B  B10  1  0.174408  0.038734  0.230834  1
  B  B11  1  0.961013  0.174366  0.230765  1
  B  B12  1  0.038835  0.825501  0.230865  1
  B  B13  1  0.674484  0.461157  0.269031  1
  B  B14  1  0.325661  0.539019  0.268886  1
  B  B15  1  0.825496  0.961117  0.230882  1
  B  B16  1  0.538862  0.674494  0.269048  1
  B  B17  1  0.461329  0.325599  0.268925  1
  B  B18  1  0.825496  0.961117  0.769118  1
  B  B19  1  0.038835  0.825501  0.769135  1
  B  B20  1  0.961013  0.174366  0.769235  1
  B  B21  1  0.325661  0.539019  0.731114  1
  B  B22  1  0.674484  0.461157  0.730969  1
  B  B23  1  0.174408  0.038734  0.769166  1
  B  B24  1  0.461329  0.325599  0.731075  1
  B  B25  1  0.538862  0.674494  0.730952  1
  B  B26  1  0.088152  0.588267  0.249904  1
  B  B27  1  0.411826  0.088177  0.249968  1
  B  B28  1  0.588198  0.911799  0.249970  1
  B  B29  1  0.911671  0.411873  0.249811  1
  B  B30  1  0.911671  0.411873  0.750189  1
  B  B31  1  0.588198  0.911799  0.750030  1
  B  B32  1  0.411826  0.088177  0.750032  1
  B  B33  1  0.088152  0.588267  0.750096  1
  B  B34  1  0.999896  0.999822  0.388312  1
  B  B35  1  0.500042  0.500042  0.111565  1
  B  B36  1  0.999896  0.999822  0.611688  1
  B  B37  1  0.500042  0.500042  0.888435  1
