# generated using pymatgen
data_Tb2GdMg3Ag2Ir
_symmetry_space_group_name_H-M   'P 1'
_cell_length_a   7.84878406
_cell_length_b   7.85360733
_cell_length_c   3.91668700
_cell_angle_alpha   90.00000000
_cell_angle_beta   90.00000000
_cell_angle_gamma   119.96570235
_symmetry_Int_Tables_number   1
_chemical_formula_structural   Tb2GdMg3Ag2Ir
_chemical_formula_sum   'Tb2 Gd1 Mg3 Ag2 Ir1'
_cell_volume   209.15634931
_cell_formula_units_Z   1
loop_
 _symmetry_equiv_pos_site_id
 _symmetry_equiv_pos_as_xyz
  1  'x, y, z'
loop_
 _atom_site_type_symbol
 _atom_site_label
 _atom_site_symmetry_multiplicity
 _atom_site_fract_x
 _atom_site_fract_y
 _atom_site_fract_z
 _atom_site_occupancy
  Tb  Tb0  1  0.032757  0.601333  0.000000  1
  Tb  Tb1  1  0.398526  0.430977  0.000000  1
  Gd  Gd2  1  0.568535  0.967630  0.000000  1
  Mg  Mg3  1  0.253268  0.999658  0.500000  1
  Mg  Mg4  1  0.000993  0.254764  0.500000  1
  Mg  Mg5  1  0.745895  0.745420  0.500000  1
  Ag  Ag6  1  0.666818  0.333910  0.500000  1
  Ag  Ag7  1  0.000337  0.000017  0.000000  1
  Ir  Ir8  1  0.332870  0.666289  0.500000  1
