# generated using pymatgen
data_Tb2Dy2Ga3Si
_symmetry_space_group_name_H-M   'P 1'
_cell_length_a   3.96898700
_cell_length_b   4.33452600
_cell_length_c   10.80564900
_cell_angle_alpha   90.00000000
_cell_angle_beta   90.00000000
_cell_angle_gamma   90.00000000
_symmetry_Int_Tables_number   1
_chemical_formula_structural   Tb2Dy2Ga3Si
_chemical_formula_sum   'Tb2 Dy2 Ga3 Si1'
_cell_volume   185.89689890
_cell_formula_units_Z   1
loop_
 _symmetry_equiv_pos_site_id
 _symmetry_equiv_pos_as_xyz
  1  'x, y, z'
loop_
 _atom_site_type_symbol
 _atom_site_label
 _atom_site_symmetry_multiplicity
 _atom_site_fract_x
 _atom_site_fract_y
 _atom_site_fract_z
 _atom_site_occupancy
  Tb  Tb0  1  0.000000  0.000000  0.143928  1
  Tb  Tb1  1  0.500000  0.000000  0.858209  1
  Dy  Dy2  1  0.000000  0.500000  0.637640  1
  Dy  Dy3  1  0.500000  0.500000  0.360815  1
  Ga  Ga4  1  0.000000  0.500000  0.921584  1
  Ga  Ga5  1  0.500000  0.500000  0.079896  1
  Ga  Ga6  1  0.500000  0.000000  0.573476  1
  Si  Si7  1  0.000000  0.000000  0.424450  1
