# generated using pymatgen
data_Pr2Ti3Co9As7
_symmetry_space_group_name_H-M   'P 1'
_cell_length_a   3.80873200
_cell_length_b   9.54025322
_cell_length_c   9.54025400
_cell_angle_alpha   119.99999577
_cell_angle_beta   90.00000000
_cell_angle_gamma   90.00000000
_symmetry_Int_Tables_number   1
_chemical_formula_structural   Pr2Ti3Co9As7
_chemical_formula_sum   'Pr2 Ti3 Co9 As7'
_cell_volume   300.21397481
_cell_formula_units_Z   1
loop_
 _symmetry_equiv_pos_site_id
 _symmetry_equiv_pos_as_xyz
  1  'x, y, z'
loop_
 _atom_site_type_symbol
 _atom_site_label
 _atom_site_symmetry_multiplicity
 _atom_site_fract_x
 _atom_site_fract_y
 _atom_site_fract_z
 _atom_site_occupancy
  Pr  Pr0  1  0.000000  0.666667  0.333333  1
  Pr  Pr1  1  0.500000  0.333333  0.666667  1
  Ti  Ti2  1  0.500000  0.780101  0.888909  1
  Ti  Ti3  1  0.500000  0.108809  0.219899  1
  Ti  Ti4  1  0.500000  0.111091  0.891191  1
  Co  Co5  1  0.000000  0.575149  0.941649  1
  Co  Co6  1  0.000000  0.366500  0.424851  1
  Co  Co7  1  0.000000  0.058351  0.633500  1
  Co  Co8  1  0.000000  0.879774  0.157873  1
  Co  Co9  1  0.000000  0.278100  0.120226  1
  Co  Co10  1  0.000000  0.842127  0.721900  1
  Co  Co11  1  0.500000  0.950344  0.384618  1
  Co  Co12  1  0.500000  0.434273  0.049656  1
  Co  Co13  1  0.500000  0.615382  0.565727  1
  As  As14  1  0.000000  0.000000  0.000000  1
  As  As15  1  0.500000  0.709890  0.116818  1
  As  As16  1  0.500000  0.406927  0.290110  1
  As  As17  1  0.500000  0.883182  0.593073  1
  As  As18  1  0.000000  0.584757  0.693081  1
  As  As19  1  0.000000  0.108324  0.415243  1
  As  As20  1  0.000000  0.306919  0.891676  1
