# generated using pymatgen
data_NaBi3(Ir2O7)2
_symmetry_space_group_name_H-M   'P 1'
_cell_length_a   7.27393333
_cell_length_b   7.27393321
_cell_length_c   7.27393323
_cell_angle_alpha   60.87092220
_cell_angle_beta   60.87092667
_cell_angle_gamma   60.87092309
_symmetry_Int_Tables_number   1
_chemical_formula_structural   NaBi3(Ir2O7)2
_chemical_formula_sum   'Na1 Bi3 Ir4 O14'
_cell_volume   277.48369468
_cell_formula_units_Z   1
loop_
 _symmetry_equiv_pos_site_id
 _symmetry_equiv_pos_as_xyz
  1  'x, y, z'
loop_
 _atom_site_type_symbol
 _atom_site_label
 _atom_site_symmetry_multiplicity
 _atom_site_fract_x
 _atom_site_fract_y
 _atom_site_fract_z
 _atom_site_occupancy
  Na  Na0  1  0.500000  0.500000  0.500000  1
  Bi  Bi1  1  0.500000  0.000000  0.500000  1
  Bi  Bi2  1  0.000000  0.500000  0.500000  1
  Bi  Bi3  1  0.500000  0.500000  0.000000  1
  Ir  Ir4  1  0.000000  0.000000  0.000000  1
  Ir  Ir5  1  0.000000  0.500000  0.000000  1
  Ir  Ir6  1  0.500000  0.000000  0.000000  1
  Ir  Ir7  1  0.000000  0.000000  0.500000  1
  O  O8  1  0.624851  0.624851  0.624851  1
  O  O9  1  0.375149  0.375149  0.375149  1
  O  O10  1  0.919086  0.919086  0.328599  1
  O  O11  1  0.328599  0.919086  0.919086  1
  O  O12  1  0.919086  0.328599  0.919086  1
  O  O13  1  0.324759  0.324759  0.935273  1
  O  O14  1  0.935273  0.324759  0.324759  1
  O  O15  1  0.324759  0.935273  0.324759  1
  O  O16  1  0.080914  0.080914  0.671401  1
  O  O17  1  0.671401  0.080914  0.080914  1
  O  O18  1  0.080914  0.671401  0.080914  1
  O  O19  1  0.675241  0.675241  0.064727  1
  O  O20  1  0.064727  0.675241  0.675241  1
  O  O21  1  0.675241  0.064727  0.675241  1
