# generated using pymatgen
data_HoLu2Ga5Ir
_symmetry_space_group_name_H-M   'P 1'
_cell_length_a   6.88241400
_cell_length_b   6.91003712
_cell_length_c   4.23463300
_cell_angle_alpha   90.00000000
_cell_angle_beta   90.00000000
_cell_angle_gamma   119.86786001
_symmetry_Int_Tables_number   1
_chemical_formula_structural   HoLu2Ga5Ir
_chemical_formula_sum   'Ho1 Lu2 Ga5 Ir1'
_cell_volume   174.64024047
_cell_formula_units_Z   1
loop_
 _symmetry_equiv_pos_site_id
 _symmetry_equiv_pos_as_xyz
  1  'x, y, z'
loop_
 _atom_site_type_symbol
 _atom_site_label
 _atom_site_symmetry_multiplicity
 _atom_site_fract_x
 _atom_site_fract_y
 _atom_site_fract_z
 _atom_site_occupancy
  Ho  Ho0  1  0.587242  0.000000  0.500000  1
  Lu  Lu1  1  0.408659  0.409588  0.500000  1
  Lu  Lu2  1  0.999071  0.590412  0.500000  1
  Ga  Ga3  1  0.238763  0.000000  0.000000  1
  Ga  Ga4  1  0.999760  0.237464  0.000000  1
  Ga  Ga5  1  0.667869  0.336047  0.000000  1
  Ga  Ga6  1  0.331822  0.663953  0.000000  1
  Ga  Ga7  1  0.762297  0.762536  0.000000  1
  Ir  Ir8  1  0.004519  0.000000  0.500000  1
