# generated using pymatgen
data_Ce2Dy6Si12Ir3Rh
_symmetry_space_group_name_H-M   'P 1'
_cell_length_a   8.19617600
_cell_length_b   8.19617582
_cell_length_c   8.01704400
_cell_angle_alpha   90.00000000
_cell_angle_beta   90.00000000
_cell_angle_gamma   119.99999265
_symmetry_Int_Tables_number   1
_chemical_formula_structural   Ce2Dy6Si12Ir3Rh
_chemical_formula_sum   'Ce2 Dy6 Si12 Ir3 Rh1'
_cell_volume   466.40959130
_cell_formula_units_Z   1
loop_
 _symmetry_equiv_pos_site_id
 _symmetry_equiv_pos_as_xyz
  1  'x, y, z'
loop_
 _atom_site_type_symbol
 _atom_site_label
 _atom_site_symmetry_multiplicity
 _atom_site_fract_x
 _atom_site_fract_y
 _atom_site_fract_z
 _atom_site_occupancy
  Ce  Ce0  1  0.000000  0.000000  0.248900  1
  Ce  Ce1  1  0.000000  0.000000  0.750029  1
  Dy  Dy2  1  0.508898  0.491102  0.250263  1
  Dy  Dy3  1  0.508898  0.017797  0.250263  1
  Dy  Dy4  1  0.982203  0.491102  0.250263  1
  Dy  Dy5  1  0.491778  0.508222  0.749744  1
  Dy  Dy6  1  0.491778  0.983556  0.749744  1
  Dy  Dy7  1  0.016444  0.508222  0.749744  1
  Si  Si8  1  0.167031  0.832969  0.500182  1
  Si  Si9  1  0.167031  0.334062  0.500182  1
  Si  Si10  1  0.665938  0.832969  0.500182  1
  Si  Si11  1  0.833076  0.166924  0.499119  1
  Si  Si12  1  0.833076  0.666152  0.499119  1
  Si  Si13  1  0.333848  0.166924  0.499119  1
  Si  Si14  1  0.833208  0.166792  0.001048  1
  Si  Si15  1  0.833208  0.666416  0.001048  1
  Si  Si16  1  0.333584  0.166792  0.001048  1
  Si  Si17  1  0.167553  0.832447  0.998399  1
  Si  Si18  1  0.167553  0.335107  0.998399  1
  Si  Si19  1  0.664893  0.832447  0.998399  1
  Ir  Ir20  1  0.333333  0.666667  0.470756  1
  Ir  Ir21  1  0.666667  0.333333  0.530369  1
  Ir  Ir22  1  0.666667  0.333333  0.968420  1
  Rh  Rh23  1  0.333333  0.666667  0.035259  1
