# generated using pymatgen
data_Nd4Mn(Sb4Pd)2
_symmetry_space_group_name_H-M   'P 1'
_cell_length_a   10.99662900
_cell_length_b   10.99662939
_cell_length_c   10.99662906
_cell_angle_alpha   146.87744767
_cell_angle_beta   146.87744903
_cell_angle_gamma   47.54526952
_symmetry_Int_Tables_number   1
_chemical_formula_structural   Nd4Mn(Sb4Pd)2
_chemical_formula_sum   'Nd4 Mn1 Sb8 Pd2'
_cell_volume   395.49916551
_cell_formula_units_Z   1
loop_
 _symmetry_equiv_pos_site_id
 _symmetry_equiv_pos_as_xyz
  1  'x, y, z'
loop_
 _atom_site_type_symbol
 _atom_site_label
 _atom_site_symmetry_multiplicity
 _atom_site_fract_x
 _atom_site_fract_y
 _atom_site_fract_z
 _atom_site_occupancy
  Nd  Nd0  1  0.627423  0.128664  0.000000  1
  Nd  Nd1  1  0.128664  0.627423  0.000000  1
  Nd  Nd2  1  0.871336  0.871336  0.498759  1
  Nd  Nd3  1  0.372577  0.372577  0.501241  1
  Mn  Mn4  1  0.000000  0.000000  0.000000  1
  Sb  Sb5  1  0.249752  0.249752  0.000000  1
  Sb  Sb6  1  0.750248  0.750248  0.000000  1
  Sb  Sb7  1  0.250000  0.750000  0.500000  1
  Sb  Sb8  1  0.750000  0.250000  0.500000  1
  Sb  Sb9  1  0.328490  0.820924  0.000000  1
  Sb  Sb10  1  0.820924  0.328490  0.000000  1
  Sb  Sb11  1  0.179076  0.179076  0.507565  1
  Sb  Sb12  1  0.671510  0.671510  0.492435  1
  Pd  Pd13  1  0.500000  0.000000  0.500000  1
  Pd  Pd14  1  0.000000  0.500000  0.500000  1
