# generated using pymatgen
data_Y3ErGa2(Si4Rh3)2
_symmetry_space_group_name_H-M   'P 1'
_cell_length_a   8.19726084
_cell_length_b   8.19785183
_cell_length_c   5.67912211
_cell_angle_alpha   71.45890998
_cell_angle_beta   71.45929774
_cell_angle_gamma   94.47913441
_symmetry_Int_Tables_number   1
_chemical_formula_structural   Y3ErGa2(Si4Rh3)2
_chemical_formula_sum   'Y3 Er1 Ga2 Si8 Rh6'
_cell_volume   336.16177596
_cell_formula_units_Z   1
loop_
 _symmetry_equiv_pos_site_id
 _symmetry_equiv_pos_as_xyz
  1  'x, y, z'
loop_
 _atom_site_type_symbol
 _atom_site_label
 _atom_site_symmetry_multiplicity
 _atom_site_fract_x
 _atom_site_fract_y
 _atom_site_fract_z
 _atom_site_occupancy
  Y  Y0  1  0.133254  0.400581  0.243517  1
  Y  Y1  1  0.400528  0.133317  0.743402  1
  Y  Y2  1  0.599468  0.866698  0.256509  1
  Er  Er3  1  0.866608  0.599363  0.756817  1
  Ga  Ga4  1  0.777244  0.222989  0.749950  1
  Ga  Ga5  1  0.222603  0.777093  0.250230  1
  Si  Si6  1  0.514274  0.486175  0.749988  1
  Si  Si7  1  0.486150  0.514001  0.249888  1
  Si  Si8  1  0.212308  0.787458  0.749936  1
  Si  Si9  1  0.787576  0.212569  0.249908  1
  Si  Si10  1  0.264671  0.061886  0.338849  1
  Si  Si11  1  0.735432  0.937834  0.661261  1
  Si  Si12  1  0.938056  0.735162  0.161314  1
  Si  Si13  1  0.061751  0.264739  0.838922  1
  Rh  Rh14  1  0.535501  0.263230  0.135573  1
  Rh  Rh15  1  0.737266  0.465050  0.363666  1
  Rh  Rh16  1  0.464756  0.736862  0.864140  1
  Rh  Rh17  1  0.262680  0.535363  0.635947  1
  Rh  Rh18  1  0.992780  0.007035  0.250094  1
  Rh  Rh19  1  0.007095  0.992595  0.750089  1
