# generated using pymatgen
data_TbMgZr2(Al8Pt3)3
_symmetry_space_group_name_H-M   'P 1'
_cell_length_a   7.49301982
_cell_length_b   7.50786282
_cell_length_c   13.05760806
_cell_angle_alpha   84.62203439
_cell_angle_beta   79.12439029
_cell_angle_gamma   59.94078199
_symmetry_Int_Tables_number   1
_chemical_formula_structural   TbMgZr2(Al8Pt3)3
_chemical_formula_sum   'Tb1 Mg1 Zr2 Al24 Pt9'
_cell_volume   624.36221596
_cell_formula_units_Z   1
loop_
 _symmetry_equiv_pos_site_id
 _symmetry_equiv_pos_as_xyz
  1  'x, y, z'
loop_
 _atom_site_type_symbol
 _atom_site_label
 _atom_site_symmetry_multiplicity
 _atom_site_fract_x
 _atom_site_fract_y
 _atom_site_fract_z
 _atom_site_occupancy
  Tb  Tb0  1  0.266905  0.499515  0.189719  1
  Mg  Mg1  1  0.396183  0.170121  0.797194  1
  Zr  Zr2  1  0.604915  0.834750  0.188824  1
  Zr  Zr3  1  0.733757  0.497580  0.811024  1
  Al  Al4  1  0.678386  0.836167  0.938809  1
  Al  Al5  1  0.317409  0.163909  0.051670  1
  Al  Al6  1  0.146683  0.831969  0.564296  1
  Al  Al7  1  0.852660  0.167704  0.438221  1
  Al  Al8  1  0.480628  0.166193  0.559537  1
  Al  Al9  1  0.520237  0.833641  0.440301  1
  Al  Al10  1  0.220229  0.163201  0.326450  1
  Al  Al11  1  0.777887  0.834455  0.678540  1
  Al  Al12  1  0.438606  0.503649  0.679273  1
  Al  Al13  1  0.563122  0.496089  0.326817  1
  Al  Al14  1  0.107288  0.162646  0.677873  1
  Al  Al15  1  0.889088  0.839569  0.327960  1
  Al  Al16  1  0.357889  0.493137  0.938020  1
  Al  Al17  1  0.648038  0.502284  0.055494  1
  Al  Al18  1  0.020421  0.170886  0.945793  1
  Al  Al19  1  0.981961  0.833344  0.046511  1
  Al  Al20  1  0.186591  0.499389  0.441647  1
  Al  Al21  1  0.812020  0.500752  0.561874  1
  Al  Al22  1  0.736248  0.158113  0.183218  1
  Al  Al23  1  0.275584  0.829862  0.817765  1
  Al  Al24  1  0.054505  0.629579  0.816802  1
  Al  Al25  1  0.933021  0.374251  0.185102  1
  Al  Al26  1  0.853011  0.049462  0.817099  1
  Al  Al27  1  0.150076  0.958687  0.184768  1
  Pt  Pt28  1  0.121545  0.490244  0.639872  1
  Pt  Pt29  1  0.879249  0.508657  0.362324  1
  Pt  Pt30  1  0.657263  0.171438  0.000975  1
  Pt  Pt31  1  0.341802  0.824854  0.002610  1
  Pt  Pt32  1  0.537087  0.166886  0.360572  1
  Pt  Pt33  1  0.462229  0.834935  0.639459  1
  Pt  Pt34  1  0.779591  0.174904  0.637622  1
  Pt  Pt35  1  0.220772  0.824408  0.364139  1
  Pt  Pt36  1  0.997113  0.502774  0.001826  1
