# generated using pymatgen
data_Pr6ZrFe(Co4P3)4
_symmetry_space_group_name_H-M   'P 1'
_cell_length_a   3.76990100
_cell_length_b   10.72767600
_cell_length_c   12.53576500
_cell_angle_alpha   90.00000000
_cell_angle_beta   90.00000000
_cell_angle_gamma   90.00000000
_symmetry_Int_Tables_number   1
_chemical_formula_structural   Pr6ZrFe(Co4P3)4
_chemical_formula_sum   'Pr6 Zr1 Fe1 Co16 P12'
_cell_volume   506.97487402
_cell_formula_units_Z   1
loop_
 _symmetry_equiv_pos_site_id
 _symmetry_equiv_pos_as_xyz
  1  'x, y, z'
loop_
 _atom_site_type_symbol
 _atom_site_label
 _atom_site_symmetry_multiplicity
 _atom_site_fract_x
 _atom_site_fract_y
 _atom_site_fract_z
 _atom_site_occupancy
  Pr  Pr0  1  0.000000  0.500000  0.529485  1
  Pr  Pr1  1  0.500000  0.000000  0.478522  1
  Pr  Pr2  1  0.500000  0.819616  0.207256  1
  Pr  Pr3  1  0.500000  0.180384  0.207256  1
  Pr  Pr4  1  0.000000  0.682847  0.795345  1
  Pr  Pr5  1  0.000000  0.317153  0.795345  1
  Zr  Zr6  1  0.500000  0.500000  0.152035  1
  Fe  Fe7  1  0.000000  0.000000  0.842491  1
  Co  Co8  1  0.500000  0.500000  0.704677  1
  Co  Co9  1  0.000000  0.000000  0.294930  1
  Co  Co10  1  0.000000  0.500000  0.983231  1
  Co  Co11  1  0.500000  0.000000  0.010987  1
  Co  Co12  1  0.500000  0.327106  0.989111  1
  Co  Co13  1  0.500000  0.672894  0.989111  1
  Co  Co14  1  0.000000  0.161393  0.000166  1
  Co  Co15  1  0.000000  0.838607  0.000166  1
  Co  Co16  1  0.500000  0.294509  0.434696  1
  Co  Co17  1  0.500000  0.705491  0.434696  1
  Co  Co18  1  0.000000  0.202407  0.570236  1
  Co  Co19  1  0.000000  0.797593  0.570236  1
  Co  Co20  1  0.500000  0.882569  0.708821  1
  Co  Co21  1  0.500000  0.117431  0.708821  1
  Co  Co22  1  0.000000  0.619399  0.300233  1
  Co  Co23  1  0.000000  0.380601  0.300233  1
  P  P24  1  0.500000  0.500000  0.884733  1
  P  P25  1  0.000000  0.000000  0.112270  1
  P  P26  1  0.500000  0.500000  0.356602  1
  P  P27  1  0.000000  0.000000  0.661279  1
  P  P28  1  0.500000  0.302505  0.615342  1
  P  P29  1  0.500000  0.697495  0.615342  1
  P  P30  1  0.000000  0.193892  0.388938  1
  P  P31  1  0.000000  0.806108  0.388938  1
  P  P32  1  0.500000  0.853751  0.890103  1
  P  P33  1  0.500000  0.146249  0.890103  1
  P  P34  1  0.000000  0.662639  0.094131  1
  P  P35  1  0.000000  0.337361  0.094131  1
