# generated using pymatgen
data_Ho12AlCo3SiBi
_symmetry_space_group_name_H-M   'P 1'
_cell_length_a   8.37716587
_cell_length_b   8.37716598
_cell_length_c   8.37716529
_cell_angle_alpha   110.77929356
_cell_angle_beta   112.72345067
_cell_angle_gamma   105.00760479
_symmetry_Int_Tables_number   1
_chemical_formula_structural   Ho12AlCo3SiBi
_chemical_formula_sum   'Ho12 Al1 Co3 Si1 Bi1'
_cell_volume   450.37297729
_cell_formula_units_Z   1
loop_
 _symmetry_equiv_pos_site_id
 _symmetry_equiv_pos_as_xyz
  1  'x, y, z'
loop_
 _atom_site_type_symbol
 _atom_site_label
 _atom_site_symmetry_multiplicity
 _atom_site_fract_x
 _atom_site_fract_y
 _atom_site_fract_z
 _atom_site_occupancy
  Ho  Ho0  1  0.281792  0.180358  0.462149  1
  Ho  Ho1  1  0.717878  0.811571  0.529449  1
  Ho  Ho2  1  0.282122  0.811571  0.093696  1
  Ho  Ho3  1  0.718208  0.180358  0.898564  1
  Ho  Ho4  1  0.615685  0.306259  0.311874  1
  Ho  Ho5  1  0.384315  0.696190  0.690574  1
  Ho  Ho6  1  0.994384  0.306259  0.690574  1
  Ho  Ho7  1  0.005616  0.696190  0.311874  1
  Ho  Ho8  1  0.226665  0.425670  0.199005  1
  Ho  Ho9  1  0.768388  0.561000  0.792613  1
  Ho  Ho10  1  0.231612  0.024226  0.792613  1
  Ho  Ho11  1  0.773335  0.972339  0.199005  1
  Al  Al12  1  0.000000  0.987932  0.987932  1
  Co  Co13  1  0.000000  0.657137  0.657137  1
  Co  Co14  1  0.390688  0.892978  0.502290  1
  Co  Co15  1  0.609312  0.111601  0.502290  1
  Si  Si16  1  0.000000  0.380748  0.380748  1
  Bi  Bi17  1  0.500000  0.497613  0.997613  1
