# generated using pymatgen
data_Dy12InCo2Pd3
_symmetry_space_group_name_H-M   'P 1'
_cell_length_a   8.37072058
_cell_length_b   8.37071029
_cell_length_c   8.37072000
_cell_angle_alpha   112.38866052
_cell_angle_beta   110.22887906
_cell_angle_gamma   105.86324768
_symmetry_Int_Tables_number   1
_chemical_formula_structural   Dy12InCo2Pd3
_chemical_formula_sum   'Dy12 In1 Co2 Pd3'
_cell_volume   450.00524977
_cell_formula_units_Z   1
loop_
 _symmetry_equiv_pos_site_id
 _symmetry_equiv_pos_as_xyz
  1  'x, y, z'
loop_
 _atom_site_type_symbol
 _atom_site_label
 _atom_site_symmetry_multiplicity
 _atom_site_fract_x
 _atom_site_fract_y
 _atom_site_fract_z
 _atom_site_occupancy
  Dy  Dy0  1  0.818494  0.710449  0.528946  1
  Dy  Dy1  1  0.181506  0.289551  0.471054  1
  Dy  Dy2  1  0.181504  0.710449  0.891956  1
  Dy  Dy3  1  0.818496  0.289551  0.108044  1
  Dy  Dy4  1  0.690991  0.384132  0.693142  1
  Dy  Dy5  1  0.309009  0.615868  0.306858  1
  Dy  Dy6  1  0.690993  0.997847  0.306855  1
  Dy  Dy7  1  0.309007  0.002153  0.693145  1
  Dy  Dy8  1  0.578928  0.769355  0.809583  1
  Dy  Dy9  1  0.421072  0.230645  0.190417  1
  Dy  Dy10  1  0.959772  0.769355  0.190426  1
  Dy  Dy11  1  0.040228  0.230645  0.809574  1
  In  In12  1  0.500000  0.500000  0.000000  1
  Co  Co13  1  0.112204  0.612191  0.499988  1
  Co  Co14  1  0.887796  0.387809  0.500012  1
  Pd  Pd15  1  0.648685  0.000000  0.648685  1
  Pd  Pd16  1  0.351315  0.000000  0.351315  1
  Pd  Pd17  1  0.000000  0.000000  0.000000  1
