# generated using pymatgen
data_Hf3C2S
_symmetry_space_group_name_H-M   'P 1'
_cell_length_a   3.36257200
_cell_length_b   3.36257306
_cell_length_c   17.36448000
_cell_angle_alpha   90.00000000
_cell_angle_beta   90.00000000
_cell_angle_gamma   119.99998956
_symmetry_Int_Tables_number   1
_chemical_formula_structural   Hf3C2S
_chemical_formula_sum   'Hf6 C4 S2'
_cell_volume   170.03400388
_cell_formula_units_Z   2
loop_
 _symmetry_equiv_pos_site_id
 _symmetry_equiv_pos_as_xyz
  1  'x, y, z'
loop_
 _atom_site_type_symbol
 _atom_site_label
 _atom_site_symmetry_multiplicity
 _atom_site_fract_x
 _atom_site_fract_y
 _atom_site_fract_z
 _atom_site_occupancy
  Hf  Hf0  1  0.000000  0.000000  0.000000  1
  Hf  Hf1  1  0.333334  0.666668  0.143778  1
  Hf  Hf2  1  0.333334  0.666668  0.356222  1
  Hf  Hf3  1  0.000000  0.000000  0.500000  1
  Hf  Hf4  1  0.666667  0.333332  0.643778  1
  Hf  Hf5  1  0.666667  0.333332  0.856222  1
  C  C6  1  0.666667  0.333332  0.078856  1
  C  C7  1  0.666667  0.333332  0.421144  1
  C  C8  1  0.333334  0.666668  0.578855  1
  C  C9  1  0.333334  0.666668  0.921145  1
  S  S10  1  0.000000  0.000000  0.250000  1
  S  S11  1  0.000000  0.000000  0.750000  1
