# generated using pymatgen
data_DyY4P12Ir16Rh3
_symmetry_space_group_name_H-M   'P 1'
_cell_length_a   12.72611500
_cell_length_b   12.72628286
_cell_length_c   3.97448300
_cell_angle_alpha   90.00000000
_cell_angle_beta   90.00000000
_cell_angle_gamma   119.99956107
_symmetry_Int_Tables_number   1
_chemical_formula_structural   DyY4P12Ir16Rh3
_chemical_formula_sum   'Dy1 Y4 P12 Ir16 Rh3'
_cell_volume   557.45602229
_cell_formula_units_Z   1
loop_
 _symmetry_equiv_pos_site_id
 _symmetry_equiv_pos_as_xyz
  1  'x, y, z'
loop_
 _atom_site_type_symbol
 _atom_site_label
 _atom_site_symmetry_multiplicity
 _atom_site_fract_x
 _atom_site_fract_y
 _atom_site_fract_z
 _atom_site_occupancy
  Dy  Dy0  1  0.814051  0.000000  0.000000  1
  Y  Y1  1  0.333366  0.666728  0.500000  1
  Y  Y2  1  0.666639  0.333272  0.500000  1
  Y  Y3  1  0.000000  0.813988  0.000000  1
  Y  Y4  1  0.186013  0.186012  0.000000  1
  P  P5  1  0.999990  0.640183  0.500000  1
  P  P6  1  0.359807  0.359817  0.500000  1
  P  P7  1  0.640334  0.000000  0.500000  1
  P  P8  1  0.516749  0.687042  0.000000  1
  P  P9  1  0.312957  0.829698  0.000000  1
  P  P10  1  0.170293  0.483235  0.000000  1
  P  P11  1  0.483260  0.170302  0.000000  1
  P  P12  1  0.687058  0.516765  0.000000  1
  P  P13  1  0.829708  0.312958  0.000000  1
  P  P14  1  0.999831  0.179003  0.500000  1
  P  P15  1  0.820829  0.820997  0.500000  1
  P  P16  1  0.179018  0.000000  0.500000  1
  Ir  Ir17  1  0.507624  0.866541  0.000000  1
  Ir  Ir18  1  0.133305  0.640924  0.000000  1
  Ir  Ir19  1  0.359042  0.492360  0.000000  1
  Ir  Ir20  1  0.492382  0.359076  0.000000  1
  Ir  Ir21  1  0.866683  0.507640  0.000000  1
  Ir  Ir22  1  0.641084  0.133459  0.000000  1
  Ir  Ir23  1  0.999918  0.283481  0.000000  1
  Ir  Ir24  1  0.716437  0.716519  0.000000  1
  Ir  Ir25  1  0.283581  0.000000  0.000000  1
  Ir  Ir26  1  0.625885  0.806161  0.500000  1
  Ir  Ir27  1  0.194013  0.819645  0.500000  1
  Ir  Ir28  1  0.180292  0.374345  0.500000  1
  Ir  Ir29  1  0.374368  0.180355  0.500000  1
  Ir  Ir30  1  0.805946  0.625655  0.500000  1
  Ir  Ir31  1  0.819724  0.193839  0.500000  1
  Ir  Ir32  1  0.999790  0.000000  0.500000  1
  Rh  Rh33  1  0.999962  0.461136  0.500000  1
  Rh  Rh34  1  0.538827  0.538864  0.500000  1
  Rh  Rh35  1  0.461233  0.000000  0.500000  1
