# generated using pymatgen
data_Dy10OsRh3
_symmetry_space_group_name_H-M   'P 1'
_cell_length_a   6.45676040
_cell_length_b   7.21728723
_cell_length_c   8.58680608
_cell_angle_alpha   96.50601761
_cell_angle_beta   112.36804501
_cell_angle_gamma   90.06789860
_symmetry_Int_Tables_number   1
_chemical_formula_structural   Dy10OsRh3
_chemical_formula_sum   'Dy10 Os1 Rh3'
_cell_volume   367.22919223
_cell_formula_units_Z   1
loop_
 _symmetry_equiv_pos_site_id
 _symmetry_equiv_pos_as_xyz
  1  'x, y, z'
loop_
 _atom_site_type_symbol
 _atom_site_label
 _atom_site_symmetry_multiplicity
 _atom_site_fract_x
 _atom_site_fract_y
 _atom_site_fract_z
 _atom_site_occupancy
  Dy  Dy0  1  0.790031  0.083963  0.812720  1
  Dy  Dy1  1  0.973260  0.417279  0.180027  1
  Dy  Dy2  1  0.207895  0.916458  0.185664  1
  Dy  Dy3  1  0.020883  0.581619  0.812673  1
  Dy  Dy4  1  0.216773  0.186643  0.562897  1
  Dy  Dy5  1  0.648544  0.315643  0.441916  1
  Dy  Dy6  1  0.788437  0.815274  0.438304  1
  Dy  Dy7  1  0.351130  0.682930  0.563110  1
  Dy  Dy8  1  0.425566  0.251067  0.998948  1
  Dy  Dy9  1  0.575006  0.748316  0.999107  1
  Os  Os10  1  0.605522  0.426528  0.783378  1
  Rh  Rh11  1  0.824115  0.072948  0.223037  1
  Rh  Rh12  1  0.397493  0.574955  0.220796  1
  Rh  Rh13  1  0.175343  0.926379  0.777422  1
