# generated using pymatgen
data_Yb14GaReN12
_symmetry_space_group_name_H-M   'P 1'
_cell_length_a   6.27376851
_cell_length_b   8.92348889
_cell_length_c   8.92348666
_cell_angle_alpha   79.38436006
_cell_angle_beta   69.41900386
_cell_angle_gamma   69.41899599
_symmetry_Int_Tables_number   1
_chemical_formula_structural   Yb14GaReN12
_chemical_formula_sum   'Yb14 Ga1 Re1 N12'
_cell_volume   436.78798427
_cell_formula_units_Z   1
loop_
 _symmetry_equiv_pos_site_id
 _symmetry_equiv_pos_as_xyz
  1  'x, y, z'
loop_
 _atom_site_type_symbol
 _atom_site_label
 _atom_site_symmetry_multiplicity
 _atom_site_fract_x
 _atom_site_fract_y
 _atom_site_fract_z
 _atom_site_occupancy
  Yb  Yb0  1  0.279735  0.949490  0.044842  1
  Yb  Yb1  1  0.725933  0.044842  0.949490  1
  Yb  Yb2  1  0.220265  0.455158  0.550510  1
  Yb  Yb3  1  0.774067  0.550510  0.455158  1
  Yb  Yb4  1  0.767546  0.151347  0.576098  1
  Yb  Yb5  1  0.505007  0.576098  0.151347  1
  Yb  Yb6  1  0.732454  0.923902  0.348653  1
  Yb  Yb7  1  0.994993  0.348653  0.923902  1
  Yb  Yb8  1  0.249862  0.846315  0.396261  1
  Yb  Yb9  1  0.507564  0.396261  0.846315  1
  Yb  Yb10  1  0.250138  0.103739  0.653685  1
  Yb  Yb11  1  0.992436  0.653685  0.103739  1
  Yb  Yb12  1  0.250000  0.250000  0.250000  1
  Yb  Yb13  1  0.750000  0.750000  0.750000  1
  Ga  Ga14  1  0.750000  0.250000  0.250000  1
  Re  Re15  1  0.250000  0.750000  0.750000  1
  N  N16  1  0.018734  0.064801  0.290350  1
  N  N17  1  0.626112  0.290350  0.064801  1
  N  N18  1  0.481266  0.209650  0.435199  1
  N  N19  1  0.873888  0.435199  0.209650  1
  N  N20  1  0.994393  0.917973  0.694416  1
  N  N21  1  0.393220  0.694416  0.917973  1
  N  N22  1  0.505607  0.805584  0.582027  1
  N  N23  1  0.106780  0.582027  0.805584  1
  N  N24  1  0.891798  0.347509  0.652553  1
  N  N25  1  0.108140  0.652553  0.347509  1
  N  N26  1  0.608202  0.847447  0.152491  1
  N  N27  1  0.391860  0.152491  0.847447  1
