# generated using pymatgen
data_Tb2DyTm3MnBi2
_symmetry_space_group_name_H-M   'P 1'
_cell_length_a   4.28858200
_cell_length_b   8.24341442
_cell_length_c   8.24497105
_cell_angle_alpha   119.99374993
_cell_angle_beta   90.00000000
_cell_angle_gamma   90.00000000
_symmetry_Int_Tables_number   1
_chemical_formula_structural   Tb2DyTm3MnBi2
_chemical_formula_sum   'Tb2 Dy1 Tm3 Mn1 Bi2'
_cell_volume   252.44569391
_cell_formula_units_Z   1
loop_
 _symmetry_equiv_pos_site_id
 _symmetry_equiv_pos_as_xyz
  1  'x, y, z'
loop_
 _atom_site_type_symbol
 _atom_site_label
 _atom_site_symmetry_multiplicity
 _atom_site_fract_x
 _atom_site_fract_y
 _atom_site_fract_z
 _atom_site_occupancy
  Tb  Tb0  1  0.000000  0.391875  0.391807  1
  Tb  Tb1  1  0.000000  0.000068  0.608193  1
  Dy  Dy2  1  0.000000  0.608550  0.000000  1
  Tm  Tm3  1  0.500000  0.769211  0.769443  1
  Tm  Tm4  1  0.500000  0.999767  0.230557  1
  Tm  Tm5  1  0.500000  0.230707  0.000000  1
  Mn  Mn6  1  0.000000  0.999576  0.000000  1
  Bi  Bi7  1  0.500000  0.666626  0.333006  1
  Bi  Bi8  1  0.500000  0.333619  0.666994  1
