# generated using pymatgen
data_Nb12CrFe10CoN4
_symmetry_space_group_name_H-M   'P 1'
_cell_length_a   7.99844380
_cell_length_b   7.99976594
_cell_length_c   7.99976600
_cell_angle_alpha   60.05552502
_cell_angle_beta   60.14623019
_cell_angle_gamma   60.14623271
_symmetry_Int_Tables_number   1
_chemical_formula_structural   Nb12CrFe10CoN4
_chemical_formula_sum   'Nb12 Cr1 Fe10 Co1 N4'
_cell_volume   362.89765756
_cell_formula_units_Z   1
loop_
 _symmetry_equiv_pos_site_id
 _symmetry_equiv_pos_as_xyz
  1  'x, y, z'
loop_
 _atom_site_type_symbol
 _atom_site_label
 _atom_site_symmetry_multiplicity
 _atom_site_fract_x
 _atom_site_fract_y
 _atom_site_fract_z
 _atom_site_occupancy
  Nb  Nb0  1  0.802282  0.802877  0.195835  1
  Nb  Nb1  1  0.198716  0.199978  0.801049  1
  Nb  Nb2  1  0.802282  0.195835  0.802877  1
  Nb  Nb3  1  0.198716  0.801049  0.199978  1
  Nb  Nb4  1  0.195439  0.802757  0.802757  1
  Nb  Nb5  1  0.800011  0.199791  0.199791  1
  Nb  Nb6  1  0.446404  0.446653  0.055237  1
  Nb  Nb7  1  0.050243  0.048966  0.449992  1
  Nb  Nb8  1  0.446404  0.055237  0.446653  1
  Nb  Nb9  1  0.050243  0.449992  0.048966  1
  Nb  Nb10  1  0.054963  0.447518  0.447518  1
  Nb  Nb11  1  0.448767  0.050718  0.050718  1
  Cr  Cr12  1  0.623336  0.626254  0.626254  1
  Fe  Fe13  1  0.126194  0.624248  0.624248  1
  Fe  Fe14  1  0.623159  0.124994  0.625461  1
  Fe  Fe15  1  0.623159  0.625461  0.124994  1
  Fe  Fe16  1  0.426270  0.726770  0.425207  1
  Fe  Fe17  1  0.426270  0.425207  0.726770  1
  Fe  Fe18  1  0.426938  0.424900  0.424900  1
  Fe  Fe19  1  0.523227  0.824913  0.824913  1
  Fe  Fe20  1  0.824543  0.522121  0.825025  1
  Fe  Fe21  1  0.824543  0.825025  0.522121  1
  Fe  Fe22  1  0.824935  0.825252  0.825252  1
  Co  Co23  1  0.733610  0.423440  0.423440  1
  N  N24  1  0.625599  0.124669  0.124669  1
  N  N25  1  0.124637  0.625156  0.125001  1
  N  N26  1  0.124637  0.125001  0.625156  1
  N  N27  1  0.124474  0.125219  0.125219  1
