# generated using pymatgen
data_Ba4LaGa2BiSe10
_symmetry_space_group_name_H-M   'P 1'
_cell_length_a   7.42690084
_cell_length_b   9.00144924
_cell_length_c   9.69568437
_cell_angle_alpha   104.07231213
_cell_angle_beta   102.62472232
_cell_angle_gamma   107.83565232
_symmetry_Int_Tables_number   1
_chemical_formula_structural   Ba4LaGa2BiSe10
_chemical_formula_sum   'Ba4 La1 Ga2 Bi1 Se10'
_cell_volume   567.57531246
_cell_formula_units_Z   1
loop_
 _symmetry_equiv_pos_site_id
 _symmetry_equiv_pos_as_xyz
  1  'x, y, z'
loop_
 _atom_site_type_symbol
 _atom_site_label
 _atom_site_symmetry_multiplicity
 _atom_site_fract_x
 _atom_site_fract_y
 _atom_site_fract_z
 _atom_site_occupancy
  Ba  Ba0  1  0.632806  0.979825  0.294293  1
  Ba  Ba1  1  0.363324  0.018250  0.703041  1
  Ba  Ba2  1  0.342896  0.512686  0.702988  1
  Ba  Ba3  1  0.664422  0.491212  0.303049  1
  La  La4  1  0.001633  0.264482  0.002174  1
  Ga  Ga5  1  0.806420  0.871459  0.688225  1
  Ga  Ga6  1  0.194379  0.128744  0.311846  1
  Bi  Bi7  1  0.997402  0.718114  0.998807  1
  Se  Se8  1  0.989242  0.686936  0.679092  1
  Se  Se9  1  0.011149  0.313532  0.323981  1
  Se  Se10  1  0.986355  0.145498  0.680334  1
  Se  Se11  1  0.013462  0.851178  0.311870  1
  Se  Se12  1  0.700503  0.907443  0.916984  1
  Se  Se13  1  0.300370  0.101206  0.082594  1
  Se  Se14  1  0.692894  0.413380  0.950608  1
  Se  Se15  1  0.302745  0.595823  0.050108  1
  Se  Se16  1  0.492902  0.741631  0.491380  1
  Se  Se17  1  0.507094  0.258602  0.508625  1
