# generated using pymatgen
data_Co8Re3Mo12WN4
_symmetry_space_group_name_H-M   'P 1'
_cell_length_a   7.95645015
_cell_length_b   7.95645003
_cell_length_c   7.92542043
_cell_angle_alpha   59.87040186
_cell_angle_beta   59.87039866
_cell_angle_gamma   59.99999511
_symmetry_Int_Tables_number   1
_chemical_formula_structural   Co8Re3Mo12WN4
_chemical_formula_sum   'Co8 Re3 Mo12 W1 N4'
_cell_volume   354.07271376
_cell_formula_units_Z   1
loop_
 _symmetry_equiv_pos_site_id
 _symmetry_equiv_pos_as_xyz
  1  'x, y, z'
loop_
 _atom_site_type_symbol
 _atom_site_label
 _atom_site_symmetry_multiplicity
 _atom_site_fract_x
 _atom_site_fract_y
 _atom_site_fract_z
 _atom_site_occupancy
  Co  Co0  1  0.833013  0.501287  0.832685  1
  Co  Co1  1  0.419314  0.419314  0.742059  1
  Co  Co2  1  0.748713  0.416987  0.417315  1
  Co  Co3  1  0.416987  0.416987  0.417315  1
  Co  Co4  1  0.501287  0.833013  0.832685  1
  Co  Co5  1  0.833013  0.833013  0.832685  1
  Co  Co6  1  0.830686  0.830686  0.507941  1
  Co  Co7  1  0.416987  0.748713  0.417315  1
  Re  Re8  1  0.625000  0.125000  0.625000  1
  Re  Re9  1  0.125000  0.625000  0.625000  1
  Re  Re10  1  0.625000  0.625000  0.625000  1
  Mo  Mo11  1  0.194708  0.194708  0.804956  1
  Mo  Mo12  1  0.441887  0.061391  0.054834  1
  Mo  Mo13  1  0.055292  0.444372  0.445044  1
  Mo  Mo14  1  0.441887  0.441887  0.054834  1
  Mo  Mo15  1  0.444372  0.055292  0.445044  1
  Mo  Mo16  1  0.061391  0.441887  0.054834  1
  Mo  Mo17  1  0.805628  0.194708  0.804956  1
  Mo  Mo18  1  0.808113  0.188609  0.195166  1
  Mo  Mo19  1  0.194708  0.805628  0.804956  1
  Mo  Mo20  1  0.188609  0.808113  0.195166  1
  Mo  Mo21  1  0.055292  0.055292  0.445044  1
  Mo  Mo22  1  0.808113  0.808113  0.195166  1
  W  W23  1  0.625000  0.625000  0.125000  1
  N  N24  1  0.125000  0.625000  0.125000  1
  N  N25  1  0.125000  0.125000  0.625000  1
  N  N26  1  0.625000  0.125000  0.125000  1
  N  N27  1  0.125000  0.125000  0.125000  1
