# generated using pymatgen
data_TmTh3(Al8Pt3)3
_symmetry_space_group_name_H-M   'P 1'
_cell_length_a   7.60912871
_cell_length_b   7.62137708
_cell_length_c   13.20593449
_cell_angle_alpha   84.50828815
_cell_angle_beta   78.94604827
_cell_angle_gamma   59.95625068
_symmetry_Int_Tables_number   1
_chemical_formula_structural   TmTh3(Al8Pt3)3
_chemical_formula_sum   'Tm1 Th3 Al24 Pt9'
_cell_volume   650.64393263
_cell_formula_units_Z   1
loop_
 _symmetry_equiv_pos_site_id
 _symmetry_equiv_pos_as_xyz
  1  'x, y, z'
loop_
 _atom_site_type_symbol
 _atom_site_label
 _atom_site_symmetry_multiplicity
 _atom_site_fract_x
 _atom_site_fract_y
 _atom_site_fract_z
 _atom_site_occupancy
  Tm  Tm0  1  0.265623  0.501076  0.194789  1
  Th  Th1  1  0.394553  0.168219  0.807257  1
  Th  Th2  1  0.604676  0.832270  0.193493  1
  Th  Th3  1  0.733723  0.498370  0.807168  1
  Al  Al4  1  0.687416  0.833668  0.946594  1
  Al  Al5  1  0.312416  0.170108  0.057786  1
  Al  Al6  1  0.146326  0.832717  0.559729  1
  Al  Al7  1  0.854469  0.166744  0.437291  1
  Al  Al8  1  0.481169  0.167345  0.556767  1
  Al  Al9  1  0.519018  0.833297  0.441494  1
  Al  Al10  1  0.213100  0.169137  0.332631  1
  Al  Al11  1  0.788509  0.834364  0.663597  1
  Al  Al12  1  0.435837  0.510303  0.664150  1
  Al  Al13  1  0.561409  0.490204  0.332460  1
  Al  Al14  1  0.112405  0.155697  0.662261  1
  Al  Al15  1  0.892636  0.839989  0.333847  1
  Al  Al16  1  0.347710  0.502873  0.948899  1
  Al  Al17  1  0.645442  0.498206  0.057746  1
  Al  Al18  1  0.013994  0.164656  0.957712  1
  Al  Al19  1  0.986660  0.831609  0.048738  1
  Al  Al20  1  0.186916  0.499687  0.440111  1
  Al  Al21  1  0.814413  0.500180  0.556643  1
  Al  Al22  1  0.734177  0.167046  0.183950  1
  Al  Al23  1  0.261863  0.835553  0.816640  1
  Al  Al24  1  0.062200  0.634681  0.815143  1
  Al  Al25  1  0.941185  0.365973  0.185208  1
  Al  Al26  1  0.860509  0.036893  0.815882  1
  Al  Al27  1  0.140856  0.958249  0.184138  1
  Pt  Pt28  1  0.120267  0.491040  0.638710  1
  Pt  Pt29  1  0.880006  0.508993  0.360598  1
  Pt  Pt30  1  0.656384  0.172198  0.999749  1
  Pt  Pt31  1  0.343444  0.828711  0.000001  1
  Pt  Pt32  1  0.537247  0.166830  0.360848  1
  Pt  Pt33  1  0.463138  0.833203  0.638695  1
  Pt  Pt34  1  0.778419  0.175514  0.637398  1
  Pt  Pt35  1  0.222018  0.824359  0.361762  1
  Pt  Pt36  1  0.999868  0.500037  0.000116  1
