# generated using pymatgen
data_Sc22Tc6HgOs
_symmetry_space_group_name_H-M   'P 1'
_cell_length_a   9.62985904
_cell_length_b   9.62985942
_cell_length_c   9.50178700
_cell_angle_alpha   60.43898109
_cell_angle_beta   60.43897981
_cell_angle_gamma   59.02647339
_symmetry_Int_Tables_number   1
_chemical_formula_structural   Sc22Tc6HgOs
_chemical_formula_sum   'Sc22 Tc6 Hg1 Os1'
_cell_volume   622.36019488
_cell_formula_units_Z   1
loop_
 _symmetry_equiv_pos_site_id
 _symmetry_equiv_pos_as_xyz
  1  'x, y, z'
loop_
 _atom_site_type_symbol
 _atom_site_label
 _atom_site_symmetry_multiplicity
 _atom_site_fract_x
 _atom_site_fract_y
 _atom_site_fract_z
 _atom_site_occupancy
  Sc  Sc0  1  0.842114  0.842114  0.846672  1
  Sc  Sc1  1  0.526530  0.141913  0.165778  1
  Sc  Sc2  1  0.157886  0.157886  0.530899  1
  Sc  Sc3  1  0.141913  0.526530  0.165778  1
  Sc  Sc4  1  0.842114  0.842114  0.469101  1
  Sc  Sc5  1  0.858087  0.473470  0.834222  1
  Sc  Sc6  1  0.473470  0.858087  0.834222  1
  Sc  Sc7  1  0.157886  0.157886  0.153328  1
  Sc  Sc8  1  0.194453  0.805547  0.196696  1
  Sc  Sc9  1  0.194453  0.805547  0.803304  1
  Sc  Sc10  1  0.805547  0.194453  0.196696  1
  Sc  Sc11  1  0.801641  0.801641  0.198359  1
  Sc  Sc12  1  0.198359  0.198359  0.801641  1
  Sc  Sc13  1  0.805547  0.194453  0.803304  1
  Sc  Sc14  1  0.377271  0.377271  0.398248  1
  Sc  Sc15  1  0.149855  0.624674  0.612736  1
  Sc  Sc16  1  0.624674  0.149855  0.612736  1
  Sc  Sc17  1  0.622729  0.622729  0.152790  1
  Sc  Sc18  1  0.375326  0.850145  0.387264  1
  Sc  Sc19  1  0.377271  0.377271  0.847210  1
  Sc  Sc20  1  0.850145  0.375326  0.387264  1
  Sc  Sc21  1  0.622729  0.622729  0.601752  1
  Tc  Tc22  1  0.000000  0.000000  0.500000  1
  Tc  Tc23  1  0.500000  0.000000  0.500000  1
  Tc  Tc24  1  0.000000  0.500000  0.500000  1
  Tc  Tc25  1  0.500000  0.000000  0.000000  1
  Tc  Tc26  1  0.000000  0.500000  0.000000  1
  Tc  Tc27  1  0.000000  0.000000  0.000000  1
  Hg  Hg28  1  0.500000  0.500000  0.000000  1
  Os  Os29  1  0.500000  0.500000  0.500000  1
