# generated using pymatgen
data_ScV2TeO7
_symmetry_space_group_name_H-M   'P 1'
_cell_length_a   6.77011088
_cell_length_b   7.00204475
_cell_length_c   8.08265217
_cell_angle_alpha   94.14099286
_cell_angle_beta   111.74168101
_cell_angle_gamma   114.57501449
_symmetry_Int_Tables_number   1
_chemical_formula_structural   ScV2TeO7
_chemical_formula_sum   'Sc2 V4 Te2 O14'
_cell_volume   311.83367813
_cell_formula_units_Z   2
loop_
 _symmetry_equiv_pos_site_id
 _symmetry_equiv_pos_as_xyz
  1  'x, y, z'
loop_
 _atom_site_type_symbol
 _atom_site_label
 _atom_site_symmetry_multiplicity
 _atom_site_fract_x
 _atom_site_fract_y
 _atom_site_fract_z
 _atom_site_occupancy
  Sc  Sc0  1  0.446693  0.058791  0.166800  1
  Sc  Sc1  1  0.553307  0.941209  0.833200  1
  V  V2  1  0.021858  0.877680  0.658863  1
  V  V3  1  0.518803  0.568827  0.332552  1
  V  V4  1  0.481197  0.431173  0.667448  1
  V  V5  1  0.978142  0.122320  0.341137  1
  Te  Te6  1  0.072684  0.704505  0.298879  1
  Te  Te7  1  0.927316  0.295495  0.701121  1
  O  O8  1  0.159546  0.986327  0.250561  1
  O  O9  1  0.465467  0.365954  0.165311  1
  O  O10  1  0.169886  0.185260  0.634530  1
  O  O11  1  0.362860  0.749096  0.257078  1
  O  O12  1  0.228636  0.787913  0.562874  1
  O  O13  1  0.637140  0.250904  0.742922  1
  O  O14  1  0.830114  0.814740  0.365470  1
  O  O15  1  0.732077  0.083778  0.105301  1
  O  O16  1  0.840454  0.013673  0.749439  1
  O  O17  1  0.271747  0.416594  0.418240  1
  O  O18  1  0.534533  0.634046  0.834689  1
  O  O19  1  0.771364  0.212087  0.437126  1
  O  O20  1  0.267923  0.916222  0.894699  1
  O  O21  1  0.728253  0.583406  0.581760  1
