# generated using pymatgen
data_Ag6TeO6
_symmetry_space_group_name_H-M   'P 1'
_cell_length_a   6.07594000
_cell_length_b   6.07594003
_cell_length_c   12.29602500
_cell_angle_alpha   90.00000000
_cell_angle_beta   90.00000000
_cell_angle_gamma   119.99998897
_symmetry_Int_Tables_number   1
_chemical_formula_structural   Ag6TeO6
_chemical_formula_sum   'Ag12 Te2 O12'
_cell_volume   393.11749565
_cell_formula_units_Z   2
loop_
 _symmetry_equiv_pos_site_id
 _symmetry_equiv_pos_as_xyz
  1  'x, y, z'
loop_
 _atom_site_type_symbol
 _atom_site_label
 _atom_site_symmetry_multiplicity
 _atom_site_fract_x
 _atom_site_fract_y
 _atom_site_fract_z
 _atom_site_occupancy
  Ag  Ag0  1  0.000000  0.000000  0.879975  1
  Ag  Ag1  1  0.000000  0.000000  0.379975  1
  Ag  Ag2  1  0.000000  0.000000  0.120025  1
  Ag  Ag3  1  0.000000  0.000000  0.620025  1
  Ag  Ag4  1  0.500000  0.500000  0.000000  1
  Ag  Ag5  1  0.000000  0.500000  0.000000  1
  Ag  Ag6  1  0.500000  0.000000  0.000000  1
  Ag  Ag7  1  0.000000  0.500000  0.500000  1
  Ag  Ag8  1  0.500000  0.000000  0.500000  1
  Ag  Ag9  1  0.500000  0.500000  0.500000  1
  Ag  Ag10  1  0.666667  0.333333  0.750000  1
  Ag  Ag11  1  0.333333  0.666667  0.250000  1
  Te  Te12  1  0.333333  0.666667  0.750000  1
  Te  Te13  1  0.666667  0.333333  0.250000  1
  O  O14  1  0.601756  0.662186  0.840840  1
  O  O15  1  0.060430  0.398244  0.840840  1
  O  O16  1  0.337814  0.939570  0.840840  1
  O  O17  1  0.939570  0.337814  0.340840  1
  O  O18  1  0.398244  0.060430  0.340840  1
  O  O19  1  0.662186  0.601756  0.340840  1
  O  O20  1  0.398244  0.337814  0.159160  1
  O  O21  1  0.939570  0.601756  0.159160  1
  O  O22  1  0.662186  0.060430  0.159160  1
  O  O23  1  0.060430  0.662186  0.659160  1
  O  O24  1  0.601756  0.939570  0.659160  1
  O  O25  1  0.337814  0.398244  0.659160  1
