# generated using pymatgen
data_EuHo(NiH4)2
_symmetry_space_group_name_H-M   'P 1'
_cell_length_a   3.63392329
_cell_length_b   4.86718900
_cell_length_c   6.13170000
_cell_angle_alpha   90.00000000
_cell_angle_beta   107.21882711
_cell_angle_gamma   90.00000000
_symmetry_Int_Tables_number   1
_chemical_formula_structural   EuHo(NiH4)2
_chemical_formula_sum   'Eu1 Ho1 Ni2 H8'
_cell_volume   103.59066106
_cell_formula_units_Z   1
loop_
 _symmetry_equiv_pos_site_id
 _symmetry_equiv_pos_as_xyz
  1  'x, y, z'
loop_
 _atom_site_type_symbol
 _atom_site_label
 _atom_site_symmetry_multiplicity
 _atom_site_fract_x
 _atom_site_fract_y
 _atom_site_fract_z
 _atom_site_occupancy
  Eu  Eu0  1  0.366831  0.750000  0.233819  1
  Ho  Ho1  1  0.632888  0.250001  0.765650  1
  Ni  Ni2  1  0.907157  0.250001  0.313517  1
  Ni  Ni3  1  0.096520  0.750000  0.693253  1
  H  H4  1  0.805664  0.479305  0.111364  1
  H  H5  1  0.805664  0.020693  0.111364  1
  H  H6  1  0.419737  0.250001  0.339504  1
  H  H7  1  0.000106  0.998702  0.500328  1
  H  H8  1  0.000106  0.501298  0.500328  1
  H  H9  1  0.589894  0.750000  0.679728  1
  H  H10  1  0.187713  0.005292  0.875571  1
  H  H11  1  0.187713  0.494708  0.875571  1
