# generated using pymatgen
data_LaPr3Dy4(CdIr)2
_symmetry_space_group_name_H-M   'P 1'
_cell_length_a   9.83780137
_cell_length_b   9.83780084
_cell_length_c   9.81189700
_cell_angle_alpha   60.08706720
_cell_angle_beta   60.08706899
_cell_angle_gamma   60.16934947
_symmetry_Int_Tables_number   1
_chemical_formula_structural   LaPr3Dy4(CdIr)2
_chemical_formula_sum   'La2 Pr6 Dy8 Cd4 Ir4'
_cell_volume   673.22241951
_cell_formula_units_Z   2
loop_
 _symmetry_equiv_pos_site_id
 _symmetry_equiv_pos_as_xyz
  1  'x, y, z'
loop_
 _atom_site_type_symbol
 _atom_site_label
 _atom_site_symmetry_multiplicity
 _atom_site_fract_x
 _atom_site_fract_y
 _atom_site_fract_z
 _atom_site_occupancy
  La  La0  1  0.347474  0.347474  0.349744  1
  La  La1  1  0.347474  0.347474  0.955307  1
  Pr  Pr2  1  0.941089  0.559272  0.558881  1
  Pr  Pr3  1  0.559272  0.941089  0.940758  1
  Pr  Pr4  1  0.559272  0.941089  0.558881  1
  Pr  Pr5  1  0.941089  0.559272  0.940758  1
  Pr  Pr6  1  0.561767  0.561767  0.938233  1
  Pr  Pr7  1  0.943670  0.943670  0.556330  1
  Dy  Dy8  1  0.348232  0.952915  0.349426  1
  Dy  Dy9  1  0.952915  0.348232  0.349426  1
  Dy  Dy10  1  0.814623  0.186050  0.186837  1
  Dy  Dy11  1  0.186050  0.814623  0.812490  1
  Dy  Dy12  1  0.186050  0.814623  0.186837  1
  Dy  Dy13  1  0.814623  0.186050  0.812490  1
  Dy  Dy14  1  0.184745  0.184745  0.815255  1
  Dy  Dy15  1  0.812590  0.812590  0.187410  1
  Cd  Cd16  1  0.581263  0.581263  0.575826  1
  Cd  Cd17  1  0.581263  0.581263  0.261647  1
  Cd  Cd18  1  0.583488  0.260709  0.577901  1
  Cd  Cd19  1  0.260709  0.583488  0.577901  1
  Ir  Ir20  1  0.138245  0.138245  0.145604  1
  Ir  Ir21  1  0.138245  0.138245  0.577907  1
  Ir  Ir22  1  0.135595  0.580252  0.142076  1
  Ir  Ir23  1  0.580252  0.135595  0.142076  1
