# generated using pymatgen
data_Er5Tm3(ReBr4)2
_symmetry_space_group_name_H-M   'P 1'
_cell_length_a   8.90370199
_cell_length_b   8.91348950
_cell_length_c   6.56318881
_cell_angle_alpha   89.42603816
_cell_angle_beta   89.49837987
_cell_angle_gamma   89.26602290
_symmetry_Int_Tables_number   1
_chemical_formula_structural   Er5Tm3(ReBr4)2
_chemical_formula_sum   'Er5 Tm3 Re2 Br8'
_cell_volume   520.78645454
_cell_formula_units_Z   1
loop_
 _symmetry_equiv_pos_site_id
 _symmetry_equiv_pos_as_xyz
  1  'x, y, z'
loop_
 _atom_site_type_symbol
 _atom_site_label
 _atom_site_symmetry_multiplicity
 _atom_site_fract_x
 _atom_site_fract_y
 _atom_site_fract_z
 _atom_site_occupancy
  Er  Er0  1  0.901409  0.247533  0.512166  1
  Er  Er1  1  0.753011  0.903206  0.507777  1
  Er  Er2  1  0.247191  0.096549  0.491882  1
  Er  Er3  1  0.097088  0.246697  0.991692  1
  Er  Er4  1  0.903314  0.753034  0.007775  1
  Tm  Tm5  1  0.246408  0.901743  0.012693  1
  Tm  Tm6  1  0.753803  0.097687  0.986964  1
  Tm  Tm7  1  0.098193  0.753876  0.487401  1
  Re  Re8  1  0.994153  0.005820  0.249527  1
  Re  Re9  1  0.006054  0.993943  0.749815  1
  Br  Br10  1  0.419581  0.816032  0.408097  1
  Br  Br11  1  0.579920  0.183351  0.592218  1
  Br  Br12  1  0.183744  0.580578  0.092064  1
  Br  Br13  1  0.815940  0.419412  0.909604  1
  Br  Br14  1  0.416308  0.189962  0.093966  1
  Br  Br15  1  0.583941  0.809779  0.906025  1
  Br  Br16  1  0.809210  0.584743  0.406334  1
  Br  Br17  1  0.190732  0.416057  0.594000  1
