# generated using pymatgen
data_Ca2La5Pr3(Si2Ge)2
_symmetry_space_group_name_H-M   'P 1'
_cell_length_a   7.87819768
_cell_length_b   9.05251971
_cell_length_c   7.87819768
_cell_angle_alpha   115.71541409
_cell_angle_beta   90.22598276
_cell_angle_gamma   115.65448462
_symmetry_Int_Tables_number   1
_chemical_formula_structural   Ca2La5Pr3(Si2Ge)2
_chemical_formula_sum   'Ca2 La5 Pr3 Si4 Ge2'
_cell_volume   443.39915128
_cell_formula_units_Z   1
loop_
 _symmetry_equiv_pos_site_id
 _symmetry_equiv_pos_as_xyz
  1  'x, y, z'
loop_
 _atom_site_type_symbol
 _atom_site_label
 _atom_site_symmetry_multiplicity
 _atom_site_fract_x
 _atom_site_fract_y
 _atom_site_fract_z
 _atom_site_occupancy
  Ca  Ca0  1  0.000417  0.000374  0.000343  1
  Ca  Ca1  1  0.500031  0.000374  0.499957  1
  La  La2  1  0.531246  0.708751  0.677506  1
  La  La3  1  0.676563  0.707043  0.176357  1
  La  La4  1  0.030686  0.707043  0.530480  1
  La  La5  1  0.323718  0.292600  0.823964  1
  La  La6  1  0.968635  0.292600  0.468881  1
  Pr  Pr7  1  0.179010  0.711368  0.032359  1
  Pr  Pr8  1  0.468048  0.289578  0.321529  1
  Pr  Pr9  1  0.821228  0.289205  0.967976  1
  Si  Si10  1  0.885861  0.000369  0.614508  1
  Si  Si11  1  0.115284  0.000383  0.385099  1
  Si  Si12  1  0.613484  0.000610  0.114199  1
  Si  Si13  1  0.386412  0.000610  0.887126  1
  Ge  Ge14  1  0.750237  0.499546  0.750406  1
  Ge  Ge15  1  0.249139  0.499546  0.249309  1
