# generated using pymatgen
data_Cs(VTe2)4
_symmetry_space_group_name_H-M   'P 1'
_cell_length_a   11.04432456
_cell_length_b   11.04432507
_cell_length_c   11.04432471
_cell_angle_alpha   38.87973424
_cell_angle_beta   38.87973230
_cell_angle_gamma   38.87973910
_symmetry_Int_Tables_number   1
_chemical_formula_structural   Cs(VTe2)4
_chemical_formula_sum   'Cs1 V4 Te8'
_cell_volume   477.22030642
_cell_formula_units_Z   1
loop_
 _symmetry_equiv_pos_site_id
 _symmetry_equiv_pos_as_xyz
  1  'x, y, z'
loop_
 _atom_site_type_symbol
 _atom_site_label
 _atom_site_symmetry_multiplicity
 _atom_site_fract_x
 _atom_site_fract_y
 _atom_site_fract_z
 _atom_site_occupancy
  Cs  Cs0  1  0.500000  0.500000  0.500000  1
  V  V1  1  0.000000  0.500000  0.500000  1
  V  V2  1  0.500000  0.000000  0.500000  1
  V  V3  1  0.500000  0.500000  0.000000  1
  V  V4  1  0.000000  0.000000  0.000000  1
  Te  Te5  1  0.276476  0.778125  0.778125  1
  Te  Te6  1  0.221875  0.221875  0.723524  1
  Te  Te7  1  0.723524  0.221875  0.221875  1
  Te  Te8  1  0.221875  0.723524  0.221875  1
  Te  Te9  1  0.277578  0.277578  0.277578  1
  Te  Te10  1  0.722422  0.722422  0.722422  1
  Te  Te11  1  0.778125  0.276476  0.778125  1
  Te  Te12  1  0.778125  0.778125  0.276476  1
