# generated using pymatgen
data_Ta6Cr6Si5P
_symmetry_space_group_name_H-M   'P 1'
_cell_length_a   7.38295799
_cell_length_b   7.38710363
_cell_length_c   7.38295994
_cell_angle_alpha   126.82095810
_cell_angle_beta   126.76717744
_cell_angle_gamma   78.57374351
_symmetry_Int_Tables_number   1
_chemical_formula_structural   Ta6Cr6Si5P
_chemical_formula_sum   'Ta6 Cr6 Si5 P1'
_cell_volume   249.98058052
_cell_formula_units_Z   1
loop_
 _symmetry_equiv_pos_site_id
 _symmetry_equiv_pos_as_xyz
  1  'x, y, z'
loop_
 _atom_site_type_symbol
 _atom_site_label
 _atom_site_symmetry_multiplicity
 _atom_site_fract_x
 _atom_site_fract_y
 _atom_site_fract_z
 _atom_site_occupancy
  Ta  Ta0  1  0.548535  0.093354  0.044819  1
  Ta  Ta1  1  0.450718  0.496555  0.545836  1
  Ta  Ta2  1  0.951824  0.496556  0.044731  1
  Ta  Ta3  1  0.048924  0.094180  0.545256  1
  Ta  Ta4  1  0.750241  0.898899  0.648658  1
  Ta  Ta5  1  0.250050  0.900895  0.150845  1
  Cr  Cr6  1  0.505922  0.245498  0.751384  1
  Cr  Cr7  1  0.994114  0.245498  0.239576  1
  Cr  Cr8  1  0.119977  0.747755  0.617045  1
  Cr  Cr9  1  0.867702  0.497016  0.615775  1
  Cr  Cr10  1  0.630709  0.747755  0.127777  1
  Cr  Cr11  1  0.381242  0.497016  0.129314  1
  Si  Si12  1  0.249598  0.497395  0.747797  1
  Si  Si13  1  0.333513  0.829929  0.496975  1
  Si  Si14  1  0.666776  0.163517  0.496675  1
  Si  Si15  1  0.832955  0.829929  0.996416  1
  Si  Si16  1  0.166841  0.163517  0.996741  1
  P  P17  1  0.750359  0.496933  0.246574  1
