# generated using pymatgen
data_SmTh5Al20(SiOs2)4
_symmetry_space_group_name_H-M   'P 1'
_cell_length_a   8.80191800
_cell_length_b   8.80191692
_cell_length_c   9.56660300
_cell_angle_alpha   90.00000000
_cell_angle_beta   90.00000000
_cell_angle_gamma   119.96015965
_symmetry_Int_Tables_number   1
_chemical_formula_structural   SmTh5Al20(SiOs2)4
_chemical_formula_sum   'Sm1 Th5 Al20 Si4 Os8'
_cell_volume   642.12145018
_cell_formula_units_Z   1
loop_
 _symmetry_equiv_pos_site_id
 _symmetry_equiv_pos_as_xyz
  1  'x, y, z'
loop_
 _atom_site_type_symbol
 _atom_site_label
 _atom_site_symmetry_multiplicity
 _atom_site_fract_x
 _atom_site_fract_y
 _atom_site_fract_z
 _atom_site_occupancy
  Sm  Sm0  1  0.806262  0.193738  0.750000  1
  Th  Th1  1  0.193146  0.387342  0.250000  1
  Th  Th2  1  0.805856  0.612650  0.750000  1
  Th  Th3  1  0.612658  0.806854  0.250000  1
  Th  Th4  1  0.387350  0.194144  0.750000  1
  Th  Th5  1  0.193826  0.806174  0.250000  1
  Al  Al6  1  0.161609  0.326129  0.577839  1
  Al  Al7  1  0.836096  0.672744  0.422889  1
  Al  Al8  1  0.673871  0.838391  0.577839  1
  Al  Al9  1  0.836096  0.672744  0.077111  1
  Al  Al10  1  0.327256  0.163904  0.422889  1
  Al  Al11  1  0.161609  0.326129  0.922161  1
  Al  Al12  1  0.163442  0.836558  0.578393  1
  Al  Al13  1  0.327256  0.163904  0.077111  1
  Al  Al14  1  0.836331  0.163669  0.425038  1
  Al  Al15  1  0.673871  0.838391  0.922161  1
  Al  Al16  1  0.836331  0.163669  0.074962  1
  Al  Al17  1  0.163442  0.836558  0.921607  1
  Al  Al18  1  0.566418  0.132093  0.250000  1
  Al  Al19  1  0.437075  0.871373  0.750000  1
  Al  Al20  1  0.867907  0.433582  0.250000  1
  Al  Al21  1  0.128627  0.562925  0.750000  1
  Al  Al22  1  0.565666  0.434334  0.250000  1
  Al  Al23  1  0.433715  0.566285  0.750000  1
  Al  Al24  1  0.999778  0.000222  0.250000  1
  Al  Al25  1  0.997961  0.002039  0.750000  1
  Si  Si26  1  0.333734  0.666266  0.023893  1
  Si  Si27  1  0.668840  0.331160  0.972656  1
  Si  Si28  1  0.668840  0.331160  0.527344  1
  Si  Si29  1  0.333734  0.666266  0.476107  1
  Os  Os30  1  0.498982  0.998690  0.001596  1
  Os  Os31  1  0.001310  0.501018  0.001596  1
  Os  Os32  1  0.498982  0.998690  0.498404  1
  Os  Os33  1  0.500327  0.499673  0.999352  1
  Os  Os34  1  0.001310  0.501018  0.498404  1
  Os  Os35  1  0.500327  0.499673  0.500648  1
  Os  Os36  1  0.000079  0.999921  0.000113  1
  Os  Os37  1  0.000079  0.999921  0.499887  1
