# generated using pymatgen
data_Na2Yb3AgBi3
_symmetry_space_group_name_H-M   'P 1'
_cell_length_a   7.92651700
_cell_length_b   8.11885882
_cell_length_c   4.72688300
_cell_angle_alpha   90.00000000
_cell_angle_beta   90.00000000
_cell_angle_gamma   119.21935046
_symmetry_Int_Tables_number   1
_chemical_formula_structural   Na2Yb3AgBi3
_chemical_formula_sum   'Na2 Yb3 Ag1 Bi3'
_cell_volume   265.48849717
_cell_formula_units_Z   1
loop_
 _symmetry_equiv_pos_site_id
 _symmetry_equiv_pos_as_xyz
  1  'x, y, z'
loop_
 _atom_site_type_symbol
 _atom_site_label
 _atom_site_symmetry_multiplicity
 _atom_site_fract_x
 _atom_site_fract_y
 _atom_site_fract_z
 _atom_site_occupancy
  Na  Na0  1  0.005447  0.242717  0.499999  1
  Na  Na1  1  0.762730  0.757283  0.499999  1
  Yb  Yb2  1  0.547485  0.000000  0.000000  1
  Yb  Yb3  1  0.412591  0.406151  0.000000  1
  Yb  Yb4  1  0.006440  0.593848  0.000000  1
  Ag  Ag5  1  0.253914  0.000000  0.499999  1
  Bi  Bi6  1  0.018982  0.000000  0.000000  1
  Bi  Bi7  1  0.661750  0.331090  0.499999  1
  Bi  Bi8  1  0.330660  0.668910  0.499999  1
