# generated using pymatgen
data_Sm2Tm3LuRh18
_symmetry_space_group_name_H-M   'P 1'
_cell_length_a   5.26420200
_cell_length_b   5.26417071
_cell_length_c   17.49419800
_cell_angle_alpha   90.00035035
_cell_angle_beta   89.99939394
_cell_angle_gamma   120.00270039
_symmetry_Int_Tables_number   1
_chemical_formula_structural   Sm2Tm3LuRh18
_chemical_formula_sum   'Sm2 Tm3 Lu1 Rh18'
_cell_volume   419.83182930
_cell_formula_units_Z   1
loop_
 _symmetry_equiv_pos_site_id
 _symmetry_equiv_pos_as_xyz
  1  'x, y, z'
loop_
 _atom_site_type_symbol
 _atom_site_label
 _atom_site_symmetry_multiplicity
 _atom_site_fract_x
 _atom_site_fract_y
 _atom_site_fract_z
 _atom_site_occupancy
  Sm  Sm0  1  0.333327  0.666665  0.749945  1
  Sm  Sm1  1  0.666675  0.333329  0.250007  1
  Tm  Tm2  1  0.333344  0.666660  0.959093  1
  Tm  Tm3  1  0.666658  0.333340  0.040907  1
  Tm  Tm4  1  0.666661  0.333346  0.459181  1
  Lu  Lu5  1  0.333325  0.666653  0.540958  1
  Rh  Rh6  1  0.167569  0.832446  0.375707  1
  Rh  Rh7  1  0.167566  0.335141  0.375713  1
  Rh  Rh8  1  0.664868  0.832432  0.375715  1
  Rh  Rh9  1  0.832452  0.167542  0.624235  1
  Rh  Rh10  1  0.832450  0.664894  0.624223  1
  Rh  Rh11  1  0.335096  0.167546  0.624226  1
  Rh  Rh12  1  0.832475  0.167522  0.875653  1
  Rh  Rh13  1  0.832475  0.664939  0.875660  1
  Rh  Rh14  1  0.335054  0.167520  0.875658  1
  Rh  Rh15  1  0.167527  0.832485  0.124346  1
  Rh  Rh16  1  0.167539  0.335068  0.124334  1
  Rh  Rh17  1  0.664939  0.832473  0.124334  1
  Rh  Rh18  1  0.333353  0.666684  0.249999  1
  Rh  Rh19  1  0.666650  0.333327  0.750002  1
  Rh  Rh20  1  0.999998  0.999988  0.250040  1
  Rh  Rh21  1  0.000001  0.000008  0.750005  1
  Rh  Rh22  1  0.000000  0.999995  0.500059  1
  Rh  Rh23  1  0.999999  0.999995  0.000001  1
