# generated using pymatgen
data_Li4Y3HoSi8
_symmetry_space_group_name_H-M   'P 1'
_cell_length_a   3.79866500
_cell_length_b   7.59625961
_cell_length_c   10.18576700
_cell_angle_alpha   90.03699264
_cell_angle_beta   90.00000000
_cell_angle_gamma   90.00000000
_symmetry_Int_Tables_number   1
_chemical_formula_structural   Li4Y3HoSi8
_chemical_formula_sum   'Li4 Y3 Ho1 Si8'
_cell_volume   293.91682051
_cell_formula_units_Z   1
loop_
 _symmetry_equiv_pos_site_id
 _symmetry_equiv_pos_as_xyz
  1  'x, y, z'
loop_
 _atom_site_type_symbol
 _atom_site_label
 _atom_site_symmetry_multiplicity
 _atom_site_fract_x
 _atom_site_fract_y
 _atom_site_fract_z
 _atom_site_occupancy
  Li  Li0  1  0.250000  0.990136  0.391914  1
  Li  Li1  1  0.750000  0.010749  0.607854  1
  Li  Li2  1  0.250000  0.489743  0.108638  1
  Li  Li3  1  0.750000  0.508990  0.892116  1
  Y  Y4  1  0.250000  0.139493  0.863723  1
  Y  Y5  1  0.750000  0.859927  0.136449  1
  Y  Y6  1  0.250000  0.639714  0.635876  1
  Ho  Ho7  1  0.750000  0.361773  0.363722  1
  Si  Si8  1  0.750000  0.268323  0.069200  1
  Si  Si9  1  0.250000  0.731037  0.931843  1
  Si  Si10  1  0.750000  0.767949  0.431681  1
  Si  Si11  1  0.250000  0.233580  0.566200  1
  Si  Si12  1  0.750000  0.842553  0.820192  1
  Si  Si13  1  0.250000  0.157285  0.180991  1
  Si  Si14  1  0.750000  0.343560  0.678812  1
  Si  Si15  1  0.250000  0.655186  0.320786  1
