# generated using pymatgen
data_Y6ScRhO12
_symmetry_space_group_name_H-M   'P 1'
_cell_length_a   6.58085390
_cell_length_b   6.58085312
_cell_length_c   6.58085316
_cell_angle_alpha   93.43960607
_cell_angle_beta   93.43960193
_cell_angle_gamma   93.43959995
_symmetry_Int_Tables_number   1
_chemical_formula_structural   Y6ScRhO12
_chemical_formula_sum   'Y6 Sc1 Rh1 O12'
_cell_volume   283.39628652
_cell_formula_units_Z   1
loop_
 _symmetry_equiv_pos_site_id
 _symmetry_equiv_pos_as_xyz
  1  'x, y, z'
loop_
 _atom_site_type_symbol
 _atom_site_label
 _atom_site_symmetry_multiplicity
 _atom_site_fract_x
 _atom_site_fract_y
 _atom_site_fract_z
 _atom_site_occupancy
  Y  Y0  1  0.742027  0.921796  0.432527  1
  Y  Y1  1  0.921796  0.432527  0.742027  1
  Y  Y2  1  0.432527  0.742027  0.921796  1
  Y  Y3  1  0.257973  0.078204  0.567473  1
  Y  Y4  1  0.078204  0.567473  0.257973  1
  Y  Y5  1  0.567473  0.257973  0.078204  1
  Sc  Sc6  1  0.000000  0.000000  0.000000  1
  Rh  Rh7  1  0.500000  0.500000  0.500000  1
  O  O8  1  0.588843  0.459538  0.804404  1
  O  O9  1  0.459538  0.804404  0.588843  1
  O  O10  1  0.804404  0.588843  0.459538  1
  O  O11  1  0.411157  0.540462  0.195596  1
  O  O12  1  0.540462  0.195596  0.411157  1
  O  O13  1  0.195596  0.411157  0.540462  1
  O  O14  1  0.068057  0.917287  0.307343  1
  O  O15  1  0.917287  0.307343  0.068057  1
  O  O16  1  0.692657  0.931943  0.082713  1
  O  O17  1  0.082713  0.692657  0.931943  1
  O  O18  1  0.931943  0.082713  0.692657  1
  O  O19  1  0.307343  0.068057  0.917287  1
