# generated using pymatgen
data_Ca10TaCrN10
_symmetry_space_group_name_H-M   'P 1'
_cell_length_a   6.89832123
_cell_length_b   6.89831996
_cell_length_c   8.83469104
_cell_angle_alpha   80.82620282
_cell_angle_beta   80.82621168
_cell_angle_gamma   59.60329285
_symmetry_Int_Tables_number   1
_chemical_formula_structural   Ca10TaCrN10
_chemical_formula_sum   'Ca10 Ta1 Cr1 N10'
_cell_volume   356.45294265
_cell_formula_units_Z   1
loop_
 _symmetry_equiv_pos_site_id
 _symmetry_equiv_pos_as_xyz
  1  'x, y, z'
loop_
 _atom_site_type_symbol
 _atom_site_label
 _atom_site_symmetry_multiplicity
 _atom_site_fract_x
 _atom_site_fract_y
 _atom_site_fract_z
 _atom_site_occupancy
  Ca  Ca0  1  0.876835  0.353210  0.836173  1
  Ca  Ca1  1  0.876192  0.876192  0.820541  1
  Ca  Ca2  1  0.738456  0.738456  0.524252  1
  Ca  Ca3  1  0.750790  0.254242  0.501490  1
  Ca  Ca4  1  0.629092  0.131494  0.150419  1
  Ca  Ca5  1  0.353210  0.876835  0.836173  1
  Ca  Ca6  1  0.254242  0.750790  0.501490  1
  Ca  Ca7  1  0.239067  0.239067  0.494400  1
  Ca  Ca8  1  0.138494  0.138494  0.162813  1
  Ca  Ca9  1  0.131494  0.629092  0.150419  1
  Ta  Ta10  1  0.369472  0.369472  0.774117  1
  Cr  Cr11  1  0.633725  0.633725  0.229352  1
  N  N12  1  0.898974  0.476900  0.319244  1
  N  N13  1  0.995983  0.995983  0.015236  1
  N  N14  1  0.679921  0.679921  0.032901  1
  N  N15  1  0.536170  0.536170  0.696483  1
  N  N16  1  0.476900  0.898974  0.319244  1
  N  N17  1  0.538151  0.084595  0.674503  1
  N  N18  1  0.482477  0.482477  0.290786  1
  N  N19  1  0.316428  0.316428  0.996161  1
  N  N20  1  0.061620  0.061620  0.645108  1
  N  N21  1  0.084595  0.538151  0.674503  1
