# generated using pymatgen
data_YUReB6
_symmetry_space_group_name_H-M   'P 1'
_cell_length_a   3.63896500
_cell_length_b   9.30973500
_cell_length_c   11.43017700
_cell_angle_alpha   90.00000000
_cell_angle_beta   90.00000000
_cell_angle_gamma   90.00000000
_symmetry_Int_Tables_number   1
_chemical_formula_structural   YUReB6
_chemical_formula_sum   'Y4 U4 Re4 B24'
_cell_volume   387.22924836
_cell_formula_units_Z   4
loop_
 _symmetry_equiv_pos_site_id
 _symmetry_equiv_pos_as_xyz
  1  'x, y, z'
loop_
 _atom_site_type_symbol
 _atom_site_label
 _atom_site_symmetry_multiplicity
 _atom_site_fract_x
 _atom_site_fract_y
 _atom_site_fract_z
 _atom_site_occupancy
  Y  Y0  1  0.000000  0.336533  0.407582  1
  Y  Y1  1  0.000000  0.663467  0.592418  1
  Y  Y2  1  0.000000  0.836533  0.092418  1
  Y  Y3  1  0.000000  0.163467  0.907582  1
  U  U4  1  0.000000  0.956253  0.396344  1
  U  U5  1  0.000000  0.043747  0.603656  1
  U  U6  1  0.000000  0.456253  0.103656  1
  U  U7  1  0.000000  0.543747  0.896344  1
  Re  Re8  1  0.000000  0.645272  0.318366  1
  Re  Re9  1  0.000000  0.354728  0.681634  1
  Re  Re10  1  0.000000  0.145272  0.181634  1
  Re  Re11  1  0.000000  0.854728  0.818366  1
  B  B12  1  0.500000  0.551879  0.430778  1
  B  B13  1  0.500000  0.448121  0.569222  1
  B  B14  1  0.500000  0.051879  0.069222  1
  B  B15  1  0.500000  0.948121  0.930778  1
  B  B16  1  0.500000  0.743035  0.422832  1
  B  B17  1  0.500000  0.256965  0.577168  1
  B  B18  1  0.500000  0.243035  0.077168  1
  B  B19  1  0.500000  0.756965  0.922832  1
  B  B20  1  0.500000  0.801561  0.275288  1
  B  B21  1  0.500000  0.198439  0.724712  1
  B  B22  1  0.500000  0.301561  0.224712  1
  B  B23  1  0.500000  0.698439  0.775288  1
  B  B24  1  0.500000  0.643614  0.188617  1
  B  B25  1  0.500000  0.356386  0.811383  1
  B  B26  1  0.500000  0.143614  0.311383  1
  B  B27  1  0.500000  0.856386  0.688617  1
  B  B28  1  0.500000  0.988924  0.219701  1
  B  B29  1  0.500000  0.011076  0.780299  1
  B  B30  1  0.500000  0.488924  0.280299  1
  B  B31  1  0.500000  0.511076  0.719701  1
  B  B32  1  0.500000  0.639672  0.038700  1
  B  B33  1  0.500000  0.360328  0.961300  1
  B  B34  1  0.500000  0.139672  0.461300  1
  B  B35  1  0.500000  0.860328  0.538700  1
