# generated using pymatgen
data_ErZr3(ZnRh2)4
_symmetry_space_group_name_H-M   'P 1'
_cell_length_a   6.01138600
_cell_length_b   6.01086100
_cell_length_c   7.06036800
_cell_angle_alpha   90.00000000
_cell_angle_beta   90.00160402
_cell_angle_gamma   90.00000000
_symmetry_Int_Tables_number   1
_chemical_formula_structural   ErZr3(ZnRh2)4
_chemical_formula_sum   'Er1 Zr3 Zn4 Rh8'
_cell_volume   255.11655310
_cell_formula_units_Z   1
loop_
 _symmetry_equiv_pos_site_id
 _symmetry_equiv_pos_as_xyz
  1  'x, y, z'
loop_
 _atom_site_type_symbol
 _atom_site_label
 _atom_site_symmetry_multiplicity
 _atom_site_fract_x
 _atom_site_fract_y
 _atom_site_fract_z
 _atom_site_occupancy
  Er  Er0  1  0.750029  0.249999  0.000009  1
  Zr  Zr1  1  0.249924  0.750000  0.999977  1
  Zr  Zr2  1  0.250050  0.750000  0.500004  1
  Zr  Zr3  1  0.749953  0.249999  0.500024  1
  Zn  Zn4  1  0.249996  0.249999  0.999973  1
  Zn  Zn5  1  0.750021  0.750000  0.999986  1
  Zn  Zn6  1  0.750015  0.750000  0.499972  1
  Zn  Zn7  1  0.250012  0.249999  0.500017  1
  Rh  Rh8  1  0.497695  0.997744  0.253745  1
  Rh  Rh9  1  0.497695  0.502253  0.253745  1
  Rh  Rh10  1  0.002222  0.997745  0.253829  1
  Rh  Rh11  1  0.002222  0.502254  0.253829  1
  Rh  Rh12  1  0.002263  0.997790  0.746189  1
  Rh  Rh13  1  0.002263  0.502212  0.746189  1
  Rh  Rh14  1  0.497822  0.997741  0.746254  1
  Rh  Rh15  1  0.497822  0.502263  0.746254  1
