# generated using pymatgen
data_Ac2TbDy(Zn5Si)2
_symmetry_space_group_name_H-M   'P 1'
_cell_length_a   8.41254846
_cell_length_b   8.41255022
_cell_length_c   8.90544100
_cell_angle_alpha   90.00000000
_cell_angle_beta   90.00000000
_cell_angle_gamma   149.26320976
_symmetry_Int_Tables_number   1
_chemical_formula_structural   Ac2TbDy(Zn5Si)2
_chemical_formula_sum   'Ac2 Tb1 Dy1 Zn10 Si2'
_cell_volume   322.11596839
_cell_formula_units_Z   1
loop_
 _symmetry_equiv_pos_site_id
 _symmetry_equiv_pos_as_xyz
  1  'x, y, z'
loop_
 _atom_site_type_symbol
 _atom_site_label
 _atom_site_symmetry_multiplicity
 _atom_site_fract_x
 _atom_site_fract_y
 _atom_site_fract_z
 _atom_site_occupancy
  Ac  Ac0  1  0.999756  0.000244  0.500000  1
  Ac  Ac1  1  0.999756  0.000244  0.000000  1
  Tb  Tb2  1  0.204623  0.795377  0.250000  1
  Dy  Dy3  1  0.795289  0.204711  0.750000  1
  Zn  Zn4  1  0.810830  0.189170  0.391050  1
  Zn  Zn5  1  0.189326  0.810674  0.609674  1
  Zn  Zn6  1  0.810830  0.189170  0.108950  1
  Zn  Zn7  1  0.189326  0.810674  0.890326  1
  Zn  Zn8  1  0.655526  0.344474  0.476498  1
  Zn  Zn9  1  0.344671  0.655329  0.523818  1
  Zn  Zn10  1  0.655526  0.344474  0.023502  1
  Zn  Zn11  1  0.344671  0.655329  0.976182  1
  Zn  Zn12  1  0.404601  0.595399  0.250000  1
  Zn  Zn13  1  0.595692  0.404308  0.750000  1
  Si  Si14  1  0.564434  0.435566  0.250000  1
  Si  Si15  1  0.435142  0.564858  0.750000  1
