# generated using pymatgen
data_Zr8Nb11Si16Ru
_symmetry_space_group_name_H-M   'P 1'
_cell_length_a   6.67823349
_cell_length_b   6.86579674
_cell_length_c   13.15400200
_cell_angle_alpha   90.00000000
_cell_angle_beta   90.00000000
_cell_angle_gamma   90.43486992
_symmetry_Int_Tables_number   1
_chemical_formula_structural   Zr8Nb11Si16Ru
_chemical_formula_sum   'Zr8 Nb11 Si16 Ru1'
_cell_volume   603.11195237
_cell_formula_units_Z   1
loop_
 _symmetry_equiv_pos_site_id
 _symmetry_equiv_pos_as_xyz
  1  'x, y, z'
loop_
 _atom_site_type_symbol
 _atom_site_label
 _atom_site_symmetry_multiplicity
 _atom_site_fract_x
 _atom_site_fract_y
 _atom_site_fract_z
 _atom_site_occupancy
  Zr  Zr0  1  0.493512  0.673959  0.592009  1
  Zr  Zr1  1  0.000104  0.828910  0.908930  1
  Zr  Zr2  1  0.501734  0.328517  0.093636  1
  Zr  Zr3  1  0.002293  0.174162  0.404440  1
  Zr  Zr4  1  0.501734  0.328517  0.406364  1
  Zr  Zr5  1  0.002293  0.174162  0.095560  1
  Zr  Zr6  1  0.493512  0.673959  0.907991  1
  Zr  Zr7  1  0.000104  0.828910  0.591070  1
  Nb  Nb8  1  0.666630  0.167918  0.626279  1
  Nb  Nb9  1  0.164863  0.326777  0.874133  1
  Nb  Nb10  1  0.335577  0.827624  0.124045  1
  Nb  Nb11  1  0.836606  0.670603  0.378085  1
  Nb  Nb12  1  0.335577  0.827624  0.375955  1
  Nb  Nb13  1  0.836606  0.670603  0.121915  1
  Nb  Nb14  1  0.666630  0.167918  0.873721  1
  Nb  Nb15  1  0.164863  0.326777  0.625867  1
  Nb  Nb16  1  0.340626  0.997460  0.750000  1
  Nb  Nb17  1  0.162551  0.503901  0.250000  1
  Nb  Nb18  1  0.661074  0.996469  0.250000  1
  Si  Si19  1  0.669872  0.963753  0.461867  1
  Si  Si20  1  0.168717  0.536110  0.036759  1
  Si  Si21  1  0.331851  0.038119  0.961703  1
  Si  Si22  1  0.830889  0.462876  0.542724  1
  Si  Si23  1  0.331851  0.038119  0.538297  1
  Si  Si24  1  0.830889  0.462876  0.957276  1
  Si  Si25  1  0.669872  0.963753  0.038133  1
  Si  Si26  1  0.168717  0.536110  0.463241  1
  Si  Si27  1  0.472512  0.391020  0.750000  1
  Si  Si28  1  0.962548  0.111670  0.750000  1
  Si  Si29  1  0.539027  0.614325  0.250000  1
  Si  Si30  1  0.036189  0.885218  0.250000  1
  Si  Si31  1  0.707888  0.851681  0.750000  1
  Si  Si32  1  0.193129  0.632414  0.750000  1
  Si  Si33  1  0.295664  0.137928  0.250000  1
  Si  Si34  1  0.794319  0.363148  0.250000  1
  Ru  Ru35  1  0.829172  0.516111  0.750000  1
