# generated using pymatgen
data_Tb3Yb6ErSi8
_symmetry_space_group_name_H-M   'P 1'
_cell_length_a   7.42070900
_cell_length_b   7.81326208
_cell_length_c   15.16614615
_cell_angle_alpha   90.01596066
_cell_angle_beta   90.00000000
_cell_angle_gamma   90.00000000
_symmetry_Int_Tables_number   1
_chemical_formula_structural   Tb3Yb6ErSi8
_chemical_formula_sum   'Tb6 Yb12 Er2 Si16'
_cell_volume   879.33227330
_cell_formula_units_Z   2
loop_
 _symmetry_equiv_pos_site_id
 _symmetry_equiv_pos_as_xyz
  1  'x, y, z'
loop_
 _atom_site_type_symbol
 _atom_site_label
 _atom_site_symmetry_multiplicity
 _atom_site_fract_x
 _atom_site_fract_y
 _atom_site_fract_z
 _atom_site_occupancy
  Tb  Tb0  1  0.314208  0.176550  0.120767  1
  Tb  Tb1  1  0.814208  0.323450  0.379233  1
  Tb  Tb2  1  0.185851  0.677123  0.878759  1
  Tb  Tb3  1  0.685851  0.822877  0.621241  1
  Tb  Tb4  1  0.314026  0.176662  0.379121  1
  Tb  Tb5  1  0.814026  0.323338  0.120879  1
  Yb  Yb6  1  0.972174  0.815705  0.403591  1
  Yb  Yb7  1  0.472174  0.684295  0.096409  1
  Yb  Yb8  1  0.527754  0.315899  0.596609  1
  Yb  Yb9  1  0.027754  0.184101  0.903391  1
  Yb  Yb10  1  0.028131  0.184219  0.596606  1
  Yb  Yb11  1  0.528131  0.315781  0.903394  1
  Yb  Yb12  1  0.471825  0.684191  0.403563  1
  Yb  Yb13  1  0.971825  0.815809  0.096437  1
  Yb  Yb14  1  0.353490  0.019711  0.749952  1
  Yb  Yb15  1  0.853490  0.480289  0.750048  1
  Yb  Yb16  1  0.146624  0.520119  0.250046  1
  Yb  Yb17  1  0.646624  0.979881  0.249954  1
  Er  Er18  1  0.185999  0.676199  0.621155  1
  Er  Er19  1  0.685999  0.823801  0.878845  1
  Si  Si20  1  0.859660  0.533581  0.538669  1
  Si  Si21  1  0.359660  0.966419  0.961331  1
  Si  Si22  1  0.641185  0.032832  0.461802  1
  Si  Si23  1  0.141185  0.467168  0.038198  1
  Si  Si24  1  0.142008  0.467599  0.462284  1
  Si  Si25  1  0.642008  0.032401  0.037716  1
  Si  Si26  1  0.357387  0.966137  0.538654  1
  Si  Si27  1  0.857387  0.533863  0.961346  1
  Si  Si28  1  0.977606  0.883380  0.750260  1
  Si  Si29  1  0.477606  0.616620  0.749740  1
  Si  Si30  1  0.522412  0.384607  0.249993  1
  Si  Si31  1  0.022412  0.115393  0.250007  1
  Si  Si32  1  0.249616  0.395125  0.749602  1
  Si  Si33  1  0.749616  0.104875  0.750398  1
  Si  Si34  1  0.250041  0.894338  0.249996  1
  Si  Si35  1  0.750041  0.605662  0.250004  1
