# generated using pymatgen
data_Tb2Er2TmIr2
_symmetry_space_group_name_H-M   'P 1'
_cell_length_a   6.49028406
_cell_length_b   7.20094050
_cell_length_c   8.47470161
_cell_angle_alpha   96.62292417
_cell_angle_beta   112.51473684
_cell_angle_gamma   90.00000146
_symmetry_Int_Tables_number   1
_chemical_formula_structural   Tb2Er2TmIr2
_chemical_formula_sum   'Tb4 Er4 Tm2 Ir4'
_cell_volume   363.02365564
_cell_formula_units_Z   2
loop_
 _symmetry_equiv_pos_site_id
 _symmetry_equiv_pos_as_xyz
  1  'x, y, z'
loop_
 _atom_site_type_symbol
 _atom_site_label
 _atom_site_symmetry_multiplicity
 _atom_site_fract_x
 _atom_site_fract_y
 _atom_site_fract_z
 _atom_site_occupancy
  Tb  Tb0  1  0.970043  0.919333  0.183153  1
  Tb  Tb1  1  0.786889  0.580667  0.816847  1
  Tb  Tb2  1  0.029957  0.080667  0.816847  1
  Tb  Tb3  1  0.213111  0.419333  0.183153  1
  Er  Er4  1  0.653059  0.817524  0.440956  1
  Er  Er5  1  0.212104  0.682476  0.559044  1
  Er  Er6  1  0.346941  0.182476  0.559044  1
  Er  Er7  1  0.787896  0.317524  0.440956  1
  Tm  Tm8  1  0.427840  0.750000  0.000000  1
  Tm  Tm9  1  0.572160  0.250000  0.000000  1
  Ir  Ir10  1  0.822895  0.572598  0.219371  1
  Ir  Ir11  1  0.603524  0.927402  0.780629  1
  Ir  Ir12  1  0.177106  0.427402  0.780629  1
  Ir  Ir13  1  0.396476  0.072598  0.219371  1
