# generated using pymatgen
data_PrTm3Sb10
_symmetry_space_group_name_H-M   'P 1'
_cell_length_a   4.28117700
_cell_length_b   13.23067753
_cell_length_c   14.57960096
_cell_angle_alpha   77.95582074
_cell_angle_beta   90.00000000
_cell_angle_gamma   90.00000000
_symmetry_Int_Tables_number   1
_chemical_formula_structural   PrTm3Sb10
_chemical_formula_sum   'Pr2 Tm6 Sb20'
_cell_volume   807.65146561
_cell_formula_units_Z   2
loop_
 _symmetry_equiv_pos_site_id
 _symmetry_equiv_pos_as_xyz
  1  'x, y, z'
loop_
 _atom_site_type_symbol
 _atom_site_label
 _atom_site_symmetry_multiplicity
 _atom_site_fract_x
 _atom_site_fract_y
 _atom_site_fract_z
 _atom_site_occupancy
  Pr  Pr0  1  0.250000  0.952791  0.358479  1
  Pr  Pr1  1  0.750000  0.047209  0.641521  1
  Tm  Tm2  1  0.250000  0.398813  0.772039  1
  Tm  Tm3  1  0.750000  0.601187  0.227961  1
  Tm  Tm4  1  0.250000  0.660720  0.857078  1
  Tm  Tm5  1  0.750000  0.339280  0.142922  1
  Tm  Tm6  1  0.250000  0.665559  0.577303  1
  Tm  Tm7  1  0.750000  0.334441  0.422697  1
  Sb  Sb8  1  0.250000  0.148133  0.785023  1
  Sb  Sb9  1  0.750000  0.851867  0.214977  1
  Sb  Sb10  1  0.250000  0.152172  0.477718  1
  Sb  Sb11  1  0.750000  0.847828  0.522282  1
  Sb  Sb12  1  0.250000  0.157058  0.168122  1
  Sb  Sb13  1  0.750000  0.842942  0.831878  1
  Sb  Sb14  1  0.250000  0.421145  0.976160  1
  Sb  Sb15  1  0.750000  0.578855  0.023840  1
  Sb  Sb16  1  0.750000  0.031315  0.905419  1
  Sb  Sb17  1  0.250000  0.968685  0.094581  1
  Sb  Sb18  1  0.750000  0.146282  0.319058  1
  Sb  Sb19  1  0.250000  0.853718  0.680942  1
  Sb  Sb20  1  0.750000  0.283196  0.937125  1
  Sb  Sb21  1  0.250000  0.716804  0.062875  1
  Sb  Sb22  1  0.750000  0.293189  0.653294  1
  Sb  Sb23  1  0.250000  0.706811  0.346706  1
  Sb  Sb24  1  0.750000  0.576947  0.735376  1
  Sb  Sb25  1  0.250000  0.423053  0.264624  1
  Sb  Sb26  1  0.750000  0.573429  0.445458  1
  Sb  Sb27  1  0.250000  0.426571  0.554542  1
