# generated using pymatgen
data_Nb12B12Os5Ru7
_symmetry_space_group_name_H-M   'P 1'
_cell_length_a   3.11952000
_cell_length_b   9.08311834
_cell_length_c   15.84532159
_cell_angle_alpha   90.03133504
_cell_angle_beta   89.99999277
_cell_angle_gamma   90.00000000
_symmetry_Int_Tables_number   1
_chemical_formula_structural   Nb12B12Os5Ru7
_chemical_formula_sum   'Nb12 B12 Os5 Ru7'
_cell_volume   448.97663409
_cell_formula_units_Z   1
loop_
 _symmetry_equiv_pos_site_id
 _symmetry_equiv_pos_as_xyz
  1  'x, y, z'
loop_
 _atom_site_type_symbol
 _atom_site_label
 _atom_site_symmetry_multiplicity
 _atom_site_fract_x
 _atom_site_fract_y
 _atom_site_fract_z
 _atom_site_occupancy
  Nb  Nb0  1  0.000000  0.799629  0.495272  1
  Nb  Nb1  1  0.000000  0.199661  0.504183  1
  Nb  Nb2  1  0.000000  0.300684  0.004237  1
  Nb  Nb3  1  0.000000  0.699496  0.995979  1
  Nb  Nb4  1  0.000000  0.514381  0.594540  1
  Nb  Nb5  1  0.000000  0.485820  0.405283  1
  Nb  Nb6  1  0.000000  0.013857  0.905555  1
  Nb  Nb7  1  0.000000  0.986165  0.094589  1
  Nb  Nb8  1  0.000000  0.686144  0.202277  1
  Nb  Nb9  1  0.000000  0.313920  0.797760  1
  Nb  Nb10  1  0.000000  0.186316  0.297433  1
  Nb  Nb11  1  0.000000  0.813018  0.702933  1
  B  B12  1  0.500000  0.603851  0.497682  1
  B  B13  1  0.500000  0.395903  0.501905  1
  B  B14  1  0.500000  0.104563  0.002171  1
  B  B15  1  0.500000  0.895521  0.998116  1
  B  B16  1  0.000000  0.608456  0.832490  1
  B  B17  1  0.000000  0.391301  0.167790  1
  B  B18  1  0.000000  0.109099  0.667509  1
  B  B19  1  0.000000  0.890876  0.331960  1
  B  B20  1  0.500000  0.715402  0.598157  1
  B  B21  1  0.500000  0.285868  0.401370  1
  B  B22  1  0.500000  0.214236  0.901673  1
  B  B23  1  0.500000  0.785640  0.098537  1
  Os  Os24  1  0.500000  0.984538  0.594393  1
  Os  Os25  1  0.500000  0.561903  0.735366  1
  Os  Os26  1  0.500000  0.438182  0.264718  1
  Os  Os27  1  0.500000  0.062368  0.765490  1
  Os  Os28  1  0.500000  0.938201  0.235002  1
  Ru  Ru29  1  0.500000  0.720755  0.355422  1
  Ru  Ru30  1  0.500000  0.279792  0.644371  1
  Ru  Ru31  1  0.500000  0.221171  0.143881  1
  Ru  Ru32  1  0.500001  0.778815  0.856355  1
  Ru  Ru33  1  0.500000  0.514595  0.094368  1
  Ru  Ru34  1  0.500000  0.485238  0.905651  1
  Ru  Ru35  1  0.499999  0.014636  0.405579  1
