# generated using pymatgen
data_TmHfNbFe9
_symmetry_space_group_name_H-M   'P 1'
_cell_length_a   4.92599505
_cell_length_b   4.92599551
_cell_length_c   8.37711731
_cell_angle_alpha   72.90154439
_cell_angle_beta   72.90154023
_cell_angle_gamma   60.00000787
_symmetry_Int_Tables_number   1
_chemical_formula_structural   TmHfNbFe9
_chemical_formula_sum   'Tm1 Hf1 Nb1 Fe9'
_cell_volume   165.58508367
_cell_formula_units_Z   1
loop_
 _symmetry_equiv_pos_site_id
 _symmetry_equiv_pos_as_xyz
  1  'x, y, z'
loop_
 _atom_site_type_symbol
 _atom_site_label
 _atom_site_symmetry_multiplicity
 _atom_site_fract_x
 _atom_site_fract_y
 _atom_site_fract_z
 _atom_site_occupancy
  Tm  Tm0  1  0.000074  0.000074  0.999778  1
  Hf  Hf1  1  0.856613  0.856613  0.430163  1
  Nb  Nb2  1  0.142714  0.142714  0.571857  1
  Fe  Fe3  1  0.081781  0.587029  0.744162  1
  Fe  Fe4  1  0.587029  0.587029  0.744162  1
  Fe  Fe5  1  0.587029  0.081781  0.744162  1
  Fe  Fe6  1  0.918110  0.413266  0.255358  1
  Fe  Fe7  1  0.413266  0.413266  0.255358  1
  Fe  Fe8  1  0.413266  0.918110  0.255358  1
  Fe  Fe9  1  0.333393  0.333393  0.999822  1
  Fe  Fe10  1  0.666765  0.666765  0.999706  1
  Fe  Fe11  1  0.499961  0.499961  0.500116  1
