# generated using pymatgen
data_La3Si2Ir3
_symmetry_space_group_name_H-M   'P 1'
_cell_length_a   5.88739300
_cell_length_b   7.85042100
_cell_length_c   15.04686900
_cell_angle_alpha   90.00000000
_cell_angle_beta   90.00000000
_cell_angle_gamma   90.00000000
_symmetry_Int_Tables_number   1
_chemical_formula_structural   La3Si2Ir3
_chemical_formula_sum   'La12 Si8 Ir12'
_cell_volume   695.44392015
_cell_formula_units_Z   4
loop_
 _symmetry_equiv_pos_site_id
 _symmetry_equiv_pos_as_xyz
  1  'x, y, z'
loop_
 _atom_site_type_symbol
 _atom_site_label
 _atom_site_symmetry_multiplicity
 _atom_site_fract_x
 _atom_site_fract_y
 _atom_site_fract_z
 _atom_site_occupancy
  La  La0  1  0.143950  0.476808  0.891083  1
  La  La1  1  0.356050  0.976808  0.891083  1
  La  La2  1  0.610766  0.337688  0.750000  1
  La  La3  1  0.389234  0.662312  0.250000  1
  La  La4  1  0.643950  0.023192  0.391083  1
  La  La5  1  0.856050  0.523192  0.108917  1
  La  La6  1  0.856050  0.523192  0.391083  1
  La  La7  1  0.356050  0.976808  0.608917  1
  La  La8  1  0.889234  0.837688  0.750000  1
  La  La9  1  0.143950  0.476808  0.608917  1
  La  La10  1  0.643950  0.023192  0.108917  1
  La  La11  1  0.110766  0.162312  0.250000  1
  Si  Si12  1  0.368633  0.368209  0.095723  1
  Si  Si13  1  0.631367  0.631791  0.904277  1
  Si  Si14  1  0.868633  0.131791  0.904277  1
  Si  Si15  1  0.368633  0.368209  0.404277  1
  Si  Si16  1  0.868633  0.131791  0.595723  1
  Si  Si17  1  0.631367  0.631791  0.595723  1
  Si  Si18  1  0.131367  0.868209  0.404277  1
  Si  Si19  1  0.131367  0.868209  0.095723  1
  Ir  Ir20  1  0.605200  0.341198  0.960367  1
  Ir  Ir21  1  0.394800  0.658802  0.039633  1
  Ir  Ir22  1  0.556203  0.317538  0.250000  1
  Ir  Ir23  1  0.394800  0.658802  0.460367  1
  Ir  Ir24  1  0.056203  0.182462  0.750000  1
  Ir  Ir25  1  0.105200  0.158802  0.460367  1
  Ir  Ir26  1  0.443797  0.682462  0.750000  1
  Ir  Ir27  1  0.943797  0.817538  0.250000  1
  Ir  Ir28  1  0.105200  0.158802  0.039633  1
  Ir  Ir29  1  0.605200  0.341198  0.539633  1
  Ir  Ir30  1  0.894800  0.841198  0.539633  1
  Ir  Ir31  1  0.894800  0.841198  0.960367  1
