# generated using pymatgen
data_V3P4Ru5
_symmetry_space_group_name_H-M   'P 1'
_cell_length_a   3.79358600
_cell_length_b   6.06866860
_cell_length_c   6.89756616
_cell_angle_alpha   90.25869609
_cell_angle_beta   90.00000000
_cell_angle_gamma   90.00000000
_symmetry_Int_Tables_number   1
_chemical_formula_structural   V3P4Ru5
_chemical_formula_sum   'V3 P4 Ru5'
_cell_volume   158.79426166
_cell_formula_units_Z   1
loop_
 _symmetry_equiv_pos_site_id
 _symmetry_equiv_pos_as_xyz
  1  'x, y, z'
loop_
 _atom_site_type_symbol
 _atom_site_label
 _atom_site_symmetry_multiplicity
 _atom_site_fract_x
 _atom_site_fract_y
 _atom_site_fract_z
 _atom_site_occupancy
  V  V0  1  0.750000  0.021430  0.672734  1
  V  V1  1  0.250000  0.978419  0.327912  1
  V  V2  1  0.750000  0.523837  0.833955  1
  P  P3  1  0.250000  0.742788  0.616589  1
  P  P4  1  0.750000  0.255149  0.385949  1
  P  P5  1  0.250000  0.241464  0.882510  1
  P  P6  1  0.750000  0.761881  0.118361  1
  Ru  Ru7  1  0.250000  0.472457  0.160960  1
  Ru  Ru8  1  0.250000  0.354992  0.565317  1
  Ru  Ru9  1  0.750000  0.644096  0.432374  1
  Ru  Ru10  1  0.250000  0.855571  0.934447  1
  Ru  Ru11  1  0.750000  0.147915  0.068892  1
