# generated using pymatgen
data_Ac2Yb6Be3Si12Pd
_symmetry_space_group_name_H-M   'P 1'
_cell_length_a   8.04227100
_cell_length_b   8.04227126
_cell_length_c   8.84197600
_cell_angle_alpha   90.00000000
_cell_angle_beta   90.00000000
_cell_angle_gamma   120.00000305
_symmetry_Int_Tables_number   1
_chemical_formula_structural   Ac2Yb6Be3Si12Pd
_chemical_formula_sum   'Ac2 Yb6 Be3 Si12 Pd1'
_cell_volume   495.26469561
_cell_formula_units_Z   1
loop_
 _symmetry_equiv_pos_site_id
 _symmetry_equiv_pos_as_xyz
  1  'x, y, z'
loop_
 _atom_site_type_symbol
 _atom_site_label
 _atom_site_symmetry_multiplicity
 _atom_site_fract_x
 _atom_site_fract_y
 _atom_site_fract_z
 _atom_site_occupancy
  Ac  Ac0  1  0.000000  0.000000  0.750089  1
  Ac  Ac1  1  0.000000  0.000000  0.249941  1
  Yb  Yb2  1  0.501240  0.498760  0.747263  1
  Yb  Yb3  1  0.501345  0.498655  0.252738  1
  Yb  Yb4  1  0.997519  0.498760  0.747263  1
  Yb  Yb5  1  0.997311  0.498655  0.252738  1
  Yb  Yb6  1  0.501240  0.002481  0.747263  1
  Yb  Yb7  1  0.501345  0.002689  0.252738  1
  Be  Be8  1  0.666667  0.333333  0.999535  1
  Be  Be9  1  0.333333  0.666667  0.000576  1
  Be  Be10  1  0.333333  0.666667  0.499634  1
  Si  Si11  1  0.824737  0.175263  0.000054  1
  Si  Si12  1  0.175300  0.824700  0.999987  1
  Si  Si13  1  0.350526  0.175263  0.000054  1
  Si  Si14  1  0.172140  0.827860  0.500001  1
  Si  Si15  1  0.649402  0.824700  0.999987  1
  Si  Si16  1  0.832083  0.167917  0.500016  1
  Si  Si17  1  0.824737  0.649474  0.000054  1
  Si  Si18  1  0.655719  0.827860  0.500001  1
  Si  Si19  1  0.175300  0.350598  0.999987  1
  Si  Si20  1  0.335835  0.167917  0.500016  1
  Si  Si21  1  0.172140  0.344281  0.500001  1
  Si  Si22  1  0.832083  0.664165  0.500016  1
  Pd  Pd23  1  0.666667  0.333333  0.500050  1
