# generated using pymatgen
data_La3Pr2SmRuBr10
_symmetry_space_group_name_H-M   'P 1'
_cell_length_a   7.80957737
_cell_length_b   9.74003557
_cell_length_c   9.54085316
_cell_angle_alpha   108.08914888
_cell_angle_beta   95.76709319
_cell_angle_gamma   107.33070768
_symmetry_Int_Tables_number   1
_chemical_formula_structural   La3Pr2SmRuBr10
_chemical_formula_sum   'La3 Pr2 Sm1 Ru1 Br10'
_cell_volume   643.47778645
_cell_formula_units_Z   1
loop_
 _symmetry_equiv_pos_site_id
 _symmetry_equiv_pos_as_xyz
  1  'x, y, z'
loop_
 _atom_site_type_symbol
 _atom_site_label
 _atom_site_symmetry_multiplicity
 _atom_site_fract_x
 _atom_site_fract_y
 _atom_site_fract_z
 _atom_site_occupancy
  La  La0  1  0.127703  0.051525  0.769366  1
  La  La1  1  0.627035  0.850444  0.806353  1
  La  La2  1  0.872619  0.948505  0.229975  1
  Pr  Pr3  1  0.369073  0.144056  0.189117  1
  Pr  Pr4  1  0.972026  0.307348  0.100889  1
  Sm  Sm5  1  0.027241  0.697267  0.902161  1
  Ru  Ru6  1  0.999292  0.998308  0.998727  1
  Br  Br7  1  0.201172  0.744974  0.654348  1
  Br  Br8  1  0.654581  0.541053  0.730098  1
  Br  Br9  1  0.245515  0.081509  0.451795  1
  Br  Br10  1  0.791874  0.253273  0.348282  1
  Br  Br11  1  0.550638  0.172345  0.921709  1
  Br  Br12  1  0.757321  0.920113  0.545737  1
  Br  Br13  1  0.911301  0.629994  0.163531  1
  Br  Br14  1  0.354661  0.456983  0.273904  1
  Br  Br15  1  0.091588  0.375050  0.835059  1
  Br  Br16  1  0.446357  0.827253  0.078947  1
