# generated using pymatgen
data_Lu6V7Co16
_symmetry_space_group_name_H-M   'P 1'
_cell_length_a   8.39570300
_cell_length_b   8.39667829
_cell_length_c   8.39673200
_cell_angle_alpha   120.00083405
_cell_angle_beta   90.00055960
_cell_angle_gamma   120.00222077
_symmetry_Int_Tables_number   1
_chemical_formula_structural   Lu6V7Co16
_chemical_formula_sum   'Lu6 V7 Co16'
_cell_volume   418.54070311
_cell_formula_units_Z   1
loop_
 _symmetry_equiv_pos_site_id
 _symmetry_equiv_pos_as_xyz
  1  'x, y, z'
loop_
 _atom_site_type_symbol
 _atom_site_label
 _atom_site_symmetry_multiplicity
 _atom_site_fract_x
 _atom_site_fract_y
 _atom_site_fract_z
 _atom_site_occupancy
  Lu  Lu0  1  0.211827  0.000025  0.211775  1
  Lu  Lu1  1  0.211946  0.423660  0.211763  1
  Lu  Lu2  1  0.788070  0.999911  0.211855  1
  Lu  Lu3  1  0.211989  0.000216  0.788326  1
  Lu  Lu4  1  0.788070  0.000059  0.788099  1
  Lu  Lu5  1  0.788109  0.576251  0.788228  1
  V  V6  1  0.499923  0.999735  0.999887  1
  V  V7  1  0.000144  0.499995  0.999905  1
  V  V8  1  0.499882  0.499987  0.999824  1
  V  V9  1  0.000150  0.000219  0.500152  1
  V  V10  1  0.499922  0.999891  0.499867  1
  V  V11  1  0.000160  0.500071  0.500109  1
  V  V12  1  0.499988  0.500067  0.500211  1
  Co  Co13  1  0.378689  0.757295  0.135985  1
  Co  Co14  1  0.530482  0.353668  0.176798  1
  Co  Co15  1  0.823097  0.353685  0.176811  1
  Co  Co16  1  0.823102  0.646279  0.176812  1
  Co  Co17  1  0.621311  0.242616  0.378681  1
  Co  Co18  1  0.136028  0.757337  0.378662  1
  Co  Co19  1  0.621307  0.757354  0.378669  1
  Co  Co20  1  0.823099  0.646279  0.469394  1
  Co  Co21  1  0.176865  0.353725  0.530626  1
  Co  Co22  1  0.378684  0.242734  0.621401  1
  Co  Co23  1  0.863928  0.242599  0.621337  1
  Co  Co24  1  0.378735  0.757378  0.621349  1
  Co  Co25  1  0.176873  0.353763  0.823152  1
  Co  Co26  1  0.176856  0.646270  0.823181  1
  Co  Co27  1  0.469436  0.646284  0.823175  1
  Co  Co28  1  0.621330  0.242643  0.863970  1
