# generated using pymatgen
data_TlVF5
_symmetry_space_group_name_H-M   'P 1'
_cell_length_a   14.35249100
_cell_length_b   5.78257261
_cell_length_c   5.82716500
_cell_angle_alpha   84.15391004
_cell_angle_beta   90.00000000
_cell_angle_gamma   90.00000000
_symmetry_Int_Tables_number   1
_chemical_formula_structural   TlVF5
_chemical_formula_sum   'Tl4 V4 F20'
_cell_volume   481.10633457
_cell_formula_units_Z   4
loop_
 _symmetry_equiv_pos_site_id
 _symmetry_equiv_pos_as_xyz
  1  'x, y, z'
loop_
 _atom_site_type_symbol
 _atom_site_label
 _atom_site_symmetry_multiplicity
 _atom_site_fract_x
 _atom_site_fract_y
 _atom_site_fract_z
 _atom_site_occupancy
  Tl  Tl0  1  0.887874  0.436832  0.727167  1
  Tl  Tl1  1  0.612126  0.936832  0.727167  1
  Tl  Tl2  1  0.112126  0.563168  0.272833  1
  Tl  Tl3  1  0.387874  0.063168  0.272833  1
  V  V4  1  0.661315  0.416709  0.210266  1
  V  V5  1  0.838685  0.916709  0.210266  1
  V  V6  1  0.338685  0.583291  0.789734  1
  V  V7  1  0.161315  0.083291  0.789734  1
  F  F8  1  0.591281  0.657360  0.296966  1
  F  F9  1  0.408719  0.342640  0.703034  1
  F  F10  1  0.908719  0.157360  0.296966  1
  F  F11  1  0.091281  0.842640  0.703034  1
  F  F12  1  0.378915  0.553488  0.086716  1
  F  F13  1  0.070651  0.305603  0.694583  1
  F  F14  1  0.239094  0.353867  0.897194  1
  F  F15  1  0.775662  0.855957  0.480194  1
  F  F16  1  0.275662  0.644043  0.519806  1
  F  F17  1  0.121085  0.053488  0.086716  1
  F  F18  1  0.260906  0.853867  0.897194  1
  F  F19  1  0.724338  0.355957  0.480194  1
  F  F20  1  0.878915  0.946512  0.913283  1
  F  F21  1  0.429349  0.805603  0.694583  1
  F  F22  1  0.739094  0.146133  0.102806  1
  F  F23  1  0.929349  0.694397  0.305417  1
  F  F24  1  0.570651  0.194397  0.305417  1
  F  F25  1  0.760906  0.646133  0.102806  1
  F  F26  1  0.224338  0.144043  0.519806  1
  F  F27  1  0.621085  0.446512  0.913283  1
