# generated using pymatgen
data_AcPr7(Si3Ir)4
_symmetry_space_group_name_H-M   'P 1'
_cell_length_a   8.27690087
_cell_length_b   8.27690267
_cell_length_c   8.63982100
_cell_angle_alpha   90.00000000
_cell_angle_beta   90.00000000
_cell_angle_gamma   119.71909598
_symmetry_Int_Tables_number   1
_chemical_formula_structural   AcPr7(Si3Ir)4
_chemical_formula_sum   'Ac1 Pr7 Si12 Ir4'
_cell_volume   514.03576315
_cell_formula_units_Z   1
loop_
 _symmetry_equiv_pos_site_id
 _symmetry_equiv_pos_as_xyz
  1  'x, y, z'
loop_
 _atom_site_type_symbol
 _atom_site_label
 _atom_site_symmetry_multiplicity
 _atom_site_fract_x
 _atom_site_fract_y
 _atom_site_fract_z
 _atom_site_occupancy
  Ac  Ac0  1  0.499456  0.500544  0.750000  1
  Pr  Pr1  1  0.500561  0.499439  0.250000  1
  Pr  Pr2  1  0.000751  0.500437  0.750000  1
  Pr  Pr3  1  0.999266  0.499656  0.250000  1
  Pr  Pr4  1  0.499563  0.999249  0.750000  1
  Pr  Pr5  1  0.500344  0.000734  0.250000  1
  Pr  Pr6  1  0.000044  0.999956  0.750000  1
  Pr  Pr7  1  0.000022  0.999978  0.250000  1
  Si  Si8  1  0.832707  0.167293  0.000594  1
  Si  Si9  1  0.167302  0.832698  0.999165  1
  Si  Si10  1  0.332660  0.164483  0.004300  1
  Si  Si11  1  0.167302  0.832698  0.500835  1
  Si  Si12  1  0.667422  0.835673  0.003280  1
  Si  Si13  1  0.832707  0.167293  0.499406  1
  Si  Si14  1  0.835517  0.667340  0.004300  1
  Si  Si15  1  0.667422  0.835673  0.496720  1
  Si  Si16  1  0.164327  0.332578  0.003280  1
  Si  Si17  1  0.332660  0.164483  0.495700  1
  Si  Si18  1  0.164327  0.332578  0.496720  1
  Si  Si19  1  0.835517  0.667340  0.495700  1
  Ir  Ir20  1  0.666567  0.333433  0.000581  1
  Ir  Ir21  1  0.333493  0.666507  0.004754  1
  Ir  Ir22  1  0.333493  0.666507  0.495246  1
  Ir  Ir23  1  0.666567  0.333433  0.499419  1
