# generated using pymatgen
data_Ca11Yb(TmSi2)8
_symmetry_space_group_name_H-M   'P 1'
_cell_length_a   7.37715501
_cell_length_b   7.79504901
_cell_length_c   15.04818400
_cell_angle_alpha   90.00000000
_cell_angle_beta   90.00000000
_cell_angle_gamma   90.00459222
_symmetry_Int_Tables_number   1
_chemical_formula_structural   Ca11Yb(TmSi2)8
_chemical_formula_sum   'Ca11 Yb1 Tm8 Si16'
_cell_volume   865.35010383
_cell_formula_units_Z   1
loop_
 _symmetry_equiv_pos_site_id
 _symmetry_equiv_pos_as_xyz
  1  'x, y, z'
loop_
 _atom_site_type_symbol
 _atom_site_label
 _atom_site_symmetry_multiplicity
 _atom_site_fract_x
 _atom_site_fract_y
 _atom_site_fract_z
 _atom_site_occupancy
  Ca  Ca0  1  0.972760  0.816729  0.404164  1
  Ca  Ca1  1  0.473120  0.683554  0.095876  1
  Ca  Ca2  1  0.527003  0.316619  0.595791  1
  Ca  Ca3  1  0.026979  0.183335  0.904226  1
  Ca  Ca4  1  0.026979  0.183335  0.595774  1
  Ca  Ca5  1  0.527003  0.316619  0.904209  1
  Ca  Ca6  1  0.473120  0.683554  0.404124  1
  Ca  Ca7  1  0.972760  0.816729  0.095836  1
  Ca  Ca8  1  0.352785  0.018840  0.750000  1
  Ca  Ca9  1  0.852741  0.481182  0.750000  1
  Ca  Ca10  1  0.147287  0.518811  0.250000  1
  Yb  Yb11  1  0.647427  0.980850  0.250000  1
  Tm  Tm12  1  0.314635  0.176513  0.121273  1
  Tm  Tm13  1  0.814232  0.323275  0.378711  1
  Tm  Tm14  1  0.185646  0.676509  0.878858  1
  Tm  Tm15  1  0.685643  0.823577  0.621145  1
  Tm  Tm16  1  0.314635  0.176513  0.378727  1
  Tm  Tm17  1  0.814232  0.323275  0.121289  1
  Tm  Tm18  1  0.185646  0.676509  0.621142  1
  Tm  Tm19  1  0.685643  0.823577  0.878855  1
  Si  Si20  1  0.857356  0.534413  0.538297  1
  Si  Si21  1  0.357366  0.965585  0.961684  1
  Si  Si22  1  0.642568  0.034286  0.461592  1
  Si  Si23  1  0.142641  0.465531  0.038341  1
  Si  Si24  1  0.142641  0.465531  0.461659  1
  Si  Si25  1  0.642568  0.034286  0.038408  1
  Si  Si26  1  0.357366  0.965585  0.538316  1
  Si  Si27  1  0.857356  0.534413  0.961703  1
  Si  Si28  1  0.977619  0.879616  0.750000  1
  Si  Si29  1  0.477611  0.620439  0.750000  1
  Si  Si30  1  0.522413  0.379550  0.250000  1
  Si  Si31  1  0.022434  0.120585  0.250000  1
  Si  Si32  1  0.248917  0.396648  0.750000  1
  Si  Si33  1  0.748902  0.103339  0.750000  1
  Si  Si34  1  0.250902  0.896891  0.250000  1
  Si  Si35  1  0.751066  0.603401  0.250000  1
