# generated using pymatgen
data_Y8MnCo19B8
_symmetry_space_group_name_H-M   'P 1'
_cell_length_a   5.09986600
_cell_length_b   5.09986642
_cell_length_c   19.87377500
_cell_angle_alpha   90.00000000
_cell_angle_beta   90.00000000
_cell_angle_gamma   119.99999726
_symmetry_Int_Tables_number   1
_chemical_formula_structural   Y8MnCo19B8
_chemical_formula_sum   'Y8 Mn1 Co19 B8'
_cell_volume   447.63968196
_cell_formula_units_Z   1
loop_
 _symmetry_equiv_pos_site_id
 _symmetry_equiv_pos_as_xyz
  1  'x, y, z'
loop_
 _atom_site_type_symbol
 _atom_site_label
 _atom_site_symmetry_multiplicity
 _atom_site_fract_x
 _atom_site_fract_y
 _atom_site_fract_z
 _atom_site_occupancy
  Y  Y0  1  0.666667  0.333333  0.824848  1
  Y  Y1  1  0.666667  0.333333  0.976263  1
  Y  Y2  1  0.333333  0.666667  0.477736  1
  Y  Y3  1  0.333333  0.666667  0.023737  1
  Y  Y4  1  0.333333  0.666667  0.175152  1
  Y  Y5  1  0.666667  0.333333  0.522264  1
  Y  Y6  1  0.666667  0.333333  0.675000  1
  Y  Y7  1  0.333333  0.666667  0.325000  1
  Mn  Mn8  1  0.000000  0.000000  0.000000  1
  Co  Co9  1  0.164571  0.329140  0.894414  1
  Co  Co10  1  0.162387  0.837613  0.605991  1
  Co  Co11  1  0.837613  0.162387  0.394009  1
  Co  Co12  1  0.334435  0.167218  0.249641  1
  Co  Co13  1  0.324772  0.162387  0.394009  1
  Co  Co14  1  0.835429  0.670860  0.105586  1
  Co  Co15  1  0.837613  0.675228  0.394009  1
  Co  Co16  1  0.832782  0.665565  0.249641  1
  Co  Co17  1  0.675228  0.837613  0.605991  1
  Co  Co18  1  0.665565  0.832782  0.750359  1
  Co  Co19  1  0.835429  0.164571  0.105586  1
  Co  Co20  1  0.670860  0.835429  0.894414  1
  Co  Co21  1  0.167218  0.334435  0.750359  1
  Co  Co22  1  0.167218  0.832782  0.750359  1
  Co  Co23  1  0.832782  0.167218  0.249641  1
  Co  Co24  1  0.329140  0.164571  0.105586  1
  Co  Co25  1  0.000000  0.000000  0.500000  1
  Co  Co26  1  0.164571  0.835429  0.894414  1
  Co  Co27  1  0.162387  0.324772  0.605991  1
  B  B28  1  0.333333  0.666667  0.825078  1
  B  B29  1  0.333333  0.666667  0.674780  1
  B  B30  1  0.666667  0.333333  0.325220  1
  B  B31  1  0.000000  0.000000  0.823574  1
  B  B32  1  0.666667  0.333333  0.174922  1
  B  B33  1  0.000000  0.000000  0.677361  1
  B  B34  1  0.000000  0.000000  0.322639  1
  B  B35  1  0.000000  0.000000  0.176426  1
