# generated using pymatgen
data_CsK5AlFeSe6
_symmetry_space_group_name_H-M   'P 1'
_cell_length_a   13.82629571
_cell_length_b   8.23253390
_cell_length_c   10.46130330
_cell_angle_alpha   53.14073665
_cell_angle_beta   89.04793018
_cell_angle_gamma   89.73642827
_symmetry_Int_Tables_number   1
_chemical_formula_structural   CsK5AlFeSe6
_chemical_formula_sum   'Cs2 K10 Al2 Fe2 Se12'
_cell_volume   952.58965066
_cell_formula_units_Z   2
loop_
 _symmetry_equiv_pos_site_id
 _symmetry_equiv_pos_as_xyz
  1  'x, y, z'
loop_
 _atom_site_type_symbol
 _atom_site_label
 _atom_site_symmetry_multiplicity
 _atom_site_fract_x
 _atom_site_fract_y
 _atom_site_fract_z
 _atom_site_occupancy
  Cs  Cs0  1  0.313302  0.182328  0.054879  1
  Cs  Cs1  1  0.686428  0.816628  0.945810  1
  K  K2  1  0.817974  0.832317  0.442432  1
  K  K3  1  0.899970  0.316938  0.403044  1
  K  K4  1  0.618663  0.370312  0.471331  1
  K  K5  1  0.111547  0.634886  0.021921  1
  K  K6  1  0.381507  0.628885  0.528074  1
  K  K7  1  0.888639  0.365932  0.978695  1
  K  K8  1  0.614856  0.297333  0.910969  1
  K  K9  1  0.100093  0.684091  0.596044  1
  K  K10  1  0.385240  0.701605  0.090054  1
  K  K11  1  0.181807  0.168283  0.556989  1
  Al  Al12  1  0.433380  0.964333  0.647324  1
  Al  Al13  1  0.936587  0.054540  0.844606  1
  Fe  Fe14  1  0.063425  0.945168  0.155538  1
  Fe  Fe15  1  0.566865  0.036086  0.352448  1
  Se  Se16  1  0.418345  0.204345  0.356045  1
  Se  Se17  1  0.905555  0.822994  0.137363  1
  Se  Se18  1  0.580281  0.794732  0.645048  1
  Se  Se19  1  0.093447  0.178464  0.860933  1
  Se  Se20  1  0.701030  0.268644  0.227282  1
  Se  Se21  1  0.182391  0.682111  0.295312  1
  Se  Se22  1  0.299542  0.730587  0.772151  1
  Se  Se23  1  0.817975  0.318708  0.705440  1
  Se  Se24  1  0.544541  0.858278  0.241001  1
  Se  Se25  1  0.050673  0.133040  0.261026  1
  Se  Se26  1  0.456049  0.141872  0.759284  1
  Se  Se27  1  0.949889  0.866562  0.738956  1
