# generated using pymatgen
data_Li2LaUIr2
_symmetry_space_group_name_H-M   'P 1'
_cell_length_a   3.95103600
_cell_length_b   7.14036411
_cell_length_c   8.59121900
_cell_angle_alpha   88.44364954
_cell_angle_beta   90.00000000
_cell_angle_gamma   90.00000000
_symmetry_Int_Tables_number   1
_chemical_formula_structural   Li2LaUIr2
_chemical_formula_sum   'Li4 La2 U2 Ir4'
_cell_volume   242.28464568
_cell_formula_units_Z   2
loop_
 _symmetry_equiv_pos_site_id
 _symmetry_equiv_pos_as_xyz
  1  'x, y, z'
loop_
 _atom_site_type_symbol
 _atom_site_label
 _atom_site_symmetry_multiplicity
 _atom_site_fract_x
 _atom_site_fract_y
 _atom_site_fract_z
 _atom_site_occupancy
  Li  Li0  1  0.250000  0.632321  0.553351  1
  Li  Li1  1  0.750000  0.367679  0.446649  1
  Li  Li2  1  0.750000  0.886386  0.049522  1
  Li  Li3  1  0.250000  0.113614  0.950478  1
  La  La4  1  0.250000  0.554808  0.187780  1
  La  La5  1  0.750000  0.445192  0.812220  1
  U  U6  1  0.750000  0.947645  0.680549  1
  U  U7  1  0.250000  0.052355  0.319451  1
  Ir  Ir8  1  0.250000  0.760129  0.840030  1
  Ir  Ir9  1  0.750000  0.239871  0.159970  1
  Ir  Ir10  1  0.750000  0.797156  0.379890  1
  Ir  Ir11  1  0.250000  0.202844  0.620110  1
