# generated using pymatgen
data_Sm2YGa6(NiRh2)3
_symmetry_space_group_name_H-M   'P 1'
_cell_length_a   9.52825300
_cell_length_b   9.52825312
_cell_length_c   3.87867700
_cell_angle_alpha   90.00000000
_cell_angle_beta   90.00000000
_cell_angle_gamma   120.00000306
_symmetry_Int_Tables_number   1
_chemical_formula_structural   Sm2YGa6(NiRh2)3
_chemical_formula_sum   'Sm2 Y1 Ga6 Ni3 Rh6'
_cell_volume   304.95853957
_cell_formula_units_Z   1
loop_
 _symmetry_equiv_pos_site_id
 _symmetry_equiv_pos_as_xyz
  1  'x, y, z'
loop_
 _atom_site_type_symbol
 _atom_site_label
 _atom_site_symmetry_multiplicity
 _atom_site_fract_x
 _atom_site_fract_y
 _atom_site_fract_z
 _atom_site_occupancy
  Sm  Sm0  1  0.000000  0.000000  0.000000  1
  Sm  Sm1  1  0.333333  0.666667  0.500000  1
  Y  Y2  1  0.666667  0.333333  0.500000  1
  Ga  Ga3  1  0.333065  0.332123  0.500000  1
  Ga  Ga4  1  0.667877  0.000943  0.500000  1
  Ga  Ga5  1  0.667877  0.666935  0.500000  1
  Ga  Ga6  1  0.999057  0.332123  0.500000  1
  Ga  Ga7  1  0.999057  0.666935  0.500000  1
  Ga  Ga8  1  0.333065  0.000943  0.500000  1
  Ni  Ni9  1  0.500233  0.000467  0.000000  1
  Ni  Ni10  1  0.999533  0.499767  0.000000  1
  Ni  Ni11  1  0.500233  0.499767  0.000000  1
  Rh  Rh12  1  0.180607  0.361214  0.000000  1
  Rh  Rh13  1  0.817671  0.635344  0.000000  1
  Rh  Rh14  1  0.180607  0.819393  0.000000  1
  Rh  Rh15  1  0.638786  0.819393  0.000000  1
  Rh  Rh16  1  0.364656  0.182329  0.000000  1
  Rh  Rh17  1  0.817671  0.182329  0.000000  1
