# generated using pymatgen
data_Hf2Mn4Nb2SiAs3
_symmetry_space_group_name_H-M   'P 1'
_cell_length_a   3.66514800
_cell_length_b   6.49344645
_cell_length_c   7.60284984
_cell_angle_alpha   89.81536700
_cell_angle_beta   90.00000000
_cell_angle_gamma   90.00000000
_symmetry_Int_Tables_number   1
_chemical_formula_structural   Hf2Mn4Nb2SiAs3
_chemical_formula_sum   'Hf2 Mn4 Nb2 Si1 As3'
_cell_volume   180.94264646
_cell_formula_units_Z   1
loop_
 _symmetry_equiv_pos_site_id
 _symmetry_equiv_pos_as_xyz
  1  'x, y, z'
loop_
 _atom_site_type_symbol
 _atom_site_label
 _atom_site_symmetry_multiplicity
 _atom_site_fract_x
 _atom_site_fract_y
 _atom_site_fract_z
 _atom_site_occupancy
  Hf  Hf0  1  0.750000  0.034325  0.674569  1
  Hf  Hf1  1  0.750000  0.535809  0.830464  1
  Mn  Mn2  1  0.250000  0.363558  0.559718  1
  Mn  Mn3  1  0.250000  0.862140  0.944253  1
  Mn  Mn4  1  0.750000  0.637890  0.434326  1
  Mn  Mn5  1  0.750000  0.130474  0.062541  1
  Nb  Nb6  1  0.250000  0.960999  0.320746  1
  Nb  Nb7  1  0.250000  0.474419  0.173636  1
  Si  Si8  1  0.750000  0.765628  0.130337  1
  As  As9  1  0.250000  0.736281  0.628273  1
  As  As10  1  0.250000  0.235687  0.874424  1
  As  As11  1  0.750000  0.262792  0.366713  1
