# generated using pymatgen
data_NdDySn5Rh3
_symmetry_space_group_name_H-M   'P 1'
_cell_length_a   13.52545633
_cell_length_b   13.52545611
_cell_length_c   7.27651200
_cell_angle_alpha   90.00000000
_cell_angle_beta   90.00000000
_cell_angle_gamma   160.95836741
_symmetry_Int_Tables_number   1
_chemical_formula_structural   NdDySn5Rh3
_chemical_formula_sum   'Nd2 Dy2 Sn10 Rh6'
_cell_volume   434.29458472
_cell_formula_units_Z   2
loop_
 _symmetry_equiv_pos_site_id
 _symmetry_equiv_pos_as_xyz
  1  'x, y, z'
loop_
 _atom_site_type_symbol
 _atom_site_label
 _atom_site_symmetry_multiplicity
 _atom_site_fract_x
 _atom_site_fract_y
 _atom_site_fract_z
 _atom_site_occupancy
  Nd  Nd0  1  0.172616  0.827384  0.754322  1
  Nd  Nd1  1  0.827384  0.172616  0.254322  1
  Dy  Dy2  1  0.476092  0.523908  0.737314  1
  Dy  Dy3  1  0.523908  0.476092  0.237314  1
  Sn  Sn4  1  0.881042  0.118958  0.730592  1
  Sn  Sn5  1  0.118958  0.881042  0.230592  1
  Sn  Sn6  1  0.704598  0.295402  0.051638  1
  Sn  Sn7  1  0.295402  0.704598  0.551638  1
  Sn  Sn8  1  0.595212  0.404788  0.613824  1
  Sn  Sn9  1  0.404788  0.595212  0.113824  1
  Sn  Sn10  1  0.952792  0.047208  0.398111  1
  Sn  Sn11  1  0.047208  0.952792  0.898111  1
  Sn  Sn12  1  0.290583  0.709417  0.975264  1
  Sn  Sn13  1  0.709417  0.290583  0.475264  1
  Rh  Rh14  1  0.050006  0.949994  0.517444  1
  Rh  Rh15  1  0.949994  0.050006  0.017444  1
  Rh  Rh16  1  0.777743  0.222257  0.763613  1
  Rh  Rh17  1  0.222257  0.777743  0.263613  1
  Rh  Rh18  1  0.394982  0.605018  0.485877  1
  Rh  Rh19  1  0.605018  0.394982  0.985877  1
