# generated using pymatgen
data_Sr9Ga(PO4)7
_symmetry_space_group_name_H-M   'P 1'
_cell_length_a   9.09304286
_cell_length_b   9.09304282
_cell_length_c   18.18835800
_cell_angle_alpha   71.85739015
_cell_angle_beta   71.85739023
_cell_angle_gamma   72.42557437
_symmetry_Int_Tables_number   1
_chemical_formula_structural   Sr9Ga(PO4)7
_chemical_formula_sum   'Sr18 Ga2 P14 O56'
_cell_volume   1322.61008256
_cell_formula_units_Z   2
loop_
 _symmetry_equiv_pos_site_id
 _symmetry_equiv_pos_as_xyz
  1  'x, y, z'
loop_
 _atom_site_type_symbol
 _atom_site_label
 _atom_site_symmetry_multiplicity
 _atom_site_fract_x
 _atom_site_fract_y
 _atom_site_fract_z
 _atom_site_occupancy
  Sr  Sr0  1  0.278251  0.837589  0.633985  1
  Sr  Sr1  1  0.161156  0.721871  0.864610  1
  Sr  Sr2  1  0.721871  0.161156  0.364610  1
  Sr  Sr3  1  0.837589  0.278251  0.133985  1
  Sr  Sr4  1  0.718408  0.713368  0.587576  1
  Sr  Sr5  1  0.285440  0.278831  0.912866  1
  Sr  Sr6  1  0.278831  0.285440  0.412866  1
  Sr  Sr7  1  0.713368  0.718408  0.087576  1
  Sr  Sr8  1  0.270039  0.841767  0.139396  1
  Sr  Sr9  1  0.155026  0.731214  0.359935  1
  Sr  Sr10  1  0.731214  0.155026  0.859935  1
  Sr  Sr11  1  0.841767  0.270039  0.639396  1
  Sr  Sr12  1  0.495639  0.042318  0.747742  1
  Sr  Sr13  1  0.963204  0.502718  0.749746  1
  Sr  Sr14  1  0.502718  0.963204  0.249746  1
  Sr  Sr15  1  0.042318  0.495639  0.247742  1
  Sr  Sr16  1  0.505991  0.504362  0.485910  1
  Sr  Sr17  1  0.504362  0.505991  0.985910  1
  Ga  Ga18  1  0.999317  0.999083  0.500040  1
  Ga  Ga19  1  0.999083  0.999317  0.000040  1
  P  P20  1  0.104861  0.595621  0.057096  1
  P  P21  1  0.405323  0.895339  0.441907  1
  P  P22  1  0.895339  0.405323  0.941907  1
  P  P23  1  0.595621  0.104861  0.557096  1
  P  P24  1  0.883869  0.895047  0.202664  1
  P  P25  1  0.104377  0.116058  0.296837  1
  P  P26  1  0.116058  0.104377  0.796837  1
  P  P27  1  0.895047  0.883869  0.702664  1
  P  P28  1  0.114213  0.595690  0.551424  1
  P  P29  1  0.404049  0.886700  0.947854  1
  P  P30  1  0.886700  0.404049  0.447854  1
  P  P31  1  0.595690  0.114213  0.051424  1
  P  P32  1  0.474227  0.527049  0.252251  1
  P  P33  1  0.527049  0.474227  0.752251  1
  O  O34  1  0.496928  0.787721  0.505446  1
  O  O35  1  0.211909  0.505489  0.992743  1
  O  O36  1  0.505489  0.211909  0.492743  1
  O  O37  1  0.787721  0.496928  0.005446  1
  O  O38  1  0.419342  0.521467  0.830611  1
  O  O39  1  0.471487  0.591682  0.678415  1
  O  O40  1  0.591682  0.471487  0.178415  1
  O  O41  1  0.521467  0.419342  0.330611  1
  O  O42  1  0.021415  0.765340  0.508577  1
  O  O43  1  0.234467  0.978589  0.990674  1
  O  O44  1  0.978589  0.234467  0.490674  1
  O  O45  1  0.765340  0.021415  0.008577  1
  O  O46  1  0.028437  0.488437  0.884274  1
  O  O47  1  0.510840  0.972578  0.614276  1
  O  O48  1  0.972578  0.510840  0.114276  1
  O  O49  1  0.488437  0.028437  0.384274  1
  O  O50  1  0.015493  0.495515  0.394148  1
  O  O51  1  0.503770  0.985043  0.104519  1
  O  O52  1  0.985043  0.503770  0.604519  1
  O  O53  1  0.495515  0.015493  0.894148  1
  O  O54  1  0.788551  0.012699  0.747472  1
  O  O55  1  0.987368  0.210382  0.751944  1
  O  O56  1  0.210382  0.987368  0.251944  1
  O  O57  1  0.012699  0.788551  0.247472  1
  O  O58  1  0.524838  0.296857  0.764565  1
  O  O59  1  0.706739  0.471663  0.736480  1
  O  O60  1  0.471663  0.706739  0.236480  1
  O  O61  1  0.296857  0.524838  0.264565  1
  O  O62  1  0.976799  0.981406  0.117327  1
  O  O63  1  0.018076  0.023295  0.382187  1
  O  O64  1  0.023295  0.018076  0.882187  1
  O  O65  1  0.981406  0.976799  0.617327  1
  O  O66  1  0.486684  0.774530  0.014693  1
  O  O67  1  0.224297  0.514355  0.483566  1
  O  O68  1  0.514355  0.224297  0.983566  1
  O  O69  1  0.774530  0.486684  0.514693  1
  O  O70  1  0.214007  0.206834  0.805347  1
  O  O71  1  0.793508  0.785141  0.694164  1
  O  O72  1  0.785141  0.793508  0.194164  1
  O  O73  1  0.206834  0.214007  0.305347  1
  O  O74  1  0.791569  0.387344  0.893536  1
  O  O75  1  0.615465  0.206758  0.605457  1
  O  O76  1  0.206758  0.615465  0.105457  1
  O  O77  1  0.387344  0.791569  0.393536  1
  O  O78  1  0.773264  0.027755  0.244353  1
  O  O79  1  0.971719  0.227321  0.255370  1
  O  O80  1  0.227321  0.971719  0.755370  1
  O  O81  1  0.027755  0.773264  0.744353  1
  O  O82  1  0.787165  0.387011  0.397741  1
  O  O83  1  0.612955  0.213193  0.101322  1
  O  O84  1  0.213193  0.612955  0.601322  1
  O  O85  1  0.387011  0.787165  0.897741  1
  O  O86  1  0.017436  0.764356  0.011253  1
  O  O87  1  0.236151  0.981342  0.487606  1
  O  O88  1  0.981342  0.236151  0.987606  1
  O  O89  1  0.764356  0.017436  0.511253  1
