# generated using pymatgen
data_Tb2Er6Tc3B24Rh
_symmetry_space_group_name_H-M   'P 1'
_cell_length_a   3.66471000
_cell_length_b   9.12672451
_cell_length_c   11.51216400
_cell_angle_alpha   90.12420434
_cell_angle_beta   90.00000000
_cell_angle_gamma   90.00000000
_symmetry_Int_Tables_number   1
_chemical_formula_structural   Tb2Er6Tc3B24Rh
_chemical_formula_sum   'Tb2 Er6 Tc3 B24 Rh1'
_cell_volume   385.04412572
_cell_formula_units_Z   1
loop_
 _symmetry_equiv_pos_site_id
 _symmetry_equiv_pos_as_xyz
  1  'x, y, z'
loop_
 _atom_site_type_symbol
 _atom_site_label
 _atom_site_symmetry_multiplicity
 _atom_site_fract_x
 _atom_site_fract_y
 _atom_site_fract_z
 _atom_site_occupancy
  Tb  Tb0  1  0.500000  0.318970  0.415689  1
  Tb  Tb1  1  0.500000  0.677856  0.590884  1
  Er  Er2  1  0.500000  0.176951  0.912870  1
  Er  Er3  1  0.500000  0.827421  0.081016  1
  Er  Er4  1  0.500000  0.440718  0.128670  1
  Er  Er5  1  0.500000  0.556891  0.871381  1
  Er  Er6  1  0.500000  0.056058  0.629898  1
  Er  Er7  1  0.500000  0.943965  0.369468  1
  Tc  Tc8  1  0.500000  0.138275  0.179852  1
  Tc  Tc9  1  0.500000  0.861738  0.821120  1
  Tc  Tc10  1  0.500000  0.361894  0.678547  1
  B  B11  1  0.000000  0.100303  0.471641  1
  B  B12  1  0.000000  0.896728  0.527773  1
  B  B13  1  0.000000  0.396903  0.971967  1
  B  B14  1  0.000000  0.604143  0.029313  1
  B  B15  1  0.000000  0.130225  0.314617  1
  B  B16  1  0.000000  0.869038  0.685782  1
  B  B17  1  0.000000  0.369088  0.814837  1
  B  B18  1  0.000000  0.631788  0.183470  1
  B  B19  1  0.000000  0.053439  0.066256  1
  B  B20  1  0.000000  0.947382  0.932925  1
  B  B21  1  0.000000  0.445988  0.567189  1
  B  B22  1  0.000000  0.554324  0.433265  1
  B  B23  1  0.000000  0.483510  0.287225  1
  B  B24  1  0.000000  0.517611  0.713035  1
  B  B25  1  0.000000  0.017914  0.787462  1
  B  B26  1  0.000000  0.982468  0.211582  1
  B  B27  1  0.000000  0.249271  0.080821  1
  B  B28  1  0.000000  0.751636  0.919358  1
  B  B29  1  0.000000  0.249758  0.581620  1
  B  B30  1  0.000000  0.749728  0.419470  1
  B  B31  1  0.000000  0.291608  0.234649  1
  B  B32  1  0.000000  0.708278  0.766446  1
  B  B33  1  0.000000  0.207960  0.734782  1
  B  B34  1  0.000000  0.791679  0.264470  1
  Rh  Rh35  1  0.500000  0.638495  0.320649  1
