# generated using pymatgen
data_Y15Sc4PaIr12
_symmetry_space_group_name_H-M   'P 1'
_cell_length_a   10.83608284
_cell_length_b   10.83871464
_cell_length_c   6.26055060
_cell_angle_alpha   90.06178895
_cell_angle_beta   89.52217322
_cell_angle_gamma   90.01396865
_symmetry_Int_Tables_number   1
_chemical_formula_structural   Y15Sc4PaIr12
_chemical_formula_sum   'Y15 Sc4 Pa1 Ir12'
_cell_volume   735.27070287
_cell_formula_units_Z   1
loop_
 _symmetry_equiv_pos_site_id
 _symmetry_equiv_pos_as_xyz
  1  'x, y, z'
loop_
 _atom_site_type_symbol
 _atom_site_label
 _atom_site_symmetry_multiplicity
 _atom_site_fract_x
 _atom_site_fract_y
 _atom_site_fract_z
 _atom_site_occupancy
  Y  Y0  1  0.286416  0.912137  0.875890  1
  Y  Y1  1  0.710044  0.086741  0.878594  1
  Y  Y2  1  0.711342  0.914634  0.378094  1
  Y  Y3  1  0.583840  0.787917  0.877913  1
  Y  Y4  1  0.591364  0.214371  0.378232  1
  Y  Y5  1  0.414954  0.782401  0.379192  1
  Y  Y6  1  0.414487  0.214526  0.875898  1
  Y  Y7  1  0.211513  0.414193  0.620034  1
  Y  Y8  1  0.210833  0.584143  0.122581  1
  Y  Y9  1  0.789232  0.414698  0.121851  1
  Y  Y10  1  0.788250  0.587142  0.622607  1
  Y  Y11  1  0.913711  0.712517  0.122758  1
  Y  Y12  1  0.913538  0.288078  0.620362  1
  Y  Y13  1  0.085629  0.711323  0.620900  1
  Y  Y14  1  0.086204  0.286088  0.120790  1
  Sc  Sc15  1  0.996937  0.998721  0.499344  1
  Sc  Sc16  1  0.999166  0.999615  0.999293  1
  Sc  Sc17  1  0.500205  0.499313  0.003981  1
  Sc  Sc18  1  0.501954  0.498804  0.503459  1
  Pa  Pa19  1  0.292667  0.084849  0.385201  1
  Ir  Ir20  1  0.853655  0.147292  0.245719  1
  Ir  Ir21  1  0.851445  0.854206  0.752383  1
  Ir  Ir22  1  0.153184  0.146059  0.724801  1
  Ir  Ir23  1  0.154555  0.864056  0.259443  1
  Ir  Ir24  1  0.648035  0.355061  0.751695  1
  Ir  Ir25  1  0.646398  0.647055  0.248876  1
  Ir  Ir26  1  0.352908  0.343137  0.258536  1
  Ir  Ir27  1  0.353311  0.644304  0.753649  1
  Ir  Ir28  1  0.489727  0.003627  0.130902  1
  Ir  Ir29  1  0.494103  0.002057  0.616532  1
  Ir  Ir30  1  0.000267  0.500108  0.876074  1
  Ir  Ir31  1  0.000126  0.500828  0.374416  1
