# generated using pymatgen
data_ThAgPt4
_symmetry_space_group_name_H-M   'P 1'
_cell_length_a   5.41964727
_cell_length_b   5.41964806
_cell_length_c   5.41964700
_cell_angle_alpha   60.00000037
_cell_angle_beta   59.99999552
_cell_angle_gamma   59.99999481
_symmetry_Int_Tables_number   1
_chemical_formula_structural   ThAgPt4
_chemical_formula_sum   'Th1 Ag1 Pt4'
_cell_volume   112.56362718
_cell_formula_units_Z   1
loop_
 _symmetry_equiv_pos_site_id
 _symmetry_equiv_pos_as_xyz
  1  'x, y, z'
loop_
 _atom_site_type_symbol
 _atom_site_label
 _atom_site_symmetry_multiplicity
 _atom_site_fract_x
 _atom_site_fract_y
 _atom_site_fract_z
 _atom_site_occupancy
  Th  Th0  1  0.250000  0.250000  0.250000  1
  Ag  Ag1  1  0.000000  0.000000  0.000000  1
  Pt  Pt2  1  0.122755  0.625748  0.625748  1
  Pt  Pt3  1  0.625748  0.625748  0.625748  1
  Pt  Pt4  1  0.625748  0.625748  0.122755  1
  Pt  Pt5  1  0.625748  0.122755  0.625748  1
