# generated using pymatgen
data_TmTh7(AlRu)8
_symmetry_space_group_name_H-M   'P 1'
_cell_length_a   4.14665500
_cell_length_b   7.23341175
_cell_length_c   16.11853943
_cell_angle_alpha   89.53412248
_cell_angle_beta   90.00000000
_cell_angle_gamma   90.00000000
_symmetry_Int_Tables_number   1
_chemical_formula_structural   TmTh7(AlRu)8
_chemical_formula_sum   'Tm1 Th7 Al8 Ru8'
_cell_volume   483.45095210
_cell_formula_units_Z   1
loop_
 _symmetry_equiv_pos_site_id
 _symmetry_equiv_pos_as_xyz
  1  'x, y, z'
loop_
 _atom_site_type_symbol
 _atom_site_label
 _atom_site_symmetry_multiplicity
 _atom_site_fract_x
 _atom_site_fract_y
 _atom_site_fract_z
 _atom_site_occupancy
  Tm  Tm0  1  0.250000  0.541758  0.716112  1
  Th  Th1  1  0.750000  0.959376  0.217830  1
  Th  Th2  1  0.250000  0.166761  0.563647  1
  Th  Th3  1  0.750000  0.833176  0.439687  1
  Th  Th4  1  0.750000  0.459071  0.282723  1
  Th  Th5  1  0.750000  0.333961  0.060458  1
  Th  Th6  1  0.250000  0.664689  0.935575  1
  Th  Th7  1  0.250000  0.038914  0.780015  1
  Al  Al8  1  0.750000  0.504134  0.567155  1
  Al  Al9  1  0.750000  0.369536  0.844832  1
  Al  Al10  1  0.750000  0.004996  0.936790  1
  Al  Al11  1  0.750000  0.855858  0.650878  1
  Al  Al12  1  0.250000  0.497046  0.439824  1
  Al  Al13  1  0.250000  0.995535  0.060744  1
  Al  Al14  1  0.250000  0.635530  0.148791  1
  Al  Al15  1  0.250000  0.136549  0.352315  1
  Ru  Ru16  1  0.750000  0.748668  0.817733  1
  Ru  Ru17  1  0.250000  0.240573  0.934214  1
  Ru  Ru18  1  0.750000  0.262065  0.437198  1
  Ru  Ru19  1  0.250000  0.756674  0.315621  1
  Ru  Ru20  1  0.750000  0.760588  0.063662  1
  Ru  Ru21  1  0.750000  0.240163  0.686429  1
  Ru  Ru22  1  0.250000  0.253185  0.183417  1
  Ru  Ru23  1  0.250000  0.741194  0.564353  1
