# generated using pymatgen
data_Li4Ac3Si4
_symmetry_space_group_name_H-M   'P 1'
_cell_length_a   4.62799386
_cell_length_b   7.05595229
_cell_length_c   8.77636756
_cell_angle_alpha   113.70238309
_cell_angle_beta   105.28747845
_cell_angle_gamma   90.00000257
_symmetry_Int_Tables_number   1
_chemical_formula_structural   Li4Ac3Si4
_chemical_formula_sum   'Li4 Ac3 Si4'
_cell_volume   251.30156870
_cell_formula_units_Z   1
loop_
 _symmetry_equiv_pos_site_id
 _symmetry_equiv_pos_as_xyz
  1  'x, y, z'
loop_
 _atom_site_type_symbol
 _atom_site_label
 _atom_site_symmetry_multiplicity
 _atom_site_fract_x
 _atom_site_fract_y
 _atom_site_fract_z
 _atom_site_occupancy
  Li  Li0  1  0.670629  0.981872  0.341257  1
  Li  Li1  1  0.329371  0.018128  0.658743  1
  Li  Li2  1  0.329371  0.640617  0.658743  1
  Li  Li3  1  0.670629  0.359383  0.341257  1
  Ac  Ac4  1  0.000000  0.000000  0.000000  1
  Ac  Ac5  1  0.133966  0.633966  0.267933  1
  Ac  Ac6  1  0.866034  0.366034  0.732067  1
  Si  Si7  1  0.500000  0.671105  0.000000  1
  Si  Si8  1  0.500000  0.328895  0.000000  1
  Si  Si9  1  0.787580  0.787580  0.575159  1
  Si  Si10  1  0.212420  0.212420  0.424841  1
