# generated using pymatgen
data_NaNd4Sn15(PtRh3)2
_symmetry_space_group_name_H-M   'P 1'
_cell_length_a   4.53558700
_cell_length_b   7.27101132
_cell_length_c   18.92620092
_cell_angle_alpha   89.94762906
_cell_angle_beta   90.00000000
_cell_angle_gamma   90.00000000
_symmetry_Int_Tables_number   1
_chemical_formula_structural   NaNd4Sn15(PtRh3)2
_chemical_formula_sum   'Na1 Nd4 Sn15 Pt2 Rh6'
_cell_volume   624.15375472
_cell_formula_units_Z   1
loop_
 _symmetry_equiv_pos_site_id
 _symmetry_equiv_pos_as_xyz
  1  'x, y, z'
loop_
 _atom_site_type_symbol
 _atom_site_label
 _atom_site_symmetry_multiplicity
 _atom_site_fract_x
 _atom_site_fract_y
 _atom_site_fract_z
 _atom_site_occupancy
  Na  Na0  1  0.500000  0.007266  0.854921  1
  Nd  Nd1  1  0.500000  0.497706  0.358894  1
  Nd  Nd2  1  0.000000  0.997550  0.143974  1
  Nd  Nd3  1  0.000000  0.500413  0.640711  1
  Nd  Nd4  1  0.500000  0.496633  0.927280  1
  Sn  Sn5  1  0.000000  0.724783  0.805308  1
  Sn  Sn6  1  0.000000  0.779283  0.306538  1
  Sn  Sn7  1  0.500000  0.276311  0.195534  1
  Sn  Sn8  1  0.500000  0.215780  0.694502  1
  Sn  Sn9  1  0.000000  0.851920  0.965781  1
  Sn  Sn10  1  0.000000  0.633103  0.468385  1
  Sn  Sn11  1  0.500000  0.133603  0.032962  1
  Sn  Sn12  1  0.500000  0.365034  0.531403  1
  Sn  Sn13  1  0.000000  0.299453  0.816990  1
  Sn  Sn14  1  0.000000  0.200278  0.318896  1
  Sn  Sn15  1  0.500000  0.698856  0.189546  1
  Sn  Sn16  1  0.500000  0.806516  0.678649  1
  Sn  Sn17  1  0.500000  0.019450  0.432964  1
  Sn  Sn18  1  0.000000  0.513783  0.068908  1
  Sn  Sn19  1  0.000000  0.980631  0.567755  1
  Pt  Pt20  1  0.000000  0.233436  0.965817  1
  Pt  Pt21  1  0.500000  0.759197  0.047844  1
  Rh  Rh22  1  0.000000  0.249031  0.465306  1
  Rh  Rh23  1  0.500000  0.750058  0.532178  1
  Rh  Rh24  1  0.000000  0.018247  0.712899  1
  Rh  Rh25  1  0.000000  0.484244  0.212783  1
  Rh  Rh26  1  0.500000  0.987761  0.289898  1
  Rh  Rh27  1  0.500000  0.519671  0.773375  1
