# generated using pymatgen
data_Dy9Ho(Bi2Os)2
_symmetry_space_group_name_H-M   'P 1'
_cell_length_a   7.96060926
_cell_length_b   9.03162692
_cell_length_c   12.49324112
_cell_angle_alpha   90.01928704
_cell_angle_beta   89.99324387
_cell_angle_gamma   89.98035938
_symmetry_Int_Tables_number   1
_chemical_formula_structural   Dy9Ho(Bi2Os)2
_chemical_formula_sum   'Dy18 Ho2 Bi8 Os4'
_cell_volume   898.22960548
_cell_formula_units_Z   2
loop_
 _symmetry_equiv_pos_site_id
 _symmetry_equiv_pos_as_xyz
  1  'x, y, z'
loop_
 _atom_site_type_symbol
 _atom_site_label
 _atom_site_symmetry_multiplicity
 _atom_site_fract_x
 _atom_site_fract_y
 _atom_site_fract_z
 _atom_site_occupancy
  Dy  Dy0  1  0.342240  0.749980  0.708240  1
  Dy  Dy1  1  0.657760  0.250020  0.291760  1
  Dy  Dy2  1  0.842398  0.249812  0.791939  1
  Dy  Dy3  1  0.157602  0.750188  0.208061  1
  Dy  Dy4  1  0.878209  0.750540  0.807059  1
  Dy  Dy5  1  0.121791  0.249460  0.192941  1
  Dy  Dy6  1  0.378194  0.250073  0.693295  1
  Dy  Dy7  1  0.621806  0.749927  0.306705  1
  Dy  Dy8  1  0.675060  0.542339  0.563631  1
  Dy  Dy9  1  0.324940  0.457661  0.436369  1
  Dy  Dy10  1  0.175103  0.457793  0.936390  1
  Dy  Dy11  1  0.325050  0.042344  0.436295  1
  Dy  Dy12  1  0.824897  0.542207  0.063610  1
  Dy  Dy13  1  0.674950  0.957656  0.563705  1
  Dy  Dy14  1  0.057742  0.750020  0.496029  1
  Dy  Dy15  1  0.942258  0.249980  0.503971  1
  Dy  Dy16  1  0.557804  0.249521  0.004069  1
  Dy  Dy17  1  0.442196  0.750479  0.995931  1
  Ho  Ho18  1  0.825934  0.957674  0.063659  1
  Ho  Ho19  1  0.174066  0.042326  0.936341  1
  Bi  Bi20  1  0.570725  0.507949  0.828100  1
  Bi  Bi21  1  0.429275  0.492051  0.171900  1
  Bi  Bi22  1  0.070415  0.492167  0.672151  1
  Bi  Bi23  1  0.429974  0.007763  0.171946  1
  Bi  Bi24  1  0.929585  0.507833  0.327849  1
  Bi  Bi25  1  0.570026  0.992237  0.828054  1
  Bi  Bi26  1  0.929321  0.992059  0.327900  1
  Bi  Bi27  1  0.070679  0.007941  0.672100  1
  Os  Os28  1  0.075533  0.750400  0.989638  1
  Os  Os29  1  0.924467  0.249600  0.010362  1
  Os  Os30  1  0.575911  0.250036  0.510445  1
  Os  Os31  1  0.424089  0.749964  0.489555  1
