# generated using pymatgen
data_Pr6ZrCo17P12
_symmetry_space_group_name_H-M   'P 1'
_cell_length_a   3.77144700
_cell_length_b   10.71940200
_cell_length_c   12.54523900
_cell_angle_alpha   90.00000000
_cell_angle_beta   90.00000000
_cell_angle_gamma   90.00000000
_symmetry_Int_Tables_number   1
_chemical_formula_structural   Pr6ZrCo17P12
_chemical_formula_sum   'Pr6 Zr1 Co17 P12'
_cell_volume   507.17461319
_cell_formula_units_Z   1
loop_
 _symmetry_equiv_pos_site_id
 _symmetry_equiv_pos_as_xyz
  1  'x, y, z'
loop_
 _atom_site_type_symbol
 _atom_site_label
 _atom_site_symmetry_multiplicity
 _atom_site_fract_x
 _atom_site_fract_y
 _atom_site_fract_z
 _atom_site_occupancy
  Pr  Pr0  1  0.000000  0.500000  0.529714  1
  Pr  Pr1  1  0.500000  0.000000  0.479042  1
  Pr  Pr2  1  0.500000  0.819782  0.207493  1
  Pr  Pr3  1  0.500000  0.180218  0.207493  1
  Pr  Pr4  1  0.000000  0.684217  0.795328  1
  Pr  Pr5  1  0.000000  0.315783  0.795328  1
  Zr  Zr6  1  0.500000  0.500000  0.151754  1
  Co  Co7  1  0.000000  0.000000  0.838889  1
  Co  Co8  1  0.500000  0.500000  0.704948  1
  Co  Co9  1  0.000000  0.000000  0.294501  1
  Co  Co10  1  0.000000  0.500000  0.983336  1
  Co  Co11  1  0.500000  0.000000  0.012188  1
  Co  Co12  1  0.500000  0.326807  0.988867  1
  Co  Co13  1  0.500000  0.673193  0.988867  1
  Co  Co14  1  0.000000  0.160822  0.000251  1
  Co  Co15  1  0.000000  0.839178  0.000251  1
  Co  Co16  1  0.500000  0.294987  0.434496  1
  Co  Co17  1  0.500000  0.705013  0.434496  1
  Co  Co18  1  0.000000  0.201513  0.570748  1
  Co  Co19  1  0.000000  0.798487  0.570748  1
  Co  Co20  1  0.500000  0.883032  0.709389  1
  Co  Co21  1  0.500000  0.116968  0.709389  1
  Co  Co22  1  0.000000  0.619472  0.300218  1
  Co  Co23  1  0.000000  0.380528  0.300218  1
  P  P24  1  0.500000  0.500000  0.884836  1
  P  P25  1  0.000000  0.000000  0.112152  1
  P  P26  1  0.500000  0.500000  0.356683  1
  P  P27  1  0.000000  0.000000  0.660233  1
  P  P28  1  0.500000  0.302764  0.615817  1
  P  P29  1  0.500000  0.697236  0.615817  1
  P  P30  1  0.000000  0.193711  0.389012  1
  P  P31  1  0.000000  0.806289  0.389012  1
  P  P32  1  0.500000  0.854953  0.890693  1
  P  P33  1  0.500000  0.145047  0.890693  1
  P  P34  1  0.000000  0.662995  0.093551  1
  P  P35  1  0.000000  0.337005  0.093551  1
