# generated using pymatgen
data_La5Nd(GaRh)4
_symmetry_space_group_name_H-M   'P 1'
_cell_length_a   5.75869534
_cell_length_b   8.36884557
_cell_length_c   13.71110000
_cell_angle_alpha   90.00000000
_cell_angle_beta   90.00000000
_cell_angle_gamma   90.29556829
_symmetry_Int_Tables_number   1
_chemical_formula_structural   La5Nd(GaRh)4
_chemical_formula_sum   'La10 Nd2 Ga8 Rh8'
_cell_volume   660.77891542
_cell_formula_units_Z   2
loop_
 _symmetry_equiv_pos_site_id
 _symmetry_equiv_pos_as_xyz
  1  'x, y, z'
loop_
 _atom_site_type_symbol
 _atom_site_label
 _atom_site_symmetry_multiplicity
 _atom_site_fract_x
 _atom_site_fract_y
 _atom_site_fract_z
 _atom_site_occupancy
  La  La0  1  0.363938  0.761983  0.250000  1
  La  La1  1  0.636062  0.238017  0.750000  1
  La  La2  1  0.153046  0.402249  0.095503  1
  La  La3  1  0.846954  0.597751  0.904497  1
  La  La4  1  0.846954  0.597751  0.595503  1
  La  La5  1  0.848413  0.901526  0.404227  1
  La  La6  1  0.153046  0.402249  0.404497  1
  La  La7  1  0.151587  0.098474  0.595773  1
  La  La8  1  0.151587  0.098474  0.904227  1
  La  La9  1  0.848413  0.901526  0.095773  1
  Nd  Nd10  1  0.639444  0.258643  0.250000  1
  Nd  Nd11  1  0.360556  0.741357  0.750000  1
  Ga  Ga12  1  0.142105  0.114553  0.250000  1
  Ga  Ga13  1  0.857895  0.885447  0.750000  1
  Ga  Ga14  1  0.860154  0.607531  0.250000  1
  Ga  Ga15  1  0.139846  0.392469  0.750000  1
  Ga  Ga16  1  0.632581  0.249682  0.001769  1
  Ga  Ga17  1  0.367419  0.750318  0.998231  1
  Ga  Ga18  1  0.367419  0.750318  0.501769  1
  Ga  Ga19  1  0.632581  0.249682  0.498231  1
  Rh  Rh20  1  0.360795  0.028757  0.091377  1
  Rh  Rh21  1  0.639205  0.971243  0.908623  1
  Rh  Rh22  1  0.639205  0.971243  0.591377  1
  Rh  Rh23  1  0.635929  0.530706  0.408526  1
  Rh  Rh24  1  0.360795  0.028757  0.408623  1
  Rh  Rh25  1  0.364071  0.469294  0.591474  1
  Rh  Rh26  1  0.364071  0.469294  0.908526  1
  Rh  Rh27  1  0.635929  0.530706  0.091474  1
