# generated using pymatgen
data_CeHoP7Ru12
_symmetry_space_group_name_H-M   'P 1'
_cell_length_a   9.44765300
_cell_length_b   9.44765231
_cell_length_c   3.94860600
_cell_angle_alpha   90.00000000
_cell_angle_beta   90.00000000
_cell_angle_gamma   119.99999890
_symmetry_Int_Tables_number   1
_chemical_formula_structural   CeHoP7Ru12
_chemical_formula_sum   'Ce1 Ho1 P7 Ru12'
_cell_volume   305.22652600
_cell_formula_units_Z   1
loop_
 _symmetry_equiv_pos_site_id
 _symmetry_equiv_pos_as_xyz
  1  'x, y, z'
loop_
 _atom_site_type_symbol
 _atom_site_label
 _atom_site_symmetry_multiplicity
 _atom_site_fract_x
 _atom_site_fract_y
 _atom_site_fract_z
 _atom_site_occupancy
  Ce  Ce0  1  0.333333  0.666667  0.000000  1
  Ho  Ho1  1  0.666667  0.333333  0.500000  1
  P  P2  1  0.604035  0.717160  0.500000  1
  P  P3  1  0.000000  0.000000  0.000000  1
  P  P4  1  0.282840  0.886875  0.500000  1
  P  P5  1  0.113125  0.395965  0.500000  1
  P  P6  1  0.885965  0.573042  0.000000  1
  P  P7  1  0.426958  0.312922  0.000000  1
  P  P8  1  0.687078  0.114035  0.000000  1
  Ru  Ru9  1  0.555860  0.948032  0.500000  1
  Ru  Ru10  1  0.392173  0.444140  0.500000  1
  Ru  Ru11  1  0.913089  0.120246  0.500000  1
  Ru  Ru12  1  0.207157  0.086911  0.500000  1
  Ru  Ru13  1  0.879754  0.792843  0.500000  1
  Ru  Ru14  1  0.727406  0.891436  0.000000  1
  Ru  Ru15  1  0.108564  0.835970  0.000000  1
  Ru  Ru16  1  0.164030  0.272594  0.000000  1
  Ru  Ru17  1  0.424567  0.069021  0.000000  1
  Ru  Ru18  1  0.930979  0.355547  0.000000  1
  Ru  Ru19  1  0.644453  0.575433  0.000000  1
  Ru  Ru20  1  0.051968  0.607827  0.500000  1
