# generated using pymatgen
data_Tm4Th6SnBi5C2
_symmetry_space_group_name_H-M   'P 1'
_cell_length_a   9.29159489
_cell_length_b   9.29159620
_cell_length_c   6.45487500
_cell_angle_alpha   90.00000000
_cell_angle_beta   90.00000000
_cell_angle_gamma   119.94972004
_symmetry_Int_Tables_number   1
_chemical_formula_structural   Tm4Th6SnBi5C2
_chemical_formula_sum   'Tm4 Th6 Sn1 Bi5 C2'
_cell_volume   482.85738360
_cell_formula_units_Z   1
loop_
 _symmetry_equiv_pos_site_id
 _symmetry_equiv_pos_as_xyz
  1  'x, y, z'
loop_
 _atom_site_type_symbol
 _atom_site_label
 _atom_site_symmetry_multiplicity
 _atom_site_fract_x
 _atom_site_fract_y
 _atom_site_fract_z
 _atom_site_occupancy
  Tm  Tm0  1  0.664367  0.334131  0.998221  1
  Tm  Tm1  1  0.334131  0.664367  0.998221  1
  Tm  Tm2  1  0.334131  0.664367  0.501779  1
  Tm  Tm3  1  0.664367  0.334131  0.501779  1
  Th  Th4  1  0.776294  0.776294  0.750000  1
  Th  Th5  1  0.222187  0.002996  0.750000  1
  Th  Th6  1  0.002996  0.222187  0.750000  1
  Th  Th7  1  0.223332  0.223332  0.250000  1
  Th  Th8  1  0.779381  0.000267  0.250000  1
  Th  Th9  1  0.000267  0.779381  0.250000  1
  Sn  Sn10  1  0.407078  0.407078  0.750000  1
  Bi  Bi11  1  0.593712  0.000336  0.750000  1
  Bi  Bi12  1  0.000336  0.593712  0.750000  1
  Bi  Bi13  1  0.592203  0.592203  0.250000  1
  Bi  Bi14  1  0.406917  0.999753  0.250000  1
  Bi  Bi15  1  0.999753  0.406917  0.250000  1
  C  C16  1  0.999272  0.999272  0.000458  1
  C  C17  1  0.999272  0.999272  0.499542  1
