# generated using pymatgen
data_Ho4Lu8Tc3Pt
_symmetry_space_group_name_H-M   'P 1'
_cell_length_a   6.22412399
_cell_length_b   7.31049896
_cell_length_c   9.00144300
_cell_angle_alpha   90.00000000
_cell_angle_beta   90.00000000
_cell_angle_gamma   90.00302558
_symmetry_Int_Tables_number   1
_chemical_formula_structural   Ho4Lu8Tc3Pt
_chemical_formula_sum   'Ho4 Lu8 Tc3 Pt1'
_cell_volume   409.57872589
_cell_formula_units_Z   1
loop_
 _symmetry_equiv_pos_site_id
 _symmetry_equiv_pos_as_xyz
  1  'x, y, z'
loop_
 _atom_site_type_symbol
 _atom_site_label
 _atom_site_symmetry_multiplicity
 _atom_site_fract_x
 _atom_site_fract_y
 _atom_site_fract_z
 _atom_site_occupancy
  Ho  Ho0  1  0.874022  0.542306  0.250000  1
  Ho  Ho1  1  0.622587  0.038111  0.250000  1
  Ho  Ho2  1  0.127885  0.455911  0.750000  1
  Ho  Ho3  1  0.372144  0.964651  0.750000  1
  Lu  Lu4  1  0.329997  0.676523  0.066724  1
  Lu  Lu5  1  0.164406  0.177648  0.436319  1
  Lu  Lu6  1  0.666669  0.318333  0.558777  1
  Lu  Lu7  1  0.837516  0.827083  0.940301  1
  Lu  Lu8  1  0.666669  0.318333  0.941223  1
  Lu  Lu9  1  0.837516  0.827083  0.559699  1
  Lu  Lu10  1  0.329997  0.676523  0.433276  1
  Lu  Lu11  1  0.164406  0.177648  0.063681  1
  Tc  Tc12  1  0.038673  0.885871  0.250000  1
  Tc  Tc13  1  0.463220  0.387195  0.250000  1
  Tc  Tc14  1  0.956346  0.114005  0.750000  1
  Pt  Pt15  1  0.547950  0.612772  0.750000  1
