# generated using pymatgen
data_NaGd8Er11Pb16
_symmetry_space_group_name_H-M   'P 1'
_cell_length_a   8.21642854
_cell_length_b   8.32141759
_cell_length_c   15.67736600
_cell_angle_alpha   89.98675261
_cell_angle_beta   90.13118917
_cell_angle_gamma   90.11012668
_symmetry_Int_Tables_number   1
_chemical_formula_structural   NaGd8Er11Pb16
_chemical_formula_sum   'Na1 Gd8 Er11 Pb16'
_cell_volume   1071.89327016
_cell_formula_units_Z   1
loop_
 _symmetry_equiv_pos_site_id
 _symmetry_equiv_pos_as_xyz
  1  'x, y, z'
loop_
 _atom_site_type_symbol
 _atom_site_label
 _atom_site_symmetry_multiplicity
 _atom_site_fract_x
 _atom_site_fract_y
 _atom_site_fract_z
 _atom_site_occupancy
  Na  Na0  1  0.136297  0.348549  0.621125  1
  Gd  Gd1  1  0.471379  0.677659  0.596720  1
  Gd  Gd2  1  0.973994  0.817307  0.904906  1
  Gd  Gd3  1  0.526688  0.321751  0.097932  1
  Gd  Gd4  1  0.027711  0.180251  0.405286  1
  Gd  Gd5  1  0.527370  0.321830  0.402188  1
  Gd  Gd6  1  0.026645  0.176336  0.097293  1
  Gd  Gd7  1  0.472750  0.680108  0.904085  1
  Gd  Gd8  1  0.978741  0.815363  0.594023  1
  Er  Er9  1  0.632588  0.159625  0.622090  1
  Er  Er10  1  0.134090  0.341883  0.879254  1
  Er  Er11  1  0.365290  0.844424  0.122172  1
  Er  Er12  1  0.865552  0.656315  0.376638  1
  Er  Er13  1  0.365386  0.844130  0.377129  1
  Er  Er14  1  0.865343  0.656054  0.122876  1
  Er  Er15  1  0.633454  0.155734  0.878869  1
  Er  Er16  1  0.801876  0.492213  0.747878  1
  Er  Er17  1  0.297173  0.007318  0.748762  1
  Er  Er18  1  0.199427  0.503908  0.250193  1
  Er  Er19  1  0.699755  0.996583  0.249804  1
  Pb  Pb20  1  0.708009  0.961922  0.456960  1
  Pb  Pb21  1  0.207414  0.538983  0.043859  1
  Pb  Pb22  1  0.289519  0.037609  0.956483  1
  Pb  Pb23  1  0.786425  0.465527  0.542007  1
  Pb  Pb24  1  0.297677  0.041314  0.543935  1
  Pb  Pb25  1  0.790648  0.460840  0.956060  1
  Pb  Pb26  1  0.709036  0.959337  0.042896  1
  Pb  Pb27  1  0.205760  0.540093  0.455734  1
  Pb  Pb28  1  0.440246  0.376728  0.755028  1
  Pb  Pb29  1  0.937295  0.118609  0.746159  1
  Pb  Pb30  1  0.558723  0.627410  0.249415  1
  Pb  Pb31  1  0.059446  0.873982  0.250072  1
  Pb  Pb32  1  0.665581  0.847647  0.750643  1
  Pb  Pb33  1  0.165946  0.653903  0.751541  1
  Pb  Pb34  1  0.337755  0.153737  0.249836  1
  Pb  Pb35  1  0.839013  0.345016  0.250152  1
