# generated using pymatgen
data_YNpScO6
_symmetry_space_group_name_H-M   'P 1'
_cell_length_a   5.46016300
_cell_length_b   7.67592876
_cell_length_c   11.57262748
_cell_angle_alpha   76.52192591
_cell_angle_beta   90.00000000
_cell_angle_gamma   90.00000000
_symmetry_Int_Tables_number   1
_chemical_formula_structural   YNpScO6
_chemical_formula_sum   'Y4 Np4 Sc4 O24'
_cell_volume   471.67178562
_cell_formula_units_Z   4
loop_
 _symmetry_equiv_pos_site_id
 _symmetry_equiv_pos_as_xyz
  1  'x, y, z'
loop_
 _atom_site_type_symbol
 _atom_site_label
 _atom_site_symmetry_multiplicity
 _atom_site_fract_x
 _atom_site_fract_y
 _atom_site_fract_z
 _atom_site_occupancy
  Y  Y0  1  0.228011  0.000000  0.750000  1
  Y  Y1  1  0.771989  0.000000  0.250000  1
  Y  Y2  1  0.294575  0.500000  0.750000  1
  Y  Y3  1  0.705425  0.500000  0.250000  1
  Np  Np4  1  0.728069  0.730964  0.891649  1
  Np  Np5  1  0.271931  0.730964  0.391649  1
  Np  Np6  1  0.728069  0.269036  0.608351  1
  Np  Np7  1  0.271931  0.269036  0.108351  1
  Sc  Sc8  1  0.205821  0.775065  0.093625  1
  Sc  Sc9  1  0.205821  0.224935  0.406375  1
  Sc  Sc10  1  0.794179  0.224935  0.906375  1
  Sc  Sc11  1  0.794179  0.775065  0.593625  1
  O  O12  1  0.887238  0.351505  0.442273  1
  O  O13  1  0.403465  0.841769  0.939681  1
  O  O14  1  0.887238  0.648495  0.057727  1
  O  O15  1  0.016959  0.288487  0.726379  1
  O  O16  1  0.983041  0.288487  0.226379  1
  O  O17  1  0.112762  0.351505  0.942273  1
  O  O18  1  0.609138  0.482065  0.886099  1
  O  O19  1  0.596535  0.158231  0.060319  1
  O  O20  1  0.112762  0.648495  0.557727  1
  O  O21  1  0.016959  0.711513  0.773621  1
  O  O22  1  0.468255  0.204812  0.273345  1
  O  O23  1  0.095014  0.969101  0.388005  1
  O  O24  1  0.403465  0.158231  0.560319  1
  O  O25  1  0.983041  0.711513  0.273621  1
  O  O26  1  0.904986  0.030899  0.611995  1
  O  O27  1  0.531745  0.204812  0.773345  1
  O  O28  1  0.531745  0.795188  0.726655  1
  O  O29  1  0.095014  0.030899  0.111995  1
  O  O30  1  0.609138  0.517935  0.613901  1
  O  O31  1  0.390862  0.517935  0.113901  1
  O  O32  1  0.468255  0.795188  0.226655  1
  O  O33  1  0.390862  0.482065  0.386099  1
  O  O34  1  0.596535  0.841769  0.439681  1
  O  O35  1  0.904986  0.969101  0.888005  1
