# generated using pymatgen
data_NdBi5(TeO6)3
_symmetry_space_group_name_H-M   'P 1'
_cell_length_a   9.38371400
_cell_length_b   9.33394773
_cell_length_c   5.51742082
_cell_angle_alpha   90.59829945
_cell_angle_beta   90.00000000
_cell_angle_gamma   120.17653013
_symmetry_Int_Tables_number   1
_chemical_formula_structural   NdBi5(TeO6)3
_chemical_formula_sum   'Nd1 Bi5 Te3 O18'
_cell_volume   417.73406627
_cell_formula_units_Z   1
loop_
 _symmetry_equiv_pos_site_id
 _symmetry_equiv_pos_as_xyz
  1  'x, y, z'
loop_
 _atom_site_type_symbol
 _atom_site_label
 _atom_site_symmetry_multiplicity
 _atom_site_fract_x
 _atom_site_fract_y
 _atom_site_fract_z
 _atom_site_occupancy
  Nd  Nd0  1  0.615187  0.000000  0.000000  1
  Bi  Bi1  1  0.000049  0.626267  0.998453  1
  Bi  Bi2  1  0.998726  0.286218  0.499581  1
  Bi  Bi3  1  0.373781  0.373733  0.001547  1
  Bi  Bi4  1  0.283743  0.000000  0.500000  1
  Bi  Bi5  1  0.712508  0.713782  0.500419  1
  Te  Te6  1  0.334557  0.668518  0.485995  1
  Te  Te7  1  0.000343  0.000000  0.000000  1
  Te  Te8  1  0.666040  0.331482  0.514005  1
  O  O9  1  0.078151  0.874911  0.804592  1
  O  O10  1  0.236840  0.765607  0.272518  1
  O  O11  1  0.138297  0.550350  0.687007  1
  O  O12  1  0.408284  0.866407  0.693673  1
  O  O13  1  0.237510  0.467732  0.278526  1
  O  O14  1  0.124720  0.196914  0.797547  1
  O  O15  1  0.203242  0.125089  0.195408  1
  O  O16  1  0.531088  0.772096  0.282020  1
  O  O17  1  0.456511  0.598089  0.693974  1
  O  O18  1  0.803667  0.922969  0.801183  1
  O  O19  1  0.471234  0.234393  0.727482  1
  O  O20  1  0.587947  0.449650  0.312993  1
  O  O21  1  0.541877  0.133593  0.306327  1
  O  O22  1  0.769778  0.532268  0.721474  1
  O  O23  1  0.927807  0.803086  0.202453  1
  O  O24  1  0.758992  0.227904  0.717980  1
  O  O25  1  0.858422  0.401911  0.306026  1
  O  O26  1  0.880698  0.077031  0.198817  1
