# generated using pymatgen
data_Er2TmZn4InPt4
_symmetry_space_group_name_H-M   'P 1'
_cell_length_a   4.16092100
_cell_length_b   6.83861161
_cell_length_c   8.06141524
_cell_angle_alpha   87.67593146
_cell_angle_beta   90.00000000
_cell_angle_gamma   90.00000000
_symmetry_Int_Tables_number   1
_chemical_formula_structural   Er2TmZn4InPt4
_chemical_formula_sum   'Er2 Tm1 Zn4 In1 Pt4'
_cell_volume   229.19826445
_cell_formula_units_Z   1
loop_
 _symmetry_equiv_pos_site_id
 _symmetry_equiv_pos_as_xyz
  1  'x, y, z'
loop_
 _atom_site_type_symbol
 _atom_site_label
 _atom_site_symmetry_multiplicity
 _atom_site_fract_x
 _atom_site_fract_y
 _atom_site_fract_z
 _atom_site_occupancy
  Er  Er0  1  0.250000  0.536236  0.186884  1
  Er  Er1  1  0.750000  0.458916  0.821021  1
  Tm  Tm2  1  0.750000  0.962634  0.670898  1
  Zn  Zn3  1  0.250000  0.636769  0.561710  1
  Zn  Zn4  1  0.250000  0.136238  0.942500  1
  Zn  Zn5  1  0.750000  0.364742  0.439493  1
  Zn  Zn6  1  0.750000  0.865604  0.057382  1
  In  In7  1  0.250000  0.040338  0.321239  1
  Pt  Pt8  1  0.250000  0.252603  0.624419  1
  Pt  Pt9  1  0.250000  0.754773  0.871168  1
  Pt  Pt10  1  0.750000  0.748285  0.374475  1
  Pt  Pt11  1  0.750000  0.242862  0.128812  1
