# generated using pymatgen
data_Sr6Fe2TcO12
_symmetry_space_group_name_H-M   'P 1'
_cell_length_a   8.87440335
_cell_length_b   8.87440354
_cell_length_c   6.95377168
_cell_angle_alpha   67.46694818
_cell_angle_beta   67.46694653
_cell_angle_gamma   36.66562881
_symmetry_Int_Tables_number   1
_chemical_formula_structural   Sr6Fe2TcO12
_chemical_formula_sum   'Sr6 Fe2 Tc1 O12'
_cell_volume   299.18934892
_cell_formula_units_Z   1
loop_
 _symmetry_equiv_pos_site_id
 _symmetry_equiv_pos_as_xyz
  1  'x, y, z'
loop_
 _atom_site_type_symbol
 _atom_site_label
 _atom_site_symmetry_multiplicity
 _atom_site_fract_x
 _atom_site_fract_y
 _atom_site_fract_z
 _atom_site_occupancy
  Sr  Sr0  1  0.221565  0.221565  0.710226  1
  Sr  Sr1  1  0.874175  0.874175  0.715270  1
  Sr  Sr2  1  0.547951  0.547951  0.705049  1
  Sr  Sr3  1  0.778435  0.778435  0.289774  1
  Sr  Sr4  1  0.452049  0.452049  0.294951  1
  Sr  Sr5  1  0.125825  0.125825  0.284730  1
  Fe  Fe6  1  0.668840  0.668840  0.998272  1
  Fe  Fe7  1  0.331160  0.331160  0.001728  1
  Tc  Tc8  1  0.000000  0.000000  0.000000  1
  O  O9  1  0.282748  0.282748  0.324747  1
  O  O10  1  0.948057  0.948057  0.311988  1
  O  O11  1  0.608964  0.608964  0.324210  1
  O  O12  1  0.717252  0.717252  0.675253  1
  O  O13  1  0.391036  0.391036  0.675790  1
  O  O14  1  0.051943  0.051943  0.688012  1
  O  O15  1  0.000000  0.500000  0.000000  1
  O  O16  1  0.675031  0.165218  0.999494  1
  O  O17  1  0.324969  0.834782  0.000506  1
  O  O18  1  0.500000  0.000000  0.000000  1
  O  O19  1  0.165218  0.675031  0.999494  1
  O  O20  1  0.834782  0.324969  0.000506  1
