# generated using pymatgen
data_BaS23
_symmetry_space_group_name_H-M   'P 1'
_cell_length_a   5.56865549
_cell_length_b   9.40505821
_cell_length_c   15.36724620
_cell_angle_alpha   90.01412736
_cell_angle_beta   82.18939687
_cell_angle_gamma   92.58481802
_symmetry_Int_Tables_number   1
_chemical_formula_structural   BaS23
_chemical_formula_sum   'Ba1 S23'
_cell_volume   796.54485878
_cell_formula_units_Z   1
loop_
 _symmetry_equiv_pos_site_id
 _symmetry_equiv_pos_as_xyz
  1  'x, y, z'
loop_
 _atom_site_type_symbol
 _atom_site_label
 _atom_site_symmetry_multiplicity
 _atom_site_fract_x
 _atom_site_fract_y
 _atom_site_fract_z
 _atom_site_occupancy
  Ba  Ba0  1  0.386610  0.167675  0.413748  1
  S  S1  1  0.508090  0.806950  0.385561  1
  S  S2  1  0.013541  0.306947  0.120294  1
  S  S3  1  0.844802  0.246651  0.493749  1
  S  S4  1  0.291926  0.787370  0.505499  1
  S  S5  1  0.189531  0.261285  0.997272  1
  S  S6  1  0.797854  0.734972  0.012703  1
  S  S7  1  0.146771  0.408969  0.336274  1
  S  S8  1  0.661517  0.606180  0.356683  1
  S  S9  1  0.811230  0.126393  0.168703  1
  S  S10  1  0.215476  0.870333  0.130030  1
  S  S11  1  0.699600  0.642654  0.622059  1
  S  S12  1  0.353240  0.342134  0.628900  1
  S  S13  1  0.204419  0.879668  0.854508  1
  S  S14  1  0.786504  0.124191  0.873267  1
  S  S15  1  0.002031  0.691041  0.111202  1
  S  S16  1  0.507058  0.820548  0.605505  1
  S  S17  1  0.597906  0.182145  0.601429  1
  S  S18  1  0.000651  0.696051  0.892865  1
  S  S19  1  0.980430  0.307332  0.900391  1
  S  S20  1  0.468169  0.493614  0.272769  1
  S  S21  1  0.031575  0.993251  0.226634  1
  S  S22  1  0.495851  0.497456  0.705990  1
  S  S23  1  0.005215  0.006187  0.783967  1
