# generated using pymatgen
data_Er3Tm5(TcI4)2
_symmetry_space_group_name_H-M   'P 1'
_cell_length_a   11.30969509
_cell_length_b   11.31123355
_cell_length_c   6.12020100
_cell_angle_alpha   89.27922196
_cell_angle_beta   89.33923220
_cell_angle_gamma   88.70053065
_symmetry_Int_Tables_number   1
_chemical_formula_structural   Er3Tm5(TcI4)2
_chemical_formula_sum   'Er3 Tm5 Tc2 I8'
_cell_volume   782.62369240
_cell_formula_units_Z   1
loop_
 _symmetry_equiv_pos_site_id
 _symmetry_equiv_pos_as_xyz
  1  'x, y, z'
loop_
 _atom_site_type_symbol
 _atom_site_label
 _atom_site_symmetry_multiplicity
 _atom_site_fract_x
 _atom_site_fract_y
 _atom_site_fract_z
 _atom_site_occupancy
  Er  Er0  1  0.196527  0.917389  0.996259  1
  Er  Er1  1  0.803430  0.083006  0.003548  1
  Er  Er2  1  0.082731  0.803440  0.504036  1
  Tm  Tm3  1  0.917951  0.194847  0.495759  1
  Tm  Tm4  1  0.806979  0.922147  0.506210  1
  Tm  Tm5  1  0.193007  0.077891  0.493692  1
  Tm  Tm6  1  0.077691  0.193242  0.993505  1
  Tm  Tm7  1  0.922014  0.807049  0.006366  1
  Tc  Tc8  1  0.000212  0.999758  0.249975  1
  Tc  Tc9  1  0.999818  0.000146  0.749902  1
  I  I10  1  0.356192  0.849428  0.509240  1
  I  I11  1  0.644570  0.151277  0.490873  1
  I  I12  1  0.150567  0.643842  0.990815  1
  I  I13  1  0.849433  0.356309  0.009828  1
  I  I14  1  0.351470  0.145306  0.996422  1
  I  I15  1  0.648459  0.854909  0.003551  1
  I  I16  1  0.854837  0.648637  0.503572  1
  I  I17  1  0.144110  0.351377  0.496448  1
