# generated using pymatgen
data_Tm2P7Ir7Ru5
_symmetry_space_group_name_H-M   'P 1'
_cell_length_a   9.59626683
_cell_length_b   9.59901580
_cell_length_c   3.88380500
_cell_angle_alpha   90.00000000
_cell_angle_beta   90.00000000
_cell_angle_gamma   120.36518452
_symmetry_Int_Tables_number   1
_chemical_formula_structural   Tm2P7Ir7Ru5
_chemical_formula_sum   'Tm2 P7 Ir7 Ru5'
_cell_volume   308.67904253
_cell_formula_units_Z   1
loop_
 _symmetry_equiv_pos_site_id
 _symmetry_equiv_pos_as_xyz
  1  'x, y, z'
loop_
 _atom_site_type_symbol
 _atom_site_label
 _atom_site_symmetry_multiplicity
 _atom_site_fract_x
 _atom_site_fract_y
 _atom_site_fract_z
 _atom_site_occupancy
  Tm  Tm0  1  0.000444  0.001416  0.000000  1
  Tm  Tm1  1  0.668624  0.331122  0.500000  1
  P  P2  1  0.453445  0.379722  0.000000  1
  P  P3  1  0.616553  0.069012  0.000000  1
  P  P4  1  0.928729  0.544824  0.000000  1
  P  P5  1  0.048368  0.264554  0.500000  1
  P  P6  1  0.740720  0.789694  0.500000  1
  P  P7  1  0.213742  0.951865  0.500000  1
  P  P8  1  0.329426  0.669751  0.000000  1
  Ir  Ir9  1  0.716631  0.595254  0.000000  1
  Ir  Ir10  1  0.401739  0.117716  0.000000  1
  Ir  Ir11  1  0.882236  0.283530  0.000000  1
  Ir  Ir12  1  0.264965  0.215162  0.500000  1
  Ir  Ir13  1  0.784217  0.049844  0.500000  1
  Ir  Ir14  1  0.947645  0.734159  0.500000  1
  Ir  Ir15  1  0.486634  0.552323  0.500000  1
  Ru  Ru16  1  0.219314  0.399196  0.000000  1
  Ru  Ru17  1  0.601190  0.816459  0.000000  1
  Ru  Ru18  1  0.177668  0.785841  0.000000  1
  Ru  Ru19  1  0.445110  0.927929  0.500000  1
  Ru  Ru20  1  0.072593  0.520626  0.500000  1
