# generated using pymatgen
data_DyHoTh2InNi4Ag
_symmetry_space_group_name_H-M   'P 1'
_cell_length_a   7.51286916
_cell_length_b   7.44320749
_cell_length_c   3.66125000
_cell_angle_alpha   90.00000000
_cell_angle_beta   90.00000000
_cell_angle_gamma   92.43155783
_symmetry_Int_Tables_number   1
_chemical_formula_structural   DyHoTh2InNi4Ag
_chemical_formula_sum   'Dy1 Ho1 Th2 In1 Ni4 Ag1'
_cell_volume   204.55218698
_cell_formula_units_Z   1
loop_
 _symmetry_equiv_pos_site_id
 _symmetry_equiv_pos_as_xyz
  1  'x, y, z'
loop_
 _atom_site_type_symbol
 _atom_site_label
 _atom_site_symmetry_multiplicity
 _atom_site_fract_x
 _atom_site_fract_y
 _atom_site_fract_z
 _atom_site_occupancy
  Dy  Dy0  1  0.823702  0.668468  0.500000  1
  Ho  Ho1  1  0.176655  0.331446  0.500000  1
  Th  Th2  1  0.667434  0.184461  0.500000  1
  Th  Th3  1  0.332415  0.816091  0.500000  1
  In  In4  1  0.000333  0.000385  0.000000  1
  Ni  Ni5  1  0.115662  0.629736  0.000000  1
  Ni  Ni6  1  0.885565  0.367986  0.000000  1
  Ni  Ni7  1  0.621937  0.883054  0.000000  1
  Ni  Ni8  1  0.377352  0.118529  0.000000  1
  Ag  Ag9  1  0.498947  0.499846  0.000000  1
