# generated using pymatgen
data_Ta18Al8ZnGe
_symmetry_space_group_name_H-M   'P 1'
_cell_length_a   9.93146751
_cell_length_b   9.93147086
_cell_length_c   9.93149713
_cell_angle_alpha   93.86794552
_cell_angle_beta   93.86793725
_cell_angle_gamma   149.89213734
_symmetry_Int_Tables_number   1
_chemical_formula_structural   Ta18Al8ZnGe
_chemical_formula_sum   'Ta18 Al8 Zn1 Ge1'
_cell_volume   474.52550464
_cell_formula_units_Z   1
loop_
 _symmetry_equiv_pos_site_id
 _symmetry_equiv_pos_as_xyz
  1  'x, y, z'
loop_
 _atom_site_type_symbol
 _atom_site_label
 _atom_site_symmetry_multiplicity
 _atom_site_fract_x
 _atom_site_fract_y
 _atom_site_fract_z
 _atom_site_occupancy
  Ta  Ta0  1  0.564625  0.791263  0.354943  1
  Ta  Ta1  1  0.082719  0.155099  0.240402  1
  Ta  Ta2  1  0.585297  0.344890  0.927611  1
  Ta  Ta3  1  0.657696  0.585293  0.240397  1
  Ta  Ta4  1  0.344901  0.417279  0.759597  1
  Ta  Ta5  1  0.791253  0.436340  0.226645  1
  Ta  Ta6  1  0.417301  0.657693  0.072396  1
  Ta  Ta7  1  0.155111  0.914702  0.072387  1
  Ta  Ta8  1  0.708739  0.935376  0.645058  1
  Ta  Ta9  1  0.436352  0.209693  0.645095  1
  Ta  Ta10  1  0.914708  0.842304  0.759602  1
  Ta  Ta11  1  0.063659  0.708747  0.773355  1
  Ta  Ta12  1  0.209676  0.564612  0.773348  1
  Ta  Ta13  1  0.249993  0.750006  0.499998  1
  Ta  Ta14  1  0.290306  0.063647  0.354905  1
  Ta  Ta15  1  0.749994  0.250007  0.500002  1
  Ta  Ta16  1  0.842306  0.082699  0.927605  1
  Ta  Ta17  1  0.935387  0.290325  0.226651  1
  Al  Al18  1  0.372245  0.872279  0.244524  1
  Al  Al19  1  0.872264  0.627738  0.500001  1
  Al  Al20  1  0.499927  0.000071  0.999999  1
  Al  Al21  1  0.127739  0.372261  0.500001  1
  Al  Al22  1  0.627721  0.127755  0.755476  1
  Al  Al23  1  0.000026  0.499973  0.999999  1
  Al  Al24  1  0.499952  0.499934  0.499903  1
  Al  Al25  1  0.000068  0.000050  0.500099  1
  Zn  Zn26  1  0.750014  0.749984  0.999998  1
  Ge  Ge27  1  0.250019  0.249981  0.999999  1
