# generated using pymatgen
data_Zr8Ti2GaCuSb6
_symmetry_space_group_name_H-M   'P 1'
_cell_length_a   8.59495200
_cell_length_b   8.59495393
_cell_length_c   5.77697500
_cell_angle_alpha   90.00000000
_cell_angle_beta   90.00000000
_cell_angle_gamma   119.99999259
_symmetry_Int_Tables_number   1
_chemical_formula_structural   Zr8Ti2GaCuSb6
_chemical_formula_sum   'Zr8 Ti2 Ga1 Cu1 Sb6'
_cell_volume   369.58825444
_cell_formula_units_Z   1
loop_
 _symmetry_equiv_pos_site_id
 _symmetry_equiv_pos_as_xyz
  1  'x, y, z'
loop_
 _atom_site_type_symbol
 _atom_site_label
 _atom_site_symmetry_multiplicity
 _atom_site_fract_x
 _atom_site_fract_y
 _atom_site_fract_z
 _atom_site_occupancy
  Zr  Zr0  1  0.333333  0.666667  0.500000  1
  Zr  Zr1  1  0.666667  0.333333  0.500000  1
  Zr  Zr2  1  0.732773  0.732773  0.748603  1
  Zr  Zr3  1  0.267227  0.000000  0.748603  1
  Zr  Zr4  1  0.000000  0.267227  0.748603  1
  Zr  Zr5  1  0.267227  0.267227  0.251397  1
  Zr  Zr6  1  0.732773  0.000000  0.251397  1
  Zr  Zr7  1  0.000000  0.732773  0.251397  1
  Ti  Ti8  1  0.666667  0.333333  0.000000  1
  Ti  Ti9  1  0.333333  0.666667  0.000000  1
  Ga  Ga10  1  0.000000  0.000000  0.500000  1
  Cu  Cu11  1  0.000000  0.000000  0.000000  1
  Sb  Sb12  1  0.388445  0.388445  0.757896  1
  Sb  Sb13  1  0.611555  0.000000  0.757896  1
  Sb  Sb14  1  0.000000  0.611555  0.757896  1
  Sb  Sb15  1  0.611555  0.611555  0.242104  1
  Sb  Sb16  1  0.388445  0.000000  0.242104  1
  Sb  Sb17  1  0.000000  0.388445  0.242104  1
