# generated using pymatgen
data_Er2FeCo2P7Ru9
_symmetry_space_group_name_H-M   'P 1'
_cell_length_a   9.29106055
_cell_length_b   9.30953572
_cell_length_c   3.83129400
_cell_angle_alpha   90.00000000
_cell_angle_beta   90.00000000
_cell_angle_gamma   119.89460669
_symmetry_Int_Tables_number   1
_chemical_formula_structural   Er2FeCo2P7Ru9
_chemical_formula_sum   'Er2 Fe1 Co2 P7 Ru9'
_cell_volume   287.29606112
_cell_formula_units_Z   1
loop_
 _symmetry_equiv_pos_site_id
 _symmetry_equiv_pos_as_xyz
  1  'x, y, z'
loop_
 _atom_site_type_symbol
 _atom_site_label
 _atom_site_symmetry_multiplicity
 _atom_site_fract_x
 _atom_site_fract_y
 _atom_site_fract_z
 _atom_site_occupancy
  Er  Er0  1  0.001503  0.000896  0.000000  1
  Er  Er1  1  0.333122  0.666648  0.500000  1
  Fe  Fe2  1  0.397695  0.175445  0.000000  1
  Co  Co3  1  0.825375  0.223600  0.000000  1
  Co  Co4  1  0.776854  0.602329  0.000000  1
  P  P5  1  0.079496  0.443256  0.000000  1
  P  P6  1  0.555662  0.636827  0.000000  1
  P  P7  1  0.362755  0.921199  0.000000  1
  P  P8  1  0.782808  0.049442  0.500000  1
  P  P9  1  0.951023  0.732917  0.500000  1
  P  P10  1  0.267963  0.215850  0.500000  1
  P  P11  1  0.664928  0.333165  0.000000  1
  Ru  Ru12  1  0.090415  0.694872  0.000000  1
  Ru  Ru13  1  0.304549  0.395268  0.000000  1
  Ru  Ru14  1  0.605503  0.910267  0.000000  1
  Ru  Ru15  1  0.050797  0.279211  0.500000  1
  Ru  Ru16  1  0.719362  0.769855  0.500000  1
  Ru  Ru17  1  0.228800  0.947850  0.500000  1
  Ru  Ru18  1  0.873420  0.453598  0.500000  1
  Ru  Ru19  1  0.547473  0.417945  0.500000  1
  Ru  Ru20  1  0.580497  0.129560  0.500000  1
