# generated using pymatgen
data_Yb5Sm2Ho3Ru4
_symmetry_space_group_name_H-M   'P 1'
_cell_length_a   6.45658118
_cell_length_b   7.27690478
_cell_length_c   8.58561091
_cell_angle_alpha   96.67617578
_cell_angle_beta   113.00920132
_cell_angle_gamma   90.31692921
_symmetry_Int_Tables_number   1
_chemical_formula_structural   Yb5Sm2Ho3Ru4
_chemical_formula_sum   'Yb5 Sm2 Ho3 Ru4'
_cell_volume   368.20177503
_cell_formula_units_Z   1
loop_
 _symmetry_equiv_pos_site_id
 _symmetry_equiv_pos_as_xyz
  1  'x, y, z'
loop_
 _atom_site_type_symbol
 _atom_site_label
 _atom_site_symmetry_multiplicity
 _atom_site_fract_x
 _atom_site_fract_y
 _atom_site_fract_z
 _atom_site_occupancy
  Yb  Yb0  1  0.975506  0.920476  0.177456  1
  Yb  Yb1  1  0.797512  0.580206  0.821730  1
  Yb  Yb2  1  0.021758  0.081431  0.822763  1
  Yb  Yb3  1  0.204481  0.418349  0.181098  1
  Yb  Yb4  1  0.641251  0.815631  0.435355  1
  Sm  Sm5  1  0.202487  0.682509  0.565187  1
  Sm  Sm6  1  0.368901  0.182096  0.565661  1
  Ho  Ho7  1  0.795141  0.317760  0.430378  1
  Ho  Ho8  1  0.433911  0.750620  0.003026  1
  Ho  Ho9  1  0.564684  0.251658  0.002003  1
  Ru  Ru10  1  0.820021  0.567196  0.221816  1
  Ru  Ru11  1  0.589102  0.927932  0.785148  1
  Ru  Ru12  1  0.175356  0.426106  0.766531  1
  Ru  Ru13  1  0.409887  0.078031  0.221848  1
