# generated using pymatgen
data_Nd11YAl12V8O48
_symmetry_space_group_name_H-M   'P 1'
_cell_length_a   10.86287746
_cell_length_b   10.86191083
_cell_length_c   10.86417109
_cell_angle_alpha   109.39414183
_cell_angle_beta   109.41573510
_cell_angle_gamma   109.60081310
_symmetry_Int_Tables_number   1
_chemical_formula_structural   Nd11YAl12V8O48
_chemical_formula_sum   'Nd11 Y1 Al12 V8 O48'
_cell_volume   986.82573266
_cell_formula_units_Z   1
loop_
 _symmetry_equiv_pos_site_id
 _symmetry_equiv_pos_as_xyz
  1  'x, y, z'
loop_
 _atom_site_type_symbol
 _atom_site_label
 _atom_site_symmetry_multiplicity
 _atom_site_fract_x
 _atom_site_fract_y
 _atom_site_fract_z
 _atom_site_occupancy
  Nd  Nd0  1  0.250627  0.375469  0.125731  1
  Nd  Nd1  1  0.749769  0.624411  0.875289  1
  Nd  Nd2  1  0.749673  0.124836  0.374331  1
  Nd  Nd3  1  0.124641  0.249459  0.374323  1
  Nd  Nd4  1  0.375165  0.750284  0.125752  1
  Nd  Nd5  1  0.249210  0.874561  0.624676  1
  Nd  Nd6  1  0.875487  0.750146  0.624689  1
  Nd  Nd7  1  0.625445  0.250856  0.875275  1
  Nd  Nd8  1  0.374991  0.124993  0.249995  1
  Nd  Nd9  1  0.625014  0.875009  0.750006  1
  Nd  Nd10  1  0.124920  0.374956  0.749944  1
  Y  Y11  1  0.875056  0.625033  0.250040  1
  Al  Al12  1  0.248748  0.624827  0.374328  1
  Al  Al13  1  0.749958  0.374902  0.624892  1
  Al  Al14  1  0.750505  0.874447  0.125685  1
  Al  Al15  1  0.374927  0.249973  0.624839  1
  Al  Al16  1  0.625587  0.749516  0.374381  1
  Al  Al17  1  0.250005  0.125052  0.875094  1
  Al  Al18  1  0.125111  0.750077  0.875118  1
  Al  Al19  1  0.875163  0.251215  0.125665  1
  Al  Al20  1  0.627383  0.377440  0.249988  1
  Al  Al21  1  0.374924  0.624864  0.750018  1
  Al  Al22  1  0.875098  0.125107  0.749989  1
  Al  Al23  1  0.122594  0.872587  0.250012  1
  V  V24  1  0.999698  0.999722  0.000109  1
  V  V25  1  0.499614  0.999601  0.499897  1
  V  V26  1  0.999933  0.500465  0.498730  1
  V  V27  1  0.500397  0.000386  0.000105  1
  V  V28  1  0.501689  0.501183  0.001219  1
  V  V29  1  0.500282  0.500299  0.499894  1
  V  V30  1  0.998797  0.998261  0.498726  1
  V  V31  1  0.999538  0.500068  0.001269  1
  O  O32  1  0.483137  0.381276  0.295005  1
  O  O33  1  0.518424  0.619453  0.704913  1
  O  O34  1  0.586296  0.188183  0.205004  1
  O  O35  1  0.914514  0.119209  0.600926  1
  O  O36  1  0.294464  0.481630  0.380329  1
  O  O37  1  0.311857  0.913697  0.294991  1
  O  O38  1  0.414516  0.813459  0.795082  1
  O  O39  1  0.079454  0.873650  0.396161  1
  O  O40  1  0.705588  0.518679  0.619230  1
  O  O41  1  0.686497  0.085489  0.704924  1
  O  O42  1  0.018288  0.313608  0.899102  1
  O  O43  1  0.205371  0.585363  0.186538  1
  O  O44  1  0.118740  0.016886  0.205038  1
  O  O45  1  0.977481  0.683273  0.103807  1
  O  O46  1  0.794612  0.414402  0.813066  1
  O  O47  1  0.880532  0.981550  0.795044  1
  O  O48  1  0.601325  0.914120  0.119676  1
  O  O49  1  0.186386  0.481756  0.600922  1
  O  O50  1  0.399419  0.086366  0.880758  1
  O  O51  1  0.816734  0.522479  0.396169  1
  O  O52  1  0.898835  0.018871  0.313478  1
  O  O53  1  0.381061  0.585449  0.899163  1
  O  O54  1  0.101327  0.981511  0.686919  1
  O  O55  1  0.626081  0.420539  0.103746  1
  O  O56  1  0.380329  0.295073  0.481118  1
  O  O57  1  0.585904  0.898760  0.380380  1
  O  O58  1  0.620255  0.705407  0.518584  1
  O  O59  1  0.413606  0.100495  0.619183  1
  O  O60  1  0.118900  0.601234  0.915477  1
  O  O61  1  0.018334  0.205464  0.119634  1
  O  O62  1  0.880671  0.401831  0.088388  1
  O  O63  1  0.981358  0.794485  0.880806  1
  O  O64  1  0.313959  0.899218  0.018840  1
  O  O65  1  0.914640  0.294546  0.313451  1
  O  O66  1  0.686818  0.101661  0.981457  1
  O  O67  1  0.085599  0.705474  0.686947  1
  O  O68  1  0.185764  0.203397  0.584514  1
  O  O69  1  0.480924  0.601283  0.186782  1
  O  O70  1  0.813440  0.792312  0.411624  1
  O  O71  1  0.518704  0.398556  0.812824  1
  O  O72  1  0.296825  0.314314  0.915575  1
  O  O73  1  0.707502  0.686507  0.088289  1
  O  O74  1  0.204941  0.119697  0.018823  1
  O  O75  1  0.794585  0.879729  0.981470  1
  O  O76  1  0.898741  0.381128  0.584506  1
  O  O77  1  0.098193  0.619303  0.411625  1
  O  O78  1  0.600815  0.186079  0.481158  1
  O  O79  1  0.398305  0.813144  0.518543  1
