# generated using pymatgen
data_Pr2Al3SiPt2
_symmetry_space_group_name_H-M   'P 1'
_cell_length_a   9.18623183
_cell_length_b   9.18623171
_cell_length_c   4.18369400
_cell_angle_alpha   90.00000000
_cell_angle_beta   90.00000000
_cell_angle_gamma   151.87791976
_symmetry_Int_Tables_number   1
_chemical_formula_structural   Pr2Al3SiPt2
_chemical_formula_sum   'Pr2 Al3 Si1 Pt2'
_cell_volume   166.41017371
_cell_formula_units_Z   1
loop_
 _symmetry_equiv_pos_site_id
 _symmetry_equiv_pos_as_xyz
  1  'x, y, z'
loop_
 _atom_site_type_symbol
 _atom_site_label
 _atom_site_symmetry_multiplicity
 _atom_site_fract_x
 _atom_site_fract_y
 _atom_site_fract_z
 _atom_site_occupancy
  Pr  Pr0  1  0.101313  0.898687  0.250000  1
  Pr  Pr1  1  0.899197  0.100803  0.750000  1
  Al  Al2  1  0.753821  0.246179  0.250000  1
  Al  Al3  1  0.246305  0.753695  0.750000  1
  Al  Al4  1  0.537145  0.462855  0.750000  1
  Si  Si5  1  0.461104  0.538896  0.250000  1
  Pt  Pt6  1  0.675324  0.324676  0.750000  1
  Pt  Pt7  1  0.325791  0.674209  0.250000  1
