# generated using pymatgen
data_TbGa2CuRh2
_symmetry_space_group_name_H-M   'P 1'
_cell_length_a   4.24742100
_cell_length_b   9.14946706
_cell_length_c   9.14946601
_cell_angle_alpha   60.06807232
_cell_angle_beta   90.00000000
_cell_angle_gamma   90.00000000
_symmetry_Int_Tables_number   1
_chemical_formula_structural   TbGa2CuRh2
_chemical_formula_sum   'Tb3 Ga6 Cu3 Rh6'
_cell_volume   308.13780171
_cell_formula_units_Z   3
loop_
 _symmetry_equiv_pos_site_id
 _symmetry_equiv_pos_as_xyz
  1  'x, y, z'
loop_
 _atom_site_type_symbol
 _atom_site_label
 _atom_site_symmetry_multiplicity
 _atom_site_fract_x
 _atom_site_fract_y
 _atom_site_fract_z
 _atom_site_occupancy
  Tb  Tb0  1  0.500000  0.333438  0.333433  1
  Tb  Tb1  1  0.500000  0.666567  0.666562  1
  Tb  Tb2  1  0.000000  0.999972  0.000028  1
  Ga  Ga3  1  0.500000  0.727517  0.272483  1
  Ga  Ga4  1  0.500000  0.272579  0.999852  1
  Ga  Ga5  1  0.500000  0.000148  0.727421  1
  Ga  Ga6  1  0.000000  0.490329  0.509671  1
  Ga  Ga7  1  0.000000  0.509552  0.999967  1
  Ga  Ga8  1  0.000000  0.000033  0.490448  1
  Cu  Cu9  1  0.500000  0.290195  0.709805  1
  Cu  Cu10  1  0.500000  0.709838  0.999995  1
  Cu  Cu11  1  0.500000  0.000005  0.290162  1
  Rh  Rh12  1  0.000000  0.195280  0.182655  1
  Rh  Rh13  1  0.000000  0.182474  0.622161  1
  Rh  Rh14  1  0.000000  0.622063  0.195272  1
  Rh  Rh15  1  0.000000  0.817344  0.804720  1
  Rh  Rh16  1  0.000000  0.377839  0.817526  1
  Rh  Rh17  1  0.000000  0.804728  0.377937  1
