# generated using pymatgen
data_Ho4V3FeB16
_symmetry_space_group_name_H-M   'P 1'
_cell_length_a   3.42667200
_cell_length_b   5.96851211
_cell_length_c   11.53801121
_cell_angle_alpha   89.97813122
_cell_angle_beta   90.00000000
_cell_angle_gamma   90.00000000
_symmetry_Int_Tables_number   1
_chemical_formula_structural   Ho4V3FeB16
_chemical_formula_sum   'Ho4 V3 Fe1 B16'
_cell_volume   235.97692638
_cell_formula_units_Z   1
loop_
 _symmetry_equiv_pos_site_id
 _symmetry_equiv_pos_as_xyz
  1  'x, y, z'
loop_
 _atom_site_type_symbol
 _atom_site_label
 _atom_site_symmetry_multiplicity
 _atom_site_fract_x
 _atom_site_fract_y
 _atom_site_fract_z
 _atom_site_occupancy
  Ho  Ho0  1  0.500000  0.375851  0.151329  1
  Ho  Ho1  1  0.500000  0.625984  0.848918  1
  Ho  Ho2  1  0.500000  0.124227  0.650289  1
  Ho  Ho3  1  0.500000  0.875695  0.349148  1
  V  V4  1  0.500000  0.372836  0.414190  1
  V  V5  1  0.500000  0.627100  0.583000  1
  V  V6  1  0.500000  0.127256  0.919813  1
  Fe  Fe7  1  0.500000  0.873536  0.081788  1
  B  B8  1  0.000000  0.109173  0.049695  1
  B  B9  1  0.000000  0.883432  0.955663  1
  B  B10  1  0.000000  0.384973  0.546607  1
  B  B11  1  0.000000  0.614685  0.452079  1
  B  B12  1  0.000000  0.134624  0.466912  1
  B  B13  1  0.000000  0.864974  0.532624  1
  B  B14  1  0.000000  0.365174  0.969800  1
  B  B15  1  0.000000  0.638408  0.033064  1
  B  B16  1  0.000000  0.021371  0.190977  1
  B  B17  1  0.000000  0.975198  0.808909  1
  B  B18  1  0.000000  0.474652  0.692772  1
  B  B19  1  0.000000  0.527372  0.305630  1
  B  B20  1  0.000000  0.213036  0.312339  1
  B  B21  1  0.000000  0.785727  0.686572  1
  B  B22  1  0.000000  0.284095  0.815371  1
  B  B23  1  0.000000  0.720622  0.182510  1
