# generated using pymatgen
data_CeHo3TlInNi4
_symmetry_space_group_name_H-M   'P 1'
_cell_length_a   7.48719452
_cell_length_b   7.42495358
_cell_length_c   3.61404400
_cell_angle_alpha   90.00000000
_cell_angle_beta   90.00000000
_cell_angle_gamma   91.18397361
_symmetry_Int_Tables_number   1
_chemical_formula_structural   CeHo3TlInNi4
_chemical_formula_sum   'Ce1 Ho3 Tl1 In1 Ni4'
_cell_volume   200.86929913
_cell_formula_units_Z   1
loop_
 _symmetry_equiv_pos_site_id
 _symmetry_equiv_pos_as_xyz
  1  'x, y, z'
loop_
 _atom_site_type_symbol
 _atom_site_label
 _atom_site_symmetry_multiplicity
 _atom_site_fract_x
 _atom_site_fract_y
 _atom_site_fract_z
 _atom_site_occupancy
  Ce  Ce0  1  0.674741  0.172345  0.500000  1
  Ho  Ho1  1  0.324271  0.826488  0.500000  1
  Ho  Ho2  1  0.173235  0.328763  0.500000  1
  Ho  Ho3  1  0.830052  0.674979  0.500000  1
  Tl  Tl4  1  0.498341  0.505615  0.000000  1
  In  In5  1  0.005176  0.998714  0.000000  1
  Ni  Ni6  1  0.109976  0.615754  0.000000  1
  Ni  Ni7  1  0.873301  0.366601  0.000000  1
  Ni  Ni8  1  0.626840  0.890509  0.000000  1
  Ni  Ni9  1  0.384069  0.120233  0.000000  1
