# generated using pymatgen
data_Hf2TiGe2Mo
_symmetry_space_group_name_H-M   'P 1'
_cell_length_a   3.62300700
_cell_length_b   6.93468700
_cell_length_c   8.38835500
_cell_angle_alpha   90.00000000
_cell_angle_beta   90.00000000
_cell_angle_gamma   90.00000000
_symmetry_Int_Tables_number   1
_chemical_formula_structural   Hf2TiGe2Mo
_chemical_formula_sum   'Hf4 Ti2 Ge4 Mo2'
_cell_volume   210.75255030
_cell_formula_units_Z   2
loop_
 _symmetry_equiv_pos_site_id
 _symmetry_equiv_pos_as_xyz
  1  'x, y, z'
loop_
 _atom_site_type_symbol
 _atom_site_label
 _atom_site_symmetry_multiplicity
 _atom_site_fract_x
 _atom_site_fract_y
 _atom_site_fract_z
 _atom_site_occupancy
  Hf  Hf0  1  0.250000  0.556778  0.163050  1
  Hf  Hf1  1  0.250000  0.056778  0.336950  1
  Hf  Hf2  1  0.750000  0.454162  0.836657  1
  Hf  Hf3  1  0.750000  0.954162  0.663343  1
  Ti  Ti4  1  0.250000  0.620746  0.555465  1
  Ti  Ti5  1  0.250000  0.120746  0.944535  1
  Ge  Ge6  1  0.250000  0.750857  0.854572  1
  Ge  Ge7  1  0.250000  0.250857  0.645428  1
  Ge  Ge8  1  0.750000  0.251088  0.138552  1
  Ge  Ge9  1  0.750000  0.751088  0.361448  1
  Mo  Mo10  1  0.750000  0.366368  0.442302  1
  Mo  Mo11  1  0.750000  0.866368  0.057698  1
