# generated using pymatgen
data_Y3Lu17Cd6FeNi
_symmetry_space_group_name_H-M   'P 1'
_cell_length_a   9.44285220
_cell_length_b   9.43156921
_cell_length_c   9.55185300
_cell_angle_alpha   90.00000000
_cell_angle_beta   90.00000000
_cell_angle_gamma   120.09640871
_symmetry_Int_Tables_number   1
_chemical_formula_structural   Y3Lu17Cd6FeNi
_chemical_formula_sum   'Y3 Lu17 Cd6 Fe1 Ni1'
_cell_volume   736.00824898
_cell_formula_units_Z   1
loop_
 _symmetry_equiv_pos_site_id
 _symmetry_equiv_pos_as_xyz
  1  'x, y, z'
loop_
 _atom_site_type_symbol
 _atom_site_label
 _atom_site_symmetry_multiplicity
 _atom_site_fract_x
 _atom_site_fract_y
 _atom_site_fract_z
 _atom_site_occupancy
  Y  Y0  1  0.541380  0.081841  0.250000  1
  Y  Y1  1  0.921583  0.461332  0.250000  1
  Y  Y2  1  0.086475  0.544231  0.750000  1
  Lu  Lu3  1  0.999829  0.999336  0.499574  1
  Lu  Lu4  1  0.999829  0.999336  0.000426  1
  Lu  Lu5  1  0.540101  0.460759  0.250000  1
  Lu  Lu6  1  0.457796  0.543643  0.750000  1
  Lu  Lu7  1  0.458443  0.915588  0.750000  1
  Lu  Lu8  1  0.214099  0.788899  0.436832  1
  Lu  Lu9  1  0.214292  0.423722  0.436705  1
  Lu  Lu10  1  0.575460  0.786539  0.437090  1
  Lu  Lu11  1  0.788228  0.209094  0.562834  1
  Lu  Lu12  1  0.786240  0.578433  0.562460  1
  Lu  Lu13  1  0.420248  0.211339  0.562317  1
  Lu  Lu14  1  0.788228  0.209094  0.937166  1
  Lu  Lu15  1  0.786240  0.578433  0.937540  1
  Lu  Lu16  1  0.420248  0.211339  0.937683  1
  Lu  Lu17  1  0.214099  0.788899  0.063168  1
  Lu  Lu18  1  0.214292  0.423722  0.063295  1
  Lu  Lu19  1  0.575460  0.786539  0.062910  1
  Cd  Cd20  1  0.885991  0.112702  0.250000  1
  Cd  Cd21  1  0.883881  0.771877  0.250000  1
  Cd  Cd22  1  0.228466  0.115378  0.250000  1
  Cd  Cd23  1  0.116453  0.888120  0.750000  1
  Cd  Cd24  1  0.115813  0.228889  0.750000  1
  Cd  Cd25  1  0.769909  0.885146  0.750000  1
  Fe  Fe26  1  0.332014  0.664963  0.250000  1
  Ni  Ni27  1  0.664901  0.330808  0.750000  1
