# generated using pymatgen
data_Ho2Lu2SiSe3
_symmetry_space_group_name_H-M   'P 1'
_cell_length_a   7.02394908
_cell_length_b   7.02394879
_cell_length_c   7.02394906
_cell_angle_alpha   132.09724090
_cell_angle_beta   132.09724487
_cell_angle_gamma   70.07548988
_symmetry_Int_Tables_number   1
_chemical_formula_structural   Ho2Lu2SiSe3
_chemical_formula_sum   'Ho2 Lu2 Si1 Se3'
_cell_volume   187.04119307
_cell_formula_units_Z   1
loop_
 _symmetry_equiv_pos_site_id
 _symmetry_equiv_pos_as_xyz
  1  'x, y, z'
loop_
 _atom_site_type_symbol
 _atom_site_label
 _atom_site_symmetry_multiplicity
 _atom_site_fract_x
 _atom_site_fract_y
 _atom_site_fract_z
 _atom_site_occupancy
  Ho  Ho0  1  0.240292  0.240292  0.000000  1
  Ho  Ho1  1  0.759708  0.759708  0.000000  1
  Lu  Lu2  1  0.500000  0.000000  0.500000  1
  Lu  Lu3  1  0.000000  0.500000  0.500000  1
  Si  Si4  1  0.000000  0.000000  0.000000  1
  Se  Se5  1  0.500000  0.500000  0.000000  1
  Se  Se6  1  0.750000  0.250000  0.500000  1
  Se  Se7  1  0.250000  0.750000  0.500000  1
