# generated using pymatgen
data_TbDy4MoRhO12
_symmetry_space_group_name_H-M   'P 1'
_cell_length_a   6.85495412
_cell_length_b   6.85668312
_cell_length_c   7.48651831
_cell_angle_alpha   73.94311102
_cell_angle_beta   73.93468629
_cell_angle_gamma   49.85958107
_symmetry_Int_Tables_number   1
_chemical_formula_structural   TbDy4MoRhO12
_chemical_formula_sum   'Tb1 Dy4 Mo1 Rh1 O12'
_cell_volume   256.17799132
_cell_formula_units_Z   1
loop_
 _symmetry_equiv_pos_site_id
 _symmetry_equiv_pos_as_xyz
  1  'x, y, z'
loop_
 _atom_site_type_symbol
 _atom_site_label
 _atom_site_symmetry_multiplicity
 _atom_site_fract_x
 _atom_site_fract_y
 _atom_site_fract_z
 _atom_site_occupancy
  Tb  Tb0  1  0.318046  0.287217  0.358682  1
  Dy  Dy1  1  0.712788  0.681963  0.641690  1
  Dy  Dy2  1  0.318311  0.305416  0.827926  1
  Dy  Dy3  1  0.694629  0.681744  0.172171  1
  Dy  Dy4  1  0.008085  0.991685  0.500237  1
  Mo  Mo5  1  0.203765  0.796511  0.999835  1
  Rh  Rh6  1  0.754667  0.245533  0.999737  1
  O  O7  1  0.911255  0.436456  0.913931  1
  O  O8  1  0.412926  0.904566  0.915729  1
  O  O9  1  0.095377  0.587319  0.083431  1
  O  O10  1  0.564171  0.088052  0.085016  1
  O  O11  1  0.108096  0.591866  0.570146  1
  O  O12  1  0.601546  0.086544  0.578031  1
  O  O13  1  0.911641  0.399327  0.423311  1
  O  O14  1  0.409006  0.890209  0.430956  1
  O  O15  1  0.998174  0.998945  0.800939  1
  O  O16  1  0.001287  0.001859  0.198927  1
  O  O17  1  0.488318  0.512375  0.821351  1
  O  O18  1  0.487910  0.512414  0.177955  1
