# generated using pymatgen
data_Y2Er8CuGePb6
_symmetry_space_group_name_H-M   'P 1'
_cell_length_a   9.14923036
_cell_length_b   9.14091338
_cell_length_c   6.71817520
_cell_angle_alpha   89.98789565
_cell_angle_beta   90.02766486
_cell_angle_gamma   120.04646935
_symmetry_Int_Tables_number   1
_chemical_formula_structural   Y2Er8CuGePb6
_chemical_formula_sum   'Y2 Er8 Cu1 Ge1 Pb6'
_cell_volume   486.35402057
_cell_formula_units_Z   1
loop_
 _symmetry_equiv_pos_site_id
 _symmetry_equiv_pos_as_xyz
  1  'x, y, z'
loop_
 _atom_site_type_symbol
 _atom_site_label
 _atom_site_symmetry_multiplicity
 _atom_site_fract_x
 _atom_site_fract_y
 _atom_site_fract_z
 _atom_site_occupancy
  Y  Y0  1  0.749341  0.999816  0.757752  1
  Y  Y1  1  0.666614  0.333441  0.999949  1
  Er  Er2  1  0.000226  0.750327  0.757998  1
  Er  Er3  1  0.333173  0.666634  0.499827  1
  Er  Er4  1  0.333140  0.666555  0.999941  1
  Er  Er5  1  0.750235  0.750400  0.242107  1
  Er  Er6  1  0.249722  0.249881  0.758008  1
  Er  Er7  1  0.000196  0.249767  0.242155  1
  Er  Er8  1  0.666587  0.333404  0.499823  1
  Er  Er9  1  0.249542  0.999794  0.241857  1
  Cu  Cu10  1  0.000388  0.000026  0.499585  1
  Ge  Ge11  1  0.000822  0.999989  0.000983  1
  Pb  Pb12  1  0.393256  0.999695  0.749914  1
  Pb  Pb13  1  0.393676  0.393936  0.250248  1
  Pb  Pb14  1  0.605859  0.605790  0.749708  1
  Pb  Pb15  1  0.000346  0.606387  0.250246  1
  Pb  Pb16  1  0.000733  0.394504  0.749715  1
  Pb  Pb17  1  0.606144  0.999653  0.250185  1
