# generated using pymatgen
data_Dy7HoTc3B24Os
_symmetry_space_group_name_H-M   'P 1'
_cell_length_a   3.67698200
_cell_length_b   9.16017391
_cell_length_c   11.54882505
_cell_angle_alpha   89.95963058
_cell_angle_beta   90.00000000
_cell_angle_gamma   90.00000000
_symmetry_Int_Tables_number   1
_chemical_formula_structural   Dy7HoTc3B24Os
_chemical_formula_sum   'Dy7 Ho1 Tc3 B24 Os1'
_cell_volume   388.98505632
_cell_formula_units_Z   1
loop_
 _symmetry_equiv_pos_site_id
 _symmetry_equiv_pos_as_xyz
  1  'x, y, z'
loop_
 _atom_site_type_symbol
 _atom_site_label
 _atom_site_symmetry_multiplicity
 _atom_site_fract_x
 _atom_site_fract_y
 _atom_site_fract_z
 _atom_site_occupancy
  Dy  Dy0  1  0.000000  0.323894  0.413791  1
  Dy  Dy1  1  0.000000  0.675260  0.584392  1
  Dy  Dy2  1  0.000000  0.823072  0.087264  1
  Dy  Dy3  1  0.000000  0.177757  0.914517  1
  Dy  Dy4  1  0.000000  0.942574  0.369992  1
  Dy  Dy5  1  0.000000  0.058141  0.630072  1
  Dy  Dy6  1  0.000000  0.442989  0.130155  1
  Ho  Ho7  1  0.000000  0.556991  0.869386  1
  Tc  Tc8  1  0.000000  0.638373  0.320609  1
  Tc  Tc9  1  0.000000  0.361814  0.680021  1
  Tc  Tc10  1  0.000000  0.137922  0.178249  1
  B  B11  1  0.500000  0.553236  0.432766  1
  B  B12  1  0.500000  0.446737  0.567020  1
  B  B13  1  0.500000  0.053191  0.067065  1
  B  B14  1  0.500000  0.946149  0.932798  1
  B  B15  1  0.500000  0.748298  0.418669  1
  B  B16  1  0.500000  0.251443  0.581344  1
  B  B17  1  0.500000  0.248824  0.081374  1
  B  B18  1  0.500000  0.751331  0.918373  1
  B  B19  1  0.500000  0.791459  0.265680  1
  B  B20  1  0.500000  0.208804  0.734867  1
  B  B21  1  0.500000  0.291375  0.234523  1
  B  B22  1  0.500000  0.709098  0.765553  1
  B  B23  1  0.500000  0.631204  0.185873  1
  B  B24  1  0.500000  0.368948  0.814757  1
  B  B25  1  0.500000  0.130758  0.313813  1
  B  B26  1  0.500000  0.868786  0.686016  1
  B  B27  1  0.500000  0.982274  0.211748  1
  B  B28  1  0.500000  0.016592  0.788268  1
  B  B29  1  0.500000  0.482560  0.288091  1
  B  B30  1  0.500000  0.517370  0.711897  1
  B  B31  1  0.500000  0.602161  0.027972  1
  B  B32  1  0.500000  0.399031  0.971425  1
  B  B33  1  0.500000  0.102021  0.471674  1
  B  B34  1  0.500000  0.898011  0.528754  1
  Os  Os35  1  0.000000  0.861552  0.821231  1
