# generated using pymatgen
data_NdAl4Ge2Pd
_symmetry_space_group_name_H-M   'P 1'
_cell_length_a   4.19670800
_cell_length_b   4.19670722
_cell_length_c   31.86965200
_cell_angle_alpha   90.00000188
_cell_angle_beta   90.00019647
_cell_angle_gamma   120.00004284
_symmetry_Int_Tables_number   1
_chemical_formula_structural   NdAl4Ge2Pd
_chemical_formula_sum   'Nd3 Al12 Ge6 Pd3'
_cell_volume   486.09951837
_cell_formula_units_Z   3
loop_
 _symmetry_equiv_pos_site_id
 _symmetry_equiv_pos_as_xyz
  1  'x, y, z'
loop_
 _atom_site_type_symbol
 _atom_site_label
 _atom_site_symmetry_multiplicity
 _atom_site_fract_x
 _atom_site_fract_y
 _atom_site_fract_z
 _atom_site_occupancy
  Nd  Nd0  1  0.333339  0.666670  0.166684  1
  Nd  Nd1  1  0.999999  0.999999  0.499981  1
  Nd  Nd2  1  0.666665  0.333332  0.833331  1
  Al  Al3  1  0.666669  0.333335  0.025491  1
  Al  Al4  1  0.000001  0.000001  0.080064  1
  Al  Al5  1  0.666668  0.333334  0.253287  1
  Al  Al6  1  0.999985  0.999992  0.307856  1
  Al  Al7  1  0.333316  0.666657  0.358807  1
  Al  Al8  1  0.666653  0.333326  0.413376  1
  Al  Al9  1  0.333345  0.666673  0.586612  1
  Al  Al10  1  0.666677  0.333338  0.641185  1
  Al  Al11  1  0.000013  0.000007  0.692164  1
  Al  Al12  1  0.333335  0.666667  0.746720  1
  Al  Al13  1  0.000000  0.999999  0.919952  1
  Al  Al14  1  0.333334  0.666667  0.974510  1
  Ge  Ge15  1  0.666671  0.333335  0.109163  1
  Ge  Ge16  1  0.000004  0.000002  0.224156  1
  Ge  Ge17  1  0.333320  0.666661  0.442485  1
  Ge  Ge18  1  0.666678  0.333338  0.557500  1
  Ge  Ge19  1  0.000001  0.000000  0.775834  1
  Ge  Ge20  1  0.333332  0.666666  0.890862  1
  Pd  Pd21  1  0.000002  0.000000  0.000024  1
  Pd  Pd22  1  0.666650  0.333324  0.333330  1
  Pd  Pd23  1  0.333344  0.666672  0.666658  1
