# generated using pymatgen
data_LiSc19(Cd3Ni)2
_symmetry_space_group_name_H-M   'P 1'
_cell_length_a   8.96353100
_cell_length_b   8.96353114
_cell_length_c   8.98930300
_cell_angle_alpha   90.00000000
_cell_angle_beta   90.00000000
_cell_angle_gamma   119.99999581
_symmetry_Int_Tables_number   1
_chemical_formula_structural   LiSc19(Cd3Ni)2
_chemical_formula_sum   'Li1 Sc19 Cd6 Ni2'
_cell_volume   625.48215763
_cell_formula_units_Z   1
loop_
 _symmetry_equiv_pos_site_id
 _symmetry_equiv_pos_as_xyz
  1  'x, y, z'
loop_
 _atom_site_type_symbol
 _atom_site_label
 _atom_site_symmetry_multiplicity
 _atom_site_fract_x
 _atom_site_fract_y
 _atom_site_fract_z
 _atom_site_occupancy
  Li  Li0  1  0.000000  0.000000  0.500000  1
  Sc  Sc1  1  0.000000  0.000000  0.000000  1
  Sc  Sc2  1  0.543025  0.456975  0.253868  1
  Sc  Sc3  1  0.543025  0.086049  0.253868  1
  Sc  Sc4  1  0.913951  0.456975  0.253868  1
  Sc  Sc5  1  0.456975  0.543025  0.746132  1
  Sc  Sc6  1  0.456975  0.913951  0.746132  1
  Sc  Sc7  1  0.086049  0.543025  0.746132  1
  Sc  Sc8  1  0.209596  0.790404  0.435742  1
  Sc  Sc9  1  0.209596  0.419194  0.435742  1
  Sc  Sc10  1  0.580806  0.790404  0.435742  1
  Sc  Sc11  1  0.790404  0.209596  0.564258  1
  Sc  Sc12  1  0.790404  0.580806  0.564258  1
  Sc  Sc13  1  0.419194  0.209596  0.564258  1
  Sc  Sc14  1  0.788381  0.211619  0.941867  1
  Sc  Sc15  1  0.788381  0.576761  0.941867  1
  Sc  Sc16  1  0.423239  0.211619  0.941867  1
  Sc  Sc17  1  0.211619  0.788381  0.058133  1
  Sc  Sc18  1  0.211619  0.423239  0.058133  1
  Sc  Sc19  1  0.576761  0.788381  0.058133  1
  Cd  Cd20  1  0.886276  0.113724  0.258116  1
  Cd  Cd21  1  0.886276  0.772552  0.258116  1
  Cd  Cd22  1  0.227448  0.113724  0.258116  1
  Cd  Cd23  1  0.113724  0.886276  0.741884  1
  Cd  Cd24  1  0.113724  0.227448  0.741884  1
  Cd  Cd25  1  0.772552  0.886276  0.741884  1
  Ni  Ni26  1  0.333333  0.666667  0.250099  1
  Ni  Ni27  1  0.666667  0.333333  0.749901  1
