# generated using pymatgen
data_Rb12AlInSb6
_symmetry_space_group_name_H-M   'P 1'
_cell_length_a   6.34678300
_cell_length_b   11.00513280
_cell_length_c   12.61500007
_cell_angle_alpha   79.17540948
_cell_angle_beta   90.00000000
_cell_angle_gamma   90.00000000
_symmetry_Int_Tables_number   1
_chemical_formula_structural   Rb12AlInSb6
_chemical_formula_sum   'Rb12 Al1 In1 Sb6'
_cell_volume   865.44426427
_cell_formula_units_Z   1
loop_
 _symmetry_equiv_pos_site_id
 _symmetry_equiv_pos_as_xyz
  1  'x, y, z'
loop_
 _atom_site_type_symbol
 _atom_site_label
 _atom_site_symmetry_multiplicity
 _atom_site_fract_x
 _atom_site_fract_y
 _atom_site_fract_z
 _atom_site_occupancy
  Rb  Rb0  1  0.750000  0.124824  0.321510  1
  Rb  Rb1  1  0.250000  0.881065  0.676814  1
  Rb  Rb2  1  0.750000  0.135408  0.981238  1
  Rb  Rb3  1  0.250000  0.864430  0.025808  1
  Rb  Rb4  1  0.750000  0.437122  0.459813  1
  Rb  Rb5  1  0.250000  0.561897  0.535850  1
  Rb  Rb6  1  0.750000  0.455727  0.079720  1
  Rb  Rb7  1  0.250000  0.538542  0.924638  1
  Rb  Rb8  1  0.750000  0.736188  0.222880  1
  Rb  Rb9  1  0.250000  0.258220  0.774607  1
  Rb  Rb10  1  0.750000  0.084386  0.629679  1
  Rb  Rb11  1  0.250000  0.919939  0.367704  1
  Al  Al12  1  0.250000  0.320086  0.279769  1
  In  In13  1  0.750000  0.678194  0.721529  1
  Sb  Sb14  1  0.750000  0.421305  0.776682  1
  Sb  Sb15  1  0.250000  0.564075  0.225621  1
  Sb  Sb16  1  0.750000  0.791579  0.501467  1
  Sb  Sb17  1  0.250000  0.215149  0.488063  1
  Sb  Sb18  1  0.750000  0.831636  0.881308  1
  Sb  Sb19  1  0.250000  0.180228  0.125300  1
