# generated using pymatgen
data_ErRhI18
_symmetry_space_group_name_H-M   'P 1'
_cell_length_a   10.24543874
_cell_length_b   10.31436599
_cell_length_c   10.22245111
_cell_angle_alpha   92.89710797
_cell_angle_beta   92.95894804
_cell_angle_gamma   92.79804321
_symmetry_Int_Tables_number   1
_chemical_formula_structural   ErRhI18
_chemical_formula_sum   'Er1 Rh1 I18'
_cell_volume   1076.00749709
_cell_formula_units_Z   1
loop_
 _symmetry_equiv_pos_site_id
 _symmetry_equiv_pos_as_xyz
  1  'x, y, z'
loop_
 _atom_site_type_symbol
 _atom_site_label
 _atom_site_symmetry_multiplicity
 _atom_site_fract_x
 _atom_site_fract_y
 _atom_site_fract_z
 _atom_site_occupancy
  Er  Er0  1  0.500000  0.500000  0.500000  1
  Rh  Rh1  1  0.000000  0.000000  0.000000  1
  I  I2  1  0.792919  0.479119  0.527854  1
  I  I3  1  0.527901  0.790726  0.478492  1
  I  I4  1  0.479351  0.528949  0.793417  1
  I  I5  1  0.207081  0.520881  0.472146  1
  I  I6  1  0.472099  0.209274  0.521508  1
  I  I7  1  0.520649  0.471051  0.206583  1
  I  I8  1  0.900088  0.361978  0.768229  1
  I  I9  1  0.767882  0.899040  0.362810  1
  I  I10  1  0.362724  0.768186  0.899940  1
  I  I11  1  0.099912  0.638022  0.231771  1
  I  I12  1  0.232118  0.100960  0.637190  1
  I  I13  1  0.637276  0.231814  0.100060  1
  I  I14  1  0.003670  0.968741  0.736578  1
  I  I15  1  0.737263  0.004176  0.967897  1
  I  I16  1  0.967716  0.739117  0.002921  1
  I  I17  1  0.996330  0.031259  0.263422  1
  I  I18  1  0.262737  0.995824  0.032103  1
  I  I19  1  0.032284  0.260883  0.997079  1
