# generated using pymatgen
data_Ce3Y(HgRh2)2
_symmetry_space_group_name_H-M   'P 1'
_cell_length_a   7.70566489
_cell_length_b   7.70566608
_cell_length_c   3.66704700
_cell_angle_alpha   90.00000000
_cell_angle_beta   90.00000000
_cell_angle_gamma   88.03955074
_symmetry_Int_Tables_number   1
_chemical_formula_structural   Ce3Y(HgRh2)2
_chemical_formula_sum   'Ce3 Y1 Hg2 Rh4'
_cell_volume   217.61183146
_cell_formula_units_Z   1
loop_
 _symmetry_equiv_pos_site_id
 _symmetry_equiv_pos_as_xyz
  1  'x, y, z'
loop_
 _atom_site_type_symbol
 _atom_site_label
 _atom_site_symmetry_multiplicity
 _atom_site_fract_x
 _atom_site_fract_y
 _atom_site_fract_z
 _atom_site_occupancy
  Ce  Ce0  1  0.329890  0.829890  0.500000  1
  Ce  Ce1  1  0.168635  0.328241  0.500000  1
  Ce  Ce2  1  0.828241  0.668635  0.500000  1
  Y  Y3  1  0.669205  0.169205  0.500000  1
  Hg  Hg4  1  0.991495  0.002586  0.000000  1
  Hg  Hg5  1  0.502586  0.491495  0.000000  1
  Rh  Rh6  1  0.142806  0.642806  0.000000  1
  Rh  Rh7  1  0.878533  0.378533  0.000000  1
  Rh  Rh8  1  0.632255  0.856355  0.000000  1
  Rh  Rh9  1  0.356355  0.132255  0.000000  1
