# generated using pymatgen
data_CsZnMoF6
_symmetry_space_group_name_H-M   'P 1'
_cell_length_a   7.71329881
_cell_length_b   7.71329869
_cell_length_c   7.71329940
_cell_angle_alpha   121.23416085
_cell_angle_beta   119.25947889
_cell_angle_gamma   89.58159806
_symmetry_Int_Tables_number   1
_chemical_formula_structural   CsZnMoF6
_chemical_formula_sum   'Cs2 Zn2 Mo2 F12'
_cell_volume   323.15209750
_cell_formula_units_Z   2
loop_
 _symmetry_equiv_pos_site_id
 _symmetry_equiv_pos_as_xyz
  1  'x, y, z'
loop_
 _atom_site_type_symbol
 _atom_site_label
 _atom_site_symmetry_multiplicity
 _atom_site_fract_x
 _atom_site_fract_y
 _atom_site_fract_z
 _atom_site_occupancy
  Cs  Cs0  1  0.353952  0.603952  0.750000  1
  Cs  Cs1  1  0.646048  0.396048  0.250000  1
  Zn  Zn2  1  0.000000  0.000000  0.500000  1
  Zn  Zn3  1  0.000000  0.500000  0.000000  1
  Mo  Mo4  1  0.000000  0.000000  0.000000  1
  Mo  Mo5  1  0.500000  0.000000  0.500000  1
  F  F6  1  0.327657  0.077657  0.250000  1
  F  F7  1  0.943371  0.693371  0.250000  1
  F  F8  1  0.322093  0.673869  0.237578  1
  F  F9  1  0.936291  0.084515  0.262422  1
  F  F10  1  0.322093  0.084515  0.648225  1
  F  F11  1  0.936291  0.673869  0.851775  1
  F  F12  1  0.672343  0.922343  0.750000  1
  F  F13  1  0.056629  0.306629  0.750000  1
  F  F14  1  0.677907  0.326131  0.762422  1
  F  F15  1  0.063709  0.915485  0.737578  1
  F  F16  1  0.677907  0.915485  0.351775  1
  F  F17  1  0.063709  0.326131  0.148225  1
