# generated using pymatgen
data_Ta2NbCo2OsC
_symmetry_space_group_name_H-M   'P 1'
_cell_length_a   8.12437061
_cell_length_b   8.12797892
_cell_length_c   8.12448620
_cell_angle_alpha   60.01557320
_cell_angle_beta   60.02645194
_cell_angle_gamma   60.01504365
_symmetry_Int_Tables_number   1
_chemical_formula_structural   Ta2NbCo2OsC
_chemical_formula_sum   'Ta8 Nb4 Co8 Os4 C4'
_cell_volume   379.52504367
_cell_formula_units_Z   4
loop_
 _symmetry_equiv_pos_site_id
 _symmetry_equiv_pos_as_xyz
  1  'x, y, z'
loop_
 _atom_site_type_symbol
 _atom_site_label
 _atom_site_symmetry_multiplicity
 _atom_site_fract_x
 _atom_site_fract_y
 _atom_site_fract_z
 _atom_site_occupancy
  Ta  Ta0  1  0.694551  0.305555  0.694577  1
  Ta  Ta1  1  0.944974  0.555867  0.555915  1
  Ta  Ta2  1  0.555053  0.944480  0.944564  1
  Ta  Ta3  1  0.944011  0.555586  0.943927  1
  Ta  Ta4  1  0.555904  0.555868  0.944941  1
  Ta  Ta5  1  0.944588  0.944453  0.555057  1
  Ta  Ta6  1  0.693845  0.694290  0.306535  1
  Ta  Ta7  1  0.306564  0.694274  0.693856  1
  Nb  Nb8  1  0.693175  0.306394  0.306951  1
  Nb  Nb9  1  0.306965  0.306385  0.693175  1
  Nb  Nb10  1  0.557156  0.943438  0.557144  1
  Nb  Nb11  1  0.306567  0.693506  0.306516  1
  Co  Co12  1  0.326892  0.327140  0.326871  1
  Co  Co13  1  0.233249  0.921826  0.922392  1
  Co  Co14  1  0.921547  0.234624  0.921533  1
  Co  Co15  1  0.922398  0.921826  0.233249  1
  Co  Co16  1  0.327895  0.016512  0.327869  1
  Co  Co17  1  0.327702  0.328158  0.016229  1
  Co  Co18  1  0.016232  0.328165  0.327686  1
  Co  Co19  1  0.921509  0.921688  0.921491  1
  Os  Os20  1  0.124850  0.125009  0.124846  1
  Os  Os21  1  0.624571  0.125088  0.123371  1
  Os  Os22  1  0.124353  0.624826  0.124349  1
  Os  Os23  1  0.123342  0.125053  0.624674  1
  C  C24  1  0.625531  0.623551  0.625571  1
  C  C25  1  0.123390  0.626217  0.626357  1
  C  C26  1  0.626875  0.124005  0.626912  1
  C  C27  1  0.626311  0.626217  0.123443  1
