# generated using pymatgen
data_YbErOs3Ru
_symmetry_space_group_name_H-M   'P 1'
_cell_length_a   5.23858402
_cell_length_b   5.23858365
_cell_length_c   8.98150700
_cell_angle_alpha   90.00202388
_cell_angle_beta   89.99797486
_cell_angle_gamma   120.00563307
_symmetry_Int_Tables_number   1
_chemical_formula_structural   YbErOs3Ru
_chemical_formula_sum   'Yb2 Er2 Os6 Ru2'
_cell_volume   213.44352581
_cell_formula_units_Z   2
loop_
 _symmetry_equiv_pos_site_id
 _symmetry_equiv_pos_as_xyz
  1  'x, y, z'
loop_
 _atom_site_type_symbol
 _atom_site_label
 _atom_site_symmetry_multiplicity
 _atom_site_fract_x
 _atom_site_fract_y
 _atom_site_fract_z
 _atom_site_occupancy
  Yb  Yb0  1  0.333349  0.666651  0.060126  1
  Yb  Yb1  1  0.666651  0.333349  0.939874  1
  Er  Er2  1  0.666658  0.333342  0.571303  1
  Er  Er3  1  0.333342  0.666658  0.428697  1
  Os  Os4  1  0.170932  0.341910  0.748669  1
  Os  Os5  1  0.170938  0.829062  0.748676  1
  Os  Os6  1  0.658090  0.829068  0.748669  1
  Os  Os7  1  0.829068  0.658090  0.251331  1
  Os  Os8  1  0.829062  0.170938  0.251324  1
  Os  Os9  1  0.341910  0.170932  0.251331  1
  Ru  Ru10  1  0.000000  0.000000  0.500000  1
  Ru  Ru11  1  0.000000  0.000000  0.000000  1
