# generated using pymatgen
data_YbTmSc2(Ga8Pt3)3
_symmetry_space_group_name_H-M   'P 1'
_cell_length_a   7.51482543
_cell_length_b   7.53458534
_cell_length_c   13.15889600
_cell_angle_alpha   84.62408389
_cell_angle_beta   79.12509552
_cell_angle_gamma   59.92384656
_symmetry_Int_Tables_number   1
_chemical_formula_structural   YbTmSc2(Ga8Pt3)3
_chemical_formula_sum   'Yb1 Tm1 Sc2 Ga24 Pt9'
_cell_volume   633.17557667
_cell_formula_units_Z   1
loop_
 _symmetry_equiv_pos_site_id
 _symmetry_equiv_pos_as_xyz
  1  'x, y, z'
loop_
 _atom_site_type_symbol
 _atom_site_label
 _atom_site_symmetry_multiplicity
 _atom_site_fract_x
 _atom_site_fract_y
 _atom_site_fract_z
 _atom_site_occupancy
  Yb  Yb0  1  0.394547  0.167743  0.809242  1
  Tm  Tm1  1  0.604452  0.833312  0.191029  1
  Sc  Sc2  1  0.732270  0.500047  0.807577  1
  Sc  Sc3  1  0.267682  0.499602  0.192123  1
  Ga  Ga4  1  0.683284  0.830931  0.936413  1
  Ga  Ga5  1  0.315770  0.169770  0.063484  1
  Ga  Ga6  1  0.146850  0.832137  0.561316  1
  Ga  Ga7  1  0.853428  0.167886  0.437971  1
  Ga  Ga8  1  0.480056  0.166190  0.558642  1
  Ga  Ga9  1  0.519978  0.833710  0.441559  1
  Ga  Ga10  1  0.222359  0.167958  0.321364  1
  Ga  Ga11  1  0.776479  0.834157  0.677479  1
  Ga  Ga12  1  0.438652  0.502944  0.676761  1
  Ga  Ga13  1  0.561842  0.495131  0.321949  1
  Ga  Ga14  1  0.105827  0.164804  0.676398  1
  Ga  Ga15  1  0.896408  0.835230  0.322312  1
  Ga  Ga16  1  0.362615  0.494875  0.937851  1
  Ga  Ga17  1  0.636186  0.504657  0.063532  1
  Ga  Ga18  1  0.016862  0.174356  0.942740  1
  Ga  Ga19  1  0.982909  0.825260  0.059196  1
  Ga  Ga20  1  0.186497  0.499782  0.440645  1
  Ga  Ga21  1  0.813914  0.499885  0.558689  1
  Ga  Ga22  1  0.733720  0.166341  0.182544  1
  Ga  Ga23  1  0.268033  0.831565  0.817900  1
  Ga  Ga24  1  0.057947  0.630814  0.817353  1
  Ga  Ga25  1  0.940339  0.369585  0.183195  1
  Ga  Ga26  1  0.855594  0.045175  0.817275  1
  Ga  Ga27  1  0.145383  0.956350  0.183199  1
  Pt  Pt28  1  0.118564  0.493384  0.639317  1
  Pt  Pt29  1  0.880430  0.508784  0.359685  1
  Pt  Pt30  1  0.660609  0.167713  0.000816  1
  Pt  Pt31  1  0.338748  0.831712  0.001084  1
  Pt  Pt32  1  0.538983  0.166288  0.360039  1
  Pt  Pt33  1  0.460989  0.832274  0.639321  1
  Pt  Pt34  1  0.779800  0.173701  0.637420  1
  Pt  Pt35  1  0.222779  0.825521  0.361411  1
  Pt  Pt36  1  0.999214  0.500425  0.001169  1
