# generated using pymatgen
data_Nd6Zn23P
_symmetry_space_group_name_H-M   'P 1'
_cell_length_a   9.24848926
_cell_length_b   9.24701192
_cell_length_c   9.24859618
_cell_angle_alpha   60.01172661
_cell_angle_beta   59.99210618
_cell_angle_gamma   60.01030563
_symmetry_Int_Tables_number   1
_chemical_formula_structural   Nd6Zn23P
_chemical_formula_sum   'Nd6 Zn23 P1'
_cell_volume   559.34453945
_cell_formula_units_Z   1
loop_
 _symmetry_equiv_pos_site_id
 _symmetry_equiv_pos_as_xyz
  1  'x, y, z'
loop_
 _atom_site_type_symbol
 _atom_site_label
 _atom_site_symmetry_multiplicity
 _atom_site_fract_x
 _atom_site_fract_y
 _atom_site_fract_z
 _atom_site_occupancy
  Nd  Nd0  1  0.715747  0.284238  0.284250  1
  Nd  Nd1  1  0.715818  0.284193  0.715792  1
  Nd  Nd2  1  0.715774  0.715768  0.284227  1
  Nd  Nd3  1  0.284253  0.715762  0.715750  1
  Nd  Nd4  1  0.284182  0.715807  0.284208  1
  Nd  Nd5  1  0.284226  0.284232  0.715773  1
  Zn  Zn6  1  0.619838  0.126717  0.126739  1
  Zn  Zn7  1  0.126712  0.619844  0.126721  1
  Zn  Zn8  1  0.126740  0.126728  0.619835  1
  Zn  Zn9  1  0.126707  0.126728  0.126695  1
  Zn  Zn10  1  0.380162  0.873283  0.873261  1
  Zn  Zn11  1  0.873288  0.380156  0.873279  1
  Zn  Zn12  1  0.873260  0.873272  0.380165  1
  Zn  Zn13  1  0.873293  0.873272  0.873305  1
  Zn  Zn14  1  0.500000  0.000000  0.000000  1
  Zn  Zn15  1  0.500000  0.000000  0.500000  1
  Zn  Zn16  1  0.500000  0.500000  0.000000  1
  Zn  Zn17  1  0.000000  0.500000  0.500000  1
  Zn  Zn18  1  0.000000  0.500000  0.000000  1
  Zn  Zn19  1  0.000000  0.000000  0.500000  1
  Zn  Zn20  1  0.000000  0.000000  0.000000  1
  Zn  Zn21  1  0.017199  0.327568  0.327686  1
  Zn  Zn22  1  0.327571  0.017198  0.327581  1
  Zn  Zn23  1  0.327684  0.327577  0.017198  1
  Zn  Zn24  1  0.327560  0.327657  0.327553  1
  Zn  Zn25  1  0.982801  0.672432  0.672314  1
  Zn  Zn26  1  0.672429  0.982802  0.672419  1
  Zn  Zn27  1  0.672316  0.672423  0.982802  1
  Zn  Zn28  1  0.672440  0.672343  0.672447  1
  P  P29  1  0.500000  0.500000  0.500000  1
