# generated using pymatgen
data_Ho4Zn3In2Ir
_symmetry_space_group_name_H-M   'P 1'
_cell_length_a   7.74555805
_cell_length_b   7.74555835
_cell_length_c   3.72377600
_cell_angle_alpha   90.00000000
_cell_angle_beta   90.00000000
_cell_angle_gamma   89.84237187
_symmetry_Int_Tables_number   1
_chemical_formula_structural   Ho4Zn3In2Ir
_chemical_formula_sum   'Ho4 Zn3 In2 Ir1'
_cell_volume   223.40214996
_cell_formula_units_Z   1
loop_
 _symmetry_equiv_pos_site_id
 _symmetry_equiv_pos_as_xyz
  1  'x, y, z'
loop_
 _atom_site_type_symbol
 _atom_site_label
 _atom_site_symmetry_multiplicity
 _atom_site_fract_x
 _atom_site_fract_y
 _atom_site_fract_z
 _atom_site_occupancy
  Ho  Ho0  1  0.671121  0.171121  0.500000  1
  Ho  Ho1  1  0.311005  0.811005  0.500000  1
  Ho  Ho2  1  0.177927  0.346275  0.500000  1
  Ho  Ho3  1  0.846275  0.677927  0.500000  1
  Zn  Zn4  1  0.877642  0.377642  0.000000  1
  Zn  Zn5  1  0.616527  0.875406  0.000000  1
  Zn  Zn6  1  0.375406  0.116527  0.000000  1
  In  In7  1  0.504623  0.500579  0.000000  1
  In  In8  1  0.000579  0.004623  0.000000  1
  Ir  Ir9  1  0.118896  0.618896  0.000000  1
