# generated using pymatgen
data_Ca3Sm(GePd14)2
_symmetry_space_group_name_H-M   'P 1'
_cell_length_a   8.96234500
_cell_length_b   8.96234500
_cell_length_c   7.15776300
_cell_angle_alpha   90.00000000
_cell_angle_beta   90.00000000
_cell_angle_gamma   90.00000000
_symmetry_Int_Tables_number   1
_chemical_formula_structural   Ca3Sm(GePd14)2
_chemical_formula_sum   'Ca3 Sm1 Ge2 Pd28'
_cell_volume   574.93749180
_cell_formula_units_Z   1
loop_
 _symmetry_equiv_pos_site_id
 _symmetry_equiv_pos_as_xyz
  1  'x, y, z'
loop_
 _atom_site_type_symbol
 _atom_site_label
 _atom_site_symmetry_multiplicity
 _atom_site_fract_x
 _atom_site_fract_y
 _atom_site_fract_z
 _atom_site_occupancy
  Ca  Ca0  1  0.000000  0.500000  0.060801  1
  Ca  Ca1  1  0.000000  0.000000  0.499902  1
  Ca  Ca2  1  0.500000  0.500000  0.499902  1
  Sm  Sm3  1  0.500000  0.000000  0.940183  1
  Ge  Ge4  1  0.500000  0.000000  0.449478  1
  Ge  Ge5  1  0.000000  0.500000  0.550579  1
  Pd  Pd6  1  0.330266  0.830266  0.623363  1
  Pd  Pd7  1  0.330266  0.169734  0.623363  1
  Pd  Pd8  1  0.669734  0.830266  0.623363  1
  Pd  Pd9  1  0.669734  0.169734  0.623363  1
  Pd  Pd10  1  0.170005  0.670005  0.376330  1
  Pd  Pd11  1  0.170005  0.329995  0.376330  1
  Pd  Pd12  1  0.829995  0.670005  0.376330  1
  Pd  Pd13  1  0.829995  0.329995  0.376330  1
  Pd  Pd14  1  0.500000  0.767480  0.252939  1
  Pd  Pd15  1  0.500000  0.232520  0.252939  1
  Pd  Pd16  1  0.267480  0.000000  0.252939  1
  Pd  Pd17  1  0.732520  0.000000  0.252939  1
  Pd  Pd18  1  0.000000  0.733433  0.746387  1
  Pd  Pd19  1  0.000000  0.266567  0.746387  1
  Pd  Pd20  1  0.233433  0.500000  0.746387  1
  Pd  Pd21  1  0.766567  0.500000  0.746387  1
  Pd  Pd22  1  0.500000  0.348661  0.857978  1
  Pd  Pd23  1  0.500000  0.651339  0.857978  1
  Pd  Pd24  1  0.848661  0.000000  0.857978  1
  Pd  Pd25  1  0.151339  0.000000  0.857978  1
  Pd  Pd26  1  0.000000  0.150769  0.142618  1
  Pd  Pd27  1  0.000000  0.849231  0.142618  1
  Pd  Pd28  1  0.650769  0.500000  0.142618  1
  Pd  Pd29  1  0.349231  0.500000  0.142618  1
  Pd  Pd30  1  0.250658  0.750658  0.000174  1
  Pd  Pd31  1  0.250658  0.249342  0.000174  1
  Pd  Pd32  1  0.749342  0.750658  0.000174  1
  Pd  Pd33  1  0.749342  0.249342  0.000174  1
