# generated using pymatgen
data_La3Sm3(SiPd5)2
_symmetry_space_group_name_H-M   'P 1'
_cell_length_a   8.47481398
_cell_length_b   8.43011442
_cell_length_c   8.43011480
_cell_angle_alpha   127.62744090
_cell_angle_beta   126.15268733
_cell_angle_gamma   78.31576206
_symmetry_Int_Tables_number   1
_chemical_formula_structural   La3Sm3(SiPd5)2
_chemical_formula_sum   'La3 Sm3 Si2 Pd10'
_cell_volume   373.26712371
_cell_formula_units_Z   1
loop_
 _symmetry_equiv_pos_site_id
 _symmetry_equiv_pos_as_xyz
  1  'x, y, z'
loop_
 _atom_site_type_symbol
 _atom_site_label
 _atom_site_symmetry_multiplicity
 _atom_site_fract_x
 _atom_site_fract_y
 _atom_site_fract_z
 _atom_site_occupancy
  La  La0  1  0.382359  0.249228  0.133132  1
  La  La1  1  0.776709  0.549574  0.227134  1
  La  La2  1  0.616374  0.750171  0.866203  1
  Sm  Sm3  1  0.820907  0.048770  0.772137  1
  Sm  Sm4  1  0.219285  0.449993  0.769293  1
  Sm  Sm5  1  0.178788  0.950794  0.227994  1
  Si  Si6  1  0.214094  0.750757  0.463337  1
  Si  Si7  1  0.787860  0.249550  0.538310  1
  Pd  Pd8  1  0.834848  0.596056  0.643238  1
  Pd  Pd9  1  0.544013  0.305242  0.637299  1
  Pd  Pd10  1  0.452902  0.093245  0.758562  1
  Pd  Pd11  1  0.834848  0.191610  0.238792  1
  Pd  Pd12  1  0.167555  0.404446  0.359671  1
  Pd  Pd13  1  0.452902  0.694339  0.359656  1
  Pd  Pd14  1  0.544013  0.906714  0.238771  1
  Pd  Pd15  1  0.167555  0.807885  0.763109  1
  Pd  Pd16  1  0.002494  0.002767  0.503636  1
  Pd  Pd17  1  0.002494  0.498859  0.999727  1
