# generated using pymatgen
data_ZnHg3(BrO3)8
_symmetry_space_group_name_H-M   'P 1'
_cell_length_a   5.86524387
_cell_length_b   11.00280021
_cell_length_c   11.20543445
_cell_angle_alpha   119.83128073
_cell_angle_beta   89.76220885
_cell_angle_gamma   90.80942536
_symmetry_Int_Tables_number   1
_chemical_formula_structural   ZnHg3(BrO3)8
_chemical_formula_sum   'Zn1 Hg3 Br8 O24'
_cell_volume   627.24723092
_cell_formula_units_Z   1
loop_
 _symmetry_equiv_pos_site_id
 _symmetry_equiv_pos_as_xyz
  1  'x, y, z'
loop_
 _atom_site_type_symbol
 _atom_site_label
 _atom_site_symmetry_multiplicity
 _atom_site_fract_x
 _atom_site_fract_y
 _atom_site_fract_z
 _atom_site_occupancy
  Zn  Zn0  1  0.152254  0.765366  0.510250  1
  Hg  Hg1  1  0.649850  0.234989  0.493214  1
  Hg  Hg2  1  0.147878  0.270088  0.011058  1
  Hg  Hg3  1  0.639462  0.726546  0.993295  1
  Br  Br4  1  0.265914  0.429635  0.360208  1
  Br  Br5  1  0.778882  0.592375  0.646988  1
  Br  Br6  1  0.261095  0.915445  0.839346  1
  Br  Br7  1  0.757273  0.080339  0.145269  1
  Br  Br8  1  0.791389  0.067516  0.675491  1
  Br  Br9  1  0.275359  0.902708  0.317038  1
  Br  Br10  1  0.279249  0.413525  0.805069  1
  Br  Br11  1  0.790889  0.592269  0.208622  1
  O  O12  1  0.413311  0.886724  0.949562  1
  O  O13  1  0.904253  0.100644  0.026790  1
  O  O14  1  0.364190  0.802773  0.679511  1
  O  O15  1  0.870641  0.200910  0.299188  1
  O  O16  1  0.383388  0.317822  0.204999  1
  O  O17  1  0.884965  0.706125  0.805118  1
  O  O18  1  0.907667  0.212564  0.808762  1
  O  O19  1  0.410717  0.764312  0.188399  1
  O  O20  1  0.940946  0.928454  0.657808  1
  O  O21  1  0.409398  0.047571  0.333248  1
  O  O22  1  0.367566  0.073273  0.867759  1
  O  O23  1  0.858250  0.927157  0.127522  1
  O  O24  1  0.401123  0.269095  0.677583  1
  O  O25  1  0.931771  0.728952  0.339185  1
  O  O26  1  0.358595  0.417089  0.952423  1
  O  O27  1  0.870463  0.598949  0.065903  1
  O  O28  1  0.424378  0.553313  0.814006  1
  O  O29  1  0.915229  0.443881  0.186238  1
  O  O30  1  0.353034  0.590033  0.386649  1
  O  O31  1  0.881048  0.435845  0.620231  1
  O  O32  1  0.423120  0.408537  0.474129  1
  O  O33  1  0.930639  0.620641  0.534414  1
  O  O34  1  0.865963  0.079778  0.534582  1
  O  O35  1  0.349455  0.894761  0.460140  1
