# generated using pymatgen
data_Tb4Tm9Lu7Bi12
_symmetry_space_group_name_H-M   'P 1'
_cell_length_a   8.16748338
_cell_length_b   9.41263208
_cell_length_c   11.91226246
_cell_angle_alpha   89.99588196
_cell_angle_beta   89.96826037
_cell_angle_gamma   89.98550028
_symmetry_Int_Tables_number   1
_chemical_formula_structural   Tb4Tm9Lu7Bi12
_chemical_formula_sum   'Tb4 Tm9 Lu7 Bi12'
_cell_volume   915.78497691
_cell_formula_units_Z   1
loop_
 _symmetry_equiv_pos_site_id
 _symmetry_equiv_pos_as_xyz
  1  'x, y, z'
loop_
 _atom_site_type_symbol
 _atom_site_label
 _atom_site_symmetry_multiplicity
 _atom_site_fract_x
 _atom_site_fract_y
 _atom_site_fract_z
 _atom_site_occupancy
  Tb  Tb0  1  0.313489  0.249941  0.218101  1
  Tb  Tb1  1  0.813494  0.249867  0.282057  1
  Tb  Tb2  1  0.686416  0.750133  0.782024  1
  Tb  Tb3  1  0.186502  0.749904  0.717981  1
  Tm  Tm4  1  0.352727  0.749883  0.217899  1
  Tm  Tm5  1  0.852795  0.750033  0.282072  1
  Tm  Tm6  1  0.647377  0.249803  0.781989  1
  Tm  Tm7  1  0.146977  0.249746  0.717764  1
  Tm  Tm8  1  0.692316  0.566192  0.059733  1
  Tm  Tm9  1  0.192440  0.933842  0.440275  1
  Tm  Tm10  1  0.307646  0.065918  0.940227  1
  Tm  Tm11  1  0.807579  0.433847  0.559690  1
  Tm  Tm12  1  0.307763  0.434035  0.940320  1
  Lu  Lu13  1  0.807522  0.066814  0.559734  1
  Lu  Lu14  1  0.692498  0.933222  0.059774  1
  Lu  Lu15  1  0.192419  0.566832  0.440230  1
  Lu  Lu16  1  0.476832  0.249916  0.488944  1
  Lu  Lu17  1  0.976479  0.249889  0.011088  1
  Lu  Lu18  1  0.523175  0.749823  0.510992  1
  Lu  Lu19  1  0.022984  0.750133  0.988992  1
  Bi  Bi20  1  0.404124  0.750300  0.959529  1
  Bi  Bi21  1  0.903839  0.750638  0.540600  1
  Bi  Bi22  1  0.596344  0.249092  0.040707  1
  Bi  Bi23  1  0.096141  0.250658  0.459390  1
  Bi  Bi24  1  0.565581  0.994384  0.326692  1
  Bi  Bi25  1  0.065666  0.505474  0.173359  1
  Bi  Bi26  1  0.434519  0.494351  0.673200  1
  Bi  Bi27  1  0.934400  0.005490  0.826647  1
  Bi  Bi28  1  0.434471  0.005421  0.673290  1
  Bi  Bi29  1  0.934344  0.494484  0.826612  1
  Bi  Bi30  1  0.565637  0.505457  0.326728  1
  Bi  Bi31  1  0.065503  0.994477  0.173362  1
