# generated using pymatgen
data_LuPaPd6
_symmetry_space_group_name_H-M   'P 1'
_cell_length_a   5.76723600
_cell_length_b   5.76723473
_cell_length_c   4.83309300
_cell_angle_alpha   90.00000000
_cell_angle_beta   90.00000000
_cell_angle_gamma   119.99999580
_symmetry_Int_Tables_number   1
_chemical_formula_structural   LuPaPd6
_chemical_formula_sum   'Lu1 Pa1 Pd6'
_cell_volume   139.21664187
_cell_formula_units_Z   1
loop_
 _symmetry_equiv_pos_site_id
 _symmetry_equiv_pos_as_xyz
  1  'x, y, z'
loop_
 _atom_site_type_symbol
 _atom_site_label
 _atom_site_symmetry_multiplicity
 _atom_site_fract_x
 _atom_site_fract_y
 _atom_site_fract_z
 _atom_site_occupancy
  Lu  Lu0  1  0.666667  0.333333  0.250000  1
  Pa  Pa1  1  0.333333  0.666667  0.750000  1
  Pd  Pd2  1  0.836926  0.163074  0.750000  1
  Pd  Pd3  1  0.326148  0.163074  0.750000  1
  Pd  Pd4  1  0.836926  0.673852  0.750000  1
  Pd  Pd5  1  0.163843  0.836157  0.250000  1
  Pd  Pd6  1  0.672313  0.836157  0.250000  1
  Pd  Pd7  1  0.163843  0.327687  0.250000  1
