# generated using pymatgen
data_Nd8SiPtI12
_symmetry_space_group_name_H-M   'P 1'
_cell_length_a   4.36243000
_cell_length_b   14.50402243
_cell_length_c   15.25481254
_cell_angle_alpha   89.74279585
_cell_angle_beta   90.00000000
_cell_angle_gamma   90.00000000
_symmetry_Int_Tables_number   1
_chemical_formula_structural   Nd8SiPtI12
_chemical_formula_sum   'Nd8 Si1 Pt1 I12'
_cell_volume   965.20471146
_cell_formula_units_Z   1
loop_
 _symmetry_equiv_pos_site_id
 _symmetry_equiv_pos_as_xyz
  1  'x, y, z'
loop_
 _atom_site_type_symbol
 _atom_site_label
 _atom_site_symmetry_multiplicity
 _atom_site_fract_x
 _atom_site_fract_y
 _atom_site_fract_z
 _atom_site_occupancy
  Nd  Nd0  1  0.500000  0.113883  0.347442  1
  Nd  Nd1  1  0.500000  0.886117  0.652558  1
  Nd  Nd2  1  0.500000  0.614562  0.153823  1
  Nd  Nd3  1  0.500000  0.385438  0.846177  1
  Nd  Nd4  1  0.000000  0.112493  0.575488  1
  Nd  Nd5  1  0.000000  0.887507  0.424512  1
  Nd  Nd6  1  0.000000  0.612998  0.924122  1
  Nd  Nd7  1  0.000000  0.387002  0.075878  1
  Si  Si8  1  0.500000  0.500000  0.000000  1
  Pt  Pt9  1  0.500000  0.000000  0.500000  1
  I  I10  1  0.500000  0.244263  0.162724  1
  I  I11  1  0.500000  0.755737  0.837276  1
  I  I12  1  0.500000  0.743533  0.336925  1
  I  I13  1  0.500000  0.256467  0.663075  1
  I  I14  1  0.000000  0.259925  0.413525  1
  I  I15  1  0.000000  0.740075  0.586475  1
  I  I16  1  0.000000  0.757876  0.085403  1
  I  I17  1  0.000000  0.242124  0.914597  1
  I  I18  1  0.000000  0.998848  0.238707  1
  I  I19  1  0.000000  0.001152  0.761293  1
  I  I20  1  0.000000  0.498257  0.259198  1
  I  I21  1  0.000000  0.501743  0.740802  1
