# generated using pymatgen
data_TmZn3P7N12
_symmetry_space_group_name_H-M   'P 1'
_cell_length_a   7.24949176
_cell_length_b   7.25164623
_cell_length_c   7.24949204
_cell_angle_alpha   109.47724860
_cell_angle_beta   109.46520568
_cell_angle_gamma   109.47723940
_symmetry_Int_Tables_number   1
_chemical_formula_structural   TmZn3P7N12
_chemical_formula_sum   'Tm1 Zn3 P7 N12'
_cell_volume   293.35771754
_cell_formula_units_Z   1
loop_
 _symmetry_equiv_pos_site_id
 _symmetry_equiv_pos_as_xyz
  1  'x, y, z'
loop_
 _atom_site_type_symbol
 _atom_site_label
 _atom_site_symmetry_multiplicity
 _atom_site_fract_x
 _atom_site_fract_y
 _atom_site_fract_z
 _atom_site_occupancy
  Tm  Tm0  1  0.000000  0.329495  0.000000  1
  Zn  Zn1  1  0.670801  0.668155  0.670801  1
  Zn  Zn2  1  0.329199  0.997354  0.000000  1
  Zn  Zn3  1  0.000000  0.997354  0.329199  1
  P  P4  1  0.746692  0.251408  0.494346  1
  P  P5  1  0.252346  0.757063  0.505654  1
  P  P6  1  0.505654  0.757063  0.252346  1
  P  P7  1  0.494346  0.251408  0.746692  1
  P  P8  1  0.747654  0.504716  0.253308  1
  P  P9  1  0.253308  0.504716  0.747654  1
  P  P10  1  0.000000  0.964430  0.000000  1
  N  N11  1  0.568812  0.276091  0.000000  1
  N  N12  1  0.438800  0.441112  0.710118  1
  N  N13  1  0.000000  0.276091  0.568812  1
  N  N14  1  0.271318  0.002311  0.561200  1
  N  N15  1  0.710118  0.441112  0.438800  1
  N  N16  1  0.000000  0.565118  0.286810  1
  N  N17  1  0.561200  0.002311  0.271318  1
  N  N18  1  0.431188  0.707279  0.431188  1
  N  N19  1  0.286810  0.565118  0.000000  1
  N  N20  1  0.713190  0.278308  0.713190  1
  N  N21  1  0.728682  0.730994  0.289882  1
  N  N22  1  0.289882  0.730994  0.728682  1
