# generated using pymatgen
data_Lu12InCu5
_symmetry_space_group_name_H-M   'P 1'
_cell_length_a   8.22323658
_cell_length_b   8.22323693
_cell_length_c   8.22323700
_cell_angle_alpha   111.53962762
_cell_angle_beta   110.78372260
_cell_angle_gamma   106.14171256
_symmetry_Int_Tables_number   1
_chemical_formula_structural   Lu12InCu5
_chemical_formula_sum   'Lu12 In1 Cu5'
_cell_volume   426.96595976
_cell_formula_units_Z   1
loop_
 _symmetry_equiv_pos_site_id
 _symmetry_equiv_pos_as_xyz
  1  'x, y, z'
loop_
 _atom_site_type_symbol
 _atom_site_label
 _atom_site_symmetry_multiplicity
 _atom_site_fract_x
 _atom_site_fract_y
 _atom_site_fract_z
 _atom_site_occupancy
  Lu  Lu0  1  0.421674  0.228126  0.193547  1
  Lu  Lu1  1  0.578326  0.771874  0.806453  1
  Lu  Lu2  1  0.034578  0.228126  0.806453  1
  Lu  Lu3  1  0.965422  0.771874  0.193547  1
  Lu  Lu4  1  0.181527  0.280411  0.461938  1
  Lu  Lu5  1  0.818473  0.719589  0.538062  1
  Lu  Lu6  1  0.181527  0.719589  0.901117  1
  Lu  Lu7  1  0.818473  0.280411  0.098883  1
  Lu  Lu8  1  0.322363  0.621282  0.298919  1
  Lu  Lu9  1  0.677637  0.378718  0.701081  1
  Lu  Lu10  1  0.322363  0.023444  0.701081  1
  Lu  Lu11  1  0.677637  0.976556  0.298919  1
  In  In12  1  0.500000  0.500000  0.000000  1
  Cu  Cu13  1  0.358641  0.000000  0.358641  1
  Cu  Cu14  1  0.641359  0.000000  0.641359  1
  Cu  Cu15  1  0.123467  0.623467  0.500000  1
  Cu  Cu16  1  0.876533  0.376533  0.500000  1
  Cu  Cu17  1  0.000000  0.000000  0.000000  1
