# generated using pymatgen
data_LaEr3(MoN3)4
_symmetry_space_group_name_H-M   'P 1'
_cell_length_a   7.18584069
_cell_length_b   7.18584127
_cell_length_c   6.17231600
_cell_angle_alpha   75.08758572
_cell_angle_beta   75.08758447
_cell_angle_gamma   83.15923864
_symmetry_Int_Tables_number   1
_chemical_formula_structural   LaEr3(MoN3)4
_chemical_formula_sum   'La1 Er3 Mo4 N12'
_cell_volume   297.13098905
_cell_formula_units_Z   1
loop_
 _symmetry_equiv_pos_site_id
 _symmetry_equiv_pos_as_xyz
  1  'x, y, z'
loop_
 _atom_site_type_symbol
 _atom_site_label
 _atom_site_symmetry_multiplicity
 _atom_site_fract_x
 _atom_site_fract_y
 _atom_site_fract_z
 _atom_site_occupancy
  La  La0  1  0.308499  0.691501  0.750000  1
  Er  Er1  1  0.908741  0.091259  0.750000  1
  Er  Er2  1  0.696809  0.303191  0.250000  1
  Er  Er3  1  0.079334  0.920666  0.250000  1
  Mo  Mo4  1  0.803761  0.615963  0.749527  1
  Mo  Mo5  1  0.199347  0.380749  0.256757  1
  Mo  Mo6  1  0.619251  0.800653  0.243243  1
  Mo  Mo7  1  0.384037  0.196239  0.750473  1
  N  N8  1  0.208245  0.006264  0.854735  1
  N  N9  1  0.354626  0.374655  0.474349  1
  N  N10  1  0.661476  0.625918  0.517237  1
  N  N11  1  0.621828  0.097478  0.651634  1
  N  N12  1  0.993736  0.791755  0.645265  1
  N  N13  1  0.777832  0.007748  0.145568  1
  N  N14  1  0.110669  0.622392  0.165703  1
  N  N15  1  0.902522  0.378172  0.848366  1
  N  N16  1  0.992252  0.222168  0.354432  1
  N  N17  1  0.374082  0.338524  0.982763  1
  N  N18  1  0.625345  0.645374  0.025651  1
  N  N19  1  0.377608  0.889331  0.334297  1
