# generated using pymatgen
data_Gd4CdPt4Pb
_symmetry_space_group_name_H-M   'P 1'
_cell_length_a   3.68702600
_cell_length_b   7.83833200
_cell_length_c   7.83833200
_cell_angle_alpha   90.00000000
_cell_angle_beta   90.00000000
_cell_angle_gamma   90.00000000
_symmetry_Int_Tables_number   1
_chemical_formula_structural   Gd4CdPt4Pb
_chemical_formula_sum   'Gd4 Cd1 Pt4 Pb1'
_cell_volume   226.52884420
_cell_formula_units_Z   1
loop_
 _symmetry_equiv_pos_site_id
 _symmetry_equiv_pos_as_xyz
  1  'x, y, z'
loop_
 _atom_site_type_symbol
 _atom_site_label
 _atom_site_symmetry_multiplicity
 _atom_site_fract_x
 _atom_site_fract_y
 _atom_site_fract_z
 _atom_site_occupancy
  Gd  Gd0  1  0.500000  0.168697  0.670623  1
  Gd  Gd1  1  0.500000  0.831303  0.329377  1
  Gd  Gd2  1  0.500000  0.329377  0.168697  1
  Gd  Gd3  1  0.500000  0.670623  0.831303  1
  Cd  Cd4  1  0.000000  0.000000  0.000000  1
  Pt  Pt5  1  0.000000  0.632546  0.125065  1
  Pt  Pt6  1  0.000000  0.367454  0.874935  1
  Pt  Pt7  1  0.000000  0.874935  0.632546  1
  Pt  Pt8  1  0.000000  0.125065  0.367454  1
  Pb  Pb9  1  0.000000  0.500000  0.500000  1
