# generated using pymatgen
data_Ho4GaNiPd5Pt6
_symmetry_space_group_name_H-M   'P 1'
_cell_length_a   7.27060076
_cell_length_b   7.27254284
_cell_length_c   7.27060066
_cell_angle_alpha   109.88493212
_cell_angle_beta   109.34462984
_cell_angle_gamma   109.17409075
_symmetry_Int_Tables_number   1
_chemical_formula_structural   Ho4GaNiPd5Pt6
_chemical_formula_sum   'Ho4 Ga1 Ni1 Pd5 Pt6'
_cell_volume   295.96812318
_cell_formula_units_Z   1
loop_
 _symmetry_equiv_pos_site_id
 _symmetry_equiv_pos_as_xyz
  1  'x, y, z'
loop_
 _atom_site_type_symbol
 _atom_site_label
 _atom_site_symmetry_multiplicity
 _atom_site_fract_x
 _atom_site_fract_y
 _atom_site_fract_z
 _atom_site_occupancy
  Ho  Ho0  1  0.998944  0.018942  0.527089  1
  Ho  Ho1  1  0.001149  0.528151  0.019953  1
  Ho  Ho2  1  0.491854  0.018942  0.019999  1
  Ho  Ho3  1  0.508197  0.528151  0.527002  1
  Ga  Ga4  1  0.999759  0.576225  0.576466  1
  Ni  Ni5  1  0.000212  0.851410  0.851198  1
  Pd  Pd6  1  0.718335  0.234388  0.516053  1
  Pd  Pd7  1  0.717914  0.515214  0.232644  1
  Pd  Pd8  1  0.500268  0.268890  0.768622  1
  Pd  Pd9  1  0.282570  0.515214  0.797301  1
  Pd  Pd10  1  0.280910  0.796831  0.515921  1
  Pt  Pt11  1  0.499857  0.768598  0.268741  1
  Pt  Pt12  1  0.751388  0.779441  0.028052  1
  Pt  Pt13  1  0.249349  0.027424  0.276937  1
  Pt  Pt14  1  0.999993  0.267823  0.267830  1
  Pt  Pt15  1  0.248814  0.276935  0.028121  1
  Pt  Pt16  1  0.750487  0.027424  0.778075  1
