# generated using pymatgen
data_Tb6BiO11F
_symmetry_space_group_name_H-M   'P 1'
_cell_length_a   6.61044322
_cell_length_b   6.59529661
_cell_length_c   6.63395411
_cell_angle_alpha   99.18534571
_cell_angle_beta   99.12277397
_cell_angle_gamma   98.96383002
_symmetry_Int_Tables_number   1
_chemical_formula_structural   Tb6BiO11F
_chemical_formula_sum   'Tb6 Bi1 O11 F1'
_cell_volume   276.99586957
_cell_formula_units_Z   1
loop_
 _symmetry_equiv_pos_site_id
 _symmetry_equiv_pos_as_xyz
  1  'x, y, z'
loop_
 _atom_site_type_symbol
 _atom_site_label
 _atom_site_symmetry_multiplicity
 _atom_site_fract_x
 _atom_site_fract_y
 _atom_site_fract_z
 _atom_site_occupancy
  Tb  Tb0  1  0.699355  0.401189  0.869768  1
  Tb  Tb1  1  0.855695  0.689386  0.393269  1
  Tb  Tb2  1  0.390396  0.841521  0.690646  1
  Tb  Tb3  1  0.312950  0.609118  0.146891  1
  Tb  Tb4  1  0.126406  0.315187  0.609682  1
  Tb  Tb5  1  0.618775  0.137585  0.292670  1
  Bi  Bi6  1  0.003617  0.001905  0.997546  1
  O  O7  1  0.588525  0.434728  0.180691  1
  O  O8  1  0.174846  0.583609  0.432875  1
  O  O9  1  0.567541  0.830633  0.418917  1
  O  O10  1  0.411889  0.558992  0.818646  1
  O  O11  1  0.813784  0.407011  0.568229  1
  O  O12  1  0.068375  0.317913  0.951499  1
  O  O13  1  0.684365  0.052679  0.928977  1
  O  O14  1  0.056299  0.931534  0.684748  1
  O  O15  1  0.928212  0.688049  0.050975  1
  O  O16  1  0.316657  0.948509  0.071214  1
  O  O17  1  0.955442  0.073192  0.312541  1
  F  F18  1  0.426873  0.177259  0.580215  1
