# generated using pymatgen
data_Cs7NbTlIn2As5
_symmetry_space_group_name_H-M   'P 1'
_cell_length_a   9.01730143
_cell_length_b   9.89386119
_cell_length_c   15.07175146
_cell_angle_alpha   85.52970753
_cell_angle_beta   85.34849699
_cell_angle_gamma   85.99261157
_symmetry_Int_Tables_number   1
_chemical_formula_structural   Cs7NbTlIn2As5
_chemical_formula_sum   'Cs14 Nb2 Tl2 In4 As10'
_cell_volume   1333.39793140
_cell_formula_units_Z   2
loop_
 _symmetry_equiv_pos_site_id
 _symmetry_equiv_pos_as_xyz
  1  'x, y, z'
loop_
 _atom_site_type_symbol
 _atom_site_label
 _atom_site_symmetry_multiplicity
 _atom_site_fract_x
 _atom_site_fract_y
 _atom_site_fract_z
 _atom_site_occupancy
  Cs  Cs0  1  0.238941  0.007696  0.469303  1
  Cs  Cs1  1  0.761058  0.992303  0.530697  1
  Cs  Cs2  1  0.189129  0.186822  0.869708  1
  Cs  Cs3  1  0.810860  0.813175  0.130295  1
  Cs  Cs4  1  0.743949  0.499375  0.974597  1
  Cs  Cs5  1  0.256039  0.500629  0.025411  1
  Cs  Cs6  1  0.314189  0.341199  0.602074  1
  Cs  Cs7  1  0.685816  0.658802  0.397935  1
  Cs  Cs8  1  0.691415  0.082346  0.886590  1
  Cs  Cs9  1  0.308582  0.917649  0.113421  1
  Cs  Cs10  1  0.827537  0.368703  0.642960  1
  Cs  Cs11  1  0.172453  0.631291  0.357040  1
  Cs  Cs12  1  0.731248  0.748595  0.747624  1
  Cs  Cs13  1  0.268747  0.251403  0.252383  1
  Nb  Nb14  1  0.355906  0.607254  0.771801  1
  Nb  Nb15  1  0.644105  0.392741  0.228200  1
  Tl  Tl16  1  0.371167  0.955354  0.703255  1
  Tl  Tl17  1  0.628827  0.044642  0.296749  1
  In  In18  1  0.095637  0.725281  0.625738  1
  In  In19  1  0.904387  0.274710  0.374258  1
  In  In20  1  0.067389  0.813144  0.867128  1
  In  In21  1  0.932630  0.186860  0.132836  1
  As  As22  1  0.381711  0.793903  0.876651  1
  As  As23  1  0.618276  0.206070  0.123334  1
  As  As24  1  0.412177  0.699748  0.610687  1
  As  As25  1  0.587828  0.300240  0.389340  1
  As  As26  1  0.085481  0.552153  0.787823  1
  As  As27  1  0.914569  0.447851  0.212173  1
  As  As28  1  0.512149  0.402753  0.807317  1
  As  As29  1  0.487803  0.597311  0.192683  1
  As  As30  1  0.034873  0.993545  0.702541  1
  As  As31  1  0.965123  0.006453  0.297448  1
