# generated using pymatgen
data_HoPa(SiPd)2
_symmetry_space_group_name_H-M   'P 1'
_cell_length_a   4.28450500
_cell_length_b   7.11755174
_cell_length_c   7.52227700
_cell_angle_alpha   89.21105797
_cell_angle_beta   90.00000000
_cell_angle_gamma   90.00000000
_symmetry_Int_Tables_number   1
_chemical_formula_structural   HoPa(SiPd)2
_chemical_formula_sum   'Ho2 Pa2 Si4 Pd4'
_cell_volume   229.37149004
_cell_formula_units_Z   2
loop_
 _symmetry_equiv_pos_site_id
 _symmetry_equiv_pos_as_xyz
  1  'x, y, z'
loop_
 _atom_site_type_symbol
 _atom_site_label
 _atom_site_symmetry_multiplicity
 _atom_site_fract_x
 _atom_site_fract_y
 _atom_site_fract_z
 _atom_site_occupancy
  Ho  Ho0  1  0.250000  0.501918  0.796563  1
  Ho  Ho1  1  0.750000  0.498082  0.203437  1
  Pa  Pa2  1  0.750000  0.001042  0.292635  1
  Pa  Pa3  1  0.250000  0.998958  0.707365  1
  Si  Si4  1  0.750000  0.727077  0.592853  1
  Si  Si5  1  0.250000  0.272923  0.407147  1
  Si  Si6  1  0.250000  0.801168  0.101464  1
  Si  Si7  1  0.750000  0.198832  0.898536  1
  Pd  Pd8  1  0.750000  0.792526  0.923266  1
  Pd  Pd9  1  0.250000  0.207474  0.076734  1
  Pd  Pd10  1  0.250000  0.676479  0.425483  1
  Pd  Pd11  1  0.750000  0.323521  0.574517  1
