# generated using pymatgen
data_Ce12Mn3Ga2Si4Ru3
_symmetry_space_group_name_H-M   'P 1'
_cell_length_a   7.63644900
_cell_length_b   7.63644890
_cell_length_c   9.68123400
_cell_angle_alpha   90.00000000
_cell_angle_beta   90.00000000
_cell_angle_gamma   119.99999611
_symmetry_Int_Tables_number   1
_chemical_formula_structural   Ce12Mn3Ga2Si4Ru3
_chemical_formula_sum   'Ce12 Mn3 Ga2 Si4 Ru3'
_cell_volume   488.92728221
_cell_formula_units_Z   1
loop_
 _symmetry_equiv_pos_site_id
 _symmetry_equiv_pos_as_xyz
  1  'x, y, z'
loop_
 _atom_site_type_symbol
 _atom_site_label
 _atom_site_symmetry_multiplicity
 _atom_site_fract_x
 _atom_site_fract_y
 _atom_site_fract_z
 _atom_site_occupancy
  Ce  Ce0  1  0.000000  0.566660  0.490586  1
  Ce  Ce1  1  0.566660  0.000000  0.490586  1
  Ce  Ce2  1  0.433340  0.433340  0.490586  1
  Ce  Ce3  1  0.000000  0.413312  0.008960  1
  Ce  Ce4  1  0.413312  0.000000  0.008960  1
  Ce  Ce5  1  0.586688  0.586688  0.008960  1
  Ce  Ce6  1  0.000000  0.743515  0.182044  1
  Ce  Ce7  1  0.743515  0.000000  0.182044  1
  Ce  Ce8  1  0.256485  0.256485  0.182044  1
  Ce  Ce9  1  0.000000  0.263437  0.674748  1
  Ce  Ce10  1  0.263437  0.000000  0.674748  1
  Ce  Ce11  1  0.736563  0.736563  0.674748  1
  Mn  Mn12  1  0.000000  0.358079  0.338788  1
  Mn  Mn13  1  0.358079  0.000000  0.338788  1
  Mn  Mn14  1  0.641921  0.641921  0.338788  1
  Ga  Ga15  1  0.000000  0.000000  0.425807  1
  Ga  Ga16  1  0.000000  0.000000  0.923596  1
  Si  Si17  1  0.666667  0.333333  0.267428  1
  Si  Si18  1  0.333333  0.666667  0.267428  1
  Si  Si19  1  0.333333  0.666667  0.772069  1
  Si  Si20  1  0.666667  0.333333  0.772069  1
  Ru  Ru21  1  0.000000  0.652289  0.838493  1
  Ru  Ru22  1  0.652289  0.000000  0.838493  1
  Ru  Ru23  1  0.347711  0.347711  0.838493  1
