# generated using pymatgen
data_In11HgIr3Rh
_symmetry_space_group_name_H-M   'P 1'
_cell_length_a   7.11853512
_cell_length_b   7.16284595
_cell_length_c   7.25198000
_cell_angle_alpha   90.00000000
_cell_angle_beta   90.00000000
_cell_angle_gamma   89.69751707
_symmetry_Int_Tables_number   1
_chemical_formula_structural   In11HgIr3Rh
_chemical_formula_sum   'In11 Hg1 Ir3 Rh1'
_cell_volume   369.76584129
_cell_formula_units_Z   1
loop_
 _symmetry_equiv_pos_site_id
 _symmetry_equiv_pos_as_xyz
  1  'x, y, z'
loop_
 _atom_site_type_symbol
 _atom_site_label
 _atom_site_symmetry_multiplicity
 _atom_site_fract_x
 _atom_site_fract_y
 _atom_site_fract_z
 _atom_site_occupancy
  In  In0  1  0.501145  0.001011  0.000000  1
  In  In1  1  0.501759  0.000491  0.500000  1
  In  In2  1  0.999071  0.499362  0.000000  1
  In  In3  1  0.346707  0.651917  0.243551  1
  In  In4  1  0.654379  0.346989  0.243930  1
  In  In5  1  0.149539  0.158748  0.736805  1
  In  In6  1  0.849311  0.842020  0.736712  1
  In  In7  1  0.654379  0.346989  0.756070  1
  In  In8  1  0.346707  0.651917  0.756449  1
  In  In9  1  0.849311  0.842020  0.263288  1
  In  In10  1  0.149539  0.158748  0.263195  1
  Hg  Hg11  1  0.999163  0.498674  0.500000  1
  Ir  Ir12  1  0.159148  0.851344  0.500000  1
  Ir  Ir13  1  0.342332  0.343574  0.000000  1
  Ir  Ir14  1  0.656484  0.657267  0.000000  1
  Rh  Rh15  1  0.841027  0.148929  0.500000  1
