# generated using pymatgen
data_YbLu9(PtPb3)2
_symmetry_space_group_name_H-M   'P 1'
_cell_length_a   9.06408500
_cell_length_b   9.06408449
_cell_length_c   6.72405700
_cell_angle_alpha   90.00000000
_cell_angle_beta   90.00000000
_cell_angle_gamma   120.00000549
_symmetry_Int_Tables_number   1
_chemical_formula_structural   YbLu9(PtPb3)2
_chemical_formula_sum   'Yb1 Lu9 Pt2 Pb6'
_cell_volume   478.42064127
_cell_formula_units_Z   1
loop_
 _symmetry_equiv_pos_site_id
 _symmetry_equiv_pos_as_xyz
  1  'x, y, z'
loop_
 _atom_site_type_symbol
 _atom_site_label
 _atom_site_symmetry_multiplicity
 _atom_site_fract_x
 _atom_site_fract_y
 _atom_site_fract_z
 _atom_site_occupancy
  Yb  Yb0  1  0.333333  0.666667  0.500000  1
  Lu  Lu1  1  0.245293  0.000796  0.750435  1
  Lu  Lu2  1  0.755504  0.000796  0.249565  1
  Lu  Lu3  1  0.999204  0.244496  0.750435  1
  Lu  Lu4  1  0.999204  0.754707  0.249565  1
  Lu  Lu5  1  0.755504  0.754707  0.750435  1
  Lu  Lu6  1  0.245293  0.244496  0.249565  1
  Lu  Lu7  1  0.666667  0.333333  0.500000  1
  Lu  Lu8  1  0.666667  0.333333  0.000000  1
  Lu  Lu9  1  0.333333  0.666667  0.000000  1
  Pt  Pt10  1  0.000000  0.000000  0.500000  1
  Pt  Pt11  1  0.000000  0.000000  0.000000  1
  Pb  Pb12  1  0.600827  0.001215  0.751822  1
  Pb  Pb13  1  0.400388  0.001215  0.248178  1
  Pb  Pb14  1  0.998785  0.599612  0.751822  1
  Pb  Pb15  1  0.998785  0.399173  0.248178  1
  Pb  Pb16  1  0.400388  0.399173  0.751822  1
  Pb  Pb17  1  0.600827  0.599612  0.248178  1
