# generated using pymatgen
data_KDy(CN2)2
_symmetry_space_group_name_H-M   'P 1'
_cell_length_a   6.57858200
_cell_length_b   8.19745100
_cell_length_c   9.83255800
_cell_angle_alpha   90.00000000
_cell_angle_beta   90.00000000
_cell_angle_gamma   90.00000000
_symmetry_Int_Tables_number   1
_chemical_formula_structural   KDy(CN2)2
_chemical_formula_sum   'K4 Dy4 C8 N16'
_cell_volume   530.24629014
_cell_formula_units_Z   4
loop_
 _symmetry_equiv_pos_site_id
 _symmetry_equiv_pos_as_xyz
  1  'x, y, z'
loop_
 _atom_site_type_symbol
 _atom_site_label
 _atom_site_symmetry_multiplicity
 _atom_site_fract_x
 _atom_site_fract_y
 _atom_site_fract_z
 _atom_site_occupancy
  K  K0  1  0.250000  0.617716  0.000000  1
  K  K1  1  0.750000  0.882284  0.500000  1
  K  K2  1  0.750000  0.382284  0.000000  1
  K  K3  1  0.250000  0.117716  0.500000  1
  Dy  Dy4  1  0.250000  0.115289  0.000000  1
  Dy  Dy5  1  0.750000  0.384711  0.500000  1
  Dy  Dy6  1  0.750000  0.884711  0.000000  1
  Dy  Dy7  1  0.250000  0.615289  0.500000  1
  C  C8  1  0.404173  0.366911  0.741842  1
  C  C9  1  0.904173  0.133089  0.758158  1
  C  C10  1  0.595827  0.133089  0.241842  1
  C  C11  1  0.095827  0.366911  0.258158  1
  C  C12  1  0.595827  0.633089  0.258158  1
  C  C13  1  0.095827  0.866911  0.241842  1
  C  C14  1  0.404173  0.866911  0.758158  1
  C  C15  1  0.904173  0.633089  0.741842  1
  N  N16  1  0.369653  0.323804  0.858613  1
  N  N17  1  0.869653  0.176196  0.641387  1
  N  N18  1  0.630347  0.176196  0.358613  1
  N  N19  1  0.130347  0.323804  0.141387  1
  N  N20  1  0.630347  0.676196  0.141387  1
  N  N21  1  0.130347  0.823804  0.358613  1
  N  N22  1  0.369653  0.823804  0.641387  1
  N  N23  1  0.869653  0.676196  0.858613  1
  N  N24  1  0.439442  0.411842  0.622984  1
  N  N25  1  0.939442  0.088158  0.877016  1
  N  N26  1  0.560558  0.088158  0.122984  1
  N  N27  1  0.060558  0.411842  0.377016  1
  N  N28  1  0.560558  0.588158  0.377016  1
  N  N29  1  0.060558  0.911842  0.122984  1
  N  N30  1  0.439442  0.911842  0.877016  1
  N  N31  1  0.939442  0.588158  0.622984  1
