# generated using pymatgen
data_Ca2Dy2(Al8Pt3)3
_symmetry_space_group_name_H-M   'P 1'
_cell_length_a   7.53534560
_cell_length_b   7.53036307
_cell_length_c   13.23489100
_cell_angle_alpha   84.58757131
_cell_angle_beta   100.87436679
_cell_angle_gamma   119.83103227
_symmetry_Int_Tables_number   1
_chemical_formula_structural   Ca2Dy2(Al8Pt3)3
_chemical_formula_sum   'Ca2 Dy2 Al24 Pt9'
_cell_volume   639.79015070
_cell_formula_units_Z   1
loop_
 _symmetry_equiv_pos_site_id
 _symmetry_equiv_pos_as_xyz
  1  'x, y, z'
loop_
 _atom_site_type_symbol
 _atom_site_label
 _atom_site_symmetry_multiplicity
 _atom_site_fract_x
 _atom_site_fract_y
 _atom_site_fract_z
 _atom_site_occupancy
  Ca  Ca0  1  0.767589  0.501005  0.807638  1
  Ca  Ca1  1  0.232411  0.498995  0.192362  1
  Dy  Dy2  1  0.437020  0.831368  0.807966  1
  Dy  Dy3  1  0.562980  0.168632  0.192034  1
  Al  Al4  1  0.482084  0.166470  0.944633  1
  Al  Al5  1  0.517916  0.833530  0.055367  1
  Al  Al6  1  0.020900  0.168451  0.560922  1
  Al  Al7  1  0.979100  0.831549  0.439078  1
  Al  Al8  1  0.353380  0.833666  0.558966  1
  Al  Al9  1  0.646620  0.166334  0.441034  1
  Al  Al10  1  0.617257  0.833850  0.329596  1
  Al  Al11  1  0.382743  0.166150  0.670404  1
  Al  Al12  1  0.055610  0.493218  0.670705  1
  Al  Al13  1  0.944390  0.506782  0.329295  1
  Al  Al14  1  0.730275  0.839508  0.668599  1
  Al  Al15  1  0.269725  0.160492  0.331401  1
  Al  Al16  1  0.147859  0.499907  0.945863  1
  Al  Al17  1  0.852141  0.500093  0.054137  1
  Al  Al18  1  0.817273  0.832441  0.955016  1
  Al  Al19  1  0.182727  0.167559  0.044984  1
  Al  Al20  1  0.314286  0.500358  0.441036  1
  Al  Al21  1  0.685714  0.499642  0.558964  1
  Al  Al22  1  0.103412  0.838803  0.183363  1
  Al  Al23  1  0.896588  0.161197  0.816637  1
  Al  Al24  1  0.305988  0.370882  0.815565  1
  Al  Al25  1  0.694012  0.629118  0.184435  1
  Al  Al26  1  0.106625  0.960632  0.816237  1
  Al  Al27  1  0.893375  0.039368  0.183763  1
  Pt  Pt28  1  0.386257  0.507962  0.637403  1
  Pt  Pt29  1  0.613743  0.492038  0.362597  1
  Pt  Pt30  1  0.171850  0.829713  0.999882  1
  Pt  Pt31  1  0.828150  0.170287  0.000118  1
  Pt  Pt32  1  0.295632  0.833766  0.362480  1
  Pt  Pt33  1  0.704368  0.166234  0.637520  1
  Pt  Pt34  1  0.046306  0.826448  0.636533  1
  Pt  Pt35  1  0.953694  0.173552  0.363467  1
  Pt  Pt36  1  0.500000  0.500000  0.000000  1
