# generated using pymatgen
data_Tl2Hg(CO3)2
_symmetry_space_group_name_H-M   'P 1'
_cell_length_a   6.04831723
_cell_length_b   7.18748187
_cell_length_c   9.99966300
_cell_angle_alpha   97.31053171
_cell_angle_beta   72.39663112
_cell_angle_gamma   114.88216658
_symmetry_Int_Tables_number   1
_chemical_formula_structural   Tl2Hg(CO3)2
_chemical_formula_sum   'Tl4 Hg2 C4 O12'
_cell_volume   375.88885640
_cell_formula_units_Z   2
loop_
 _symmetry_equiv_pos_site_id
 _symmetry_equiv_pos_as_xyz
  1  'x, y, z'
loop_
 _atom_site_type_symbol
 _atom_site_label
 _atom_site_symmetry_multiplicity
 _atom_site_fract_x
 _atom_site_fract_y
 _atom_site_fract_z
 _atom_site_occupancy
  Tl  Tl0  1  0.674061  0.334007  0.093854  1
  Tl  Tl1  1  0.017916  0.834006  0.406146  1
  Tl  Tl2  1  0.590056  0.165994  0.593854  1
  Tl  Tl3  1  0.433908  0.665995  0.906147  1
  Hg  Hg4  1  0.986481  0.000000  0.000000  1
  Hg  Hg5  1  0.236482  0.500001  0.500000  1
  C  C6  1  0.116869  0.385115  0.238560  1
  C  C7  1  0.605430  0.885116  0.261441  1
  C  C8  1  0.981754  0.114884  0.738560  1
  C  C9  1  0.970313  0.614884  0.761440  1
  O  O10  1  0.165763  0.354743  0.105253  1
  O  O11  1  0.490676  0.921655  0.186729  1
  O  O12  1  0.832954  0.876633  0.201510  1
  O  O13  1  0.284463  0.376632  0.298490  1
  O  O14  1  0.927403  0.421654  0.313271  1
  O  O15  1  0.521015  0.854744  0.394747  1
  O  O16  1  0.061018  0.145257  0.605253  1
  O  O17  1  0.819020  0.578346  0.686729  1
  O  O18  1  0.206321  0.623368  0.701510  1
  O  O19  1  0.157831  0.123367  0.798490  1
  O  O20  1  0.755749  0.078345  0.813272  1
  O  O21  1  0.916271  0.645256  0.894747  1
