# generated using pymatgen
data_Tm7Sn23(IrOs2)2
_symmetry_space_group_name_H-M   'P 1'
_cell_length_a   9.73305271
_cell_length_b   9.73305387
_cell_length_c   9.98516500
_cell_angle_alpha   90.21683791
_cell_angle_beta   89.78315618
_cell_angle_gamma   120.12778846
_symmetry_Int_Tables_number   1
_chemical_formula_structural   Tm7Sn23(IrOs2)2
_chemical_formula_sum   'Tm7 Sn23 Ir2 Os4'
_cell_volume   818.12424582
_cell_formula_units_Z   1
loop_
 _symmetry_equiv_pos_site_id
 _symmetry_equiv_pos_as_xyz
  1  'x, y, z'
loop_
 _atom_site_type_symbol
 _atom_site_label
 _atom_site_symmetry_multiplicity
 _atom_site_fract_x
 _atom_site_fract_y
 _atom_site_fract_z
 _atom_site_occupancy
  Tm  Tm0  1  0.483976  0.516024  0.304368  1
  Tm  Tm1  1  0.516024  0.483976  0.695632  1
  Tm  Tm2  1  0.482538  0.967667  0.305563  1
  Tm  Tm3  1  0.517462  0.032333  0.694437  1
  Tm  Tm4  1  0.032333  0.517462  0.305563  1
  Tm  Tm5  1  0.967667  0.482538  0.694437  1
  Tm  Tm6  1  0.000000  0.000000  0.000000  1
  Sn  Sn7  1  0.119367  0.880633  0.275759  1
  Sn  Sn8  1  0.880633  0.119367  0.724241  1
  Sn  Sn9  1  0.118358  0.237684  0.280060  1
  Sn  Sn10  1  0.881642  0.762316  0.719940  1
  Sn  Sn11  1  0.762316  0.881642  0.280060  1
  Sn  Sn12  1  0.237684  0.118358  0.719940  1
  Sn  Sn13  1  0.778619  0.221381  0.462644  1
  Sn  Sn14  1  0.221381  0.778619  0.537356  1
  Sn  Sn15  1  0.779372  0.558666  0.461983  1
  Sn  Sn16  1  0.220628  0.441334  0.538017  1
  Sn  Sn17  1  0.441334  0.220628  0.461983  1
  Sn  Sn18  1  0.558666  0.779372  0.538017  1
  Sn  Sn19  1  0.353120  0.002343  0.999769  1
  Sn  Sn20  1  0.646880  0.997657  0.000231  1
  Sn  Sn21  1  0.002343  0.353120  0.000231  1
  Sn  Sn22  1  0.997657  0.646880  0.999769  1
  Sn  Sn23  1  0.649540  0.649540  0.000000  1
  Sn  Sn24  1  0.350460  0.350460  0.000000  1
  Sn  Sn25  1  0.333430  0.666570  0.129456  1
  Sn  Sn26  1  0.666570  0.333430  0.870544  1
  Sn  Sn27  1  0.334378  0.665622  0.822808  1
  Sn  Sn28  1  0.665622  0.334378  0.177192  1
  Sn  Sn29  1  0.000000  0.000000  0.500000  1
  Ir  Ir30  1  0.829127  0.170873  0.200639  1
  Ir  Ir31  1  0.170873  0.829127  0.799361  1
  Os  Os32  1  0.829574  0.660302  0.201659  1
  Os  Os33  1  0.170426  0.339698  0.798341  1
  Os  Os34  1  0.339698  0.170426  0.201659  1
  Os  Os35  1  0.660302  0.829574  0.798341  1
