# generated using pymatgen
data_NdEr3Lu(In2Pt)2
_symmetry_space_group_name_H-M   'P 1'
_cell_length_a   3.60221800
_cell_length_b   8.17908414
_cell_length_c   18.27537232
_cell_angle_alpha   89.97846775
_cell_angle_beta   90.00000000
_cell_angle_gamma   90.00000000
_symmetry_Int_Tables_number   1
_chemical_formula_structural   NdEr3Lu(In2Pt)2
_chemical_formula_sum   'Nd2 Er6 Lu2 In8 Pt4'
_cell_volume   538.44440811
_cell_formula_units_Z   2
loop_
 _symmetry_equiv_pos_site_id
 _symmetry_equiv_pos_as_xyz
  1  'x, y, z'
loop_
 _atom_site_type_symbol
 _atom_site_label
 _atom_site_symmetry_multiplicity
 _atom_site_fract_x
 _atom_site_fract_y
 _atom_site_fract_z
 _atom_site_occupancy
  Nd  Nd0  1  0.000000  0.000000  0.000000  1
  Nd  Nd1  1  0.000000  0.500000  0.500000  1
  Er  Er2  1  0.000000  0.378608  0.913411  1
  Er  Er3  1  0.000000  0.621392  0.086589  1
  Er  Er4  1  0.000000  0.242772  0.219383  1
  Er  Er5  1  0.000000  0.757228  0.780617  1
  Er  Er6  1  0.000000  0.257649  0.718178  1
  Er  Er7  1  0.000000  0.742351  0.281822  1
  Lu  Lu8  1  0.000000  0.121268  0.412776  1
  Lu  Lu9  1  0.000000  0.878732  0.587224  1
  In  In10  1  0.500000  0.420202  0.348074  1
  In  In11  1  0.500000  0.579798  0.651926  1
  In  In12  1  0.500000  0.077587  0.847487  1
  In  In13  1  0.500000  0.922413  0.152513  1
  In  In14  1  0.500000  0.301895  0.067375  1
  In  In15  1  0.500000  0.698105  0.932625  1
  In  In16  1  0.500000  0.194863  0.565488  1
  In  In17  1  0.500000  0.805137  0.434512  1
  Pt  Pt18  1  0.500000  0.027116  0.304763  1
  Pt  Pt19  1  0.500000  0.972884  0.695237  1
  Pt  Pt20  1  0.500000  0.472988  0.802979  1
  Pt  Pt21  1  0.500000  0.527012  0.197021  1
