# generated using pymatgen
data_Er6Tm10MgZn3Co4
_symmetry_space_group_name_H-M   'P 1'
_cell_length_a   9.31366670
_cell_length_b   9.27669023
_cell_length_c   9.27669000
_cell_angle_alpha   60.00000083
_cell_angle_beta   60.13124499
_cell_angle_gamma   60.13124353
_symmetry_Int_Tables_number   1
_chemical_formula_structural   Er6Tm10MgZn3Co4
_chemical_formula_sum   'Er6 Tm10 Mg1 Zn3 Co4'
_cell_volume   567.87204226
_cell_formula_units_Z   1
loop_
 _symmetry_equiv_pos_site_id
 _symmetry_equiv_pos_as_xyz
  1  'x, y, z'
loop_
 _atom_site_type_symbol
 _atom_site_label
 _atom_site_symmetry_multiplicity
 _atom_site_fract_x
 _atom_site_fract_y
 _atom_site_fract_z
 _atom_site_occupancy
  Er  Er0  1  0.183698  0.812198  0.812198  1
  Er  Er1  1  0.811475  0.187354  0.187354  1
  Er  Er2  1  0.811475  0.187354  0.813817  1
  Er  Er3  1  0.183698  0.812198  0.191906  1
  Er  Er4  1  0.811475  0.813817  0.187354  1
  Er  Er5  1  0.183698  0.191906  0.812198  1
  Tm  Tm6  1  0.599362  0.596336  0.596336  1
  Tm  Tm7  1  0.599362  0.596336  0.207965  1
  Tm  Tm8  1  0.599362  0.207965  0.596336  1
  Tm  Tm9  1  0.195325  0.601559  0.601559  1
  Tm  Tm10  1  0.058661  0.440636  0.440636  1
  Tm  Tm11  1  0.437318  0.062608  0.062608  1
  Tm  Tm12  1  0.437318  0.062608  0.437465  1
  Tm  Tm13  1  0.058661  0.440636  0.060065  1
  Tm  Tm14  1  0.437318  0.437465  0.062608  1
  Tm  Tm15  1  0.058661  0.060065  0.440636  1
  Mg  Mg16  1  0.537914  0.820696  0.820696  1
  Zn  Zn17  1  0.834947  0.828593  0.828593  1
  Zn  Zn18  1  0.834947  0.828593  0.507867  1
  Zn  Zn19  1  0.834947  0.507867  0.828593  1
  Co  Co20  1  0.388232  0.393628  0.393628  1
  Co  Co21  1  0.388232  0.393628  0.824514  1
  Co  Co22  1  0.388232  0.824514  0.393628  1
  Co  Co23  1  0.825681  0.391440  0.391440  1
