# generated using pymatgen
data_Cs4Hf6OsI18
_symmetry_space_group_name_H-M   'P 1'
_cell_length_a   11.67849569
_cell_length_b   11.99721502
_cell_length_c   12.10139100
_cell_angle_alpha   118.15912097
_cell_angle_beta   100.83678781
_cell_angle_gamma   104.07138288
_symmetry_Int_Tables_number   1
_chemical_formula_structural   Cs4Hf6OsI18
_chemical_formula_sum   'Cs4 Hf6 Os1 I18'
_cell_volume   1356.08056421
_cell_formula_units_Z   1
loop_
 _symmetry_equiv_pos_site_id
 _symmetry_equiv_pos_as_xyz
  1  'x, y, z'
loop_
 _atom_site_type_symbol
 _atom_site_label
 _atom_site_symmetry_multiplicity
 _atom_site_fract_x
 _atom_site_fract_y
 _atom_site_fract_z
 _atom_site_occupancy
  Cs  Cs0  1  0.657585  0.537373  0.229786  1
  Cs  Cs1  1  0.342415  0.462627  0.770214  1
  Cs  Cs2  1  0.691625  0.226920  0.564026  1
  Cs  Cs3  1  0.308375  0.773080  0.435974  1
  Hf  Hf4  1  0.146898  0.054331  0.221460  1
  Hf  Hf5  1  0.853102  0.945669  0.778540  1
  Hf  Hf6  1  0.866048  0.118414  0.124374  1
  Hf  Hf7  1  0.133952  0.881586  0.875626  1
  Hf  Hf8  1  0.140960  0.228939  0.043747  1
  Hf  Hf9  1  0.859040  0.771061  0.956253  1
  Os  Os10  1  0.000000  0.000000  0.000000  1
  I  I11  1  0.007748  0.393049  0.187971  1
  I  I12  1  0.992252  0.606951  0.812029  1
  I  I13  1  0.323877  0.323200  0.302332  1
  I  I14  1  0.676123  0.676800  0.697668  1
  I  I15  1  0.310970  0.502974  0.096985  1
  I  I16  1  0.689030  0.497026  0.903015  1
  I  I17  1  0.005240  0.803119  0.202824  1
  I  I18  1  0.994760  0.196881  0.797176  1
  I  I19  1  0.710068  0.257846  0.270811  1
  I  I20  1  0.289932  0.742154  0.729189  1
  I  I21  1  0.309637  0.125995  0.909513  1
  I  I22  1  0.690363  0.874005  0.090487  1
  I  I23  1  0.015940  0.196044  0.392480  1
  I  I24  1  0.984060  0.803956  0.607520  1
  I  I25  1  0.315124  0.928563  0.110313  1
  I  I26  1  0.684876  0.071437  0.889687  1
  I  I27  1  0.324964  0.119558  0.485199  1
  I  I28  1  0.675036  0.880442  0.514801  1
