# generated using pymatgen
data_ErPa(BrN)2
_symmetry_space_group_name_H-M   'P 1'
_cell_length_a   10.82125278
_cell_length_b   10.82125325
_cell_length_c   10.82125429
_cell_angle_alpha   20.78053206
_cell_angle_beta   20.78052550
_cell_angle_gamma   20.78052194
_symmetry_Int_Tables_number   1
_chemical_formula_structural   ErPa(BrN)2
_chemical_formula_sum   'Er1 Pa1 Br2 N2'
_cell_volume   139.64887220
_cell_formula_units_Z   1
loop_
 _symmetry_equiv_pos_site_id
 _symmetry_equiv_pos_as_xyz
  1  'x, y, z'
loop_
 _atom_site_type_symbol
 _atom_site_label
 _atom_site_symmetry_multiplicity
 _atom_site_fract_x
 _atom_site_fract_y
 _atom_site_fract_z
 _atom_site_occupancy
  Er  Er0  1  0.787100  0.787100  0.787100  1
  Pa  Pa1  1  0.207366  0.207366  0.207366  1
  Br  Br2  1  0.606218  0.606218  0.606218  1
  Br  Br3  1  0.393981  0.393981  0.393981  1
  N  N4  1  0.862996  0.862996  0.862996  1
  N  N5  1  0.142339  0.142339  0.142339  1
