# generated using pymatgen
data_ZnMo2(PO4)3
_symmetry_space_group_name_H-M   'P 1'
_cell_length_a   8.58328422
_cell_length_b   8.56504248
_cell_length_c   9.20968168
_cell_angle_alpha   62.65275016
_cell_angle_beta   63.44662120
_cell_angle_gamma   61.74289354
_symmetry_Int_Tables_number   1
_chemical_formula_structural   ZnMo2(PO4)3
_chemical_formula_sum   'Zn2 Mo4 P6 O24'
_cell_volume   506.41295622
_cell_formula_units_Z   2
loop_
 _symmetry_equiv_pos_site_id
 _symmetry_equiv_pos_as_xyz
  1  'x, y, z'
loop_
 _atom_site_type_symbol
 _atom_site_label
 _atom_site_symmetry_multiplicity
 _atom_site_fract_x
 _atom_site_fract_y
 _atom_site_fract_z
 _atom_site_occupancy
  Zn  Zn0  1  0.738377  0.078404  0.857452  1
  Zn  Zn1  1  0.261623  0.921596  0.142548  1
  Mo  Mo2  1  0.342970  0.358766  0.947226  1
  Mo  Mo3  1  0.657030  0.641234  0.052774  1
  Mo  Mo4  1  0.853688  0.840666  0.438075  1
  Mo  Mo5  1  0.146312  0.159334  0.561925  1
  P  P6  1  0.462493  0.031331  0.751842  1
  P  P7  1  0.036847  0.758971  0.743946  1
  P  P8  1  0.537507  0.968669  0.248158  1
  P  P9  1  0.963153  0.241029  0.256054  1
  P  P10  1  0.252264  0.537809  0.247810  1
  P  P11  1  0.747736  0.462191  0.752190  1
  O  O12  1  0.729822  0.873733  0.277028  1
  O  O13  1  0.496144  0.828146  0.216965  1
  O  O14  1  0.614394  0.963099  0.606017  1
  O  O15  1  0.452965  0.512507  0.211038  1
  O  O16  1  0.116719  0.905053  0.709015  1
  O  O17  1  0.126250  0.744347  0.260584  1
  O  O18  1  0.883281  0.094947  0.290985  1
  O  O19  1  0.213064  0.518300  0.112166  1
  O  O20  1  0.446144  0.863375  0.924083  1
  O  O21  1  0.270178  0.126267  0.722972  1
  O  O22  1  0.005076  0.794411  0.577251  1
  O  O23  1  0.158985  0.191012  0.116287  1
  O  O24  1  0.786936  0.481700  0.887834  1
  O  O25  1  0.503856  0.171854  0.783035  1
  O  O26  1  0.385606  0.036901  0.393983  1
  O  O27  1  0.547035  0.487493  0.788962  1
  O  O28  1  0.845220  0.440936  0.193451  1
  O  O29  1  0.154780  0.559064  0.806549  1
  O  O30  1  0.873750  0.255653  0.739416  1
  O  O31  1  0.841015  0.808988  0.883713  1
  O  O32  1  0.553856  0.136625  0.075917  1
  O  O33  1  0.183029  0.405895  0.426646  1
  O  O34  1  0.994924  0.205589  0.422749  1
  O  O35  1  0.816971  0.594105  0.573354  1
