# generated using pymatgen
data_Pr5InRuO12
_symmetry_space_group_name_H-M   'P 1'
_cell_length_a   7.17318148
_cell_length_b   7.17318225
_cell_length_c   7.69427166
_cell_angle_alpha   74.49783900
_cell_angle_beta   74.49784655
_cell_angle_gamma   51.45442743
_symmetry_Int_Tables_number   1
_chemical_formula_structural   Pr5InRuO12
_chemical_formula_sum   'Pr5 In1 Ru1 O12'
_cell_volume   295.70100182
_cell_formula_units_Z   1
loop_
 _symmetry_equiv_pos_site_id
 _symmetry_equiv_pos_as_xyz
  1  'x, y, z'
loop_
 _atom_site_type_symbol
 _atom_site_label
 _atom_site_symmetry_multiplicity
 _atom_site_fract_x
 _atom_site_fract_y
 _atom_site_fract_z
 _atom_site_occupancy
  Pr  Pr0  1  0.305425  0.301987  0.359296  1
  Pr  Pr1  1  0.698013  0.694575  0.640704  1
  Pr  Pr2  1  0.689103  0.697192  0.167663  1
  Pr  Pr3  1  0.302808  0.310897  0.832337  1
  Pr  Pr4  1  0.010747  0.989253  0.500000  1
  In  In5  1  0.760563  0.239437  0.000000  1
  Ru  Ru6  1  0.246552  0.753448  0.000000  1
  O  O7  1  0.095318  0.597352  0.572961  1
  O  O8  1  0.030503  0.969180  0.181687  1
  O  O9  1  0.402648  0.904682  0.427039  1
  O  O10  1  0.477028  0.524852  0.180791  1
  O  O11  1  0.103157  0.585416  0.079672  1
  O  O12  1  0.905212  0.404131  0.421304  1
  O  O13  1  0.030820  0.969497  0.818313  1
  O  O14  1  0.595869  0.094787  0.578696  1
  O  O15  1  0.475148  0.522972  0.819209  1
  O  O16  1  0.557985  0.101483  0.082918  1
  O  O17  1  0.414584  0.896843  0.920328  1
  O  O18  1  0.898517  0.442015  0.917082  1
