# generated using pymatgen
data_CeTh(BOs)4
_symmetry_space_group_name_H-M   'P 1'
_cell_length_a   6.77219201
_cell_length_b   6.03748703
_cell_length_c   5.60698937
_cell_angle_alpha   71.01375157
_cell_angle_beta   57.45937745
_cell_angle_gamma   51.52688716
_symmetry_Int_Tables_number   1
_chemical_formula_structural   CeTh(BOs)4
_chemical_formula_sum   'Ce1 Th1 B4 Os4'
_cell_volume   151.29036442
_cell_formula_units_Z   1
loop_
 _symmetry_equiv_pos_site_id
 _symmetry_equiv_pos_as_xyz
  1  'x, y, z'
loop_
 _atom_site_type_symbol
 _atom_site_label
 _atom_site_symmetry_multiplicity
 _atom_site_fract_x
 _atom_site_fract_y
 _atom_site_fract_z
 _atom_site_occupancy
  Ce  Ce0  1  0.000000  0.000000  0.000000  1
  Th  Th1  1  0.250000  0.250000  0.250000  1
  B  B2  1  0.314312  0.685688  0.314312  1
  B  B3  1  0.685688  0.314312  0.685688  1
  B  B4  1  0.565488  0.934512  0.565488  1
  B  B5  1  0.934512  0.565488  0.934512  1
  Os  Os6  1  0.637396  0.637396  0.362604  1
  Os  Os7  1  0.362604  0.362604  0.637396  1
  Os  Os8  1  0.612092  0.612092  0.887908  1
  Os  Os9  1  0.887908  0.887908  0.612092  1
