# generated using pymatgen
data_Dy8Sc12Si15Pt
_symmetry_space_group_name_H-M   'P 1'
_cell_length_a   7.08444687
_cell_length_b   7.43678685
_cell_length_c   13.98104300
_cell_angle_alpha   90.00000000
_cell_angle_beta   90.00000000
_cell_angle_gamma   90.21570379
_symmetry_Int_Tables_number   1
_chemical_formula_structural   Dy8Sc12Si15Pt
_chemical_formula_sum   'Dy8 Sc12 Si15 Pt1'
_cell_volume   736.59331859
_cell_formula_units_Z   1
loop_
 _symmetry_equiv_pos_site_id
 _symmetry_equiv_pos_as_xyz
  1  'x, y, z'
loop_
 _atom_site_type_symbol
 _atom_site_label
 _atom_site_symmetry_multiplicity
 _atom_site_fract_x
 _atom_site_fract_y
 _atom_site_fract_z
 _atom_site_occupancy
  Dy  Dy0  1  0.011691  0.177893  0.096528  1
  Dy  Dy1  1  0.990407  0.822109  0.905233  1
  Dy  Dy2  1  0.488860  0.676430  0.904645  1
  Dy  Dy3  1  0.990407  0.822109  0.594767  1
  Dy  Dy4  1  0.511042  0.323154  0.096863  1
  Dy  Dy5  1  0.011691  0.177893  0.403472  1
  Dy  Dy6  1  0.511042  0.323154  0.403137  1
  Dy  Dy7  1  0.488860  0.676430  0.595355  1
  Sc  Sc8  1  0.159010  0.502699  0.750000  1
  Sc  Sc9  1  0.838277  0.497698  0.250000  1
  Sc  Sc10  1  0.339049  0.004435  0.250000  1
  Sc  Sc11  1  0.666102  0.999377  0.750000  1
  Sc  Sc12  1  0.324049  0.173892  0.625174  1
  Sc  Sc13  1  0.671344  0.825599  0.373509  1
  Sc  Sc14  1  0.170604  0.676890  0.373747  1
  Sc  Sc15  1  0.671344  0.825599  0.126491  1
  Sc  Sc16  1  0.830474  0.323655  0.625166  1
  Sc  Sc17  1  0.324049  0.173892  0.874826  1
  Sc  Sc18  1  0.830474  0.323655  0.874834  1
  Sc  Sc19  1  0.170604  0.676890  0.126253  1
  Si  Si20  1  0.969511  0.884996  0.250000  1
  Si  Si21  1  0.468434  0.615464  0.250000  1
  Si  Si22  1  0.531357  0.386905  0.750000  1
  Si  Si23  1  0.287900  0.868753  0.750000  1
  Si  Si24  1  0.713336  0.130015  0.250000  1
  Si  Si25  1  0.212290  0.371893  0.250000  1
  Si  Si26  1  0.780705  0.625616  0.750000  1
  Si  Si27  1  0.159041  0.466388  0.537867  1
  Si  Si28  1  0.841958  0.535847  0.460556  1
  Si  Si29  1  0.344981  0.965171  0.460486  1
  Si  Si30  1  0.841958  0.535847  0.039444  1
  Si  Si31  1  0.658225  0.033981  0.538554  1
  Si  Si32  1  0.159041  0.466388  0.962133  1
  Si  Si33  1  0.658225  0.033981  0.961446  1
  Si  Si34  1  0.344981  0.965171  0.039514  1
  Pt  Pt35  1  0.028677  0.110129  0.750000  1
