# generated using pymatgen
data_Dy2Ho4Tm6Co5Sb
_symmetry_space_group_name_H-M   'P 1'
_cell_length_a   8.22565426
_cell_length_b   8.22565324
_cell_length_c   8.21859026
_cell_angle_alpha   106.83161763
_cell_angle_beta   110.74654946
_cell_angle_gamma   110.90123421
_symmetry_Int_Tables_number   1
_chemical_formula_structural   Dy2Ho4Tm6Co5Sb
_chemical_formula_sum   'Dy2 Ho4 Tm6 Co5 Sb1'
_cell_volume   427.20984941
_cell_formula_units_Z   1
loop_
 _symmetry_equiv_pos_site_id
 _symmetry_equiv_pos_as_xyz
  1  'x, y, z'
loop_
 _atom_site_type_symbol
 _atom_site_label
 _atom_site_symmetry_multiplicity
 _atom_site_fract_x
 _atom_site_fract_y
 _atom_site_fract_z
 _atom_site_occupancy
  Dy  Dy0  1  0.193659  0.790298  0.983957  1
  Dy  Dy1  1  0.806341  0.209702  0.016043  1
  Ho  Ho2  1  0.472924  0.289004  0.185404  1
  Ho  Ho3  1  0.103600  0.287521  0.814596  1
  Ho  Ho4  1  0.896400  0.712479  0.185404  1
  Ho  Ho5  1  0.527076  0.710996  0.814596  1
  Tm  Tm6  1  0.310023  0.622113  0.314546  1
  Tm  Tm7  1  0.307567  0.995478  0.685454  1
  Tm  Tm8  1  0.689977  0.377887  0.685454  1
  Tm  Tm9  1  0.692433  0.004522  0.314546  1
  Tm  Tm10  1  0.194444  0.210440  0.404886  1
  Tm  Tm11  1  0.805556  0.789560  0.595114  1
  Co  Co12  1  0.502008  0.612468  0.114476  1
  Co  Co13  1  0.497992  0.387532  0.885524  1
  Co  Co14  1  0.374574  0.001122  0.375696  1
  Co  Co15  1  0.625426  0.998878  0.624304  1
  Co  Co16  1  0.000000  0.000000  0.000000  1
  Sb  Sb17  1  0.000000  0.500000  0.500000  1
