# generated using pymatgen
data_CdBiSbPt3
_symmetry_space_group_name_H-M   'P 1'
_cell_length_a   7.40013223
_cell_length_b   7.40013032
_cell_length_c   5.53243100
_cell_angle_alpha   90.00000000
_cell_angle_beta   90.00000000
_cell_angle_gamma   59.63550828
_symmetry_Int_Tables_number   1
_chemical_formula_structural   CdBiSbPt3
_chemical_formula_sum   'Cd2 Bi2 Sb2 Pt6'
_cell_volume   261.40785721
_cell_formula_units_Z   2
loop_
 _symmetry_equiv_pos_site_id
 _symmetry_equiv_pos_as_xyz
  1  'x, y, z'
loop_
 _atom_site_type_symbol
 _atom_site_label
 _atom_site_symmetry_multiplicity
 _atom_site_fract_x
 _atom_site_fract_y
 _atom_site_fract_z
 _atom_site_occupancy
  Cd  Cd0  1  0.166467  0.488333  0.249999  1
  Cd  Cd1  1  0.511667  0.833533  0.249999  1
  Bi  Bi2  1  0.485124  0.165430  0.750000  1
  Bi  Bi3  1  0.834570  0.514876  0.750000  1
  Sb  Sb4  1  0.821921  0.178079  0.249999  1
  Sb  Sb5  1  0.180795  0.819205  0.750000  1
  Pt  Pt6  1  0.152784  0.152426  0.003755  1
  Pt  Pt7  1  0.499370  0.500630  0.002810  1
  Pt  Pt8  1  0.847574  0.847216  0.003755  1
  Pt  Pt9  1  0.152784  0.152426  0.496246  1
  Pt  Pt10  1  0.499370  0.500630  0.497191  1
  Pt  Pt11  1  0.847574  0.847216  0.496246  1
