# generated using pymatgen
data_Yb7PrBi6
_symmetry_space_group_name_H-M   'P 1'
_cell_length_a   8.42745106
_cell_length_b   8.42745171
_cell_length_c   8.32550400
_cell_angle_alpha   109.22635256
_cell_angle_beta   109.22635410
_cell_angle_gamma   109.71497170
_symmetry_Int_Tables_number   1
_chemical_formula_structural   Yb7PrBi6
_chemical_formula_sum   'Yb7 Pr1 Bi6'
_cell_volume   456.54615140
_cell_formula_units_Z   1
loop_
 _symmetry_equiv_pos_site_id
 _symmetry_equiv_pos_as_xyz
  1  'x, y, z'
loop_
 _atom_site_type_symbol
 _atom_site_label
 _atom_site_symmetry_multiplicity
 _atom_site_fract_x
 _atom_site_fract_y
 _atom_site_fract_z
 _atom_site_occupancy
  Yb  Yb0  1  0.500000  0.000000  0.146118  1
  Yb  Yb1  1  0.646720  0.503029  0.002704  1
  Yb  Yb2  1  0.996971  0.643691  0.499675  1
  Yb  Yb3  1  0.856309  0.853280  0.855984  1
  Yb  Yb4  1  0.000220  0.146987  0.500114  1
  Yb  Yb5  1  0.353013  0.353233  0.353126  1
  Yb  Yb6  1  0.146767  0.499780  0.999894  1
  Pr  Pr7  1  0.500000  0.000000  0.642848  1
  Bi  Bi8  1  0.626464  0.749291  0.375728  1
  Bi  Bi9  1  0.750709  0.377172  0.626437  1
  Bi  Bi10  1  0.251181  0.125014  0.874768  1
  Bi  Bi11  1  0.374986  0.626167  0.749754  1
  Bi  Bi12  1  0.122828  0.873536  0.249264  1
  Bi  Bi13  1  0.873833  0.248819  0.123587  1
