# generated using pymatgen
data_La3Al4Zn2Si3Ni
_symmetry_space_group_name_H-M   'P 1'
_cell_length_a   14.23914909
_cell_length_b   14.23914887
_cell_length_c   4.25237400
_cell_angle_alpha   90.00000000
_cell_angle_beta   90.00000000
_cell_angle_gamma   162.68971894
_symmetry_Int_Tables_number   1
_chemical_formula_structural   La3Al4Zn2Si3Ni
_chemical_formula_sum   'La3 Al4 Zn2 Si3 Ni1'
_cell_volume   256.53930619
_cell_formula_units_Z   1
loop_
 _symmetry_equiv_pos_site_id
 _symmetry_equiv_pos_as_xyz
  1  'x, y, z'
loop_
 _atom_site_type_symbol
 _atom_site_label
 _atom_site_symmetry_multiplicity
 _atom_site_fract_x
 _atom_site_fract_y
 _atom_site_fract_z
 _atom_site_occupancy
  La  La0  1  0.007383  0.992617  0.000000  1
  La  La1  1  0.687538  0.312462  0.500000  1
  La  La2  1  0.311505  0.688495  0.500000  1
  Al  Al3  1  0.598519  0.401481  0.000000  1
  Al  Al4  1  0.406790  0.593210  0.000000  1
  Al  Al5  1  0.904634  0.095366  0.500000  1
  Al  Al6  1  0.097981  0.902019  0.500000  1
  Zn  Zn7  1  0.851716  0.148284  0.000000  1
  Zn  Zn8  1  0.457976  0.542024  0.500000  1
  Si  Si9  1  0.764886  0.235114  0.000000  1
  Si  Si10  1  0.225702  0.774298  0.000000  1
  Si  Si11  1  0.544409  0.455591  0.500000  1
  Ni  Ni12  1  0.140963  0.859037  0.000000  1
