# generated using pymatgen
data_Li3Ho5(Co4P3)4
_symmetry_space_group_name_H-M   'P 1'
_cell_length_a   12.02568900
_cell_length_b   12.02569047
_cell_length_c   3.70636200
_cell_angle_alpha   90.00000000
_cell_angle_beta   90.00000000
_cell_angle_gamma   120.00000422
_symmetry_Int_Tables_number   1
_chemical_formula_structural   Li3Ho5(Co4P3)4
_chemical_formula_sum   'Li3 Ho5 Co16 P12'
_cell_volume   464.19283989
_cell_formula_units_Z   1
loop_
 _symmetry_equiv_pos_site_id
 _symmetry_equiv_pos_as_xyz
  1  'x, y, z'
loop_
 _atom_site_type_symbol
 _atom_site_label
 _atom_site_symmetry_multiplicity
 _atom_site_fract_x
 _atom_site_fract_y
 _atom_site_fract_z
 _atom_site_occupancy
  Li  Li0  1  0.440058  0.440058  0.000000  1
  Li  Li1  1  0.559942  0.000000  0.000000  1
  Li  Li2  1  0.000000  0.559942  0.000000  1
  Ho  Ho3  1  0.666667  0.333333  0.000000  1
  Ho  Ho4  1  0.333333  0.666667  0.000000  1
  Ho  Ho5  1  0.812677  0.812677  0.500000  1
  Ho  Ho6  1  0.187323  0.000000  0.500000  1
  Ho  Ho7  1  0.000000  0.187323  0.500000  1
  Co  Co8  1  0.874602  0.357631  0.500000  1
  Co  Co9  1  0.642369  0.516970  0.500000  1
  Co  Co10  1  0.483030  0.125398  0.500000  1
  Co  Co11  1  0.357631  0.874602  0.500000  1
  Co  Co12  1  0.516970  0.642369  0.500000  1
  Co  Co13  1  0.125398  0.483030  0.500000  1
  Co  Co14  1  0.801462  0.178630  0.000000  1
  Co  Co15  1  0.821370  0.622830  0.000000  1
  Co  Co16  1  0.377170  0.198538  0.000000  1
  Co  Co17  1  0.178630  0.801462  0.000000  1
  Co  Co18  1  0.622830  0.821370  0.000000  1
  Co  Co19  1  0.198538  0.377170  0.000000  1
  Co  Co20  1  0.283015  0.283015  0.500000  1
  Co  Co21  1  0.716985  0.000000  0.500000  1
  Co  Co22  1  0.000000  0.716985  0.500000  1
  Co  Co23  1  0.000000  0.000000  0.000000  1
  P  P24  1  0.689882  0.170126  0.500000  1
  P  P25  1  0.829874  0.519756  0.500000  1
  P  P26  1  0.480244  0.310118  0.500000  1
  P  P27  1  0.170126  0.689882  0.500000  1
  P  P28  1  0.519756  0.829874  0.500000  1
  P  P29  1  0.310118  0.480244  0.500000  1
  P  P30  1  0.182356  0.182356  0.000000  1
  P  P31  1  0.817644  0.000000  0.000000  1
  P  P32  1  0.000000  0.817644  0.000000  1
  P  P33  1  0.632914  0.632914  0.000000  1
  P  P34  1  0.367086  0.000000  0.000000  1
  P  P35  1  0.000000  0.367086  0.000000  1
