# generated using pymatgen
data_LiNiOsO4
_symmetry_space_group_name_H-M   'P 1'
_cell_length_a   6.11212137
_cell_length_b   8.94856076
_cell_length_c   5.58707892
_cell_angle_alpha   90.39844263
_cell_angle_beta   89.95691563
_cell_angle_gamma   89.99942864
_symmetry_Int_Tables_number   1
_chemical_formula_structural   LiNiOsO4
_chemical_formula_sum   'Li4 Ni4 Os4 O16'
_cell_volume   305.57607137
_cell_formula_units_Z   4
loop_
 _symmetry_equiv_pos_site_id
 _symmetry_equiv_pos_as_xyz
  1  'x, y, z'
loop_
 _atom_site_type_symbol
 _atom_site_label
 _atom_site_symmetry_multiplicity
 _atom_site_fract_x
 _atom_site_fract_y
 _atom_site_fract_z
 _atom_site_occupancy
  Li  Li0  1  0.250010  0.112308  0.001769  1
  Li  Li1  1  0.750011  0.611203  0.501657  1
  Li  Li2  1  0.750017  0.887508  0.998135  1
  Li  Li3  1  0.250027  0.389250  0.498318  1
  Ni  Ni4  1  0.000085  0.999844  0.499973  1
  Ni  Ni5  1  0.499848  0.999864  0.499978  1
  Ni  Ni6  1  0.500174  0.500072  0.000042  1
  Ni  Ni7  1  0.999901  0.500045  0.000037  1
  Os  Os8  1  0.749939  0.246354  0.221187  1
  Os  Os9  1  0.250062  0.753602  0.778750  1
  Os  Os10  1  0.750052  0.246514  0.778765  1
  Os  Os11  1  0.249946  0.753479  0.221461  1
  O  O12  1  0.492453  0.255887  0.999946  1
  O  O13  1  0.035108  0.757820  0.499711  1
  O  O14  1  0.007541  0.255869  0.999422  1
  O  O15  1  0.464884  0.757844  0.499364  1
  O  O16  1  0.992688  0.744045  0.000524  1
  O  O17  1  0.535493  0.242080  0.500627  1
  O  O18  1  0.507315  0.744081  0.000002  1
  O  O19  1  0.964491  0.242056  0.500266  1
  O  O20  1  0.749902  0.464464  0.235312  1
  O  O21  1  0.249845  0.970045  0.745527  1
  O  O22  1  0.750146  0.467088  0.768419  1
  O  O23  1  0.250085  0.972588  0.257858  1
  O  O24  1  0.250159  0.535612  0.764607  1
  O  O25  1  0.750088  0.030015  0.254264  1
  O  O26  1  0.249899  0.532978  0.231778  1
  O  O27  1  0.749832  0.027486  0.742301  1
