# generated using pymatgen
data_Dy3Pa3Rh10
_symmetry_space_group_name_H-M   'P 1'
_cell_length_a   5.83105153
_cell_length_b   5.83105143
_cell_length_c   9.19117578
_cell_angle_alpha   88.12170784
_cell_angle_beta   88.12170253
_cell_angle_gamma   105.31554480
_symmetry_Int_Tables_number   1
_chemical_formula_structural   Dy3Pa3Rh10
_chemical_formula_sum   'Dy3 Pa3 Rh10'
_cell_volume   300.97172369
_cell_formula_units_Z   1
loop_
 _symmetry_equiv_pos_site_id
 _symmetry_equiv_pos_as_xyz
  1  'x, y, z'
loop_
 _atom_site_type_symbol
 _atom_site_label
 _atom_site_symmetry_multiplicity
 _atom_site_fract_x
 _atom_site_fract_y
 _atom_site_fract_z
 _atom_site_occupancy
  Dy  Dy0  1  0.800636  0.199364  0.500000  1
  Dy  Dy1  1  0.217067  0.782933  0.000000  1
  Dy  Dy2  1  0.192889  0.807111  0.500000  1
  Pa  Pa3  1  0.603881  0.614357  0.732639  1
  Pa  Pa4  1  0.385643  0.396119  0.267361  1
  Pa  Pa5  1  0.797805  0.202195  0.000000  1
  Rh  Rh6  1  0.704596  0.693583  0.021351  1
  Rh  Rh7  1  0.676738  0.687234  0.427557  1
  Rh  Rh8  1  0.306417  0.295404  0.978649  1
  Rh  Rh9  1  0.312766  0.323262  0.572443  1
  Rh  Rh10  1  0.511583  0.042643  0.759800  1
  Rh  Rh11  1  0.515766  0.988499  0.233401  1
  Rh  Rh12  1  0.007826  0.002469  0.234031  1
  Rh  Rh13  1  0.997531  0.992174  0.765969  1
  Rh  Rh14  1  0.011501  0.484234  0.766599  1
  Rh  Rh15  1  0.957357  0.488417  0.240200  1
