# generated using pymatgen
data_TmLu14Th(InRh)4
_symmetry_space_group_name_H-M   'P 1'
_cell_length_a   9.48030154
_cell_length_b   9.48030424
_cell_length_c   9.48141912
_cell_angle_alpha   60.35914083
_cell_angle_beta   60.35913970
_cell_angle_gamma   60.36163827
_symmetry_Int_Tables_number   1
_chemical_formula_structural   TmLu14Th(InRh)4
_chemical_formula_sum   'Tm1 Lu14 Th1 In4 Rh4'
_cell_volume   607.46995941
_cell_formula_units_Z   1
loop_
 _symmetry_equiv_pos_site_id
 _symmetry_equiv_pos_as_xyz
  1  'x, y, z'
loop_
 _atom_site_type_symbol
 _atom_site_label
 _atom_site_symmetry_multiplicity
 _atom_site_fract_x
 _atom_site_fract_y
 _atom_site_fract_z
 _atom_site_occupancy
  Tm  Tm0  1  0.602037  0.602037  0.194572  1
  Lu  Lu1  1  0.601990  0.194939  0.602018  1
  Lu  Lu2  1  0.194939  0.601990  0.602018  1
  Lu  Lu3  1  0.063073  0.438245  0.438261  1
  Lu  Lu4  1  0.440886  0.060464  0.060276  1
  Lu  Lu5  1  0.438245  0.063073  0.438261  1
  Lu  Lu6  1  0.060464  0.440886  0.060276  1
  Lu  Lu7  1  0.438154  0.438154  0.063085  1
  Lu  Lu8  1  0.060267  0.060267  0.440983  1
  Lu  Lu9  1  0.185085  0.815752  0.815692  1
  Lu  Lu10  1  0.813543  0.189916  0.190160  1
  Lu  Lu11  1  0.815752  0.185085  0.815692  1
  Lu  Lu12  1  0.189916  0.813543  0.190160  1
  Lu  Lu13  1  0.815801  0.815801  0.185099  1
  Lu  Lu14  1  0.190143  0.190143  0.813408  1
  Th  Th15  1  0.594934  0.594934  0.595095  1
  In  In16  1  0.834567  0.834567  0.834101  1
  In  In17  1  0.834007  0.834007  0.497848  1
  In  In18  1  0.834131  0.497785  0.833691  1
  In  In19  1  0.497785  0.834131  0.833691  1
  Rh  Rh20  1  0.392716  0.392716  0.393525  1
  Rh  Rh21  1  0.388988  0.388988  0.823469  1
  Rh  Rh22  1  0.388704  0.823874  0.389310  1
  Rh  Rh23  1  0.823874  0.388704  0.389310  1
