# generated using pymatgen
data_Dy5Ho11In2AgHgIr4
_symmetry_space_group_name_H-M   'P 1'
_cell_length_a   9.60722359
_cell_length_b   9.60477913
_cell_length_c   9.60478000
_cell_angle_alpha   59.94651652
_cell_angle_beta   59.95075529
_cell_angle_gamma   59.95075245
_symmetry_Int_Tables_number   1
_chemical_formula_structural   Dy5Ho11In2AgHgIr4
_chemical_formula_sum   'Dy5 Ho11 In2 Ag1 Hg1 Ir4'
_cell_volume   625.97709982
_cell_formula_units_Z   1
loop_
 _symmetry_equiv_pos_site_id
 _symmetry_equiv_pos_as_xyz
  1  'x, y, z'
loop_
 _atom_site_type_symbol
 _atom_site_label
 _atom_site_symmetry_multiplicity
 _atom_site_fract_x
 _atom_site_fract_y
 _atom_site_fract_z
 _atom_site_occupancy
  Dy  Dy0  1  0.809917  0.186421  0.191855  1
  Dy  Dy1  1  0.810859  0.185961  0.811576  1
  Dy  Dy2  1  0.186420  0.809964  0.191544  1
  Dy  Dy3  1  0.810458  0.810070  0.188444  1
  Dy  Dy4  1  0.189044  0.188806  0.810789  1
  Ho  Ho5  1  0.599639  0.599597  0.599600  1
  Ho  Ho6  1  0.599875  0.600134  0.200999  1
  Ho  Ho7  1  0.600336  0.200639  0.600335  1
  Ho  Ho8  1  0.200398  0.600611  0.600214  1
  Ho  Ho9  1  0.058503  0.440188  0.441915  1
  Ho  Ho10  1  0.437606  0.059927  0.059811  1
  Ho  Ho11  1  0.440097  0.058433  0.442095  1
  Ho  Ho12  1  0.059887  0.438001  0.059665  1
  Ho  Ho13  1  0.441608  0.441883  0.057858  1
  Ho  Ho14  1  0.060200  0.060045  0.438300  1
  Ho  Ho15  1  0.186520  0.810402  0.811378  1
  In  In16  1  0.832438  0.506164  0.831060  1
  In  In17  1  0.505975  0.832476  0.831026  1
  Ag  Ag18  1  0.833309  0.832809  0.833091  1
  Hg  Hg19  1  0.835422  0.835451  0.496115  1
  Ir  Ir20  1  0.392283  0.392263  0.392299  1
  Ir  Ir21  1  0.391743  0.392208  0.825792  1
  Ir  Ir22  1  0.392093  0.825315  0.392299  1
  Ir  Ir23  1  0.825374  0.392235  0.391940  1
