# generated using pymatgen
data_Dy4GaCu3Si3Ni
_symmetry_space_group_name_H-M   'P 1'
_cell_length_a   4.23988500
_cell_length_b   6.98664465
_cell_length_c   7.27118352
_cell_angle_alpha   89.92711803
_cell_angle_beta   90.00000000
_cell_angle_gamma   90.00000000
_symmetry_Int_Tables_number   1
_chemical_formula_structural   Dy4GaCu3Si3Ni
_chemical_formula_sum   'Dy4 Ga1 Cu3 Si3 Ni1'
_cell_volume   215.39096759
_cell_formula_units_Z   1
loop_
 _symmetry_equiv_pos_site_id
 _symmetry_equiv_pos_as_xyz
  1  'x, y, z'
loop_
 _atom_site_type_symbol
 _atom_site_label
 _atom_site_symmetry_multiplicity
 _atom_site_fract_x
 _atom_site_fract_y
 _atom_site_fract_z
 _atom_site_occupancy
  Dy  Dy0  1  0.250000  0.999699  0.791598  1
  Dy  Dy1  1  0.250000  0.507378  0.705687  1
  Dy  Dy2  1  0.750000  0.990645  0.208245  1
  Dy  Dy3  1  0.750000  0.498593  0.292828  1
  Ga  Ga4  1  0.750000  0.304146  0.911044  1
  Cu  Cu5  1  0.250000  0.815493  0.418870  1
  Cu  Cu6  1  0.250000  0.308746  0.086655  1
  Cu  Cu7  1  0.750000  0.184495  0.574309  1
  Si  Si8  1  0.250000  0.203049  0.407632  1
  Si  Si9  1  0.250000  0.693717  0.081619  1
  Si  Si10  1  0.750000  0.791345  0.598204  1
  Ni  Ni11  1  0.750000  0.702695  0.923311  1
