# generated using pymatgen
data_Yb12Dy8Si15Sb
_symmetry_space_group_name_H-M   'P 1'
_cell_length_a   7.41765978
_cell_length_b   7.85463171
_cell_length_c   15.15046858
_cell_angle_alpha   89.77734461
_cell_angle_beta   90.35407257
_cell_angle_gamma   90.01387754
_symmetry_Int_Tables_number   1
_chemical_formula_structural   Yb12Dy8Si15Sb
_chemical_formula_sum   'Yb12 Dy8 Si15 Sb1'
_cell_volume   882.68799398
_cell_formula_units_Z   1
loop_
 _symmetry_equiv_pos_site_id
 _symmetry_equiv_pos_as_xyz
  1  'x, y, z'
loop_
 _atom_site_type_symbol
 _atom_site_label
 _atom_site_symmetry_multiplicity
 _atom_site_fract_x
 _atom_site_fract_y
 _atom_site_fract_z
 _atom_site_occupancy
  Yb  Yb0  1  0.977436  0.820898  0.400576  1
  Yb  Yb1  1  0.472239  0.683663  0.095496  1
  Yb  Yb2  1  0.512733  0.308928  0.598008  1
  Yb  Yb3  1  0.027668  0.183787  0.905587  1
  Yb  Yb4  1  0.029817  0.177630  0.596744  1
  Yb  Yb5  1  0.527384  0.316688  0.905040  1
  Yb  Yb6  1  0.473134  0.687589  0.402536  1
  Yb  Yb7  1  0.972358  0.815833  0.095305  1
  Yb  Yb8  1  0.350361  0.022497  0.753923  1
  Yb  Yb9  1  0.853093  0.479822  0.754692  1
  Yb  Yb10  1  0.147619  0.520679  0.248947  1
  Yb  Yb11  1  0.646643  0.976813  0.248232  1
  Dy  Dy12  1  0.314284  0.176809  0.120480  1
  Dy  Dy13  1  0.818360  0.314172  0.373211  1
  Dy  Dy14  1  0.186531  0.676752  0.879310  1
  Dy  Dy15  1  0.677629  0.837724  0.626321  1
  Dy  Dy16  1  0.316913  0.175212  0.376640  1
  Dy  Dy17  1  0.813428  0.323494  0.120672  1
  Dy  Dy18  1  0.192580  0.679562  0.621877  1
  Dy  Dy19  1  0.686729  0.823749  0.879407  1
  Si  Si20  1  0.357773  0.967163  0.961826  1
  Si  Si21  1  0.645059  0.033173  0.462018  1
  Si  Si22  1  0.142240  0.467525  0.038388  1
  Si  Si23  1  0.159335  0.466566  0.459166  1
  Si  Si24  1  0.642971  0.032369  0.038312  1
  Si  Si25  1  0.356546  0.966416  0.536871  1
  Si  Si26  1  0.857621  0.532926  0.962019  1
  Si  Si27  1  0.978142  0.884640  0.749510  1
  Si  Si28  1  0.479075  0.615305  0.751097  1
  Si  Si29  1  0.521867  0.384690  0.249179  1
  Si  Si30  1  0.022881  0.112700  0.248344  1
  Si  Si31  1  0.248693  0.395437  0.750087  1
  Si  Si32  1  0.750897  0.108620  0.752037  1
  Si  Si33  1  0.251373  0.893460  0.248840  1
  Si  Si34  1  0.750921  0.604623  0.250550  1
  Sb  Sb35  1  0.837665  0.532083  0.538748  1
