# generated using pymatgen
data_Dy2ZrScBe2(B3Ru5)2
_symmetry_space_group_name_H-M   'P 1'
_cell_length_a   3.06777700
_cell_length_b   8.66083600
_cell_length_c   10.24501400
_cell_angle_alpha   90.64630196
_cell_angle_beta   90.00000000
_cell_angle_gamma   90.00000000
_symmetry_Int_Tables_number   1
_chemical_formula_structural   Dy2ZrScBe2(B3Ru5)2
_chemical_formula_sum   'Dy2 Zr1 Sc1 Be2 B6 Ru10'
_cell_volume   272.18771998
_cell_formula_units_Z   1
loop_
 _symmetry_equiv_pos_site_id
 _symmetry_equiv_pos_as_xyz
  1  'x, y, z'
loop_
 _atom_site_type_symbol
 _atom_site_label
 _atom_site_symmetry_multiplicity
 _atom_site_fract_x
 _atom_site_fract_y
 _atom_site_fract_z
 _atom_site_occupancy
  Dy  Dy0  1  0.500000  0.840770  0.184223  1
  Dy  Dy1  1  0.500000  0.159864  0.817408  1
  Zr  Zr2  1  0.500000  0.656929  0.678316  1
  Sc  Sc3  1  0.500000  0.343282  0.319293  1
  Be  Be4  1  0.500000  0.962418  0.592668  1
  Be  Be5  1  0.500000  0.040341  0.406743  1
  B  B6  1  0.500000  0.849994  0.900454  1
  B  B7  1  0.500000  0.151085  0.102886  1
  B  B8  1  0.500000  0.650237  0.402636  1
  B  B9  1  0.500000  0.346976  0.594531  1
  B  B10  1  0.500000  0.468310  0.910667  1
  B  B11  1  0.500000  0.530247  0.090428  1
  Ru  Ru12  1  0.000000  0.656822  0.956095  1
  Ru  Ru13  1  0.000000  0.344000  0.042147  1
  Ru  Ru14  1  0.000000  0.828693  0.452286  1
  Ru  Ru15  1  0.000000  0.169219  0.549868  1
  Ru  Ru16  1  0.000000  0.000461  0.999888  1
  Ru  Ru17  1  0.000000  0.414361  0.759206  1
  Ru  Ru18  1  0.000000  0.584790  0.240429  1
  Ru  Ru19  1  0.000000  0.499131  0.499606  1
  Ru  Ru20  1  0.000000  0.892263  0.747421  1
  Ru  Ru21  1  0.000000  0.109806  0.252803  1
