# generated using pymatgen
data_YLu9Cd3Pt
_symmetry_space_group_name_H-M   'P 1'
_cell_length_a   9.51734184
_cell_length_b   9.51733978
_cell_length_c   9.59689700
_cell_angle_alpha   90.00000000
_cell_angle_beta   90.00000000
_cell_angle_gamma   120.13738101
_symmetry_Int_Tables_number   1
_chemical_formula_structural   YLu9Cd3Pt
_chemical_formula_sum   'Y2 Lu18 Cd6 Pt2'
_cell_volume   751.77837666
_cell_formula_units_Z   2
loop_
 _symmetry_equiv_pos_site_id
 _symmetry_equiv_pos_as_xyz
  1  'x, y, z'
loop_
 _atom_site_type_symbol
 _atom_site_label
 _atom_site_symmetry_multiplicity
 _atom_site_fract_x
 _atom_site_fract_y
 _atom_site_fract_z
 _atom_site_occupancy
  Y  Y0  1  0.459446  0.917026  0.250000  1
  Y  Y1  1  0.082974  0.540554  0.250000  1
  Lu  Lu2  1  0.207450  0.792550  0.940602  1
  Lu  Lu3  1  0.209338  0.416311  0.940972  1
  Lu  Lu4  1  0.583689  0.790662  0.940972  1
  Lu  Lu5  1  0.791150  0.208850  0.055677  1
  Lu  Lu6  1  0.789770  0.582437  0.056188  1
  Lu  Lu7  1  0.417563  0.210230  0.056188  1
  Lu  Lu8  1  0.791150  0.208850  0.444323  1
  Lu  Lu9  1  0.789770  0.582437  0.443812  1
  Lu  Lu10  1  0.417563  0.210230  0.443812  1
  Lu  Lu11  1  0.207450  0.792550  0.559398  1
  Lu  Lu12  1  0.209338  0.416311  0.559028  1
  Lu  Lu13  1  0.583689  0.790662  0.559028  1
  Lu  Lu14  1  0.542665  0.457335  0.750000  1
  Lu  Lu15  1  0.542009  0.083689  0.750000  1
  Lu  Lu16  1  0.916311  0.457991  0.750000  1
  Lu  Lu17  1  0.459272  0.540728  0.250000  1
  Lu  Lu18  1  0.999500  0.000500  0.000075  1
  Lu  Lu19  1  0.999500  0.000500  0.499925  1
  Cd  Cd20  1  0.884878  0.115122  0.750000  1
  Cd  Cd21  1  0.884849  0.770628  0.750000  1
  Cd  Cd22  1  0.229372  0.115151  0.750000  1
  Cd  Cd23  1  0.113168  0.886832  0.250000  1
  Cd  Cd24  1  0.116506  0.228426  0.250000  1
  Cd  Cd25  1  0.771574  0.883494  0.250000  1
  Pt  Pt26  1  0.332687  0.667313  0.750000  1
  Pt  Pt27  1  0.667371  0.332629  0.250000  1
