# generated using pymatgen
data_Zr8Ti11Si16Os
_symmetry_space_group_name_H-M   'P 1'
_cell_length_a   6.82324719
_cell_length_b   6.82324751
_cell_length_c   12.53399572
_cell_angle_alpha   90.12411000
_cell_angle_beta   89.87589186
_cell_angle_gamma   89.95386708
_symmetry_Int_Tables_number   1
_chemical_formula_structural   Zr8Ti11Si16Os
_chemical_formula_sum   'Zr8 Ti11 Si16 Os1'
_cell_volume   583.53860412
_cell_formula_units_Z   1
loop_
 _symmetry_equiv_pos_site_id
 _symmetry_equiv_pos_as_xyz
  1  'x, y, z'
loop_
 _atom_site_type_symbol
 _atom_site_label
 _atom_site_symmetry_multiplicity
 _atom_site_fract_x
 _atom_site_fract_y
 _atom_site_fract_z
 _atom_site_occupancy
  Zr  Zr0  1  0.343485  0.000036  0.468089  1
  Zr  Zr1  1  0.500009  0.842369  0.719764  1
  Zr  Zr2  1  0.498671  0.156055  0.219145  1
  Zr  Zr3  1  0.842369  0.500009  0.280236  1
  Zr  Zr4  1  0.156055  0.498671  0.780855  1
  Zr  Zr5  1  0.658884  0.999056  0.969002  1
  Zr  Zr6  1  0.000036  0.343485  0.531911  1
  Zr  Zr7  1  0.999056  0.658884  0.030998  1
  Ti  Ti8  1  0.171982  0.829515  0.247702  1
  Ti  Ti9  1  0.829515  0.171982  0.752298  1
  Ti  Ti10  1  0.671731  0.671731  0.500000  1
  Ti  Ti11  1  0.151189  0.000569  0.871673  1
  Ti  Ti12  1  0.495138  0.654391  0.122358  1
  Ti  Ti13  1  0.504060  0.348960  0.625461  1
  Ti  Ti14  1  0.654391  0.495138  0.877642  1
  Ti  Ti15  1  0.348960  0.504060  0.374539  1
  Ti  Ti16  1  0.847567  0.996094  0.372316  1
  Ti  Ti17  1  0.000569  0.151189  0.128327  1
  Ti  Ti18  1  0.996094  0.847567  0.627684  1
  Si  Si19  1  0.206129  0.135221  0.678082  1
  Si  Si20  1  0.365966  0.704275  0.927059  1
  Si  Si21  1  0.634814  0.294845  0.428815  1
  Si  Si22  1  0.704275  0.365966  0.072941  1
  Si  Si23  1  0.294845  0.634814  0.571185  1
  Si  Si24  1  0.793513  0.863532  0.178059  1
  Si  Si25  1  0.135221  0.206129  0.321918  1
  Si  Si26  1  0.863532  0.793513  0.821941  1
  Si  Si27  1  0.291918  0.958247  0.062790  1
  Si  Si28  1  0.545552  0.794591  0.314325  1
  Si  Si29  1  0.452037  0.207546  0.816658  1
  Si  Si30  1  0.794591  0.545552  0.685675  1
  Si  Si31  1  0.207546  0.452037  0.183342  1
  Si  Si32  1  0.706716  0.046634  0.564491  1
  Si  Si33  1  0.958247  0.291918  0.937210  1
  Si  Si34  1  0.046634  0.706716  0.435509  1
  Os  Os35  1  0.328705  0.328705  0.000000  1
