# generated using pymatgen
data_HoTm7B24(OsW)2
_symmetry_space_group_name_H-M   'P 1'
_cell_length_a   3.59795500
_cell_length_b   9.16912085
_cell_length_c   11.55619419
_cell_angle_alpha   89.84370227
_cell_angle_beta   90.00000000
_cell_angle_gamma   90.00000000
_symmetry_Int_Tables_number   1
_chemical_formula_structural   HoTm7B24(OsW)2
_chemical_formula_sum   'Ho1 Tm7 B24 Os2 W2'
_cell_volume   381.23840126
_cell_formula_units_Z   1
loop_
 _symmetry_equiv_pos_site_id
 _symmetry_equiv_pos_as_xyz
  1  'x, y, z'
loop_
 _atom_site_type_symbol
 _atom_site_label
 _atom_site_symmetry_multiplicity
 _atom_site_fract_x
 _atom_site_fract_y
 _atom_site_fract_z
 _atom_site_occupancy
  Ho  Ho0  1  0.000000  0.321228  0.413740  1
  Tm  Tm1  1  0.000000  0.678761  0.586147  1
  Tm  Tm2  1  0.000000  0.821157  0.086345  1
  Tm  Tm3  1  0.000000  0.178806  0.913632  1
  Tm  Tm4  1  0.000000  0.944863  0.371685  1
  Tm  Tm5  1  0.000000  0.054881  0.628446  1
  Tm  Tm6  1  0.000000  0.442209  0.127394  1
  Tm  Tm7  1  0.000000  0.557928  0.872577  1
  B  B8  1  0.500000  0.551248  0.434947  1
  B  B9  1  0.500000  0.449457  0.565375  1
  B  B10  1  0.500000  0.053383  0.066268  1
  B  B11  1  0.500000  0.946544  0.933669  1
  B  B12  1  0.500000  0.752017  0.422042  1
  B  B13  1  0.500000  0.247879  0.578550  1
  B  B14  1  0.500000  0.248714  0.080741  1
  B  B15  1  0.500000  0.751290  0.919161  1
  B  B16  1  0.500000  0.796248  0.262845  1
  B  B17  1  0.500000  0.203775  0.737207  1
  B  B18  1  0.500000  0.290165  0.233223  1
  B  B19  1  0.500000  0.709709  0.766453  1
  B  B20  1  0.500000  0.631993  0.180958  1
  B  B21  1  0.500000  0.368100  0.819060  1
  B  B22  1  0.500000  0.130152  0.313356  1
  B  B23  1  0.500000  0.869457  0.686389  1
  B  B24  1  0.500000  0.982858  0.211421  1
  B  B25  1  0.500000  0.016988  0.788546  1
  B  B26  1  0.500000  0.477182  0.285876  1
  B  B27  1  0.500000  0.523459  0.713837  1
  B  B28  1  0.500000  0.603460  0.027863  1
  B  B29  1  0.500000  0.396592  0.972110  1
  B  B30  1  0.500000  0.102361  0.470617  1
  B  B31  1  0.500000  0.897009  0.529593  1
  Os  Os32  1  0.000000  0.137508  0.177467  1
  Os  Os33  1  0.000000  0.862324  0.822346  1
  W  W34  1  0.000000  0.639055  0.319352  1
  W  W35  1  0.000000  0.361240  0.680759  1
