# generated using pymatgen
data_LiDy4(SiB4)2
_symmetry_space_group_name_H-M   'P 1'
_cell_length_a   7.15268700
_cell_length_b   7.15268700
_cell_length_c   7.86515500
_cell_angle_alpha   90.00000000
_cell_angle_beta   90.00000000
_cell_angle_gamma   90.00000000
_symmetry_Int_Tables_number   1
_chemical_formula_structural   LiDy4(SiB4)2
_chemical_formula_sum   'Li2 Dy8 Si4 B16'
_cell_volume   402.38865478
_cell_formula_units_Z   2
loop_
 _symmetry_equiv_pos_site_id
 _symmetry_equiv_pos_as_xyz
  1  'x, y, z'
loop_
 _atom_site_type_symbol
 _atom_site_label
 _atom_site_symmetry_multiplicity
 _atom_site_fract_x
 _atom_site_fract_y
 _atom_site_fract_z
 _atom_site_occupancy
  Li  Li0  1  0.000000  0.000000  0.500000  1
  Li  Li1  1  0.500000  0.500000  0.500000  1
  Dy  Dy2  1  0.683234  0.183234  0.235365  1
  Dy  Dy3  1  0.316766  0.816766  0.764635  1
  Dy  Dy4  1  0.316766  0.816766  0.235365  1
  Dy  Dy5  1  0.816766  0.683234  0.235365  1
  Dy  Dy6  1  0.816766  0.683234  0.764635  1
  Dy  Dy7  1  0.683234  0.183234  0.764635  1
  Dy  Dy8  1  0.183234  0.316766  0.764635  1
  Dy  Dy9  1  0.183234  0.316766  0.235365  1
  Si  Si10  1  0.115065  0.615065  0.500000  1
  Si  Si11  1  0.884935  0.384935  0.500000  1
  Si  Si12  1  0.384935  0.115065  0.500000  1
  Si  Si13  1  0.615065  0.884935  0.500000  1
  B  B14  1  0.173903  0.040229  0.000000  1
  B  B15  1  0.826097  0.959771  0.000000  1
  B  B16  1  0.959771  0.173903  0.000000  1
  B  B17  1  0.326097  0.540229  0.000000  1
  B  B18  1  0.040229  0.826097  0.000000  1
  B  B19  1  0.673903  0.459771  0.000000  1
  B  B20  1  0.540229  0.673903  0.000000  1
  B  B21  1  0.459771  0.326097  0.000000  1
  B  B22  1  0.088955  0.588955  0.000000  1
  B  B23  1  0.911045  0.411045  0.000000  1
  B  B24  1  0.411045  0.088955  0.000000  1
  B  B25  1  0.588955  0.911045  0.000000  1
  B  B26  1  0.000000  0.000000  0.160403  1
  B  B27  1  0.000000  0.000000  0.839597  1
  B  B28  1  0.500000  0.500000  0.839597  1
  B  B29  1  0.500000  0.500000  0.160403  1
