# generated using pymatgen
data_La3Nd16SmSn16
_symmetry_space_group_name_H-M   'P 1'
_cell_length_a   8.31332268
_cell_length_b   8.46053405
_cell_length_c   16.03758700
_cell_angle_alpha   90.00574953
_cell_angle_beta   90.02319862
_cell_angle_gamma   89.99796604
_symmetry_Int_Tables_number   1
_chemical_formula_structural   La3Nd16SmSn16
_chemical_formula_sum   'La3 Nd16 Sm1 Sn16'
_cell_volume   1128.00598198
_cell_formula_units_Z   1
loop_
 _symmetry_equiv_pos_site_id
 _symmetry_equiv_pos_as_xyz
  1  'x, y, z'
loop_
 _atom_site_type_symbol
 _atom_site_label
 _atom_site_symmetry_multiplicity
 _atom_site_fract_x
 _atom_site_fract_y
 _atom_site_fract_z
 _atom_site_occupancy
  La  La0  1  0.982262  0.818763  0.401543  1
  La  La1  1  0.517759  0.319123  0.598770  1
  La  La2  1  0.017869  0.181325  0.901444  1
  Nd  Nd3  1  0.367694  0.836430  0.879097  1
  Nd  Nd4  1  0.867955  0.663449  0.621030  1
  Nd  Nd5  1  0.632187  0.163578  0.379204  1
  Nd  Nd6  1  0.132383  0.336695  0.119692  1
  Nd  Nd7  1  0.632259  0.163611  0.120465  1
  Nd  Nd8  1  0.132639  0.336675  0.379957  1
  Nd  Nd9  1  0.366964  0.836616  0.621043  1
  Nd  Nd10  1  0.867621  0.663377  0.879330  1
  Nd  Nd11  1  0.518628  0.319952  0.900074  1
  Nd  Nd12  1  0.018797  0.181250  0.600083  1
  Nd  Nd13  1  0.481700  0.680686  0.400801  1
  Nd  Nd14  1  0.981610  0.819022  0.099513  1
  Nd  Nd15  1  0.481896  0.680838  0.098660  1
  Nd  Nd16  1  0.698281  0.998200  0.750128  1
  Nd  Nd17  1  0.801730  0.497892  0.249578  1
  Nd  Nd18  1  0.302101  0.001999  0.249760  1
  Sm  Sm19  1  0.198700  0.502456  0.750006  1
  Sn  Sn20  1  0.293215  0.034229  0.042515  1
  Sn  Sn21  1  0.792165  0.464239  0.457709  1
  Sn  Sn22  1  0.707736  0.964238  0.542552  1
  Sn  Sn23  1  0.209268  0.535217  0.956643  1
  Sn  Sn24  1  0.706916  0.963039  0.958433  1
  Sn  Sn25  1  0.207223  0.535279  0.543223  1
  Sn  Sn26  1  0.292915  0.036345  0.458435  1
  Sn  Sn27  1  0.790625  0.464685  0.041863  1
  Sn  Sn28  1  0.565254  0.616916  0.750341  1
  Sn  Sn29  1  0.067842  0.880987  0.749824  1
  Sn  Sn30  1  0.432481  0.382924  0.249919  1
  Sn  Sn31  1  0.932761  0.117758  0.249579  1
  Sn  Sn32  1  0.322339  0.144824  0.750550  1
  Sn  Sn33  1  0.824969  0.358860  0.749609  1
  Sn  Sn34  1  0.675654  0.856819  0.249595  1
  Sn  Sn35  1  0.177600  0.641700  0.249034  1
