# generated using pymatgen
data_Dy11Ho(InSi2)2
_symmetry_space_group_name_H-M   'P 1'
_cell_length_a   8.52447275
_cell_length_b   8.52541232
_cell_length_c   8.52541311
_cell_angle_alpha   112.44181942
_cell_angle_beta   110.93625626
_cell_angle_gamma   105.12905319
_symmetry_Int_Tables_number   1
_chemical_formula_structural   Dy11Ho(InSi2)2
_chemical_formula_sum   'Dy11 Ho1 In2 Si4'
_cell_volume   474.80515851
_cell_formula_units_Z   1
loop_
 _symmetry_equiv_pos_site_id
 _symmetry_equiv_pos_as_xyz
  1  'x, y, z'
loop_
 _atom_site_type_symbol
 _atom_site_label
 _atom_site_symmetry_multiplicity
 _atom_site_fract_x
 _atom_site_fract_y
 _atom_site_fract_z
 _atom_site_occupancy
  Dy  Dy0  1  0.319567  0.615930  0.296271  1
  Dy  Dy1  1  0.680410  0.384134  0.703759  1
  Dy  Dy2  1  0.319567  0.023295  0.703639  1
  Dy  Dy3  1  0.680410  0.976652  0.296274  1
  Dy  Dy4  1  0.186403  0.278327  0.464765  1
  Dy  Dy5  1  0.813560  0.721627  0.535137  1
  Dy  Dy6  1  0.186403  0.721637  0.908076  1
  Dy  Dy7  1  0.813560  0.278424  0.091933  1
  Dy  Dy8  1  0.442741  0.237990  0.204752  1
  Dy  Dy9  1  0.557316  0.762018  0.795297  1
  Dy  Dy10  1  0.033229  0.237990  0.795239  1
  Ho  Ho11  1  0.966975  0.762118  0.204856  1
  In  In12  1  0.500081  0.500036  0.000044  1
  In  In13  1  0.999978  0.999926  0.000053  1
  Si  Si14  1  0.115501  0.615521  0.499980  1
  Si  Si15  1  0.884484  0.384487  0.499998  1
  Si  Si16  1  0.369202  0.999899  0.369303  1
  Si  Si17  1  0.630614  0.999990  0.630625  1
