# generated using pymatgen
data_Ce2Sc3(SiGe)2
_symmetry_space_group_name_H-M   'P 1'
_cell_length_a   7.26394300
_cell_length_b   7.49857300
_cell_length_c   14.24804100
_cell_angle_alpha   90.00000000
_cell_angle_beta   90.00000000
_cell_angle_gamma   90.00000000
_symmetry_Int_Tables_number   1
_chemical_formula_structural   Ce2Sc3(SiGe)2
_chemical_formula_sum   'Ce8 Sc12 Si8 Ge8'
_cell_volume   776.07949248
_cell_formula_units_Z   4
loop_
 _symmetry_equiv_pos_site_id
 _symmetry_equiv_pos_as_xyz
  1  'x, y, z'
loop_
 _atom_site_type_symbol
 _atom_site_label
 _atom_site_symmetry_multiplicity
 _atom_site_fract_x
 _atom_site_fract_y
 _atom_site_fract_z
 _atom_site_occupancy
  Ce  Ce0  1  0.992102  0.173873  0.098624  1
  Ce  Ce1  1  0.492102  0.326127  0.401376  1
  Ce  Ce2  1  0.507898  0.673873  0.901376  1
  Ce  Ce3  1  0.007898  0.826127  0.598624  1
  Ce  Ce4  1  0.007898  0.826127  0.901376  1
  Ce  Ce5  1  0.507898  0.673873  0.598624  1
  Ce  Ce6  1  0.492102  0.326127  0.098624  1
  Ce  Ce7  1  0.992102  0.173873  0.401376  1
  Sc  Sc8  1  0.664197  0.005260  0.250000  1
  Sc  Sc9  1  0.164197  0.494740  0.250000  1
  Sc  Sc10  1  0.835803  0.505260  0.750000  1
  Sc  Sc11  1  0.335803  0.994740  0.750000  1
  Sc  Sc12  1  0.832854  0.673062  0.126022  1
  Sc  Sc13  1  0.332854  0.826938  0.373978  1
  Sc  Sc14  1  0.667146  0.173062  0.873978  1
  Sc  Sc15  1  0.167146  0.326938  0.626022  1
  Sc  Sc16  1  0.167146  0.326938  0.873978  1
  Sc  Sc17  1  0.667146  0.173062  0.626022  1
  Sc  Sc18  1  0.332854  0.826938  0.126022  1
  Sc  Sc19  1  0.832854  0.673062  0.373978  1
  Si  Si20  1  0.790505  0.375962  0.250000  1
  Si  Si21  1  0.290505  0.124038  0.250000  1
  Si  Si22  1  0.709495  0.875962  0.750000  1
  Si  Si23  1  0.209495  0.624038  0.750000  1
  Si  Si24  1  0.035760  0.880252  0.250000  1
  Si  Si25  1  0.535760  0.619748  0.250000  1
  Si  Si26  1  0.464240  0.380252  0.750000  1
  Si  Si27  1  0.964240  0.119748  0.750000  1
  Ge  Ge28  1  0.834595  0.461067  0.959613  1
  Ge  Ge29  1  0.334595  0.038933  0.540387  1
  Ge  Ge30  1  0.665405  0.961067  0.040387  1
  Ge  Ge31  1  0.165405  0.538933  0.459613  1
  Ge  Ge32  1  0.165405  0.538933  0.040387  1
  Ge  Ge33  1  0.665405  0.961067  0.459613  1
  Ge  Ge34  1  0.334595  0.038933  0.959613  1
  Ge  Ge35  1  0.834595  0.461067  0.540387  1
