# generated using pymatgen
data_LiAcTb(Si3Pd10)2
_symmetry_space_group_name_H-M   'P 1'
_cell_length_a   8.72831516
_cell_length_b   8.72831460
_cell_length_c   8.72831400
_cell_angle_alpha   60.00000228
_cell_angle_beta   60.00000441
_cell_angle_gamma   59.99999863
_symmetry_Int_Tables_number   1
_chemical_formula_structural   LiAcTb(Si3Pd10)2
_chemical_formula_sum   'Li1 Ac1 Tb1 Si6 Pd20'
_cell_volume   470.19303561
_cell_formula_units_Z   1
loop_
 _symmetry_equiv_pos_site_id
 _symmetry_equiv_pos_as_xyz
  1  'x, y, z'
loop_
 _atom_site_type_symbol
 _atom_site_label
 _atom_site_symmetry_multiplicity
 _atom_site_fract_x
 _atom_site_fract_y
 _atom_site_fract_z
 _atom_site_occupancy
  Li  Li0  1  0.000000  0.000000  0.000000  1
  Ac  Ac1  1  0.750000  0.750000  0.750000  1
  Tb  Tb2  1  0.250000  0.250000  0.250000  1
  Si  Si3  1  0.735240  0.264760  0.264760  1
  Si  Si4  1  0.264760  0.735240  0.735240  1
  Si  Si5  1  0.264760  0.735240  0.264760  1
  Si  Si6  1  0.735240  0.264760  0.735240  1
  Si  Si7  1  0.264760  0.264760  0.735240  1
  Si  Si8  1  0.735240  0.735240  0.264760  1
  Pd  Pd9  1  0.383013  0.383013  0.383013  1
  Pd  Pd10  1  0.612185  0.612185  0.612185  1
  Pd  Pd11  1  0.383013  0.383013  0.850963  1
  Pd  Pd12  1  0.383013  0.850963  0.383013  1
  Pd  Pd13  1  0.612185  0.612185  0.163443  1
  Pd  Pd14  1  0.612185  0.163443  0.612185  1
  Pd  Pd15  1  0.850963  0.383013  0.383013  1
  Pd  Pd16  1  0.163443  0.612185  0.612185  1
  Pd  Pd17  1  0.341953  0.002170  0.002170  1
  Pd  Pd18  1  0.653706  0.002170  0.002170  1
  Pd  Pd19  1  0.002170  0.341953  0.653706  1
  Pd  Pd20  1  0.002170  0.653706  0.341953  1
  Pd  Pd21  1  0.002170  0.341953  0.002170  1
  Pd  Pd22  1  0.653706  0.002170  0.341953  1
  Pd  Pd23  1  0.002170  0.653706  0.002170  1
  Pd  Pd24  1  0.341953  0.002170  0.653706  1
  Pd  Pd25  1  0.002170  0.002170  0.341953  1
  Pd  Pd26  1  0.002170  0.002170  0.653706  1
  Pd  Pd27  1  0.653706  0.341953  0.002170  1
  Pd  Pd28  1  0.341953  0.653706  0.002170  1
