# generated using pymatgen
data_Y16In4Ir2RuRh
_symmetry_space_group_name_H-M   'P 1'
_cell_length_a   9.69290669
_cell_length_b   9.74825716
_cell_length_c   9.70638377
_cell_angle_alpha   59.85718431
_cell_angle_beta   59.67410787
_cell_angle_gamma   59.81092374
_symmetry_Int_Tables_number   1
_chemical_formula_structural   Y16In4Ir2RuRh
_chemical_formula_sum   'Y16 In4 Ir2 Ru1 Rh1'
_cell_volume   645.28821630
_cell_formula_units_Z   1
loop_
 _symmetry_equiv_pos_site_id
 _symmetry_equiv_pos_as_xyz
  1  'x, y, z'
loop_
 _atom_site_type_symbol
 _atom_site_label
 _atom_site_symmetry_multiplicity
 _atom_site_fract_x
 _atom_site_fract_y
 _atom_site_fract_z
 _atom_site_occupancy
  Y  Y0  1  0.810871  0.191490  0.806149  1
  Y  Y1  1  0.940308  0.557986  0.560903  1
  Y  Y2  1  0.558845  0.938941  0.563274  1
  Y  Y3  1  0.808150  0.193036  0.190334  1
  Y  Y4  1  0.191139  0.808608  0.191647  1
  Y  Y5  1  0.348079  0.953753  0.350579  1
  Y  Y6  1  0.940308  0.940804  0.560903  1
  Y  Y7  1  0.560138  0.938958  0.939387  1
  Y  Y8  1  0.189828  0.810717  0.806455  1
  Y  Y9  1  0.349592  0.349386  0.951637  1
  Y  Y10  1  0.560138  0.561517  0.939387  1
  Y  Y11  1  0.348079  0.347590  0.350579  1
  Y  Y12  1  0.189828  0.193000  0.806455  1
  Y  Y13  1  0.808150  0.808482  0.190334  1
  Y  Y14  1  0.939857  0.559710  0.940723  1
  Y  Y15  1  0.953185  0.348043  0.350729  1
  In  In16  1  0.583218  0.583275  0.583185  1
  In  In17  1  0.583218  0.250323  0.583185  1
  In  In18  1  0.582737  0.582884  0.251498  1
  In  In19  1  0.250595  0.583209  0.582989  1
  Ir  Ir20  1  0.141937  0.577017  0.140541  1
  Ir  Ir21  1  0.141937  0.140505  0.140541  1
  Ru  Ru22  1  0.142165  0.140197  0.577440  1
  Rh  Rh23  1  0.577700  0.140576  0.141148  1
