# generated using pymatgen
data_NbIn2GaPt12
_symmetry_space_group_name_H-M   'P 1'
_cell_length_a   5.69045270
_cell_length_b   5.69045358
_cell_length_c   7.99888900
_cell_angle_alpha   90.00000000
_cell_angle_beta   90.00000000
_cell_angle_gamma   89.98100022
_symmetry_Int_Tables_number   1
_chemical_formula_structural   NbIn2GaPt12
_chemical_formula_sum   'Nb1 In2 Ga1 Pt12'
_cell_volume   259.01406584
_cell_formula_units_Z   1
loop_
 _symmetry_equiv_pos_site_id
 _symmetry_equiv_pos_as_xyz
  1  'x, y, z'
loop_
 _atom_site_type_symbol
 _atom_site_label
 _atom_site_symmetry_multiplicity
 _atom_site_fract_x
 _atom_site_fract_y
 _atom_site_fract_z
 _atom_site_occupancy
  Nb  Nb0  1  0.000000  0.500000  0.749848  1
  In  In1  1  0.500000  0.000000  0.249638  1
  In  In2  1  0.500000  0.000000  0.750858  1
  Ga  Ga3  1  0.000000  0.500000  0.249433  1
  Pt  Pt4  1  0.236990  0.263010  0.999231  1
  Pt  Pt5  1  0.765624  0.265624  0.500026  1
  Pt  Pt6  1  0.750621  0.250621  0.998170  1
  Pt  Pt7  1  0.763010  0.736990  0.999231  1
  Pt  Pt8  1  0.500000  0.500000  0.749898  1
  Pt  Pt9  1  0.252354  0.247646  0.502612  1
  Pt  Pt10  1  0.747646  0.752354  0.502612  1
  Pt  Pt11  1  0.234376  0.734376  0.500026  1
  Pt  Pt12  1  0.500000  0.500000  0.250175  1
  Pt  Pt13  1  0.000000  0.000000  0.749898  1
  Pt  Pt14  1  0.000000  0.000000  0.250175  1
  Pt  Pt15  1  0.249379  0.749379  0.998170  1
