# generated using pymatgen
data_Ba8Ca5V3Fe8F56
_symmetry_space_group_name_H-M   'P 1'
_cell_length_a   5.46045635
_cell_length_b   7.51970047
_cell_length_c   30.62786954
_cell_angle_alpha   90.91035634
_cell_angle_beta   90.33710400
_cell_angle_gamma   111.33560958
_symmetry_Int_Tables_number   1
_chemical_formula_structural   Ba8Ca5V3Fe8F56
_chemical_formula_sum   'Ba8 Ca5 V3 Fe8 F56'
_cell_volume   1171.18111529
_cell_formula_units_Z   1
loop_
 _symmetry_equiv_pos_site_id
 _symmetry_equiv_pos_as_xyz
  1  'x, y, z'
loop_
 _atom_site_type_symbol
 _atom_site_label
 _atom_site_symmetry_multiplicity
 _atom_site_fract_x
 _atom_site_fract_y
 _atom_site_fract_z
 _atom_site_occupancy
  Ba  Ba0  1  0.143597  0.379608  0.810542  1
  Ba  Ba1  1  0.141779  0.378793  0.311606  1
  Ba  Ba2  1  0.766273  0.619915  0.936648  1
  Ba  Ba3  1  0.763612  0.621644  0.438648  1
  Ba  Ba4  1  0.858221  0.621207  0.688394  1
  Ba  Ba5  1  0.856403  0.620392  0.189458  1
  Ba  Ba6  1  0.236388  0.378356  0.561352  1
  Ba  Ba7  1  0.233727  0.380085  0.063352  1
  Ca  Ca8  1  0.450139  0.998124  0.873648  1
  Ca  Ca9  1  0.448277  0.999656  0.375102  1
  Ca  Ca10  1  0.551723  0.000344  0.624898  1
  Ca  Ca11  1  0.549861  0.001876  0.126352  1
  Ca  Ca12  1  0.500000  0.000000  0.000000  1
  V  V13  1  0.500487  0.000068  0.749544  1
  V  V14  1  0.499513  0.999932  0.250456  1
  V  V15  1  0.500000  0.000000  0.500000  1
  Fe  Fe16  1  0.880475  0.762590  0.810970  1
  Fe  Fe17  1  0.880114  0.762805  0.312042  1
  Fe  Fe18  1  0.127102  0.246274  0.937072  1
  Fe  Fe19  1  0.117527  0.237222  0.438185  1
  Fe  Fe20  1  0.119886  0.237195  0.687958  1
  Fe  Fe21  1  0.119525  0.237410  0.189030  1
  Fe  Fe22  1  0.882473  0.762778  0.561815  1
  Fe  Fe23  1  0.872898  0.753726  0.062928  1
  F  F24  1  0.735927  0.830215  0.757837  1
  F  F25  1  0.735281  0.830348  0.258811  1
  F  F26  1  0.930700  0.179766  0.991145  1
  F  F27  1  0.905741  0.169801  0.491276  1
  F  F28  1  0.264719  0.169652  0.741189  1
  F  F29  1  0.264073  0.169785  0.242163  1
  F  F30  1  0.094259  0.830199  0.508724  1
  F  F31  1  0.069300  0.820234  0.008855  1
  F  F32  1  0.596417  0.750472  0.849714  1
  F  F33  1  0.599961  0.752927  0.351765  1
  F  F34  1  0.845150  0.244230  0.897928  1
  F  F35  1  0.845642  0.246777  0.398360  1
  F  F36  1  0.400039  0.247073  0.648235  1
  F  F37  1  0.403583  0.249528  0.150286  1
  F  F38  1  0.154358  0.753223  0.601640  1
  F  F39  1  0.154850  0.755770  0.102072  1
  F  F40  1  0.910398  0.018983  0.578600  1
  F  F41  1  0.885986  0.012115  0.076344  1
  F  F42  1  0.891197  0.980769  0.671293  1
  F  F43  1  0.893162  0.980992  0.171587  1
  F  F44  1  0.114014  0.987885  0.923656  1
  F  F45  1  0.089602  0.981017  0.421400  1
  F  F46  1  0.106838  0.019008  0.828413  1
  F  F47  1  0.108803  0.019231  0.328707  1
  F  F48  1  0.575408  0.749377  0.523372  1
  F  F49  1  0.557288  0.723673  0.025299  1
  F  F50  1  0.826892  0.250584  0.726166  1
  F  F51  1  0.825296  0.249576  0.226984  1
  F  F52  1  0.442712  0.276327  0.974701  1
  F  F53  1  0.424592  0.250623  0.476628  1
  F  F54  1  0.174704  0.750424  0.773016  1
  F  F55  1  0.173108  0.749416  0.273834  1
  F  F56  1  0.696672  0.498385  0.794381  1
  F  F57  1  0.693852  0.498992  0.295361  1
  F  F58  1  0.192210  0.510441  0.951368  1
  F  F59  1  0.195232  0.501039  0.454704  1
  F  F60  1  0.306148  0.501008  0.704639  1
  F  F61  1  0.303328  0.501615  0.205619  1
  F  F62  1  0.804768  0.498961  0.545296  1
  F  F63  1  0.807790  0.489559  0.048632  1
  F  F64  1  0.376836  0.326517  0.887689  1
  F  F65  1  0.375768  0.323543  0.389976  1
  F  F66  1  0.054480  0.678691  0.859595  1
  F  F67  1  0.054145  0.677057  0.360402  1
  F  F68  1  0.624232  0.676457  0.610024  1
  F  F69  1  0.623164  0.673483  0.112311  1
  F  F70  1  0.945855  0.322943  0.639598  1
  F  F71  1  0.945520  0.321309  0.140405  1
  F  F72  1  0.553884  0.882991  0.935324  1
  F  F73  1  0.536612  0.885821  0.438526  1
  F  F74  1  0.652140  0.114868  0.810944  1
  F  F75  1  0.650928  0.114140  0.311945  1
  F  F76  1  0.463388  0.114179  0.561474  1
  F  F77  1  0.446116  0.117009  0.064676  1
  F  F78  1  0.349072  0.885860  0.688055  1
  F  F79  1  0.347860  0.885132  0.189056  1
