# generated using pymatgen
data_CeTm3Al4IrRu3
_symmetry_space_group_name_H-M   'P 1'
_cell_length_a   6.93072839
_cell_length_b   4.02705400
_cell_length_c   8.12557363
_cell_angle_alpha   90.00000000
_cell_angle_beta   90.67099947
_cell_angle_gamma   90.00000000
_symmetry_Int_Tables_number   1
_chemical_formula_structural   CeTm3Al4IrRu3
_chemical_formula_sum   'Ce1 Tm3 Al4 Ir1 Ru3'
_cell_volume   226.77260018
_cell_formula_units_Z   1
loop_
 _symmetry_equiv_pos_site_id
 _symmetry_equiv_pos_as_xyz
  1  'x, y, z'
loop_
 _atom_site_type_symbol
 _atom_site_label
 _atom_site_symmetry_multiplicity
 _atom_site_fract_x
 _atom_site_fract_y
 _atom_site_fract_z
 _atom_site_occupancy
  Ce  Ce0  1  0.528629  0.750000  0.685671  1
  Tm  Tm1  1  0.963197  0.250000  0.176208  1
  Tm  Tm2  1  0.465689  0.250000  0.318269  1
  Tm  Tm3  1  0.033514  0.750000  0.821343  1
  Al  Al4  1  0.871147  0.250000  0.556459  1
  Al  Al5  1  0.355833  0.250000  0.949457  1
  Al  Al6  1  0.140191  0.750000  0.438953  1
  Al  Al7  1  0.634468  0.750000  0.062971  1
  Ir  Ir8  1  0.772319  0.750000  0.372003  1
  Ru  Ru9  1  0.727422  0.250000  0.867020  1
  Ru  Ru10  1  0.246203  0.250000  0.626114  1
  Ru  Ru11  1  0.261387  0.750000  0.125532  1
