# generated using pymatgen
data_Dy2HoEr5(Si3Rh)4
_symmetry_space_group_name_H-M   'P 1'
_cell_length_a   8.15351500
_cell_length_b   8.15351708
_cell_length_c   7.84626000
_cell_angle_alpha   90.00000000
_cell_angle_beta   90.00000000
_cell_angle_gamma   120.01633960
_symmetry_Int_Tables_number   1
_chemical_formula_structural   Dy2HoEr5(Si3Rh)4
_chemical_formula_sum   'Dy2 Ho1 Er5 Si12 Rh4'
_cell_volume   451.66002788
_cell_formula_units_Z   1
loop_
 _symmetry_equiv_pos_site_id
 _symmetry_equiv_pos_as_xyz
  1  'x, y, z'
loop_
 _atom_site_type_symbol
 _atom_site_label
 _atom_site_symmetry_multiplicity
 _atom_site_fract_x
 _atom_site_fract_y
 _atom_site_fract_z
 _atom_site_occupancy
  Dy  Dy0  1  0.000096  0.999904  0.250000  1
  Dy  Dy1  1  0.999954  0.000046  0.750000  1
  Ho  Ho2  1  0.491526  0.508474  0.250000  1
  Er  Er3  1  0.491550  0.983313  0.250000  1
  Er  Er4  1  0.016687  0.508450  0.250000  1
  Er  Er5  1  0.508581  0.491419  0.750000  1
  Er  Er6  1  0.982728  0.491275  0.750000  1
  Er  Er7  1  0.508725  0.017272  0.750000  1
  Si  Si8  1  0.832992  0.167008  0.501172  1
  Si  Si9  1  0.833045  0.665920  0.501455  1
  Si  Si10  1  0.334080  0.166955  0.501455  1
  Si  Si11  1  0.832992  0.167008  0.998828  1
  Si  Si12  1  0.833045  0.665920  0.998545  1
  Si  Si13  1  0.334080  0.166955  0.998545  1
  Si  Si14  1  0.167175  0.832825  0.001269  1
  Si  Si15  1  0.665672  0.832961  0.000881  1
  Si  Si16  1  0.167039  0.334328  0.000881  1
  Si  Si17  1  0.167175  0.832825  0.498731  1
  Si  Si18  1  0.665672  0.832961  0.499119  1
  Si  Si19  1  0.167039  0.334328  0.499119  1
  Rh  Rh20  1  0.666915  0.333085  0.466472  1
  Rh  Rh21  1  0.666915  0.333085  0.033528  1
  Rh  Rh22  1  0.333159  0.666841  0.964761  1
  Rh  Rh23  1  0.333159  0.666841  0.535239  1
