# generated using pymatgen
data_Ho2Er(PRu)3
_symmetry_space_group_name_H-M   'P 1'
_cell_length_a   6.83346501
_cell_length_b   6.83346554
_cell_length_c   3.75731100
_cell_angle_alpha   90.00000000
_cell_angle_beta   90.00000000
_cell_angle_gamma   119.99265080
_symmetry_Int_Tables_number   1
_chemical_formula_structural   Ho2Er(PRu)3
_chemical_formula_sum   'Ho2 Er1 P3 Ru3'
_cell_volume   151.95742194
_cell_formula_units_Z   1
loop_
 _symmetry_equiv_pos_site_id
 _symmetry_equiv_pos_as_xyz
  1  'x, y, z'
loop_
 _atom_site_type_symbol
 _atom_site_label
 _atom_site_symmetry_multiplicity
 _atom_site_fract_x
 _atom_site_fract_y
 _atom_site_fract_z
 _atom_site_occupancy
  Ho  Ho0  1  0.409607  0.000070  0.500000  1
  Ho  Ho1  1  0.000070  0.409608  0.500000  1
  Er  Er2  1  0.590627  0.590627  0.500000  1
  P  P3  1  0.666475  0.333832  0.000000  1
  P  P4  1  0.333832  0.666475  0.000000  1
  P  P5  1  0.999621  0.999621  0.500000  1
  Ru  Ru6  1  0.763637  0.999636  0.000000  1
  Ru  Ru7  1  0.236494  0.236495  0.000000  1
  Ru  Ru8  1  0.999636  0.763637  0.000000  1
