# generated using pymatgen
data_Er5Ga2P10Ir16Ru3
_symmetry_space_group_name_H-M   'P 1'
_cell_length_a   12.71781426
_cell_length_b   12.73670611
_cell_length_c   3.97785800
_cell_angle_alpha   90.00000000
_cell_angle_beta   90.00000000
_cell_angle_gamma   120.04915602
_symmetry_Int_Tables_number   1
_chemical_formula_structural   Er5Ga2P10Ir16Ru3
_chemical_formula_sum   'Er5 Ga2 P10 Ir16 Ru3'
_cell_volume   557.74306848
_cell_formula_units_Z   1
loop_
 _symmetry_equiv_pos_site_id
 _symmetry_equiv_pos_as_xyz
  1  'x, y, z'
loop_
 _atom_site_type_symbol
 _atom_site_label
 _atom_site_symmetry_multiplicity
 _atom_site_fract_x
 _atom_site_fract_y
 _atom_site_fract_z
 _atom_site_occupancy
  Er  Er0  1  0.662114  0.329545  0.000000  1
  Er  Er1  1  0.337886  0.667432  0.000000  1
  Er  Er2  1  0.822822  0.819695  0.500000  1
  Er  Er3  1  0.177178  0.996873  0.500000  1
  Er  Er4  1  0.000000  0.183326  0.500000  1
  Ga  Ga5  1  0.642910  0.643369  0.000000  1
  Ga  Ga6  1  0.357090  0.000459  0.000000  1
  P  P7  1  0.685243  0.167092  0.500000  1
  P  P8  1  0.821750  0.514259  0.500000  1
  P  P9  1  0.476649  0.309717  0.500000  1
  P  P10  1  0.178250  0.692509  0.500000  1
  P  P11  1  0.523351  0.833068  0.500000  1
  P  P12  1  0.314757  0.481848  0.500000  1
  P  P13  1  0.000000  0.358776  0.000000  1
  P  P14  1  0.176761  0.178298  0.000000  1
  P  P15  1  0.823239  0.001536  0.000000  1
  P  P16  1  0.000000  0.812410  0.000000  1
  Ir  Ir17  1  0.813436  0.183977  0.000000  1
  Ir  Ir18  1  0.823876  0.614050  0.000000  1
  Ir  Ir19  1  0.376493  0.206876  0.000000  1
  Ir  Ir20  1  0.176124  0.790174  0.000000  1
  Ir  Ir21  1  0.623507  0.830381  0.000000  1
  Ir  Ir22  1  0.186564  0.370541  0.000000  1
  Ir  Ir23  1  0.438166  0.455414  0.000000  1
  Ir  Ir24  1  0.561834  0.017248  0.000000  1
  Ir  Ir25  1  0.000000  0.537398  0.000000  1
  Ir  Ir26  1  0.863143  0.358725  0.500000  1
  Ir  Ir27  1  0.631492  0.503659  0.500000  1
  Ir  Ir28  1  0.491851  0.135513  0.500000  1
  Ir  Ir29  1  0.368508  0.872166  0.500000  1
  Ir  Ir30  1  0.508149  0.643660  0.500000  1
  Ir  Ir31  1  0.136857  0.495580  0.500000  1
  Ir  Ir32  1  0.000000  0.994229  0.000000  1
  Ru  Ru33  1  0.280889  0.286926  0.500000  1
  Ru  Ru34  1  0.719111  0.006037  0.500000  1
  Ru  Ru35  1  0.000000  0.707235  0.500000  1
