# generated using pymatgen
data_Tm2CrPtF14
_symmetry_space_group_name_H-M   'P 1'
_cell_length_a   5.48660400
_cell_length_b   8.77686916
_cell_length_c   11.76242100
_cell_angle_alpha   62.85364539
_cell_angle_beta   90.00000000
_cell_angle_gamma   90.00000000
_symmetry_Int_Tables_number   1
_chemical_formula_structural   Tm2CrPtF14
_chemical_formula_sum   'Tm4 Cr2 Pt2 F28'
_cell_volume   504.02701668
_cell_formula_units_Z   2
loop_
 _symmetry_equiv_pos_site_id
 _symmetry_equiv_pos_as_xyz
  1  'x, y, z'
loop_
 _atom_site_type_symbol
 _atom_site_label
 _atom_site_symmetry_multiplicity
 _atom_site_fract_x
 _atom_site_fract_y
 _atom_site_fract_z
 _atom_site_occupancy
  Tm  Tm0  1  0.763211  0.812597  0.762237  1
  Tm  Tm1  1  0.263211  0.187403  0.737763  1
  Tm  Tm2  1  0.235477  0.187510  0.230547  1
  Tm  Tm3  1  0.735477  0.812490  0.269453  1
  Cr  Cr4  1  0.757410  0.275410  0.954579  1
  Cr  Cr5  1  0.257410  0.724590  0.545421  1
  Pt  Pt6  1  0.241967  0.729061  0.042987  1
  Pt  Pt7  1  0.741967  0.270939  0.457013  1
  F  F8  1  0.436834  0.700568  0.913617  1
  F  F9  1  0.936834  0.299432  0.586383  1
  F  F10  1  0.555171  0.291349  0.073687  1
  F  F11  1  0.055171  0.708651  0.426313  1
  F  F12  1  0.437395  0.280579  0.542918  1
  F  F13  1  0.937395  0.719421  0.957082  1
  F  F14  1  0.541718  0.720018  0.452924  1
  F  F15  1  0.041718  0.279982  0.047076  1
  F  F16  1  0.769369  0.511217  0.862694  1
  F  F17  1  0.269369  0.488783  0.637306  1
  F  F18  1  0.231693  0.477936  0.143921  1
  F  F19  1  0.731693  0.522064  0.356079  1
  F  F20  1  0.754851  0.041696  0.046242  1
  F  F21  1  0.254851  0.958304  0.453758  1
  F  F22  1  0.243938  0.980002  0.949624  1
  F  F23  1  0.743938  0.019998  0.550376  1
  F  F24  1  0.984044  0.726514  0.644169  1
  F  F25  1  0.484044  0.273486  0.855831  1
  F  F26  1  0.040892  0.268096  0.365465  1
  F  F27  1  0.540892  0.731904  0.134535  1
  F  F28  1  0.051603  0.751786  0.177237  1
  F  F29  1  0.551603  0.248214  0.322763  1
  F  F30  1  0.956868  0.256868  0.832865  1
  F  F31  1  0.456868  0.743132  0.667135  1
  F  F32  1  0.418047  0.974244  0.228627  1
  F  F33  1  0.918047  0.025756  0.271373  1
  F  F34  1  0.579511  0.026254  0.765746  1
  F  F35  1  0.079511  0.973746  0.734254  1
