# generated using pymatgen
data_PrY4(FeB3)2
_symmetry_space_group_name_H-M   'P 1'
_cell_length_a   5.44679809
_cell_length_b   5.44679760
_cell_length_c   8.28234211
_cell_angle_alpha   70.80283053
_cell_angle_beta   70.80283445
_cell_angle_gamma   59.99999231
_symmetry_Int_Tables_number   1
_chemical_formula_structural   PrY4(FeB3)2
_chemical_formula_sum   'Pr1 Y4 Fe2 B6'
_cell_volume   196.86191397
_cell_formula_units_Z   1
loop_
 _symmetry_equiv_pos_site_id
 _symmetry_equiv_pos_as_xyz
  1  'x, y, z'
loop_
 _atom_site_type_symbol
 _atom_site_label
 _atom_site_symmetry_multiplicity
 _atom_site_fract_x
 _atom_site_fract_y
 _atom_site_fract_z
 _atom_site_occupancy
  Pr  Pr0  1  0.000000  0.000000  0.000000  1
  Y  Y1  1  0.749236  0.749236  0.752292  1
  Y  Y2  1  0.250764  0.250764  0.247708  1
  Y  Y3  1  0.583227  0.583227  0.250319  1
  Y  Y4  1  0.416773  0.416773  0.749681  1
  Fe  Fe5  1  0.882958  0.882958  0.351125  1
  Fe  Fe6  1  0.117042  0.117042  0.648875  1
  B  B7  1  0.500000  0.167478  0.500000  1
  B  B8  1  0.832522  0.500000  0.500000  1
  B  B9  1  0.167478  0.832522  0.500000  1
  B  B10  1  0.167478  0.500000  0.500000  1
  B  B11  1  0.832522  0.167478  0.500000  1
  B  B12  1  0.500000  0.832522  0.500000  1
