# generated using pymatgen
data_Dy5Ho7Tc3Pt
_symmetry_space_group_name_H-M   'P 1'
_cell_length_a   6.29635228
_cell_length_b   7.39597736
_cell_length_c   9.15369706
_cell_angle_alpha   89.99301146
_cell_angle_beta   90.01071250
_cell_angle_gamma   89.97055437
_symmetry_Int_Tables_number   1
_chemical_formula_structural   Dy5Ho7Tc3Pt
_chemical_formula_sum   'Dy5 Ho7 Tc3 Pt1'
_cell_volume   426.26635811
_cell_formula_units_Z   1
loop_
 _symmetry_equiv_pos_site_id
 _symmetry_equiv_pos_as_xyz
  1  'x, y, z'
loop_
 _atom_site_type_symbol
 _atom_site_label
 _atom_site_symmetry_multiplicity
 _atom_site_fract_x
 _atom_site_fract_y
 _atom_site_fract_z
 _atom_site_occupancy
  Dy  Dy0  1  0.329436  0.676310  0.066811  1
  Dy  Dy1  1  0.873116  0.542815  0.250058  1
  Dy  Dy2  1  0.623085  0.038801  0.250041  1
  Dy  Dy3  1  0.128281  0.455483  0.749947  1
  Dy  Dy4  1  0.371473  0.964789  0.749968  1
  Ho  Ho5  1  0.164877  0.177637  0.436247  1
  Ho  Ho6  1  0.667725  0.318266  0.558889  1
  Ho  Ho7  1  0.837239  0.827015  0.940079  1
  Ho  Ho8  1  0.667790  0.318211  0.941067  1
  Ho  Ho9  1  0.837239  0.826976  0.559867  1
  Ho  Ho10  1  0.329406  0.676329  0.433252  1
  Ho  Ho11  1  0.164850  0.177616  0.063767  1
  Tc  Tc12  1  0.037942  0.886031  0.250042  1
  Tc  Tc13  1  0.464209  0.387174  0.250034  1
  Tc  Tc14  1  0.957173  0.113588  0.750005  1
  Pt  Pt15  1  0.546161  0.612955  0.749927  1
