# generated using pymatgen
data_Tb2YIn3RhAu2
_symmetry_space_group_name_H-M   'P 1'
_cell_length_a   7.85516800
_cell_length_b   7.83706029
_cell_length_c   3.84062400
_cell_angle_alpha   90.00000000
_cell_angle_beta   90.00000000
_cell_angle_gamma   120.07646097
_symmetry_Int_Tables_number   1
_chemical_formula_structural   Tb2YIn3RhAu2
_chemical_formula_sum   'Tb2 Y1 In3 Rh1 Au2'
_cell_volume   204.60015646
_cell_formula_units_Z   1
loop_
 _symmetry_equiv_pos_site_id
 _symmetry_equiv_pos_as_xyz
  1  'x, y, z'
loop_
 _atom_site_type_symbol
 _atom_site_label
 _atom_site_symmetry_multiplicity
 _atom_site_fract_x
 _atom_site_fract_y
 _atom_site_fract_z
 _atom_site_occupancy
  Tb  Tb0  1  0.999797  0.602759  0.500000  1
  Tb  Tb1  1  0.397038  0.397241  0.500000  1
  Y  Y2  1  0.602057  0.000000  0.500000  1
  In  In3  1  0.998893  0.255986  0.000000  1
  In  In4  1  0.257685  0.000000  0.000000  1
  In  In5  1  0.742907  0.744014  0.000000  1
  Rh  Rh6  1  0.002589  0.000000  0.500000  1
  Au  Au7  1  0.332628  0.666221  0.000000  1
  Au  Au8  1  0.666408  0.333779  0.000000  1
