# generated using pymatgen
data_CrB3MoW3
_symmetry_space_group_name_H-M   'P 1'
_cell_length_a   6.84173860
_cell_length_b   6.84947233
_cell_length_c   6.84947124
_cell_angle_alpha   130.17178548
_cell_angle_beta   130.15101229
_cell_angle_gamma   73.17289982
_symmetry_Int_Tables_number   1
_chemical_formula_structural   CrB3MoW3
_chemical_formula_sum   'Cr2 B6 Mo2 W6'
_cell_volume   183.02133239
_cell_formula_units_Z   2
loop_
 _symmetry_equiv_pos_site_id
 _symmetry_equiv_pos_as_xyz
  1  'x, y, z'
loop_
 _atom_site_type_symbol
 _atom_site_label
 _atom_site_symmetry_multiplicity
 _atom_site_fract_x
 _atom_site_fract_y
 _atom_site_fract_z
 _atom_site_occupancy
  Cr  Cr0  1  0.499279  0.498655  0.999717  1
  Cr  Cr1  1  0.999279  0.999562  0.000624  1
  B  B2  1  0.377972  0.878630  0.256477  1
  B  B3  1  0.877972  0.621494  0.499342  1
  B  B4  1  0.121983  0.377280  0.499291  1
  B  B5  1  0.621983  0.122693  0.744704  1
  B  B6  1  0.250790  0.252029  0.000947  1
  B  B7  1  0.750790  0.749843  0.998761  1
  Mo  Mo8  1  0.814287  0.972711  0.500021  1
  Mo  Mo9  1  0.314287  0.814266  0.841576  1
  W  W10  1  0.685079  0.185276  0.158977  1
  W  W11  1  0.973745  0.473674  0.159137  1
  W  W12  1  0.026865  0.526788  0.840476  1
  W  W13  1  0.526865  0.686389  0.500078  1
  W  W14  1  0.185079  0.026102  0.499803  1
  W  W15  1  0.473745  0.314608  0.500071  1
