# generated using pymatgen
data_Tm2HfZr(Ga3Rh)6
_symmetry_space_group_name_H-M   'P 1'
_cell_length_a   7.51819602
_cell_length_b   7.50930417
_cell_length_c   9.40142500
_cell_angle_alpha   90.00000000
_cell_angle_beta   90.00000000
_cell_angle_gamma   119.95685363
_symmetry_Int_Tables_number   1
_chemical_formula_structural   Tm2HfZr(Ga3Rh)6
_chemical_formula_sum   'Tm2 Hf1 Zr1 Ga18 Rh6'
_cell_volume   459.86071844
_cell_formula_units_Z   1
loop_
 _symmetry_equiv_pos_site_id
 _symmetry_equiv_pos_as_xyz
  1  'x, y, z'
loop_
 _atom_site_type_symbol
 _atom_site_label
 _atom_site_symmetry_multiplicity
 _atom_site_fract_x
 _atom_site_fract_y
 _atom_site_fract_z
 _atom_site_occupancy
  Tm  Tm0  1  0.668473  0.995778  0.250000  1
  Tm  Tm1  1  0.331517  0.004200  0.750000  1
  Hf  Hf2  1  0.995908  0.669253  0.250000  1
  Zr  Zr3  1  0.004256  0.331107  0.750000  1
  Ga  Ga4  1  0.124450  0.123734  0.250000  1
  Ga  Ga5  1  0.875672  0.876407  0.750000  1
  Ga  Ga6  1  0.998403  0.336732  0.079311  1
  Ga  Ga7  1  0.001608  0.663451  0.920473  1
  Ga  Ga8  1  0.001608  0.663451  0.579527  1
  Ga  Ga9  1  0.331475  0.996473  0.417829  1
  Ga  Ga10  1  0.998403  0.336732  0.420689  1
  Ga  Ga11  1  0.668302  0.003325  0.582104  1
  Ga  Ga12  1  0.668302  0.003325  0.917896  1
  Ga  Ga13  1  0.331475  0.996473  0.082171  1
  Ga  Ga14  1  0.330289  0.332449  0.568616  1
  Ga  Ga15  1  0.669890  0.667570  0.431218  1
  Ga  Ga16  1  0.669890  0.667570  0.068782  1
  Ga  Ga17  1  0.330289  0.332449  0.931384  1
  Ga  Ga18  1  0.335974  0.547405  0.250000  1
  Ga  Ga19  1  0.663963  0.452423  0.750000  1
  Ga  Ga20  1  0.551589  0.340239  0.250000  1
  Ga  Ga21  1  0.448479  0.659847  0.750000  1
  Rh  Rh22  1  0.671713  0.327969  0.999968  1
  Rh  Rh23  1  0.328246  0.672210  0.000718  1
  Rh  Rh24  1  0.328246  0.672210  0.499282  1
  Rh  Rh25  1  0.671713  0.327969  0.500032  1
  Rh  Rh26  1  0.999934  0.999626  0.000423  1
  Rh  Rh27  1  0.999934  0.999626  0.499577  1
