# generated using pymatgen
data_Tb15HoIn4Pd3Rh
_symmetry_space_group_name_H-M   'P 1'
_cell_length_a   9.76450617
_cell_length_b   9.76450670
_cell_length_c   9.75473893
_cell_angle_alpha   59.94829096
_cell_angle_beta   59.94829084
_cell_angle_gamma   59.94033830
_symmetry_Int_Tables_number   1
_chemical_formula_structural   Tb15HoIn4Pd3Rh
_chemical_formula_sum   'Tb15 Ho1 In4 Pd3 Rh1'
_cell_volume   656.84888742
_cell_formula_units_Z   1
loop_
 _symmetry_equiv_pos_site_id
 _symmetry_equiv_pos_as_xyz
  1  'x, y, z'
loop_
 _atom_site_type_symbol
 _atom_site_label
 _atom_site_symmetry_multiplicity
 _atom_site_fract_x
 _atom_site_fract_y
 _atom_site_fract_z
 _atom_site_occupancy
  Tb  Tb0  1  0.187204  0.187204  0.814343  1
  Tb  Tb1  1  0.602769  0.602769  0.191061  1
  Tb  Tb2  1  0.440370  0.060163  0.439894  1
  Tb  Tb3  1  0.439559  0.439559  0.056419  1
  Tb  Tb4  1  0.811934  0.185926  0.814684  1
  Tb  Tb5  1  0.186753  0.812724  0.188078  1
  Tb  Tb6  1  0.439946  0.064525  0.055976  1
  Tb  Tb7  1  0.185926  0.811934  0.814684  1
  Tb  Tb8  1  0.064525  0.439946  0.055976  1
  Tb  Tb9  1  0.813143  0.813143  0.186859  1
  Tb  Tb10  1  0.195640  0.599354  0.605495  1
  Tb  Tb11  1  0.060163  0.440370  0.439894  1
  Tb  Tb12  1  0.059540  0.059540  0.440400  1
  Tb  Tb13  1  0.812724  0.186753  0.188078  1
  Tb  Tb14  1  0.599354  0.195640  0.605495  1
  Ho  Ho15  1  0.598567  0.598567  0.604837  1
  In  In16  1  0.833233  0.833233  0.833027  1
  In  In17  1  0.832424  0.832424  0.502319  1
  In  In18  1  0.502435  0.832481  0.832295  1
  In  In19  1  0.832481  0.502435  0.832295  1
  Pd  Pd20  1  0.394728  0.818342  0.392845  1
  Pd  Pd21  1  0.394527  0.394527  0.392821  1
  Pd  Pd22  1  0.818342  0.394728  0.392845  1
  Rh  Rh23  1  0.393716  0.393716  0.819380  1
