# generated using pymatgen
data_Nd8Y12Si15Au
_symmetry_space_group_name_H-M   'P 1'
_cell_length_a   7.79482285
_cell_length_b   7.81148589
_cell_length_c   14.44442363
_cell_angle_alpha   89.72403801
_cell_angle_beta   89.77286737
_cell_angle_gamma   90.07610956
_symmetry_Int_Tables_number   1
_chemical_formula_structural   Nd8Y12Si15Au
_chemical_formula_sum   'Nd8 Y12 Si15 Au1'
_cell_volume   879.49074862
_cell_formula_units_Z   1
loop_
 _symmetry_equiv_pos_site_id
 _symmetry_equiv_pos_as_xyz
  1  'x, y, z'
loop_
 _atom_site_type_symbol
 _atom_site_label
 _atom_site_symmetry_multiplicity
 _atom_site_fract_x
 _atom_site_fract_y
 _atom_site_fract_z
 _atom_site_occupancy
  Nd  Nd0  1  0.643167  0.988667  0.457581  1
  Nd  Nd1  1  0.363462  0.008730  0.957914  1
  Nd  Nd2  1  0.985969  0.632940  0.540976  1
  Nd  Nd3  1  0.492275  0.859016  0.207222  1
  Nd  Nd4  1  0.513130  0.146806  0.710546  1
  Nd  Nd5  1  0.862605  0.496205  0.795146  1
  Nd  Nd6  1  0.137719  0.503923  0.292583  1
  Nd  Nd7  1  0.010380  0.359872  0.042502  1
  Y  Y8  1  0.489337  0.360881  0.124172  1
  Y  Y9  1  0.983827  0.146694  0.630668  1
  Y  Y10  1  0.862554  0.009633  0.874920  1
  Y  Y11  1  0.135457  0.983276  0.372761  1
  Y  Y12  1  0.511819  0.634529  0.623184  1
  Y  Y13  1  0.365081  0.493183  0.876675  1
  Y  Y14  1  0.638563  0.506851  0.374753  1
  Y  Y15  1  0.009303  0.863528  0.124611  1
  Y  Y16  1  0.311894  0.312740  0.500956  1
  Y  Y17  1  0.188567  0.824341  0.749028  1
  Y  Y18  1  0.816770  0.182788  0.250325  1
  Y  Y19  1  0.684320  0.685285  0.000346  1
  Si  Si20  1  0.710384  0.065997  0.061298  1
  Si  Si21  1  0.934864  0.288075  0.438116  1
  Si  Si22  1  0.433079  0.208506  0.310767  1
  Si  Si23  1  0.566344  0.791749  0.810489  1
  Si  Si24  1  0.210856  0.438103  0.690589  1
  Si  Si25  1  0.790198  0.563683  0.187625  1
  Si  Si26  1  0.066375  0.710303  0.938787  1
  Si  Si27  1  0.796661  0.847062  0.689700  1
  Si  Si28  1  0.202741  0.153479  0.189327  1
  Si  Si29  1  0.843339  0.794594  0.306922  1
  Si  Si30  1  0.345878  0.696204  0.436820  1
  Si  Si31  1  0.656532  0.299425  0.940890  1
  Si  Si32  1  0.699869  0.342447  0.557148  1
  Si  Si33  1  0.297885  0.655251  0.059080  1
  Si  Si34  1  0.153786  0.209267  0.813157  1
  Au  Au35  1  0.285009  0.935968  0.562417  1
