# generated using pymatgen
data_Tb4Sm4Sc12Si15Sn
_symmetry_space_group_name_H-M   'P 1'
_cell_length_a   7.17661473
_cell_length_b   7.45826493
_cell_length_c   14.14946114
_cell_angle_alpha   90.00685090
_cell_angle_beta   89.61667545
_cell_angle_gamma   90.10798077
_symmetry_Int_Tables_number   1
_chemical_formula_structural   Tb4Sm4Sc12Si15Sn
_chemical_formula_sum   'Tb4 Sm4 Sc12 Si15 Sn1'
_cell_volume   757.33293855
_cell_formula_units_Z   1
loop_
 _symmetry_equiv_pos_site_id
 _symmetry_equiv_pos_as_xyz
  1  'x, y, z'
loop_
 _atom_site_type_symbol
 _atom_site_label
 _atom_site_symmetry_multiplicity
 _atom_site_fract_x
 _atom_site_fract_y
 _atom_site_fract_z
 _atom_site_occupancy
  Tb  Tb0  1  0.511447  0.324679  0.098012  1
  Tb  Tb1  1  0.006960  0.169441  0.398157  1
  Tb  Tb2  1  0.513027  0.321538  0.399231  1
  Tb  Tb3  1  0.500330  0.683000  0.599967  1
  Sm  Sm4  1  0.011773  0.174634  0.097208  1
  Sm  Sm5  1  0.987783  0.826438  0.903996  1
  Sm  Sm6  1  0.489153  0.674052  0.904549  1
  Sm  Sm7  1  0.988380  0.831316  0.597670  1
  Sc  Sc8  1  0.161914  0.501158  0.754821  1
  Sc  Sc9  1  0.837869  0.498485  0.249365  1
  Sc  Sc10  1  0.338700  0.001595  0.249529  1
  Sc  Sc11  1  0.662829  0.998865  0.751467  1
  Sc  Sc12  1  0.342523  0.163062  0.630455  1
  Sc  Sc13  1  0.664467  0.824900  0.372514  1
  Sc  Sc14  1  0.165363  0.682481  0.369493  1
  Sc  Sc15  1  0.668520  0.823571  0.124888  1
  Sc  Sc16  1  0.821936  0.323852  0.626075  1
  Sc  Sc17  1  0.330521  0.175670  0.875278  1
  Sc  Sc18  1  0.830433  0.324097  0.875637  1
  Sc  Sc19  1  0.169518  0.675653  0.125480  1
  Si  Si20  1  0.034746  0.123037  0.750906  1
  Si  Si21  1  0.963557  0.881714  0.247854  1
  Si  Si22  1  0.465697  0.617435  0.248869  1
  Si  Si23  1  0.533277  0.382057  0.751411  1
  Si  Si24  1  0.287824  0.873482  0.751456  1
  Si  Si25  1  0.711202  0.124425  0.248607  1
  Si  Si26  1  0.213029  0.375494  0.249910  1
  Si  Si27  1  0.789023  0.623664  0.750555  1
  Si  Si28  1  0.831575  0.538120  0.457724  1
  Si  Si29  1  0.341289  0.964351  0.459727  1
  Si  Si30  1  0.843202  0.534995  0.040202  1
  Si  Si31  1  0.657560  0.038137  0.537404  1
  Si  Si32  1  0.154684  0.463731  0.961587  1
  Si  Si33  1  0.653762  0.037886  0.961502  1
  Si  Si34  1  0.345517  0.965647  0.040283  1
  Sn  Sn35  1  0.170613  0.457335  0.538214  1
