# generated using pymatgen
data_Er8Be3Si12Ag
_symmetry_space_group_name_H-M   'P 1'
_cell_length_a   7.93755300
_cell_length_b   7.93755315
_cell_length_c   7.96906100
_cell_angle_alpha   90.00000000
_cell_angle_beta   90.00000000
_cell_angle_gamma   119.99999522
_symmetry_Int_Tables_number   1
_chemical_formula_structural   Er8Be3Si12Ag
_chemical_formula_sum   'Er8 Be3 Si12 Ag1'
_cell_volume   434.82157833
_cell_formula_units_Z   1
loop_
 _symmetry_equiv_pos_site_id
 _symmetry_equiv_pos_as_xyz
  1  'x, y, z'
loop_
 _atom_site_type_symbol
 _atom_site_label
 _atom_site_symmetry_multiplicity
 _atom_site_fract_x
 _atom_site_fract_y
 _atom_site_fract_z
 _atom_site_occupancy
  Er  Er0  1  0.503810  0.007620  0.246882  1
  Er  Er1  1  0.502079  0.004157  0.752934  1
  Er  Er2  1  0.992380  0.496190  0.246882  1
  Er  Er3  1  0.995843  0.497921  0.752934  1
  Er  Er4  1  0.503810  0.496190  0.246882  1
  Er  Er5  1  0.502079  0.497921  0.752934  1
  Er  Er6  1  0.000000  0.000000  0.247963  1
  Er  Er7  1  0.000000  0.000000  0.751804  1
  Be  Be8  1  0.333333  0.666667  0.004125  1
  Be  Be9  1  0.666667  0.333333  0.997115  1
  Be  Be10  1  0.666667  0.333333  0.502740  1
  Si  Si11  1  0.171737  0.343473  0.000566  1
  Si  Si12  1  0.826708  0.653416  0.999283  1
  Si  Si13  1  0.656527  0.828263  0.000566  1
  Si  Si14  1  0.826121  0.652243  0.500690  1
  Si  Si15  1  0.346584  0.173292  0.999283  1
  Si  Si16  1  0.161859  0.323720  0.499713  1
  Si  Si17  1  0.171737  0.828263  0.000566  1
  Si  Si18  1  0.347757  0.173879  0.500690  1
  Si  Si19  1  0.826708  0.173292  0.999283  1
  Si  Si20  1  0.676280  0.838141  0.499713  1
  Si  Si21  1  0.826121  0.173879  0.500690  1
  Si  Si22  1  0.161859  0.838141  0.499713  1
  Ag  Ag23  1  0.333333  0.666667  0.496051  1
