# generated using pymatgen
data_Y6Mn2Al24(NiOs)3
_symmetry_space_group_name_H-M   'P 1'
_cell_length_a   8.82762773
_cell_length_b   8.76150464
_cell_length_c   9.43772807
_cell_angle_alpha   90.03336024
_cell_angle_beta   89.65641112
_cell_angle_gamma   120.49305291
_symmetry_Int_Tables_number   1
_chemical_formula_structural   Y6Mn2Al24(NiOs)3
_chemical_formula_sum   'Y6 Mn2 Al24 Ni3 Os3'
_cell_volume   628.97297786
_cell_formula_units_Z   1
loop_
 _symmetry_equiv_pos_site_id
 _symmetry_equiv_pos_as_xyz
  1  'x, y, z'
loop_
 _atom_site_type_symbol
 _atom_site_label
 _atom_site_symmetry_multiplicity
 _atom_site_fract_x
 _atom_site_fract_y
 _atom_site_fract_z
 _atom_site_occupancy
  Y  Y0  1  0.197064  0.389033  0.250866  1
  Y  Y1  1  0.802936  0.610967  0.749134  1
  Y  Y2  1  0.613619  0.800220  0.250053  1
  Y  Y3  1  0.386381  0.199780  0.749947  1
  Y  Y4  1  0.188175  0.804569  0.250396  1
  Y  Y5  1  0.811825  0.195431  0.749604  1
  Mn  Mn6  1  0.000000  0.000000  0.000000  1
  Mn  Mn7  1  0.000000  0.000000  0.500000  1
  Al  Al8  1  0.332730  0.669353  0.019515  1
  Al  Al9  1  0.667270  0.330647  0.980485  1
  Al  Al10  1  0.665323  0.329533  0.518879  1
  Al  Al11  1  0.334677  0.670467  0.481121  1
  Al  Al12  1  0.160280  0.322328  0.574389  1
  Al  Al13  1  0.839720  0.677672  0.425611  1
  Al  Al14  1  0.679281  0.840382  0.575504  1
  Al  Al15  1  0.838410  0.678011  0.074232  1
  Al  Al16  1  0.320719  0.159618  0.424496  1
  Al  Al17  1  0.161590  0.321989  0.925768  1
  Al  Al18  1  0.159792  0.839714  0.576322  1
  Al  Al19  1  0.321277  0.160103  0.075333  1
  Al  Al20  1  0.840208  0.160286  0.423678  1
  Al  Al21  1  0.678723  0.839897  0.924667  1
  Al  Al22  1  0.838773  0.158514  0.076571  1
  Al  Al23  1  0.161227  0.841486  0.923429  1
  Al  Al24  1  0.559264  0.117241  0.248928  1
  Al  Al25  1  0.440736  0.882759  0.751072  1
  Al  Al26  1  0.876057  0.436358  0.246543  1
  Al  Al27  1  0.123943  0.563642  0.753457  1
  Al  Al28  1  0.563384  0.434065  0.248956  1
  Al  Al29  1  0.436616  0.565935  0.751044  1
  Al  Al30  1  0.999263  0.998014  0.250240  1
  Al  Al31  1  0.000737  0.001986  0.749760  1
  Ni  Ni32  1  0.500000  0.000000  0.000000  1
  Ni  Ni33  1  0.000000  0.500000  0.000000  1
  Ni  Ni34  1  0.500000  0.000000  0.500000  1
  Os  Os35  1  0.500000  0.500000  0.000000  1
  Os  Os36  1  0.000000  0.500000  0.500000  1
  Os  Os37  1  0.500000  0.500000  0.500000  1
