# generated using pymatgen
data_SmY5ZnGa17Pd4
_symmetry_space_group_name_H-M   'P 1'
_cell_length_a   8.18206508
_cell_length_b   8.18208780
_cell_length_c   15.79255925
_cell_angle_alpha   74.45595587
_cell_angle_beta   74.45601636
_cell_angle_gamma   30.60950358
_symmetry_Int_Tables_number   1
_chemical_formula_structural   SmY5ZnGa17Pd4
_chemical_formula_sum   'Sm1 Y5 Zn1 Ga17 Pd4'
_cell_volume   517.14284483
_cell_formula_units_Z   1
loop_
 _symmetry_equiv_pos_site_id
 _symmetry_equiv_pos_as_xyz
  1  'x, y, z'
loop_
 _atom_site_type_symbol
 _atom_site_label
 _atom_site_symmetry_multiplicity
 _atom_site_fract_x
 _atom_site_fract_y
 _atom_site_fract_z
 _atom_site_occupancy
  Sm  Sm0  1  0.749197  0.749198  0.749798  1
  Y  Y1  1  0.250762  0.250754  0.250249  1
  Y  Y2  1  0.598249  0.598252  0.599351  1
  Y  Y3  1  0.100413  0.100416  0.100806  1
  Y  Y4  1  0.899674  0.899675  0.899402  1
  Y  Y5  1  0.401665  0.401665  0.400441  1
  Zn  Zn6  1  0.999968  0.999969  0.499983  1
  Ga  Ga7  1  0.824609  0.824608  0.540041  1
  Ga  Ga8  1  0.321665  0.321665  0.039153  1
  Ga  Ga9  1  0.678245  0.678245  0.961128  1
  Ga  Ga10  1  0.175474  0.175473  0.459677  1
  Ga  Ga11  1  0.539138  0.539136  0.821544  1
  Ga  Ga12  1  0.041034  0.041036  0.324896  1
  Ga  Ga13  1  0.959162  0.959161  0.675168  1
  Ga  Ga14  1  0.460627  0.460623  0.178421  1
  Ga  Ga15  1  0.260641  0.260641  0.894846  1
  Ga  Ga16  1  0.762911  0.762908  0.396037  1
  Ga  Ga17  1  0.237050  0.237053  0.603564  1
  Ga  Ga18  1  0.739433  0.739430  0.105550  1
  Ga  Ga19  1  0.394902  0.394902  0.762020  1
  Ga  Ga20  1  0.895819  0.895818  0.261835  1
  Ga  Ga21  1  0.103761  0.103763  0.738044  1
  Ga  Ga22  1  0.605542  0.605545  0.238065  1
  Ga  Ga23  1  0.500046  0.500048  0.000024  1
  Pd  Pd24  1  0.091569  0.091570  0.907686  1
  Pd  Pd25  1  0.595886  0.595888  0.404600  1
  Pd  Pd26  1  0.404189  0.404191  0.595338  1
  Pd  Pd27  1  0.908369  0.908367  0.092334  1
