# generated using pymatgen
data_Zr6Zn19Pd4Se
_symmetry_space_group_name_H-M   'P 1'
_cell_length_a   8.83111253
_cell_length_b   8.83111125
_cell_length_c   8.83111185
_cell_angle_alpha   59.77356192
_cell_angle_beta   59.77356561
_cell_angle_gamma   59.77356155
_symmetry_Int_Tables_number   1
_chemical_formula_structural   Zr6Zn19Pd4Se
_chemical_formula_sum   'Zr6 Zn19 Pd4 Se1'
_cell_volume   484.49871217
_cell_formula_units_Z   1
loop_
 _symmetry_equiv_pos_site_id
 _symmetry_equiv_pos_as_xyz
  1  'x, y, z'
loop_
 _atom_site_type_symbol
 _atom_site_label
 _atom_site_symmetry_multiplicity
 _atom_site_fract_x
 _atom_site_fract_y
 _atom_site_fract_z
 _atom_site_occupancy
  Zr  Zr0  1  0.711673  0.288326  0.288326  1
  Zr  Zr1  1  0.288327  0.711674  0.711674  1
  Zr  Zr2  1  0.288326  0.711673  0.288326  1
  Zr  Zr3  1  0.711674  0.288327  0.711674  1
  Zr  Zr4  1  0.288326  0.288326  0.711673  1
  Zr  Zr5  1  0.711674  0.711674  0.288327  1
  Zn  Zn6  1  0.121151  0.121151  0.121151  1
  Zn  Zn7  1  0.878849  0.878849  0.878849  1
  Zn  Zn8  1  0.123883  0.123883  0.633138  1
  Zn  Zn9  1  0.123883  0.633138  0.123883  1
  Zn  Zn10  1  0.876117  0.876117  0.366862  1
  Zn  Zn11  1  0.876117  0.366862  0.876117  1
  Zn  Zn12  1  0.633138  0.123883  0.123883  1
  Zn  Zn13  1  0.366862  0.876117  0.876117  1
  Zn  Zn14  1  0.500000  0.000000  0.000000  1
  Zn  Zn15  1  0.000000  0.500000  0.000000  1
  Zn  Zn16  1  0.000000  0.000000  0.500000  1
  Zn  Zn17  1  0.335662  0.335662  0.335662  1
  Zn  Zn18  1  0.664338  0.664338  0.664338  1
  Zn  Zn19  1  0.335075  0.335075  0.994422  1
  Zn  Zn20  1  0.335075  0.994422  0.335075  1
  Zn  Zn21  1  0.664925  0.664925  0.005578  1
  Zn  Zn22  1  0.664925  0.005578  0.664925  1
  Zn  Zn23  1  0.994422  0.335075  0.335075  1
  Zn  Zn24  1  0.005578  0.664925  0.664925  1
  Pd  Pd25  1  0.000000  0.500000  0.500000  1
  Pd  Pd26  1  0.500000  0.000000  0.500000  1
  Pd  Pd27  1  0.500000  0.500000  0.000000  1
  Pd  Pd28  1  0.000000  0.000000  0.000000  1
  Se  Se29  1  0.500000  0.500000  0.500000  1
