# generated using pymatgen
data_Nd3In2Sn3
_symmetry_space_group_name_H-M   'P 1'
_cell_length_a   6.60269486
_cell_length_b   6.60269457
_cell_length_c   10.50330600
_cell_angle_alpha   90.00000000
_cell_angle_beta   90.00000000
_cell_angle_gamma   102.43087466
_symmetry_Int_Tables_number   1
_chemical_formula_structural   Nd3In2Sn3
_chemical_formula_sum   'Nd6 In4 Sn6'
_cell_volume   447.16293128
_cell_formula_units_Z   2
loop_
 _symmetry_equiv_pos_site_id
 _symmetry_equiv_pos_as_xyz
  1  'x, y, z'
loop_
 _atom_site_type_symbol
 _atom_site_label
 _atom_site_symmetry_multiplicity
 _atom_site_fract_x
 _atom_site_fract_y
 _atom_site_fract_z
 _atom_site_occupancy
  Nd  Nd0  1  0.639642  0.639642  0.250000  1
  Nd  Nd1  1  0.360358  0.360358  0.750000  1
  Nd  Nd2  1  0.799096  0.200904  0.000000  1
  Nd  Nd3  1  0.200904  0.799096  0.000000  1
  Nd  Nd4  1  0.200904  0.799096  0.500000  1
  Nd  Nd5  1  0.799096  0.200904  0.500000  1
  In  In6  1  0.313387  0.313387  0.044539  1
  In  In7  1  0.686613  0.686613  0.955461  1
  In  In8  1  0.686613  0.686613  0.544539  1
  In  In9  1  0.313387  0.313387  0.455461  1
  Sn  Sn10  1  0.081585  0.498593  0.250000  1
  Sn  Sn11  1  0.918415  0.501407  0.750000  1
  Sn  Sn12  1  0.498593  0.081585  0.250000  1
  Sn  Sn13  1  0.501407  0.918415  0.750000  1
  Sn  Sn14  1  0.023560  0.023560  0.250000  1
  Sn  Sn15  1  0.976440  0.976440  0.750000  1
