# generated using pymatgen
data_Ho4Re2B16MoW
_symmetry_space_group_name_H-M   'P 1'
_cell_length_a   3.61046800
_cell_length_b   5.99313632
_cell_length_c   11.59361404
_cell_angle_alpha   89.92626351
_cell_angle_beta   90.00000000
_cell_angle_gamma   90.00000000
_symmetry_Int_Tables_number   1
_chemical_formula_structural   Ho4Re2B16MoW
_chemical_formula_sum   'Ho4 Re2 B16 Mo1 W1'
_cell_volume   250.86272497
_cell_formula_units_Z   1
loop_
 _symmetry_equiv_pos_site_id
 _symmetry_equiv_pos_as_xyz
  1  'x, y, z'
loop_
 _atom_site_type_symbol
 _atom_site_label
 _atom_site_symmetry_multiplicity
 _atom_site_fract_x
 _atom_site_fract_y
 _atom_site_fract_z
 _atom_site_occupancy
  Ho  Ho0  1  0.000000  0.627511  0.149186  1
  Ho  Ho1  1  0.000000  0.372503  0.850626  1
  Ho  Ho2  1  0.000000  0.126997  0.349413  1
  Ho  Ho3  1  0.000000  0.873333  0.650713  1
  Re  Re4  1  0.000000  0.134389  0.087099  1
  Re  Re5  1  0.000000  0.865446  0.912970  1
  B  B6  1  0.500000  0.977592  0.191613  1
  B  B7  1  0.500000  0.022569  0.808335  1
  B  B8  1  0.500000  0.475860  0.305534  1
  B  B9  1  0.500000  0.523621  0.694362  1
  B  B10  1  0.500000  0.789916  0.313103  1
  B  B11  1  0.500000  0.210532  0.686545  1
  B  B12  1  0.500000  0.285738  0.184379  1
  B  B13  1  0.500000  0.714203  0.815549  1
  B  B14  1  0.500000  0.867487  0.467881  1
  B  B15  1  0.500000  0.132969  0.532373  1
  B  B16  1  0.500000  0.363448  0.030867  1
  B  B17  1  0.500000  0.636532  0.969088  1
  B  B18  1  0.500000  0.886505  0.047392  1
  B  B19  1  0.500000  0.113521  0.952621  1
  B  B20  1  0.500000  0.384720  0.452461  1
  B  B21  1  0.500000  0.614768  0.547874  1
  Mo  Mo22  1  0.000000  0.369978  0.585161  1
  W  W23  1  0.000000  0.629861  0.414854  1
