# generated using pymatgen
data_CsCr(PO3)4
_symmetry_space_group_name_H-M   'P 1'
_cell_length_a   10.75330324
_cell_length_b   10.75330316
_cell_length_c   5.28267316
_cell_angle_alpha   80.60883750
_cell_angle_beta   80.60883057
_cell_angle_gamma   72.85283562
_symmetry_Int_Tables_number   1
_chemical_formula_structural   CsCr(PO3)4
_chemical_formula_sum   'Cs2 Cr2 P8 O24'
_cell_volume   571.57331370
_cell_formula_units_Z   2
loop_
 _symmetry_equiv_pos_site_id
 _symmetry_equiv_pos_as_xyz
  1  'x, y, z'
loop_
 _atom_site_type_symbol
 _atom_site_label
 _atom_site_symmetry_multiplicity
 _atom_site_fract_x
 _atom_site_fract_y
 _atom_site_fract_z
 _atom_site_occupancy
  Cs  Cs0  1  0.398493  0.398493  0.762987  1
  Cs  Cs1  1  0.601507  0.601507  0.237013  1
  Cr  Cr2  1  0.500000  0.000000  0.000000  1
  Cr  Cr3  1  0.000000  0.500000  0.000000  1
  P  P4  1  0.809011  0.345418  0.839695  1
  P  P5  1  0.070940  0.308541  0.537402  1
  P  P6  1  0.308541  0.070940  0.537402  1
  P  P7  1  0.654582  0.190989  0.160305  1
  P  P8  1  0.345418  0.809011  0.839695  1
  P  P9  1  0.691459  0.929060  0.462598  1
  P  P10  1  0.929060  0.691459  0.462598  1
  P  P11  1  0.190989  0.654582  0.160305  1
  O  O12  1  0.412495  0.860233  0.016196  1
  O  O13  1  0.397190  0.097767  0.704804  1
  O  O14  1  0.421263  0.690616  0.717439  1
  O  O15  1  0.139767  0.587505  0.983804  1
  O  O16  1  0.587505  0.139767  0.983804  1
  O  O17  1  0.910309  0.652197  0.749919  1
  O  O18  1  0.208114  0.791886  0.000000  1
  O  O19  1  0.578737  0.309384  0.282561  1
  O  O20  1  0.602810  0.902233  0.295196  1
  O  O21  1  0.715107  0.070153  0.375288  1
  O  O22  1  0.309384  0.578737  0.282561  1
  O  O23  1  0.902233  0.602810  0.295196  1
  O  O24  1  0.860233  0.412495  0.016196  1
  O  O25  1  0.070153  0.715107  0.375288  1
  O  O26  1  0.161828  0.161828  0.600276  1
  O  O27  1  0.097767  0.397190  0.704804  1
  O  O28  1  0.690616  0.421263  0.717439  1
  O  O29  1  0.284893  0.929847  0.624712  1
  O  O30  1  0.791886  0.208114  0.000000  1
  O  O31  1  0.347803  0.089691  0.250081  1
  O  O32  1  0.652197  0.910309  0.749919  1
  O  O33  1  0.838172  0.838172  0.399724  1
  O  O34  1  0.929847  0.284893  0.624712  1
  O  O35  1  0.089691  0.347803  0.250081  1
