# generated using pymatgen
data_Gd3Mg3Cu2Sn
_symmetry_space_group_name_H-M   'P 1'
_cell_length_a   7.45336100
_cell_length_b   7.45336128
_cell_length_c   4.30552200
_cell_angle_alpha   90.00000000
_cell_angle_beta   90.00000000
_cell_angle_gamma   120.00000321
_symmetry_Int_Tables_number   1
_chemical_formula_structural   Gd3Mg3Cu2Sn
_chemical_formula_sum   'Gd3 Mg3 Cu2 Sn1'
_cell_volume   207.13846788
_cell_formula_units_Z   1
loop_
 _symmetry_equiv_pos_site_id
 _symmetry_equiv_pos_as_xyz
  1  'x, y, z'
loop_
 _atom_site_type_symbol
 _atom_site_label
 _atom_site_symmetry_multiplicity
 _atom_site_fract_x
 _atom_site_fract_y
 _atom_site_fract_z
 _atom_site_occupancy
  Gd  Gd0  1  0.404137  0.983978  0.000000  1
  Gd  Gd1  1  0.016022  0.420159  0.000000  1
  Gd  Gd2  1  0.579841  0.595863  0.000000  1
  Mg  Mg3  1  0.757174  0.990111  0.500000  1
  Mg  Mg4  1  0.232937  0.242826  0.500000  1
  Mg  Mg5  1  0.009889  0.767063  0.500000  1
  Cu  Cu6  1  0.000000  0.000000  0.000000  1
  Cu  Cu7  1  0.333333  0.666667  0.500000  1
  Sn  Sn8  1  0.666666  0.333333  0.500000  1
