# generated using pymatgen
data_La2Pr3Y3(CdIr)2
_symmetry_space_group_name_H-M   'P 1'
_cell_length_a   9.89093915
_cell_length_b   9.89096452
_cell_length_c   9.89095236
_cell_angle_alpha   60.22791603
_cell_angle_beta   60.22790650
_cell_angle_gamma   60.22789595
_symmetry_Int_Tables_number   1
_chemical_formula_structural   La2Pr3Y3(CdIr)2
_chemical_formula_sum   'La4 Pr6 Y6 Cd4 Ir4'
_cell_volume   687.75596526
_cell_formula_units_Z   2
loop_
 _symmetry_equiv_pos_site_id
 _symmetry_equiv_pos_as_xyz
  1  'x, y, z'
loop_
 _atom_site_type_symbol
 _atom_site_label
 _atom_site_symmetry_multiplicity
 _atom_site_fract_x
 _atom_site_fract_y
 _atom_site_fract_z
 _atom_site_occupancy
  La  La0  1  0.349415  0.349414  0.349427  1
  La  La1  1  0.349765  0.349762  0.950116  1
  La  La2  1  0.349772  0.950114  0.349765  1
  La  La3  1  0.950113  0.349762  0.349773  1
  Pr  Pr4  1  0.940326  0.560570  0.560560  1
  Pr  Pr5  1  0.558840  0.939780  0.939786  1
  Pr  Pr6  1  0.560563  0.940325  0.560563  1
  Pr  Pr7  1  0.939780  0.558840  0.939791  1
  Pr  Pr8  1  0.560557  0.560567  0.940325  1
  Pr  Pr9  1  0.939788  0.939790  0.558840  1
  Y  Y10  1  0.813607  0.186256  0.186248  1
  Y  Y11  1  0.185944  0.813935  0.813936  1
  Y  Y12  1  0.186256  0.813607  0.186249  1
  Y  Y13  1  0.813939  0.185942  0.813939  1
  Y  Y14  1  0.186254  0.186255  0.813606  1
  Y  Y15  1  0.813937  0.813936  0.185943  1
  Cd  Cd16  1  0.580172  0.580175  0.580173  1
  Cd  Cd17  1  0.580831  0.580841  0.258201  1
  Cd  Cd18  1  0.580836  0.258211  0.580834  1
  Cd  Cd19  1  0.258212  0.580834  0.580831  1
  Ir  Ir20  1  0.140055  0.140054  0.140058  1
  Ir  Ir21  1  0.140643  0.140638  0.579749  1
  Ir  Ir22  1  0.140642  0.579744  0.140643  1
  Ir  Ir23  1  0.579750  0.140641  0.140640  1
