# generated using pymatgen
data_Th2FeCo2Si5
_symmetry_space_group_name_H-M   'P 1'
_cell_length_a   8.02698182
_cell_length_b   8.02698148
_cell_length_c   8.02698232
_cell_angle_alpha   138.42064447
_cell_angle_beta   105.70378782
_cell_angle_gamma   88.92842457
_symmetry_Int_Tables_number   1
_chemical_formula_structural   Th2FeCo2Si5
_chemical_formula_sum   'Th4 Fe2 Co4 Si10'
_cell_volume   316.46614638
_cell_formula_units_Z   2
loop_
 _symmetry_equiv_pos_site_id
 _symmetry_equiv_pos_as_xyz
  1  'x, y, z'
loop_
 _atom_site_type_symbol
 _atom_site_label
 _atom_site_symmetry_multiplicity
 _atom_site_fract_x
 _atom_site_fract_y
 _atom_site_fract_z
 _atom_site_occupancy
  Th  Th0  1  0.866876  0.630599  0.236277  1
  Th  Th1  1  0.133124  0.369401  0.763723  1
  Th  Th2  1  0.394322  0.130599  0.263723  1
  Th  Th3  1  0.605678  0.869401  0.736277  1
  Fe  Fe4  1  0.000000  0.750000  0.750000  1
  Fe  Fe5  1  0.000000  0.250000  0.250000  1
  Co  Co6  1  0.248729  0.862107  0.386621  1
  Co  Co7  1  0.751271  0.137893  0.613379  1
  Co  Co8  1  0.475487  0.362107  0.113379  1
  Co  Co9  1  0.524513  0.637893  0.886621  1
  Si  Si10  1  0.500000  0.750000  0.250000  1
  Si  Si11  1  0.500000  0.250000  0.750000  1
  Si  Si12  1  0.231719  0.981719  0.750000  1
  Si  Si13  1  0.768281  0.518281  0.750000  1
  Si  Si14  1  0.768281  0.018281  0.250000  1
  Si  Si15  1  0.231719  0.481719  0.250000  1
  Si  Si16  1  0.044952  0.896716  0.148234  1
  Si  Si17  1  0.955048  0.103284  0.851766  1
  Si  Si18  1  0.748482  0.396716  0.351766  1
  Si  Si19  1  0.251518  0.603284  0.648234  1
