# generated using pymatgen
data_Dy10LuIn9Ru4
_symmetry_space_group_name_H-M   'P 1'
_cell_length_a   3.81044000
_cell_length_b   12.85422534
_cell_length_c   12.86072620
_cell_angle_alpha   112.80433388
_cell_angle_beta   90.00000000
_cell_angle_gamma   90.00000000
_symmetry_Int_Tables_number   1
_chemical_formula_structural   Dy10LuIn9Ru4
_chemical_formula_sum   'Dy10 Lu1 In9 Ru4'
_cell_volume   580.68308349
_cell_formula_units_Z   1
loop_
 _symmetry_equiv_pos_site_id
 _symmetry_equiv_pos_as_xyz
  1  'x, y, z'
loop_
 _atom_site_type_symbol
 _atom_site_label
 _atom_site_symmetry_multiplicity
 _atom_site_fract_x
 _atom_site_fract_y
 _atom_site_fract_z
 _atom_site_occupancy
  Dy  Dy0  1  0.000000  0.084897  0.418464  1
  Dy  Dy1  1  0.000000  0.581683  0.914686  1
  Dy  Dy2  1  0.000000  0.418262  0.085358  1
  Dy  Dy3  1  0.000000  0.163073  0.835653  1
  Dy  Dy4  1  0.000000  0.836544  0.164276  1
  Dy  Dy5  1  0.000000  0.369985  0.629700  1
  Dy  Dy6  1  0.000000  0.630593  0.370284  1
  Dy  Dy7  1  0.000000  0.694515  0.693837  1
  Dy  Dy8  1  0.000000  0.306214  0.306433  1
  Dy  Dy9  1  0.000000  0.999868  0.999366  1
  Lu  Lu10  1  0.000000  0.911972  0.581180  1
  In  In11  1  0.500000  0.150583  0.629939  1
  In  In12  1  0.500000  0.848579  0.372238  1
  In  In13  1  0.500000  0.630726  0.153672  1
  In  In14  1  0.500000  0.369401  0.846564  1
  In  In15  1  0.500000  0.929475  0.780034  1
  In  In16  1  0.500000  0.070940  0.217716  1
  In  In17  1  0.500000  0.782322  0.928774  1
  In  In18  1  0.500000  0.217809  0.071003  1
  In  In19  1  0.500000  0.500522  0.500019  1
  Ru  Ru20  1  0.500000  0.743263  0.548047  1
  Ru  Ru21  1  0.500000  0.258353  0.452549  1
  Ru  Ru22  1  0.500000  0.548009  0.742128  1
  Ru  Ru23  1  0.500000  0.452415  0.258079  1
