# generated using pymatgen
data_SrPt9Pb2
_symmetry_space_group_name_H-M   'P 1'
_cell_length_a   9.39848914
_cell_length_b   9.39848871
_cell_length_c   9.39848776
_cell_angle_alpha   34.13636350
_cell_angle_beta   34.13636648
_cell_angle_gamma   34.13636882
_symmetry_Int_Tables_number   1
_chemical_formula_structural   SrPt9Pb2
_chemical_formula_sum   'Sr1 Pt9 Pb2'
_cell_volume   233.08488375
_cell_formula_units_Z   1
loop_
 _symmetry_equiv_pos_site_id
 _symmetry_equiv_pos_as_xyz
  1  'x, y, z'
loop_
 _atom_site_type_symbol
 _atom_site_label
 _atom_site_symmetry_multiplicity
 _atom_site_fract_x
 _atom_site_fract_y
 _atom_site_fract_z
 _atom_site_occupancy
  Sr  Sr0  1  0.000000  0.000000  0.000000  1
  Pt  Pt1  1  0.585036  0.585036  0.080933  1
  Pt  Pt2  1  0.332595  0.332595  0.332595  1
  Pt  Pt3  1  0.919067  0.414965  0.414964  1
  Pt  Pt4  1  0.414965  0.919067  0.414964  1
  Pt  Pt5  1  0.500000  0.500000  0.500000  1
  Pt  Pt6  1  0.585035  0.080933  0.585036  1
  Pt  Pt7  1  0.080933  0.585035  0.585036  1
  Pt  Pt8  1  0.667405  0.667405  0.667405  1
  Pt  Pt9  1  0.414964  0.414964  0.919067  1
  Pb  Pb10  1  0.139358  0.139358  0.139358  1
  Pb  Pb11  1  0.860642  0.860642  0.860642  1
