# generated using pymatgen
data_Tb6CuRh17
_symmetry_space_group_name_H-M   'P 1'
_cell_length_a   5.25292200
_cell_length_b   5.25342848
_cell_length_c   17.42212400
_cell_angle_alpha   90.00000000
_cell_angle_beta   90.00000000
_cell_angle_gamma   119.99121965
_symmetry_Int_Tables_number   1
_chemical_formula_structural   Tb6CuRh17
_chemical_formula_sum   'Tb6 Cu1 Rh17'
_cell_volume   416.40307352
_cell_formula_units_Z   1
loop_
 _symmetry_equiv_pos_site_id
 _symmetry_equiv_pos_as_xyz
  1  'x, y, z'
loop_
 _atom_site_type_symbol
 _atom_site_label
 _atom_site_symmetry_multiplicity
 _atom_site_fract_x
 _atom_site_fract_y
 _atom_site_fract_z
 _atom_site_occupancy
  Tb  Tb0  1  0.333332  0.666681  0.957818  1
  Tb  Tb1  1  0.666662  0.333323  0.041428  1
  Tb  Tb2  1  0.666662  0.333323  0.458572  1
  Tb  Tb3  1  0.333332  0.666681  0.542182  1
  Tb  Tb4  1  0.333338  0.666673  0.750000  1
  Tb  Tb5  1  0.666678  0.333331  0.250000  1
  Cu  Cu6  1  0.333370  0.666694  0.250000  1
  Rh  Rh7  1  0.168750  0.831238  0.373227  1
  Rh  Rh8  1  0.168743  0.337477  0.373214  1
  Rh  Rh9  1  0.662505  0.831239  0.373225  1
  Rh  Rh10  1  0.832703  0.167299  0.624836  1
  Rh  Rh11  1  0.832707  0.665438  0.624841  1
  Rh  Rh12  1  0.334568  0.167295  0.624844  1
  Rh  Rh13  1  0.832703  0.167299  0.875164  1
  Rh  Rh14  1  0.832707  0.665438  0.875159  1
  Rh  Rh15  1  0.334568  0.167295  0.875156  1
  Rh  Rh16  1  0.168750  0.831238  0.126773  1
  Rh  Rh17  1  0.168743  0.337477  0.126786  1
  Rh  Rh18  1  0.662505  0.831239  0.126775  1
  Rh  Rh19  1  0.666685  0.333368  0.750000  1
  Rh  Rh20  1  0.999982  0.999939  0.250000  1
  Rh  Rh21  1  0.999995  0.000005  0.750000  1
  Rh  Rh22  1  0.000004  0.000005  0.497533  1
  Rh  Rh23  1  0.000004  0.000005  0.002467  1
