# generated using pymatgen
data_Er5Mn3Ge2(P5Ir8)2
_symmetry_space_group_name_H-M   'P 1'
_cell_length_a   12.65428773
_cell_length_b   12.66171402
_cell_length_c   3.93891100
_cell_angle_alpha   90.00000000
_cell_angle_beta   90.00000000
_cell_angle_gamma   120.01941506
_symmetry_Int_Tables_number   1
_chemical_formula_structural   Er5Mn3Ge2(P5Ir8)2
_chemical_formula_sum   'Er5 Mn3 Ge2 P10 Ir16'
_cell_volume   546.45198347
_cell_formula_units_Z   1
loop_
 _symmetry_equiv_pos_site_id
 _symmetry_equiv_pos_as_xyz
  1  'x, y, z'
loop_
 _atom_site_type_symbol
 _atom_site_label
 _atom_site_symmetry_multiplicity
 _atom_site_fract_x
 _atom_site_fract_y
 _atom_site_fract_z
 _atom_site_occupancy
  Er  Er0  1  0.666556  0.333087  0.000000  1
  Er  Er1  1  0.333444  0.666532  0.000000  1
  Er  Er2  1  0.821428  0.821426  0.500000  1
  Er  Er3  1  0.178572  0.999998  0.500000  1
  Er  Er4  1  0.000000  0.182087  0.500000  1
  Mn  Mn5  1  0.288837  0.291089  0.500000  1
  Mn  Mn6  1  0.711163  0.002252  0.500000  1
  Mn  Mn7  1  0.000000  0.707210  0.500000  1
  Ge  Ge8  1  0.642007  0.641731  0.000000  1
  Ge  Ge9  1  0.357993  0.999724  0.000000  1
  P  P10  1  0.688148  0.164301  0.500000  1
  P  P11  1  0.833564  0.522045  0.500000  1
  P  P12  1  0.475318  0.311771  0.500000  1
  P  P13  1  0.166436  0.688482  0.500000  1
  P  P14  1  0.524682  0.836453  0.500000  1
  P  P15  1  0.311852  0.476153  0.500000  1
  P  P16  1  0.000000  0.358848  0.000000  1
  P  P17  1  0.181467  0.182468  0.000000  1
  P  P18  1  0.818533  0.001001  0.000000  1
  P  P19  1  0.000000  0.816327  0.000000  1
  Ir  Ir20  1  0.807551  0.180298  0.000000  1
  Ir  Ir21  1  0.827018  0.623368  0.000000  1
  Ir  Ir22  1  0.374554  0.201871  0.000000  1
  Ir  Ir23  1  0.172982  0.796350  0.000000  1
  Ir  Ir24  1  0.625446  0.827317  0.000000  1
  Ir  Ir25  1  0.192449  0.372746  0.000000  1
  Ir  Ir26  1  0.445242  0.449013  0.000000  1
  Ir  Ir27  1  0.554758  0.003771  0.000000  1
  Ir  Ir28  1  0.000000  0.542726  0.000000  1
  Ir  Ir29  1  0.867646  0.360248  0.500000  1
  Ir  Ir30  1  0.638367  0.505124  0.500000  1
  Ir  Ir31  1  0.495172  0.135199  0.500000  1
  Ir  Ir32  1  0.361633  0.866757  0.500000  1
  Ir  Ir33  1  0.504828  0.640025  0.500000  1
  Ir  Ir34  1  0.132354  0.492602  0.500000  1
  Ir  Ir35  1  0.000000  0.999599  0.000000  1
