# generated using pymatgen
data_Ho3Sc3Sn6(RuPt2)2
_symmetry_space_group_name_H-M   'P 1'
_cell_length_a   7.67253400
_cell_length_b   7.67253369
_cell_length_c   7.18883800
_cell_angle_alpha   90.00000000
_cell_angle_beta   90.00000000
_cell_angle_gamma   120.00000133
_symmetry_Int_Tables_number   1
_chemical_formula_structural   Ho3Sc3Sn6(RuPt2)2
_chemical_formula_sum   'Ho3 Sc3 Sn6 Ru2 Pt4'
_cell_volume   366.49406718
_cell_formula_units_Z   1
loop_
 _symmetry_equiv_pos_site_id
 _symmetry_equiv_pos_as_xyz
  1  'x, y, z'
loop_
 _atom_site_type_symbol
 _atom_site_label
 _atom_site_symmetry_multiplicity
 _atom_site_fract_x
 _atom_site_fract_y
 _atom_site_fract_z
 _atom_site_occupancy
  Ho  Ho0  1  0.398046  0.001315  0.250000  1
  Ho  Ho1  1  0.603268  0.601954  0.250000  1
  Ho  Ho2  1  0.998685  0.396732  0.250000  1
  Sc  Sc3  1  0.390164  0.997784  0.750000  1
  Sc  Sc4  1  0.607620  0.609836  0.750000  1
  Sc  Sc5  1  0.002216  0.392380  0.750000  1
  Sn  Sn6  1  0.271028  0.270488  0.991898  1
  Sn  Sn7  1  0.999461  0.728972  0.991898  1
  Sn  Sn8  1  0.999461  0.728972  0.508102  1
  Sn  Sn9  1  0.729512  0.000539  0.508102  1
  Sn  Sn10  1  0.271028  0.270488  0.508102  1
  Sn  Sn11  1  0.729512  0.000539  0.991898  1
  Ru  Ru12  1  0.000000  0.000000  0.750000  1
  Ru  Ru13  1  0.000000  0.000000  0.250000  1
  Pt  Pt14  1  0.666667  0.333333  0.975096  1
  Pt  Pt15  1  0.333333  0.666667  0.519125  1
  Pt  Pt16  1  0.333333  0.666667  0.980875  1
  Pt  Pt17  1  0.666667  0.333333  0.524904  1
