# generated using pymatgen
data_Ca2YUN4
_symmetry_space_group_name_H-M   'P 1'
_cell_length_a   6.92530668
_cell_length_b   9.21594946
_cell_length_c   6.08061222
_cell_angle_alpha   29.10245530
_cell_angle_beta   55.28756690
_cell_angle_gamma   41.28404080
_symmetry_Int_Tables_number   1
_chemical_formula_structural   Ca2YUN4
_chemical_formula_sum   'Ca2 Y1 U1 N4'
_cell_volume   119.86101011
_cell_formula_units_Z   1
loop_
 _symmetry_equiv_pos_site_id
 _symmetry_equiv_pos_as_xyz
  1  'x, y, z'
loop_
 _atom_site_type_symbol
 _atom_site_label
 _atom_site_symmetry_multiplicity
 _atom_site_fract_x
 _atom_site_fract_y
 _atom_site_fract_z
 _atom_site_occupancy
  Ca  Ca0  1  0.750000  0.500000  0.000000  1
  Ca  Ca1  1  0.500000  0.000000  0.000000  1
  Y  Y2  1  0.250000  0.500000  0.000000  1
  U  U3  1  0.000000  0.000000  0.000000  1
  N  N4  1  0.490831  0.500000  0.518338  1
  N  N5  1  0.212278  0.000000  0.575443  1
  N  N6  1  0.009169  0.500000  0.481662  1
  N  N7  1  0.787722  0.000000  0.424557  1
