# generated using pymatgen
data_Nd16Cd3HgIr3Pt
_symmetry_space_group_name_H-M   'P 1'
_cell_length_a   9.97192149
_cell_length_b   9.97192244
_cell_length_c   9.97192201
_cell_angle_alpha   60.11800732
_cell_angle_beta   60.11800257
_cell_angle_gamma   60.11800505
_symmetry_Int_Tables_number   1
_chemical_formula_structural   Nd16Cd3HgIr3Pt
_chemical_formula_sum   'Nd16 Cd3 Hg1 Ir3 Pt1'
_cell_volume   703.04179266
_cell_formula_units_Z   1
loop_
 _symmetry_equiv_pos_site_id
 _symmetry_equiv_pos_as_xyz
  1  'x, y, z'
loop_
 _atom_site_type_symbol
 _atom_site_label
 _atom_site_symmetry_multiplicity
 _atom_site_fract_x
 _atom_site_fract_y
 _atom_site_fract_z
 _atom_site_occupancy
  Nd  Nd0  1  0.347212  0.347212  0.347212  1
  Nd  Nd1  1  0.352747  0.352747  0.948972  1
  Nd  Nd2  1  0.352747  0.948972  0.352747  1
  Nd  Nd3  1  0.948972  0.352747  0.352747  1
  Nd  Nd4  1  0.806141  0.190143  0.190143  1
  Nd  Nd5  1  0.188515  0.808688  0.808688  1
  Nd  Nd6  1  0.190143  0.806141  0.190143  1
  Nd  Nd7  1  0.808688  0.188515  0.808688  1
  Nd  Nd8  1  0.190143  0.190143  0.806141  1
  Nd  Nd9  1  0.808688  0.808688  0.188515  1
  Nd  Nd10  1  0.939769  0.561820  0.561820  1
  Nd  Nd11  1  0.560880  0.938933  0.938933  1
  Nd  Nd12  1  0.561820  0.939769  0.561820  1
  Nd  Nd13  1  0.938933  0.560880  0.938933  1
  Nd  Nd14  1  0.561820  0.561820  0.939769  1
  Nd  Nd15  1  0.938933  0.938933  0.560880  1
  Cd  Cd16  1  0.579848  0.579848  0.258501  1
  Cd  Cd17  1  0.579848  0.258501  0.579848  1
  Cd  Cd18  1  0.258501  0.579848  0.579848  1
  Hg  Hg19  1  0.584687  0.584687  0.584687  1
  Ir  Ir20  1  0.141775  0.141775  0.574257  1
  Ir  Ir21  1  0.141775  0.574257  0.141775  1
  Ir  Ir22  1  0.574257  0.141775  0.141775  1
  Pt  Pt23  1  0.143156  0.143156  0.143156  1
