# generated using pymatgen
data_Nd4H9
_symmetry_space_group_name_H-M   'P 1'
_cell_length_a   6.71565265
_cell_length_b   6.71565240
_cell_length_c   6.71565256
_cell_angle_alpha   132.17302397
_cell_angle_beta   132.17302369
_cell_angle_gamma   69.95589087
_symmetry_Int_Tables_number   1
_chemical_formula_structural   Nd4H9
_chemical_formula_sum   'Nd4 H9'
_cell_volume   163.11019240
_cell_formula_units_Z   1
loop_
 _symmetry_equiv_pos_site_id
 _symmetry_equiv_pos_as_xyz
  1  'x, y, z'
loop_
 _atom_site_type_symbol
 _atom_site_label
 _atom_site_symmetry_multiplicity
 _atom_site_fract_x
 _atom_site_fract_y
 _atom_site_fract_z
 _atom_site_occupancy
  Nd  Nd0  1  0.753459  0.753459  0.000000  1
  Nd  Nd1  1  0.246541  0.246541  0.000000  1
  Nd  Nd2  1  0.500000  0.000000  0.500000  1
  Nd  Nd3  1  0.000000  0.500000  0.500000  1
  H  H4  1  0.131892  0.131892  0.517514  1
  H  H5  1  0.614378  0.614378  0.482486  1
  H  H6  1  0.131892  0.614378  0.000000  1
  H  H7  1  0.614378  0.131892  0.000000  1
  H  H8  1  0.868108  0.868108  0.482486  1
  H  H9  1  0.385622  0.385622  0.517514  1
  H  H10  1  0.868108  0.385622  0.000000  1
  H  H11  1  0.385622  0.868108  0.000000  1
  H  H12  1  0.000000  0.000000  0.000000  1
