# generated using pymatgen
data_CaHo2Co9(SiB2)2
_symmetry_space_group_name_H-M   'P 1'
_cell_length_a   5.09561900
_cell_length_b   5.09370969
_cell_length_c   9.31589300
_cell_angle_alpha   90.00000813
_cell_angle_beta   89.99992514
_cell_angle_gamma   120.01612615
_symmetry_Int_Tables_number   1
_chemical_formula_structural   CaHo2Co9(SiB2)2
_chemical_formula_sum   'Ca1 Ho2 Co9 Si2 B4'
_cell_volume   209.37058499
_cell_formula_units_Z   1
loop_
 _symmetry_equiv_pos_site_id
 _symmetry_equiv_pos_as_xyz
  1  'x, y, z'
loop_
 _atom_site_type_symbol
 _atom_site_label
 _atom_site_symmetry_multiplicity
 _atom_site_fract_x
 _atom_site_fract_y
 _atom_site_fract_z
 _atom_site_occupancy
  Ca  Ca0  1  0.999986  0.999999  0.000020  1
  Ho  Ho1  1  0.999996  0.000001  0.336254  1
  Ho  Ho2  1  0.000001  0.000002  0.663753  1
  Co  Co3  1  0.499998  0.000001  0.499978  1
  Co  Co4  1  0.499997  0.500001  0.499993  1
  Co  Co5  1  0.999997  0.500000  0.499994  1
  Co  Co6  1  0.499993  0.000001  0.197645  1
  Co  Co7  1  0.499992  0.499999  0.197653  1
  Co  Co8  1  0.999990  0.499999  0.197619  1
  Co  Co9  1  0.499996  0.999996  0.802356  1
  Co  Co10  1  0.499998  0.500001  0.802350  1
  Co  Co11  1  0.999994  0.499998  0.802397  1
  Si  Si12  1  0.333396  0.666783  0.000000  1
  Si  Si13  1  0.666584  0.333216  0.000000  1
  B  B14  1  0.333291  0.666574  0.345945  1
  B  B15  1  0.666697  0.333427  0.345944  1
  B  B16  1  0.666668  0.333394  0.654049  1
  B  B17  1  0.333327  0.666607  0.654050  1
