# generated using pymatgen
data_Na11Ga2P5
_symmetry_space_group_name_H-M   'P 1'
_cell_length_a   8.19397363
_cell_length_b   9.88339907
_cell_length_c   10.75619855
_cell_angle_alpha   103.16629218
_cell_angle_beta   97.75956558
_cell_angle_gamma   107.62695663
_symmetry_Int_Tables_number   1
_chemical_formula_structural   Na11Ga2P5
_chemical_formula_sum   'Na22 Ga4 P10'
_cell_volume   788.58938857
_cell_formula_units_Z   2
loop_
 _symmetry_equiv_pos_site_id
 _symmetry_equiv_pos_as_xyz
  1  'x, y, z'
loop_
 _atom_site_type_symbol
 _atom_site_label
 _atom_site_symmetry_multiplicity
 _atom_site_fract_x
 _atom_site_fract_y
 _atom_site_fract_z
 _atom_site_occupancy
  Na  Na0  1  0.848738  0.572218  0.965182  1
  Na  Na1  1  0.151262  0.427782  0.034818  1
  Na  Na2  1  0.315387  0.894898  0.775761  1
  Na  Na3  1  0.684613  0.105102  0.224239  1
  Na  Na4  1  0.633941  0.165084  0.531009  1
  Na  Na5  1  0.366059  0.834916  0.468991  1
  Na  Na6  1  0.624162  0.669602  0.550549  1
  Na  Na7  1  0.375838  0.330398  0.449451  1
  Na  Na8  1  0.193269  0.557740  0.573951  1
  Na  Na9  1  0.806731  0.442260  0.426049  1
  Na  Na10  1  0.054279  0.705516  0.258757  1
  Na  Na11  1  0.945721  0.294484  0.741243  1
  Na  Na12  1  0.193311  0.076195  0.573276  1
  Na  Na13  1  0.806689  0.923805  0.426724  1
  Na  Na14  1  0.872494  0.095045  0.986072  1
  Na  Na15  1  0.127506  0.904955  0.013928  1
  Na  Na16  1  0.582366  0.224448  0.861468  1
  Na  Na17  1  0.417634  0.775552  0.138532  1
  Na  Na18  1  0.392985  0.247664  0.144064  1
  Na  Na19  1  0.607015  0.752336  0.855936  1
  Na  Na20  1  0.344942  0.412303  0.785170  1
  Na  Na21  1  0.655058  0.587697  0.214830  1
  Ga  Ga22  1  0.939041  0.925205  0.742677  1
  Ga  Ga23  1  0.060959  0.074795  0.257323  1
  Ga  Ga24  1  0.938486  0.666275  0.737343  1
  Ga  Ga25  1  0.061514  0.333725  0.262657  1
  P  P26  1  0.002656  0.759228  0.536571  1
  P  P27  1  0.997344  0.240772  0.463429  1
  P  P28  1  0.660872  0.457280  0.691476  1
  P  P29  1  0.339128  0.542720  0.308524  1
  P  P30  1  0.662165  0.971318  0.696635  1
  P  P31  1  0.337835  0.028682  0.303365  1
  P  P32  1  0.195625  0.146107  0.862995  1
  P  P33  1  0.804375  0.853893  0.137005  1
  P  P34  1  0.189537  0.633936  0.867244  1
  P  P35  1  0.810463  0.366064  0.132756  1
