# generated using pymatgen
data_Tm2Re(BRu)4
_symmetry_space_group_name_H-M   'P 1'
_cell_length_a   3.07527000
_cell_length_b   8.71673721
_cell_length_c   10.18401172
_cell_angle_alpha   90.20529851
_cell_angle_beta   90.00000000
_cell_angle_gamma   90.00000000
_symmetry_Int_Tables_number   1
_chemical_formula_structural   Tm2Re(BRu)4
_chemical_formula_sum   'Tm4 Re2 B8 Ru8'
_cell_volume   272.99412900
_cell_formula_units_Z   2
loop_
 _symmetry_equiv_pos_site_id
 _symmetry_equiv_pos_as_xyz
  1  'x, y, z'
loop_
 _atom_site_type_symbol
 _atom_site_label
 _atom_site_symmetry_multiplicity
 _atom_site_fract_x
 _atom_site_fract_y
 _atom_site_fract_z
 _atom_site_occupancy
  Tm  Tm0  1  0.500000  0.841123  0.180350  1
  Tm  Tm1  1  0.500000  0.158877  0.819650  1
  Tm  Tm2  1  0.500000  0.659465  0.683190  1
  Tm  Tm3  1  0.500000  0.340535  0.316810  1
  Re  Re4  1  0.000000  0.659421  0.953717  1
  Re  Re5  1  0.000000  0.340579  0.046283  1
  B  B6  1  0.500000  0.966226  0.589175  1
  B  B7  1  0.500000  0.033774  0.410825  1
  B  B8  1  0.500000  0.847221  0.903212  1
  B  B9  1  0.500000  0.152779  0.096788  1
  B  B10  1  0.500000  0.646693  0.398926  1
  B  B11  1  0.500000  0.353307  0.601074  1
  B  B12  1  0.500000  0.464772  0.913199  1
  B  B13  1  0.500000  0.535228  0.086801  1
  Ru  Ru14  1  0.000000  0.842151  0.454149  1
  Ru  Ru15  1  0.000000  0.157849  0.545851  1
  Ru  Ru16  1  0.000000  0.000000  0.000000  1
  Ru  Ru17  1  0.000000  0.405502  0.759348  1
  Ru  Ru18  1  0.000000  0.594498  0.240652  1
  Ru  Ru19  1  0.000000  0.500000  0.500000  1
  Ru  Ru20  1  0.000000  0.907360  0.738455  1
  Ru  Ru21  1  0.000000  0.092640  0.261545  1
