# generated using pymatgen
data_Y20Hg3Ru2Au3
_symmetry_space_group_name_H-M   'P 1'
_cell_length_a   9.63077400
_cell_length_b   9.63077318
_cell_length_c   9.59966500
_cell_angle_alpha   90.00000000
_cell_angle_beta   90.00000000
_cell_angle_gamma   120.00000280
_symmetry_Int_Tables_number   1
_chemical_formula_structural   Y20Hg3Ru2Au3
_chemical_formula_sum   'Y20 Hg3 Ru2 Au3'
_cell_volume   771.09705351
_cell_formula_units_Z   1
loop_
 _symmetry_equiv_pos_site_id
 _symmetry_equiv_pos_as_xyz
  1  'x, y, z'
loop_
 _atom_site_type_symbol
 _atom_site_label
 _atom_site_symmetry_multiplicity
 _atom_site_fract_x
 _atom_site_fract_y
 _atom_site_fract_z
 _atom_site_occupancy
  Y  Y0  1  0.000000  0.000000  0.469748  1
  Y  Y1  1  0.000000  0.000000  0.030252  1
  Y  Y2  1  0.209169  0.790831  0.440407  1
  Y  Y3  1  0.209169  0.418339  0.440407  1
  Y  Y4  1  0.581661  0.790831  0.440407  1
  Y  Y5  1  0.792301  0.207699  0.559737  1
  Y  Y6  1  0.792301  0.584601  0.559737  1
  Y  Y7  1  0.415399  0.207699  0.559737  1
  Y  Y8  1  0.792301  0.207699  0.940263  1
  Y  Y9  1  0.792301  0.584601  0.940263  1
  Y  Y10  1  0.415399  0.207699  0.940263  1
  Y  Y11  1  0.209169  0.790831  0.059593  1
  Y  Y12  1  0.209169  0.418339  0.059593  1
  Y  Y13  1  0.581661  0.790831  0.059593  1
  Y  Y14  1  0.540526  0.459474  0.250000  1
  Y  Y15  1  0.540526  0.081051  0.250000  1
  Y  Y16  1  0.918949  0.459474  0.250000  1
  Y  Y17  1  0.458867  0.541133  0.750000  1
  Y  Y18  1  0.458867  0.917735  0.750000  1
  Y  Y19  1  0.082265  0.541133  0.750000  1
  Hg  Hg20  1  0.114881  0.885119  0.750000  1
  Hg  Hg21  1  0.114881  0.229760  0.750000  1
  Hg  Hg22  1  0.770240  0.885119  0.750000  1
  Ru  Ru23  1  0.333333  0.666667  0.250000  1
  Ru  Ru24  1  0.666667  0.333333  0.750000  1
  Au  Au25  1  0.870595  0.129405  0.250000  1
  Au  Au26  1  0.870595  0.741190  0.250000  1
  Au  Au27  1  0.258810  0.129405  0.250000  1
