# generated using pymatgen
data_Tm5TlRu2
_symmetry_space_group_name_H-M   'P 1'
_cell_length_a   8.64307559
_cell_length_b   8.64307406
_cell_length_c   8.64307505
_cell_angle_alpha   127.66455316
_cell_angle_beta   127.66454807
_cell_angle_gamma   77.16908098
_symmetry_Int_Tables_number   1
_chemical_formula_structural   Tm5TlRu2
_chemical_formula_sum   'Tm10 Tl2 Ru4'
_cell_volume   392.62374591
_cell_formula_units_Z   2
loop_
 _symmetry_equiv_pos_site_id
 _symmetry_equiv_pos_as_xyz
  1  'x, y, z'
loop_
 _atom_site_type_symbol
 _atom_site_label
 _atom_site_symmetry_multiplicity
 _atom_site_fract_x
 _atom_site_fract_y
 _atom_site_fract_z
 _atom_site_occupancy
  Tm  Tm0  1  0.000000  0.000000  0.000000  1
  Tm  Tm1  1  0.500000  0.500000  0.000000  1
  Tm  Tm2  1  0.791636  0.291636  0.819702  1
  Tm  Tm3  1  0.208364  0.708364  0.180298  1
  Tm  Tm4  1  0.471934  0.971934  0.180298  1
  Tm  Tm5  1  0.291636  0.471934  0.500000  1
  Tm  Tm6  1  0.028066  0.208364  0.500000  1
  Tm  Tm7  1  0.528066  0.028066  0.819702  1
  Tm  Tm8  1  0.708364  0.528066  0.500000  1
  Tm  Tm9  1  0.971934  0.791636  0.500000  1
  Tl  Tl10  1  0.250000  0.250000  0.000000  1
  Tl  Tl11  1  0.750000  0.750000  0.000000  1
  Ru  Ru12  1  0.141520  0.641520  0.783039  1
  Ru  Ru13  1  0.858480  0.358480  0.216961  1
  Ru  Ru14  1  0.641520  0.858480  0.500000  1
  Ru  Ru15  1  0.358480  0.141520  0.500000  1
