# generated using pymatgen
data_Cs14Tl3V2In3As10
_symmetry_space_group_name_H-M   'P 1'
_cell_length_a   8.99130130
_cell_length_b   9.81262227
_cell_length_c   15.00393302
_cell_angle_alpha   85.48006115
_cell_angle_beta   84.66126631
_cell_angle_gamma   85.23363946
_symmetry_Int_Tables_number   1
_chemical_formula_structural   Cs14Tl3V2In3As10
_chemical_formula_sum   'Cs14 Tl3 V2 In3 As10'
_cell_volume   1310.09603745
_cell_formula_units_Z   1
loop_
 _symmetry_equiv_pos_site_id
 _symmetry_equiv_pos_as_xyz
  1  'x, y, z'
loop_
 _atom_site_type_symbol
 _atom_site_label
 _atom_site_symmetry_multiplicity
 _atom_site_fract_x
 _atom_site_fract_y
 _atom_site_fract_z
 _atom_site_occupancy
  Cs  Cs0  1  0.831563  0.368876  0.643448  1
  Cs  Cs1  1  0.813674  0.811818  0.131249  1
  Cs  Cs2  1  0.242358  0.006783  0.468896  1
  Cs  Cs3  1  0.270555  0.257895  0.252424  1
  Cs  Cs4  1  0.739578  0.501402  0.976136  1
  Cs  Cs5  1  0.259885  0.498501  0.024099  1
  Cs  Cs6  1  0.683270  0.083766  0.886646  1
  Cs  Cs7  1  0.756902  0.992813  0.530326  1
  Cs  Cs8  1  0.729751  0.740973  0.747692  1
  Cs  Cs9  1  0.320495  0.342870  0.602005  1
  Cs  Cs10  1  0.168423  0.631283  0.356633  1
  Cs  Cs11  1  0.185031  0.188063  0.869149  1
  Cs  Cs12  1  0.317988  0.915791  0.113934  1
  Cs  Cs13  1  0.678560  0.658150  0.397586  1
  Tl  Tl14  1  0.058448  0.813118  0.871159  1
  Tl  Tl15  1  0.941938  0.187252  0.128418  1
  Tl  Tl16  1  0.367142  0.951174  0.704267  1
  V  V17  1  0.354464  0.605512  0.773559  1
  V  V18  1  0.646350  0.394016  0.226456  1
  In  In19  1  0.101007  0.722594  0.628762  1
  In  In20  1  0.899536  0.278381  0.371828  1
  In  In21  1  0.639626  0.057569  0.293744  1
  As  As22  1  0.903143  0.453657  0.212825  1
  As  As23  1  0.618149  0.211607  0.127096  1
  As  As24  1  0.097398  0.546296  0.787174  1
  As  As25  1  0.584911  0.304246  0.381484  1
  As  As26  1  0.415338  0.691586  0.618049  1
  As  As27  1  0.030369  0.996937  0.699530  1
  As  As28  1  0.505561  0.410044  0.807401  1
  As  As29  1  0.494012  0.588580  0.192375  1
  As  As30  1  0.382068  0.784684  0.874953  1
  As  As31  1  0.962507  0.003762  0.300696  1
