# generated using pymatgen
data_HfU3Bi4Sb
_symmetry_space_group_name_H-M   'P 1'
_cell_length_a   9.43324466
_cell_length_b   9.47998452
_cell_length_c   6.38058000
_cell_angle_alpha   90.00000000
_cell_angle_beta   90.00000000
_cell_angle_gamma   120.16404696
_symmetry_Int_Tables_number   1
_chemical_formula_structural   HfU3Bi4Sb
_chemical_formula_sum   'Hf2 U6 Bi8 Sb2'
_cell_volume   493.33193770
_cell_formula_units_Z   2
loop_
 _symmetry_equiv_pos_site_id
 _symmetry_equiv_pos_as_xyz
  1  'x, y, z'
loop_
 _atom_site_type_symbol
 _atom_site_label
 _atom_site_symmetry_multiplicity
 _atom_site_fract_x
 _atom_site_fract_y
 _atom_site_fract_z
 _atom_site_occupancy
  Hf  Hf0  1  0.008376  0.004188  0.500000  1
  Hf  Hf1  1  0.008376  0.004188  0.000000  1
  U  U2  1  0.382112  0.004167  0.750000  1
  U  U3  1  0.382112  0.377946  0.250000  1
  U  U4  1  0.003857  0.620212  0.250000  1
  U  U5  1  0.003857  0.383645  0.750000  1
  U  U6  1  0.607551  0.608536  0.750000  1
  U  U7  1  0.607551  0.999015  0.250000  1
  Bi  Bi8  1  0.332966  0.666484  0.500000  1
  Bi  Bi9  1  0.667542  0.333771  0.000000  1
  Bi  Bi10  1  0.667542  0.333771  0.500000  1
  Bi  Bi11  1  0.332966  0.666484  0.000000  1
  Bi  Bi12  1  0.730675  0.998864  0.750000  1
  Bi  Bi13  1  0.730675  0.731811  0.250000  1
  Bi  Bi14  1  0.998103  0.270678  0.250000  1
  Bi  Bi15  1  0.998103  0.727425  0.750000  1
  Sb  Sb16  1  0.268818  0.999631  0.250000  1
  Sb  Sb17  1  0.268818  0.269186  0.750000  1
