# generated using pymatgen
data_Lu2Cu2BRh4
_symmetry_space_group_name_H-M   'P 1'
_cell_length_a   5.76301422
_cell_length_b   5.74563933
_cell_length_c   5.76301400
_cell_angle_alpha   60.09970108
_cell_angle_beta   58.25473039
_cell_angle_gamma   60.09968796
_symmetry_Int_Tables_number   1
_chemical_formula_structural   Lu2Cu2BRh4
_chemical_formula_sum   'Lu2 Cu2 B1 Rh4'
_cell_volume   133.26046541
_cell_formula_units_Z   1
loop_
 _symmetry_equiv_pos_site_id
 _symmetry_equiv_pos_as_xyz
  1  'x, y, z'
loop_
 _atom_site_type_symbol
 _atom_site_label
 _atom_site_symmetry_multiplicity
 _atom_site_fract_x
 _atom_site_fract_y
 _atom_site_fract_z
 _atom_site_occupancy
  Lu  Lu0  1  0.751944  0.748708  0.750641  1
  Lu  Lu1  1  0.249359  0.251292  0.248056  1
  Cu  Cu2  1  0.759894  0.763337  0.240106  1
  Cu  Cu3  1  0.759894  0.236663  0.240106  1
  B  B4  1  0.493673  0.500000  0.506327  1
  Rh  Rh5  1  0.248151  0.752981  0.245886  1
  Rh  Rh6  1  0.241485  0.241019  0.758515  1
  Rh  Rh7  1  0.754114  0.247019  0.751849  1
  Rh  Rh8  1  0.241485  0.758981  0.758515  1
