# generated using pymatgen
data_LiHo4Tc3B16
_symmetry_space_group_name_H-M   'P 1'
_cell_length_a   3.58345200
_cell_length_b   5.94001543
_cell_length_c   11.49557133
_cell_angle_alpha   90.02425011
_cell_angle_beta   90.00000000
_cell_angle_gamma   90.00000000
_symmetry_Int_Tables_number   1
_chemical_formula_structural   LiHo4Tc3B16
_chemical_formula_sum   'Li1 Ho4 Tc3 B16'
_cell_volume   244.69195232
_cell_formula_units_Z   1
loop_
 _symmetry_equiv_pos_site_id
 _symmetry_equiv_pos_as_xyz
  1  'x, y, z'
loop_
 _atom_site_type_symbol
 _atom_site_label
 _atom_site_symmetry_multiplicity
 _atom_site_fract_x
 _atom_site_fract_y
 _atom_site_fract_z
 _atom_site_occupancy
  Li  Li0  1  0.500000  0.865670  0.911747  1
  Ho  Ho1  1  0.500000  0.626141  0.147959  1
  Ho  Ho2  1  0.500000  0.369985  0.853840  1
  Ho  Ho3  1  0.500000  0.128897  0.345856  1
  Ho  Ho4  1  0.500000  0.872379  0.652315  1
  Tc  Tc5  1  0.500000  0.632591  0.414441  1
  Tc  Tc6  1  0.500000  0.366538  0.585992  1
  Tc  Tc7  1  0.500000  0.127433  0.084622  1
  B  B8  1  0.000000  0.977085  0.191790  1
  B  B9  1  0.000000  0.021000  0.807137  1
  B  B10  1  0.000000  0.477193  0.306936  1
  B  B11  1  0.000000  0.525575  0.694880  1
  B  B12  1  0.000000  0.786456  0.313741  1
  B  B13  1  0.000000  0.211675  0.687384  1
  B  B14  1  0.000000  0.287087  0.184176  1
  B  B15  1  0.000000  0.717042  0.817732  1
  B  B16  1  0.000000  0.865557  0.469028  1
  B  B17  1  0.000000  0.135033  0.531968  1
  B  B18  1  0.000000  0.366961  0.030292  1
  B  B19  1  0.000000  0.636159  0.966332  1
  B  B20  1  0.000000  0.887677  0.047026  1
  B  B21  1  0.000000  0.114960  0.953300  1
  B  B22  1  0.000000  0.386864  0.452945  1
  B  B23  1  0.000000  0.614041  0.548564  1
