# generated using pymatgen
data_La4Y12Cd4Ni3Os
_symmetry_space_group_name_H-M   'P 1'
_cell_length_a   9.79164050
_cell_length_b   9.79164079
_cell_length_c   9.79164018
_cell_angle_alpha   59.38755705
_cell_angle_beta   59.38754888
_cell_angle_gamma   59.38755832
_symmetry_Int_Tables_number   1
_chemical_formula_structural   La4Y12Cd4Ni3Os
_chemical_formula_sum   'La4 Y12 Cd4 Ni3 Os1'
_cell_volume   654.56918074
_cell_formula_units_Z   1
loop_
 _symmetry_equiv_pos_site_id
 _symmetry_equiv_pos_as_xyz
  1  'x, y, z'
loop_
 _atom_site_type_symbol
 _atom_site_label
 _atom_site_symmetry_multiplicity
 _atom_site_fract_x
 _atom_site_fract_y
 _atom_site_fract_z
 _atom_site_occupancy
  La  La0  1  0.599587  0.599587  0.599587  1
  La  La1  1  0.600303  0.600303  0.201520  1
  La  La2  1  0.600303  0.201520  0.600303  1
  La  La3  1  0.201520  0.600303  0.600303  1
  Y  Y4  1  0.063449  0.436064  0.436064  1
  Y  Y5  1  0.434742  0.063148  0.063148  1
  Y  Y6  1  0.436064  0.063449  0.436064  1
  Y  Y7  1  0.063148  0.434742  0.063148  1
  Y  Y8  1  0.436064  0.436064  0.063449  1
  Y  Y9  1  0.063148  0.063148  0.434742  1
  Y  Y10  1  0.184652  0.816940  0.816940  1
  Y  Y11  1  0.810061  0.185939  0.185939  1
  Y  Y12  1  0.816940  0.184652  0.816940  1
  Y  Y13  1  0.185939  0.810061  0.185939  1
  Y  Y14  1  0.816940  0.816940  0.184652  1
  Y  Y15  1  0.185939  0.185939  0.810061  1
  Cd  Cd16  1  0.831549  0.831549  0.831549  1
  Cd  Cd17  1  0.830952  0.830952  0.502742  1
  Cd  Cd18  1  0.830952  0.502742  0.830952  1
  Cd  Cd19  1  0.502742  0.830952  0.830952  1
  Ni  Ni20  1  0.391520  0.391520  0.829431  1
  Ni  Ni21  1  0.391520  0.829431  0.391520  1
  Ni  Ni22  1  0.829431  0.391520  0.391520  1
  Os  Os23  1  0.392534  0.392534  0.392534  1
