# generated using pymatgen
data_Lu3TlIn3NiRh
_symmetry_space_group_name_H-M   'P 1'
_cell_length_a   7.88645500
_cell_length_b   7.88645492
_cell_length_c   3.60988100
_cell_angle_alpha   90.00000000
_cell_angle_beta   90.00000000
_cell_angle_gamma   119.99998998
_symmetry_Int_Tables_number   1
_chemical_formula_structural   Lu3TlIn3NiRh
_chemical_formula_sum   'Lu3 Tl1 In3 Ni1 Rh1'
_cell_volume   194.44071802
_cell_formula_units_Z   1
loop_
 _symmetry_equiv_pos_site_id
 _symmetry_equiv_pos_as_xyz
  1  'x, y, z'
loop_
 _atom_site_type_symbol
 _atom_site_label
 _atom_site_symmetry_multiplicity
 _atom_site_fract_x
 _atom_site_fract_y
 _atom_site_fract_z
 _atom_site_occupancy
  Lu  Lu0  1  0.617152  0.036215  0.000000  1
  Lu  Lu1  1  0.963785  0.580937  0.000000  1
  Lu  Lu2  1  0.419063  0.382848  0.000000  1
  Tl  Tl3  1  0.333333  0.666667  0.500000  1
  In  In4  1  0.250382  0.002457  0.500000  1
  In  In5  1  0.997543  0.247925  0.500000  1
  In  In6  1  0.752075  0.749618  0.500000  1
  Ni  Ni7  1  0.000000  0.000000  0.000000  1
  Rh  Rh8  1  0.666667  0.333333  0.500000  1
