# generated using pymatgen
data_Ta6MnCdS12
_symmetry_space_group_name_H-M   'P 1'
_cell_length_a   5.81550000
_cell_length_b   5.81550209
_cell_length_c   13.08446400
_cell_angle_alpha   90.00000000
_cell_angle_beta   90.00000000
_cell_angle_gamma   120.00001084
_symmetry_Int_Tables_number   1
_chemical_formula_structural   Ta6MnCdS12
_chemical_formula_sum   'Ta6 Mn1 Cd1 S12'
_cell_volume   383.23114566
_cell_formula_units_Z   1
loop_
 _symmetry_equiv_pos_site_id
 _symmetry_equiv_pos_as_xyz
  1  'x, y, z'
loop_
 _atom_site_type_symbol
 _atom_site_label
 _atom_site_symmetry_multiplicity
 _atom_site_fract_x
 _atom_site_fract_y
 _atom_site_fract_z
 _atom_site_occupancy
  Ta  Ta0  1  0.000000  0.000000  0.512821  1
  Ta  Ta1  1  0.000000  0.000000  0.987179  1
  Ta  Ta2  1  0.333333  0.666667  0.986152  1
  Ta  Ta3  1  0.666667  0.333333  0.987047  1
  Ta  Ta4  1  0.666667  0.333333  0.512953  1
  Ta  Ta5  1  0.333333  0.666667  0.513848  1
  Mn  Mn6  1  0.666667  0.333333  0.750000  1
  Cd  Cd7  1  0.333333  0.666667  0.250000  1
  S  S8  1  0.332995  0.328479  0.393358  1
  S  S9  1  0.671521  0.004517  0.393358  1
  S  S10  1  0.995483  0.667005  0.393358  1
  S  S11  1  0.329319  0.333302  0.632010  1
  S  S12  1  0.003983  0.670681  0.632010  1
  S  S13  1  0.666698  0.996017  0.632010  1
  S  S14  1  0.666698  0.670681  0.867990  1
  S  S15  1  0.329319  0.996017  0.867990  1
  S  S16  1  0.003983  0.333302  0.867990  1
  S  S17  1  0.671521  0.667005  0.106642  1
  S  S18  1  0.995483  0.328479  0.106642  1
  S  S19  1  0.332995  0.004517  0.106642  1
