# generated using pymatgen
data_Tb5Nd6In9Rh4
_symmetry_space_group_name_H-M   'P 1'
_cell_length_a   13.30461348
_cell_length_b   13.30487741
_cell_length_c   3.79661000
_cell_angle_alpha   90.00000000
_cell_angle_beta   90.00000000
_cell_angle_gamma   112.29824846
_symmetry_Int_Tables_number   1
_chemical_formula_structural   Tb5Nd6In9Rh4
_chemical_formula_sum   'Tb5 Nd6 In9 Rh4'
_cell_volume   621.80578388
_cell_formula_units_Z   1
loop_
 _symmetry_equiv_pos_site_id
 _symmetry_equiv_pos_as_xyz
  1  'x, y, z'
loop_
 _atom_site_type_symbol
 _atom_site_label
 _atom_site_symmetry_multiplicity
 _atom_site_fract_x
 _atom_site_fract_y
 _atom_site_fract_z
 _atom_site_occupancy
  Tb  Tb0  1  0.079323  0.419877  0.000000  1
  Tb  Tb1  1  0.919286  0.579114  0.000000  1
  Tb  Tb2  1  0.420886  0.080716  0.000000  1
  Tb  Tb3  1  0.580122  0.920674  0.000000  1
  Tb  Tb4  1  0.627165  0.372836  0.000000  1
  Nd  Nd5  1  0.372447  0.627550  0.000000  1
  Nd  Nd6  1  0.840585  0.159415  0.000000  1
  Nd  Nd7  1  0.159356  0.840646  0.000000  1
  Nd  Nd8  1  0.000020  0.999976  0.000000  1
  Nd  Nd9  1  0.312619  0.311557  0.000000  1
  Nd  Nd10  1  0.688445  0.687380  0.000000  1
  In  In11  1  0.839692  0.368117  0.500000  1
  In  In12  1  0.157546  0.631731  0.500000  1
  In  In13  1  0.368267  0.842445  0.500000  1
  In  In14  1  0.631884  0.160310  0.500000  1
  In  In15  1  0.077913  0.222793  0.500000  1
  In  In16  1  0.922099  0.776933  0.500000  1
  In  In17  1  0.223065  0.077923  0.500000  1
  In  In18  1  0.777205  0.922085  0.500000  1
  In  In19  1  0.501643  0.498357  0.500000  1
  Rh  Rh20  1  0.244539  0.454399  0.500000  1
  Rh  Rh21  1  0.753632  0.543339  0.500000  1
  Rh  Rh22  1  0.456658  0.246367  0.500000  1
  Rh  Rh23  1  0.545603  0.755461  0.500000  1
