# generated using pymatgen
data_Zr6Zn18SiIr5
_symmetry_space_group_name_H-M   'P 1'
_cell_length_a   8.77825579
_cell_length_b   8.77825529
_cell_length_c   8.77825567
_cell_angle_alpha   59.83486360
_cell_angle_beta   59.83486251
_cell_angle_gamma   59.83486440
_symmetry_Int_Tables_number   1
_chemical_formula_structural   Zr6Zn18SiIr5
_chemical_formula_sum   'Zr6 Zn18 Si1 Ir5'
_cell_volume   476.51755414
_cell_formula_units_Z   1
loop_
 _symmetry_equiv_pos_site_id
 _symmetry_equiv_pos_as_xyz
  1  'x, y, z'
loop_
 _atom_site_type_symbol
 _atom_site_label
 _atom_site_symmetry_multiplicity
 _atom_site_fract_x
 _atom_site_fract_y
 _atom_site_fract_z
 _atom_site_occupancy
  Zr  Zr0  1  0.711505  0.283216  0.283216  1
  Zr  Zr1  1  0.288495  0.716784  0.716784  1
  Zr  Zr2  1  0.283216  0.711505  0.283216  1
  Zr  Zr3  1  0.716784  0.288495  0.716784  1
  Zr  Zr4  1  0.283216  0.283216  0.711505  1
  Zr  Zr5  1  0.716784  0.716784  0.288495  1
  Zn  Zn6  1  0.122035  0.122035  0.630412  1
  Zn  Zn7  1  0.122035  0.630412  0.122035  1
  Zn  Zn8  1  0.877965  0.877965  0.369588  1
  Zn  Zn9  1  0.877965  0.369588  0.877965  1
  Zn  Zn10  1  0.630412  0.122035  0.122035  1
  Zn  Zn11  1  0.369588  0.877965  0.877965  1
  Zn  Zn12  1  0.500000  0.000000  0.000000  1
  Zn  Zn13  1  0.000000  0.500000  0.000000  1
  Zn  Zn14  1  0.000000  0.000000  0.500000  1
  Zn  Zn15  1  0.337863  0.337863  0.337863  1
  Zn  Zn16  1  0.662137  0.662137  0.662137  1
  Zn  Zn17  1  0.333350  0.333350  0.990560  1
  Zn  Zn18  1  0.333350  0.990560  0.333350  1
  Zn  Zn19  1  0.666650  0.666650  0.009440  1
  Zn  Zn20  1  0.666650  0.009440  0.666650  1
  Zn  Zn21  1  0.990560  0.333350  0.333350  1
  Zn  Zn22  1  0.009440  0.666650  0.666650  1
  Zn  Zn23  1  0.000000  0.000000  0.000000  1
  Si  Si24  1  0.500000  0.500000  0.500000  1
  Ir  Ir25  1  0.119225  0.119225  0.119225  1
  Ir  Ir26  1  0.880775  0.880775  0.880775  1
  Ir  Ir27  1  0.000000  0.500000  0.500000  1
  Ir  Ir28  1  0.500000  0.000000  0.500000  1
  Ir  Ir29  1  0.500000  0.500000  0.000000  1
