# generated using pymatgen
data_Nd4Al4Ir2PdRh
_symmetry_space_group_name_H-M   'P 1'
_cell_length_a   4.35603200
_cell_length_b   7.09334819
_cell_length_c   8.08216600
_cell_angle_alpha   89.98743299
_cell_angle_beta   90.00000000
_cell_angle_gamma   90.00000000
_symmetry_Int_Tables_number   1
_chemical_formula_structural   Nd4Al4Ir2PdRh
_chemical_formula_sum   'Nd4 Al4 Ir2 Pd1 Rh1'
_cell_volume   249.72964280
_cell_formula_units_Z   1
loop_
 _symmetry_equiv_pos_site_id
 _symmetry_equiv_pos_as_xyz
  1  'x, y, z'
loop_
 _atom_site_type_symbol
 _atom_site_label
 _atom_site_symmetry_multiplicity
 _atom_site_fract_x
 _atom_site_fract_y
 _atom_site_fract_z
 _atom_site_occupancy
  Nd  Nd0  1  0.250000  0.531394  0.183942  1
  Nd  Nd1  1  0.750000  0.457940  0.818280  1
  Nd  Nd2  1  0.750000  0.968414  0.676959  1
  Nd  Nd3  1  0.250000  0.036921  0.318599  1
  Al  Al4  1  0.250000  0.632200  0.559141  1
  Al  Al5  1  0.750000  0.363447  0.437219  1
  Al  Al6  1  0.750000  0.866987  0.064455  1
  Al  Al7  1  0.250000  0.141529  0.937602  1
  Ir  Ir8  1  0.750000  0.227034  0.117708  1
  Ir  Ir9  1  0.250000  0.271305  0.619018  1
  Pd  Pd10  1  0.250000  0.774649  0.882744  1
  Rh  Rh11  1  0.750000  0.728180  0.384331  1
