# generated using pymatgen
data_DyY2RuI3
_symmetry_space_group_name_H-M   'P 1'
_cell_length_a   4.23960300
_cell_length_b   8.91598451
_cell_length_c   12.33204316
_cell_angle_alpha   86.21002467
_cell_angle_beta   90.00000000
_cell_angle_gamma   90.00000000
_symmetry_Int_Tables_number   1
_chemical_formula_structural   DyY2RuI3
_chemical_formula_sum   'Dy2 Y4 Ru2 I6'
_cell_volume   465.13466886
_cell_formula_units_Z   2
loop_
 _symmetry_equiv_pos_site_id
 _symmetry_equiv_pos_as_xyz
  1  'x, y, z'
loop_
 _atom_site_type_symbol
 _atom_site_label
 _atom_site_symmetry_multiplicity
 _atom_site_fract_x
 _atom_site_fract_y
 _atom_site_fract_z
 _atom_site_occupancy
  Dy  Dy0  1  0.750000  0.130409  0.124774  1
  Dy  Dy1  1  0.250000  0.869591  0.875226  1
  Y  Y2  1  0.750000  0.098534  0.684253  1
  Y  Y3  1  0.250000  0.901466  0.315747  1
  Y  Y4  1  0.250000  0.262746  0.897228  1
  Y  Y5  1  0.750000  0.737254  0.102772  1
  Ru  Ru6  1  0.750000  0.052897  0.907592  1
  Ru  Ru7  1  0.250000  0.947103  0.092408  1
  I  I8  1  0.250000  0.352234  0.636962  1
  I  I9  1  0.750000  0.647766  0.363038  1
  I  I10  1  0.750000  0.141694  0.392799  1
  I  I11  1  0.250000  0.858306  0.607201  1
  I  I12  1  0.250000  0.427309  0.132797  1
  I  I13  1  0.750000  0.572691  0.867203  1
