# generated using pymatgen
data_SbRh(OF8)2
_symmetry_space_group_name_H-M   'P 1'
_cell_length_a   5.47718273
_cell_length_b   5.79614495
_cell_length_c   10.20070400
_cell_angle_alpha   89.76812333
_cell_angle_beta   93.41600358
_cell_angle_gamma   90.16952718
_symmetry_Int_Tables_number   1
_chemical_formula_structural   SbRh(OF8)2
_chemical_formula_sum   'Sb1 Rh1 O2 F16'
_cell_volume   323.25787712
_cell_formula_units_Z   1
loop_
 _symmetry_equiv_pos_site_id
 _symmetry_equiv_pos_as_xyz
  1  'x, y, z'
loop_
 _atom_site_type_symbol
 _atom_site_label
 _atom_site_symmetry_multiplicity
 _atom_site_fract_x
 _atom_site_fract_y
 _atom_site_fract_z
 _atom_site_occupancy
  Sb  Sb0  1  0.000000  0.000000  0.000000  1
  Rh  Rh1  1  0.000000  0.000000  0.500000  1
  O  O2  1  0.544040  0.546161  0.764258  1
  O  O3  1  0.455960  0.453839  0.235742  1
  F  F4  1  0.731417  0.057484  0.107543  1
  F  F5  1  0.268583  0.942516  0.892457  1
  F  F6  1  0.699225  0.963585  0.404684  1
  F  F7  1  0.300775  0.036415  0.595316  1
  F  F8  1  0.385525  0.458887  0.853163  1
  F  F9  1  0.614475  0.541113  0.146837  1
  F  F10  1  0.413406  0.536136  0.640715  1
  F  F11  1  0.586594  0.463864  0.359285  1
  F  F12  1  0.845430  0.718815  0.937424  1
  F  F13  1  0.154570  0.281185  0.062576  1
  F  F14  1  0.885775  0.817332  0.635577  1
  F  F15  1  0.114225  0.182668  0.364423  1
  F  F16  1  0.839704  0.168912  0.857228  1
  F  F17  1  0.160296  0.831088  0.142772  1
  F  F18  1  0.881495  0.266079  0.578530  1
  F  F19  1  0.118505  0.733921  0.421470  1
