# generated using pymatgen
data_Tb8Lu11Si16Hg
_symmetry_space_group_name_H-M   'P 1'
_cell_length_a   7.24199515
_cell_length_b   7.60501452
_cell_length_c   14.39168100
_cell_angle_alpha   90.00000000
_cell_angle_beta   90.00000000
_cell_angle_gamma   89.97510563
_symmetry_Int_Tables_number   1
_chemical_formula_structural   Tb8Lu11Si16Hg
_chemical_formula_sum   'Tb8 Lu11 Si16 Hg1'
_cell_volume   792.62863946
_cell_formula_units_Z   1
loop_
 _symmetry_equiv_pos_site_id
 _symmetry_equiv_pos_as_xyz
  1  'x, y, z'
loop_
 _atom_site_type_symbol
 _atom_site_label
 _atom_site_symmetry_multiplicity
 _atom_site_fract_x
 _atom_site_fract_y
 _atom_site_fract_z
 _atom_site_occupancy
  Tb  Tb0  1  0.014735  0.178082  0.096478  1
  Tb  Tb1  1  0.985343  0.811456  0.900842  1
  Tb  Tb2  1  0.478845  0.673654  0.900829  1
  Tb  Tb3  1  0.985343  0.811456  0.599158  1
  Tb  Tb4  1  0.515178  0.323585  0.096565  1
  Tb  Tb5  1  0.014735  0.178082  0.403522  1
  Tb  Tb6  1  0.515178  0.323585  0.403435  1
  Tb  Tb7  1  0.478845  0.673654  0.599171  1
  Lu  Lu8  1  0.839430  0.492033  0.250000  1
  Lu  Lu9  1  0.343508  0.011349  0.250000  1
  Lu  Lu10  1  0.652358  0.991674  0.750000  1
  Lu  Lu11  1  0.319767  0.185150  0.626348  1
  Lu  Lu12  1  0.675771  0.823841  0.376840  1
  Lu  Lu13  1  0.172655  0.683508  0.374814  1
  Lu  Lu14  1  0.675771  0.823841  0.123160  1
  Lu  Lu15  1  0.839922  0.324521  0.626436  1
  Lu  Lu16  1  0.319767  0.185150  0.873652  1
  Lu  Lu17  1  0.839922  0.324521  0.873564  1
  Lu  Lu18  1  0.172655  0.683508  0.125186  1
  Si  Si19  1  0.022923  0.080783  0.750000  1
  Si  Si20  1  0.971288  0.895611  0.250000  1
  Si  Si21  1  0.468833  0.614611  0.250000  1
  Si  Si22  1  0.540795  0.386420  0.750000  1
  Si  Si23  1  0.281571  0.878993  0.750000  1
  Si  Si24  1  0.720347  0.130660  0.250000  1
  Si  Si25  1  0.218992  0.373603  0.250000  1
  Si  Si26  1  0.763100  0.629747  0.750000  1
  Si  Si27  1  0.161619  0.461879  0.528507  1
  Si  Si28  1  0.844960  0.532344  0.461602  1
  Si  Si29  1  0.347388  0.970418  0.463353  1
  Si  Si30  1  0.844960  0.532344  0.038398  1
  Si  Si31  1  0.654202  0.030559  0.541350  1
  Si  Si32  1  0.161619  0.461879  0.971493  1
  Si  Si33  1  0.654202  0.030559  0.958650  1
  Si  Si34  1  0.347388  0.970418  0.036647  1
  Hg  Hg35  1  0.156084  0.516523  0.750000  1
