# generated using pymatgen
data_TbYEr4(B7W)2
_symmetry_space_group_name_H-M   'P 1'
_cell_length_a   8.11678830
_cell_length_b   8.11678889
_cell_length_c   9.48678100
_cell_angle_alpha   90.00000000
_cell_angle_beta   90.00000000
_cell_angle_gamma   155.49056298
_symmetry_Int_Tables_number   1
_chemical_formula_structural   TbYEr4(B7W)2
_chemical_formula_sum   'Tb1 Y1 Er4 B14 W2'
_cell_volume   259.28132061
_cell_formula_units_Z   1
loop_
 _symmetry_equiv_pos_site_id
 _symmetry_equiv_pos_as_xyz
  1  'x, y, z'
loop_
 _atom_site_type_symbol
 _atom_site_label
 _atom_site_symmetry_multiplicity
 _atom_site_fract_x
 _atom_site_fract_y
 _atom_site_fract_z
 _atom_site_occupancy
  Tb  Tb0  1  0.753480  0.246520  0.750000  1
  Y  Y1  1  0.246135  0.753865  0.250000  1
  Er  Er2  1  0.893060  0.106940  0.440636  1
  Er  Er3  1  0.106962  0.893038  0.558753  1
  Er  Er4  1  0.893060  0.106940  0.059364  1
  Er  Er5  1  0.106962  0.893038  0.941247  1
  B  B6  1  0.727690  0.272310  0.466555  1
  B  B7  1  0.272644  0.727356  0.531422  1
  B  B8  1  0.727690  0.272310  0.033445  1
  B  B9  1  0.272644  0.727356  0.968578  1
  B  B10  1  0.634911  0.365089  0.147115  1
  B  B11  1  0.364852  0.635148  0.853494  1
  B  B12  1  0.634911  0.365089  0.352885  1
  B  B13  1  0.364852  0.635148  0.646506  1
  B  B14  1  0.519258  0.480742  0.091473  1
  B  B15  1  0.480771  0.519229  0.908427  1
  B  B16  1  0.519258  0.480742  0.408527  1
  B  B17  1  0.480771  0.519229  0.591573  1
  B  B18  1  0.453770  0.546230  0.250000  1
  B  B19  1  0.546263  0.453737  0.750000  1
  W  W20  1  0.052776  0.947224  0.250000  1
  W  W21  1  0.947275  0.052725  0.750000  1
