# generated using pymatgen
data_Tb8Tm2Ir5Au
_symmetry_space_group_name_H-M   'P 1'
_cell_length_a   11.07989199
_cell_length_b   11.01070300
_cell_length_c   6.34069800
_cell_angle_alpha   90.00000000
_cell_angle_beta   89.87589748
_cell_angle_gamma   90.00000000
_symmetry_Int_Tables_number   1
_chemical_formula_structural   Tb8Tm2Ir5Au
_chemical_formula_sum   'Tb16 Tm4 Ir10 Au2'
_cell_volume   773.54685551
_cell_formula_units_Z   2
loop_
 _symmetry_equiv_pos_site_id
 _symmetry_equiv_pos_as_xyz
  1  'x, y, z'
loop_
 _atom_site_type_symbol
 _atom_site_label
 _atom_site_symmetry_multiplicity
 _atom_site_fract_x
 _atom_site_fract_y
 _atom_site_fract_z
 _atom_site_occupancy
  Tb  Tb0  1  0.291107  0.088319  0.372206  1
  Tb  Tb1  1  0.291107  0.911681  0.872206  1
  Tb  Tb2  1  0.698559  0.092102  0.865473  1
  Tb  Tb3  1  0.698559  0.907898  0.365473  1
  Tb  Tb4  1  0.577867  0.788440  0.877390  1
  Tb  Tb5  1  0.577867  0.211560  0.377390  1
  Tb  Tb6  1  0.408668  0.789820  0.376931  1
  Tb  Tb7  1  0.408668  0.210180  0.876931  1
  Tb  Tb8  1  0.210955  0.411607  0.620823  1
  Tb  Tb9  1  0.210955  0.588393  0.120823  1
  Tb  Tb10  1  0.788215  0.419785  0.123040  1
  Tb  Tb11  1  0.788215  0.580215  0.623040  1
  Tb  Tb12  1  0.917609  0.706255  0.139224  1
  Tb  Tb13  1  0.917609  0.293745  0.639224  1
  Tb  Tb14  1  0.095881  0.703410  0.624011  1
  Tb  Tb15  1  0.095881  0.296590  0.124011  1
  Tm  Tm16  1  0.009506  0.997415  0.499877  1
  Tm  Tm17  1  0.009506  0.002585  0.999877  1
  Tm  Tm18  1  0.499816  0.498896  0.000692  1
  Tm  Tm19  1  0.499816  0.501104  0.500692  1
  Ir  Ir20  1  0.151969  0.152036  0.750267  1
  Ir  Ir21  1  0.151969  0.847964  0.250267  1
  Ir  Ir22  1  0.653965  0.347967  0.748468  1
  Ir  Ir23  1  0.653965  0.652033  0.248468  1
  Ir  Ir24  1  0.349229  0.348026  0.251492  1
  Ir  Ir25  1  0.349229  0.651974  0.751492  1
  Ir  Ir26  1  0.499604  0.999687  0.119872  1
  Ir  Ir27  1  0.499604  0.000313  0.619872  1
  Ir  Ir28  1  0.999831  0.501070  0.879990  1
  Ir  Ir29  1  0.999831  0.498930  0.379990  1
  Au  Au30  1  0.847217  0.153216  0.250247  1
  Au  Au31  1  0.847217  0.846784  0.750247  1
