# generated using pymatgen
data_Nd5Ho11Cd4Co3Pd
_symmetry_space_group_name_H-M   'P 1'
_cell_length_a   9.65092819
_cell_length_b   9.64315298
_cell_length_c   9.64774100
_cell_angle_alpha   60.05040402
_cell_angle_beta   60.06398159
_cell_angle_gamma   60.07832058
_symmetry_Int_Tables_number   1
_chemical_formula_structural   Nd5Ho11Cd4Co3Pd
_chemical_formula_sum   'Nd5 Ho11 Cd4 Co3 Pd1'
_cell_volume   635.81461645
_cell_formula_units_Z   1
loop_
 _symmetry_equiv_pos_site_id
 _symmetry_equiv_pos_as_xyz
  1  'x, y, z'
loop_
 _atom_site_type_symbol
 _atom_site_label
 _atom_site_symmetry_multiplicity
 _atom_site_fract_x
 _atom_site_fract_y
 _atom_site_fract_z
 _atom_site_occupancy
  Nd  Nd0  1  0.553592  0.943997  0.943713  1
  Nd  Nd1  1  0.561408  0.938344  0.560704  1
  Nd  Nd2  1  0.937597  0.560299  0.937300  1
  Nd  Nd3  1  0.561566  0.560619  0.938195  1
  Nd  Nd4  1  0.937542  0.937279  0.560454  1
  Ho  Ho5  1  0.337835  0.352121  0.352104  1
  Ho  Ho6  1  0.336028  0.356476  0.960389  1
  Ho  Ho7  1  0.336361  0.960171  0.356450  1
  Ho  Ho8  1  0.964022  0.346120  0.345950  1
  Ho  Ho9  1  0.824935  0.185378  0.185214  1
  Ho  Ho10  1  0.184420  0.813502  0.813481  1
  Ho  Ho11  1  0.186306  0.810690  0.188382  1
  Ho  Ho12  1  0.825432  0.184173  0.800979  1
  Ho  Ho13  1  0.186183  0.188508  0.810553  1
  Ho  Ho14  1  0.825245  0.801049  0.184160  1
  Ho  Ho15  1  0.940682  0.557216  0.557382  1
  Cd  Cd16  1  0.582575  0.577612  0.578176  1
  Cd  Cd17  1  0.578825  0.579256  0.261709  1
  Cd  Cd18  1  0.579090  0.261798  0.579184  1
  Cd  Cd19  1  0.257672  0.579929  0.580083  1
  Co  Co20  1  0.143830  0.141358  0.141297  1
  Co  Co21  1  0.141568  0.146532  0.575807  1
  Co  Co22  1  0.141273  0.576031  0.146749  1
  Pd  Pd23  1  0.576013  0.141542  0.141582  1
