# generated using pymatgen
data_NdEr3(ZrPt)4
_symmetry_space_group_name_H-M   'P 1'
_cell_length_a   4.68633300
_cell_length_b   7.08182628
_cell_length_c   8.25782600
_cell_angle_alpha   90.01603545
_cell_angle_beta   90.00000000
_cell_angle_gamma   90.00000000
_symmetry_Int_Tables_number   1
_chemical_formula_structural   NdEr3(ZrPt)4
_chemical_formula_sum   'Nd1 Er3 Zr4 Pt4'
_cell_volume   274.05903548
_cell_formula_units_Z   1
loop_
 _symmetry_equiv_pos_site_id
 _symmetry_equiv_pos_as_xyz
  1  'x, y, z'
loop_
 _atom_site_type_symbol
 _atom_site_label
 _atom_site_symmetry_multiplicity
 _atom_site_fract_x
 _atom_site_fract_y
 _atom_site_fract_z
 _atom_site_occupancy
  Nd  Nd0  1  0.750000  0.513705  0.821136  1
  Er  Er1  1  0.250000  0.984220  0.321117  1
  Er  Er2  1  0.250000  0.483761  0.179743  1
  Er  Er3  1  0.750000  0.015695  0.676785  1
  Zr  Zr4  1  0.250000  0.350180  0.577048  1
  Zr  Zr5  1  0.250000  0.851902  0.920440  1
  Zr  Zr6  1  0.750000  0.649593  0.418314  1
  Zr  Zr7  1  0.750000  0.148040  0.081495  1
  Pt  Pt8  1  0.250000  0.225919  0.908029  1
  Pt  Pt9  1  0.250000  0.733901  0.589481  1
  Pt  Pt10  1  0.750000  0.773808  0.100185  1
  Pt  Pt11  1  0.750000  0.269274  0.406229  1
