# generated using pymatgen
data_TmZr3(Co3Si5)2
_symmetry_space_group_name_H-M   'P 1'
_cell_length_a   7.68566429
_cell_length_b   7.69213915
_cell_length_c   7.69213942
_cell_angle_alpha   137.84407882
_cell_angle_beta   104.72861113
_cell_angle_gamma   90.26676620
_symmetry_Int_Tables_number   1
_chemical_formula_structural   TmZr3(Co3Si5)2
_chemical_formula_sum   'Tm1 Zr3 Co6 Si10'
_cell_volume   281.81039916
_cell_formula_units_Z   1
loop_
 _symmetry_equiv_pos_site_id
 _symmetry_equiv_pos_as_xyz
  1  'x, y, z'
loop_
 _atom_site_type_symbol
 _atom_site_label
 _atom_site_symmetry_multiplicity
 _atom_site_fract_x
 _atom_site_fract_y
 _atom_site_fract_z
 _atom_site_occupancy
  Tm  Tm0  1  0.631296  0.364610  0.266686  1
  Zr  Zr1  1  0.366994  0.636310  0.730685  1
  Zr  Zr2  1  0.903789  0.135239  0.768549  1
  Zr  Zr3  1  0.094898  0.863820  0.231078  1
  Co  Co4  1  0.027533  0.638281  0.389251  1
  Co  Co5  1  0.971966  0.361870  0.610096  1
  Co  Co6  1  0.499017  0.749941  0.249890  1
  Co  Co7  1  0.499017  0.249127  0.749076  1
  Co  Co8  1  0.248548  0.138238  0.110311  1
  Co  Co9  1  0.755704  0.862483  0.893219  1
  Si  Si10  1  0.271537  0.524108  0.251513  1
  Si  Si11  1  0.726204  0.976623  0.250897  1
  Si  Si12  1  0.002784  0.751673  0.750985  1
  Si  Si13  1  0.239398  0.400740  0.838658  1
  Si  Si14  1  0.762141  0.602144  0.159997  1
  Si  Si15  1  0.435810  0.097199  0.338609  1
  Si  Si16  1  0.002784  0.251800  0.251111  1
  Si  Si17  1  0.562837  0.900461  0.662377  1
  Si  Si18  1  0.726204  0.475307  0.749581  1
  Si  Si19  1  0.271537  0.020024  0.747429  1
