# generated using pymatgen
data_YEr5Al19Si5Os8
_symmetry_space_group_name_H-M   'P 1'
_cell_length_a   8.68737500
_cell_length_b   8.67190223
_cell_length_c   9.57057000
_cell_angle_alpha   90.00000000
_cell_angle_beta   90.00000000
_cell_angle_gamma   120.05903600
_symmetry_Int_Tables_number   1
_chemical_formula_structural   YEr5Al19Si5Os8
_chemical_formula_sum   'Y1 Er5 Al19 Si5 Os8'
_cell_volume   624.04041097
_cell_formula_units_Z   1
loop_
 _symmetry_equiv_pos_site_id
 _symmetry_equiv_pos_as_xyz
  1  'x, y, z'
loop_
 _atom_site_type_symbol
 _atom_site_label
 _atom_site_symmetry_multiplicity
 _atom_site_fract_x
 _atom_site_fract_y
 _atom_site_fract_z
 _atom_site_occupancy
  Y  Y0  1  0.805884  0.611767  0.750000  1
  Er  Er1  1  0.195502  0.391007  0.250000  1
  Er  Er2  1  0.606768  0.805788  0.250000  1
  Er  Er3  1  0.390740  0.195456  0.750000  1
  Er  Er4  1  0.199019  0.805788  0.250000  1
  Er  Er5  1  0.804717  0.195456  0.750000  1
  Al  Al6  1  0.164562  0.329124  0.578269  1
  Al  Al7  1  0.834767  0.669533  0.421279  1
  Al  Al8  1  0.669718  0.835505  0.576740  1
  Al  Al9  1  0.834767  0.669533  0.078721  1
  Al  Al10  1  0.328898  0.165388  0.421865  1
  Al  Al11  1  0.164562  0.329124  0.921731  1
  Al  Al12  1  0.165787  0.835505  0.576740  1
  Al  Al13  1  0.328898  0.165388  0.078135  1
  Al  Al14  1  0.836490  0.165388  0.421865  1
  Al  Al15  1  0.669718  0.835505  0.923260  1
  Al  Al16  1  0.836490  0.165388  0.078135  1
  Al  Al17  1  0.165787  0.835505  0.923260  1
  Al  Al18  1  0.437318  0.874635  0.750000  1
  Al  Al19  1  0.873191  0.433683  0.250000  1
  Al  Al20  1  0.127714  0.564100  0.750000  1
  Al  Al21  1  0.560492  0.433683  0.250000  1
  Al  Al22  1  0.436386  0.564100  0.750000  1
  Al  Al23  1  0.999856  0.999712  0.250000  1
  Al  Al24  1  0.001176  0.002353  0.750000  1
  Si  Si25  1  0.332502  0.665005  0.038376  1
  Si  Si26  1  0.666966  0.333931  0.961023  1
  Si  Si27  1  0.666966  0.333931  0.538977  1
  Si  Si28  1  0.332502  0.665005  0.461624  1
  Si  Si29  1  0.563573  0.127148  0.250000  1
  Os  Os30  1  0.500650  0.001298  0.006425  1
  Os  Os31  1  0.999213  0.498895  0.000715  1
  Os  Os32  1  0.500650  0.001298  0.493575  1
  Os  Os33  1  0.499682  0.498895  0.000715  1
  Os  Os34  1  0.999213  0.498895  0.499285  1
  Os  Os35  1  0.499682  0.498895  0.499285  1
  Os  Os36  1  0.999597  0.999194  0.000017  1
  Os  Os37  1  0.999597  0.999194  0.499983  1
