# generated using pymatgen
data_CuTc2NiSn8
_symmetry_space_group_name_H-M   'P 1'
_cell_length_a   5.52830000
_cell_length_b   5.36733193
_cell_length_c   9.51889900
_cell_angle_alpha   90.00000000
_cell_angle_beta   90.00000000
_cell_angle_gamma   120.99710697
_symmetry_Int_Tables_number   1
_chemical_formula_structural   CuTc2NiSn8
_chemical_formula_sum   'Cu1 Tc2 Ni1 Sn8'
_cell_volume   242.11157119
_cell_formula_units_Z   1
loop_
 _symmetry_equiv_pos_site_id
 _symmetry_equiv_pos_as_xyz
  1  'x, y, z'
loop_
 _atom_site_type_symbol
 _atom_site_label
 _atom_site_symmetry_multiplicity
 _atom_site_fract_x
 _atom_site_fract_y
 _atom_site_fract_z
 _atom_site_occupancy
  Cu  Cu0  1  0.750000  0.000000  0.500000  1
  Tc  Tc1  1  0.250000  0.000000  0.500000  1
  Tc  Tc2  1  0.250000  0.000000  0.000000  1
  Ni  Ni3  1  0.750000  0.000000  0.000000  1
  Sn  Sn4  1  0.250000  0.500000  0.408207  1
  Sn  Sn5  1  0.750000  0.500000  0.909883  1
  Sn  Sn6  1  0.250000  0.500000  0.090117  1
  Sn  Sn7  1  0.750000  0.500000  0.591793  1
  Sn  Sn8  1  0.921982  0.823553  0.245233  1
  Sn  Sn9  1  0.401571  0.823553  0.754767  1
  Sn  Sn10  1  0.578018  0.176447  0.245233  1
  Sn  Sn11  1  0.098429  0.176447  0.754767  1
