# generated using pymatgen
data_LaNd11Fe2I17
_symmetry_space_group_name_H-M   'P 1'
_cell_length_a   10.01673075
_cell_length_b   12.12562816
_cell_length_c   12.08356048
_cell_angle_alpha   74.00072047
_cell_angle_beta   75.15018283
_cell_angle_gamma   65.41862031
_symmetry_Int_Tables_number   1
_chemical_formula_structural   LaNd11Fe2I17
_chemical_formula_sum   'La1 Nd11 Fe2 I17'
_cell_volume   1265.99848482
_cell_formula_units_Z   1
loop_
 _symmetry_equiv_pos_site_id
 _symmetry_equiv_pos_as_xyz
  1  'x, y, z'
loop_
 _atom_site_type_symbol
 _atom_site_label
 _atom_site_symmetry_multiplicity
 _atom_site_fract_x
 _atom_site_fract_y
 _atom_site_fract_z
 _atom_site_occupancy
  La  La0  1  0.148511  0.715026  0.152630  1
  Nd  Nd1  1  0.453584  0.487844  0.322656  1
  Nd  Nd2  1  0.555978  0.670123  0.008602  1
  Nd  Nd3  1  0.273649  0.987764  0.107016  1
  Nd  Nd4  1  0.860745  0.287843  0.848197  1
  Nd  Nd5  1  0.407011  0.241265  0.719101  1
  Nd  Nd6  1  0.724864  0.020879  0.890594  1
  Nd  Nd7  1  0.548914  0.503197  0.679297  1
  Nd  Nd8  1  0.451782  0.326363  0.986586  1
  Nd  Nd9  1  0.580330  0.756954  0.278802  1
  Nd  Nd10  1  0.817548  0.193098  0.587426  1
  Nd  Nd11  1  0.174739  0.811110  0.418538  1
  Fe  Fe12  1  0.359801  0.737529  0.211978  1
  Fe  Fe13  1  0.634410  0.261788  0.786711  1
  I  I14  1  0.055435  0.102768  0.324794  1
  I  I15  1  0.465495  0.947798  0.844126  1
  I  I16  1  0.428993  0.809469  0.535216  1
  I  I17  1  0.570864  0.185112  0.464795  1
  I  I18  1  0.836285  0.714132  0.046183  1
  I  I19  1  0.227825  0.416832  0.240051  1
  I  I20  1  0.688154  0.369897  0.102656  1
  I  I21  1  0.535473  0.049429  0.158281  1
  I  I22  1  0.741704  0.472365  0.416263  1
  I  I23  1  0.887060  0.784050  0.372909  1
  I  I24  1  0.946515  0.899039  0.675525  1
  I  I25  1  0.158300  0.293169  0.954672  1
  I  I26  1  0.318818  0.629183  0.896762  1
  I  I27  1  0.000787  0.003188  0.000024  1
  I  I28  1  0.112329  0.215422  0.631082  1
  I  I29  1  0.777618  0.579992  0.758172  1
  I  I30  1  0.256479  0.527370  0.580355  1
