# generated using pymatgen
data_NdDy6Sn23Ir6
_symmetry_space_group_name_H-M   'P 1'
_cell_length_a   9.88085800
_cell_length_b   9.88085747
_cell_length_c   10.14328900
_cell_angle_alpha   90.00000000
_cell_angle_beta   90.00000000
_cell_angle_gamma   119.99999509
_symmetry_Int_Tables_number   1
_chemical_formula_structural   NdDy6Sn23Ir6
_chemical_formula_sum   'Nd1 Dy6 Sn23 Ir6'
_cell_volume   857.62759253
_cell_formula_units_Z   1
loop_
 _symmetry_equiv_pos_site_id
 _symmetry_equiv_pos_as_xyz
  1  'x, y, z'
loop_
 _atom_site_type_symbol
 _atom_site_label
 _atom_site_symmetry_multiplicity
 _atom_site_fract_x
 _atom_site_fract_y
 _atom_site_fract_z
 _atom_site_occupancy
  Nd  Nd0  1  0.000000  0.000000  0.000000  1
  Dy  Dy1  1  0.479868  0.520132  0.307065  1
  Dy  Dy2  1  0.520132  0.479868  0.692935  1
  Dy  Dy3  1  0.479868  0.959737  0.307065  1
  Dy  Dy4  1  0.520132  0.040263  0.692935  1
  Dy  Dy5  1  0.040263  0.520132  0.307065  1
  Dy  Dy6  1  0.959737  0.479868  0.692935  1
  Sn  Sn7  1  0.352908  0.000000  0.000000  1
  Sn  Sn8  1  0.647092  0.000000  0.000000  1
  Sn  Sn9  1  0.000000  0.352908  0.000000  1
  Sn  Sn10  1  0.000000  0.647092  0.000000  1
  Sn  Sn11  1  0.647092  0.647092  0.000000  1
  Sn  Sn12  1  0.352908  0.352908  0.000000  1
  Sn  Sn13  1  0.333333  0.666667  0.825271  1
  Sn  Sn14  1  0.666667  0.333333  0.174729  1
  Sn  Sn15  1  0.000000  0.000000  0.500000  1
  Sn  Sn16  1  0.777767  0.222233  0.455767  1
  Sn  Sn17  1  0.222233  0.777767  0.544233  1
  Sn  Sn18  1  0.777767  0.555534  0.455767  1
  Sn  Sn19  1  0.222233  0.444466  0.544233  1
  Sn  Sn20  1  0.444466  0.222233  0.455767  1
  Sn  Sn21  1  0.555534  0.777767  0.544233  1
  Sn  Sn22  1  0.333333  0.666667  0.121696  1
  Sn  Sn23  1  0.666667  0.333333  0.878304  1
  Sn  Sn24  1  0.119239  0.880761  0.284137  1
  Sn  Sn25  1  0.880761  0.119239  0.715863  1
  Sn  Sn26  1  0.119239  0.238479  0.284137  1
  Sn  Sn27  1  0.880761  0.761521  0.715863  1
  Sn  Sn28  1  0.761521  0.880761  0.284137  1
  Sn  Sn29  1  0.238479  0.119239  0.715863  1
  Ir  Ir30  1  0.830748  0.169252  0.198808  1
  Ir  Ir31  1  0.169252  0.830748  0.801192  1
  Ir  Ir32  1  0.830748  0.661494  0.198808  1
  Ir  Ir33  1  0.169252  0.338506  0.801192  1
  Ir  Ir34  1  0.338506  0.169252  0.198808  1
  Ir  Ir35  1  0.661494  0.830748  0.801192  1
