# generated using pymatgen
data_K6Li4ScTaP6
_symmetry_space_group_name_H-M   'P 1'
_cell_length_a   10.08196860
_cell_length_b   10.08196974
_cell_length_c   14.78716300
_cell_angle_alpha   90.00000000
_cell_angle_beta   90.00000000
_cell_angle_gamma   143.34332910
_symmetry_Int_Tables_number   1
_chemical_formula_structural   K6Li4ScTaP6
_chemical_formula_sum   'K12 Li8 Sc2 Ta2 P12'
_cell_volume   897.35334244
_cell_formula_units_Z   2
loop_
 _symmetry_equiv_pos_site_id
 _symmetry_equiv_pos_as_xyz
  1  'x, y, z'
loop_
 _atom_site_type_symbol
 _atom_site_label
 _atom_site_symmetry_multiplicity
 _atom_site_fract_x
 _atom_site_fract_y
 _atom_site_fract_z
 _atom_site_occupancy
  K  K0  1  0.103733  0.450615  0.674062  1
  K  K1  1  0.717617  0.711253  0.680179  1
  K  K2  1  0.211253  0.217617  0.819821  1
  K  K3  1  0.782383  0.788747  0.180179  1
  K  K4  1  0.950615  0.603733  0.825938  1
  K  K5  1  0.549385  0.896267  0.325938  1
  K  K6  1  0.396267  0.049385  0.174062  1
  K  K7  1  0.053413  0.395969  0.173479  1
  K  K8  1  0.895969  0.553413  0.326521  1
  K  K9  1  0.446587  0.104031  0.673479  1
  K  K10  1  0.604031  0.946588  0.826521  1
  K  K11  1  0.288747  0.282383  0.319821  1
  Li  Li12  1  0.914453  0.085547  0.000000  1
  Li  Li13  1  0.585547  0.414453  0.500000  1
  Li  Li14  1  0.083008  0.916992  0.000000  1
  Li  Li15  1  0.416992  0.583008  0.500000  1
  Li  Li16  1  0.752217  0.247783  0.000000  1
  Li  Li17  1  0.747783  0.252217  0.500000  1
  Li  Li18  1  0.250567  0.749433  0.000000  1
  Li  Li19  1  0.249433  0.750567  0.500000  1
  Sc  Sc20  1  0.089026  0.910974  0.500000  1
  Sc  Sc21  1  0.410974  0.589026  0.000000  1
  Ta  Ta22  1  0.913841  0.086159  0.500000  1
  Ta  Ta23  1  0.586159  0.413841  0.000000  1
  P  P24  1  0.883452  0.565747  0.089863  1
  P  P25  1  0.434253  0.116548  0.910137  1
  P  P26  1  0.616548  0.934253  0.589863  1
  P  P27  1  0.924683  0.596414  0.593755  1
  P  P28  1  0.096414  0.424683  0.906245  1
  P  P29  1  0.575317  0.903586  0.093755  1
  P  P30  1  0.403586  0.075317  0.406245  1
  P  P31  1  0.215314  0.229284  0.587199  1
  P  P32  1  0.729284  0.715314  0.912801  1
  P  P33  1  0.284686  0.270716  0.087199  1
  P  P34  1  0.065747  0.383452  0.410137  1
  P  P35  1  0.770716  0.784686  0.412801  1
