# generated using pymatgen
data_K10BaSn12
_symmetry_space_group_name_H-M   'P 1'
_cell_length_a   10.64112114
_cell_length_b   10.64112185
_cell_length_c   10.64112100
_cell_angle_alpha   109.47122282
_cell_angle_beta   109.47122418
_cell_angle_gamma   109.47121303
_symmetry_Int_Tables_number   1
_chemical_formula_structural   K10BaSn12
_chemical_formula_sum   'K10 Ba1 Sn12'
_cell_volume   927.55635297
_cell_formula_units_Z   1
loop_
 _symmetry_equiv_pos_site_id
 _symmetry_equiv_pos_as_xyz
  1  'x, y, z'
loop_
 _atom_site_type_symbol
 _atom_site_label
 _atom_site_symmetry_multiplicity
 _atom_site_fract_x
 _atom_site_fract_y
 _atom_site_fract_z
 _atom_site_occupancy
  K  K0  1  0.250000  0.500000  0.750000  1
  K  K1  1  0.401218  0.401218  0.401218  1
  K  K2  1  0.000000  0.598782  0.000000  1
  K  K3  1  0.598782  0.000000  0.000000  1
  K  K4  1  0.000000  0.000000  0.598782  1
  K  K5  1  0.750000  0.500000  0.250000  1
  K  K6  1  0.250000  0.750000  0.500000  1
  K  K7  1  0.750000  0.250000  0.500000  1
  K  K8  1  0.500000  0.250000  0.750000  1
  K  K9  1  0.500000  0.750000  0.250000  1
  Ba  Ba10  1  0.000000  0.000000  0.000000  1
  Sn  Sn11  1  0.650106  0.650106  0.827551  1
  Sn  Sn12  1  0.000000  0.177444  0.349894  1
  Sn  Sn13  1  0.177444  0.000000  0.349894  1
  Sn  Sn14  1  0.822556  0.172449  0.822556  1
  Sn  Sn15  1  0.172449  0.822556  0.822556  1
  Sn  Sn16  1  0.827551  0.650106  0.650106  1
  Sn  Sn17  1  0.000000  0.349894  0.177444  1
  Sn  Sn18  1  0.349894  0.000000  0.177444  1
  Sn  Sn19  1  0.650106  0.827551  0.650106  1
  Sn  Sn20  1  0.177444  0.349894  0.000000  1
  Sn  Sn21  1  0.349894  0.177444  0.000000  1
  Sn  Sn22  1  0.822556  0.822556  0.172449  1
