# generated using pymatgen
data_Pr10SnBi5Br2
_symmetry_space_group_name_H-M   'P 1'
_cell_length_a   9.72131400
_cell_length_b   9.67319007
_cell_length_c   6.78862400
_cell_angle_alpha   90.00000000
_cell_angle_beta   90.00000000
_cell_angle_gamma   120.16470794
_symmetry_Int_Tables_number   1
_chemical_formula_structural   Pr10SnBi5Br2
_chemical_formula_sum   'Pr10 Sn1 Bi5 Br2'
_cell_volume   551.92985004
_cell_formula_units_Z   1
loop_
 _symmetry_equiv_pos_site_id
 _symmetry_equiv_pos_as_xyz
  1  'x, y, z'
loop_
 _atom_site_type_symbol
 _atom_site_label
 _atom_site_symmetry_multiplicity
 _atom_site_fract_x
 _atom_site_fract_y
 _atom_site_fract_z
 _atom_site_occupancy
  Pr  Pr0  1  0.275020  0.000000  0.750000  1
  Pr  Pr1  1  0.726202  0.000000  0.250000  1
  Pr  Pr2  1  0.996013  0.269708  0.750000  1
  Pr  Pr3  1  0.000290  0.727982  0.250000  1
  Pr  Pr4  1  0.726306  0.730292  0.750000  1
  Pr  Pr5  1  0.272308  0.272018  0.250000  1
  Pr  Pr6  1  0.335072  0.668502  0.501086  1
  Pr  Pr7  1  0.666571  0.331498  0.501086  1
  Pr  Pr8  1  0.666571  0.331498  0.998914  1
  Pr  Pr9  1  0.335072  0.668502  0.998914  1
  Sn  Sn10  1  0.614788  0.000000  0.750000  1
  Bi  Bi11  1  0.385479  0.000000  0.250000  1
  Bi  Bi12  1  0.999592  0.615565  0.750000  1
  Bi  Bi13  1  0.999783  0.384252  0.250000  1
  Bi  Bi14  1  0.384027  0.384435  0.750000  1
  Bi  Bi15  1  0.615531  0.615748  0.250000  1
  Br  Br16  1  0.000688  0.000000  0.499633  1
  Br  Br17  1  0.000688  0.000000  0.000367  1
