# generated using pymatgen
data_Tm18MgInIr12
_symmetry_space_group_name_H-M   'P 1'
_cell_length_a   10.69174700
_cell_length_b   10.69174700
_cell_length_c   6.23250300
_cell_angle_alpha   90.00000000
_cell_angle_beta   90.00000000
_cell_angle_gamma   90.00000000
_symmetry_Int_Tables_number   1
_chemical_formula_structural   Tm18MgInIr12
_chemical_formula_sum   'Tm18 Mg1 In1 Ir12'
_cell_volume   712.45894445
_cell_formula_units_Z   1
loop_
 _symmetry_equiv_pos_site_id
 _symmetry_equiv_pos_as_xyz
  1  'x, y, z'
loop_
 _atom_site_type_symbol
 _atom_site_label
 _atom_site_symmetry_multiplicity
 _atom_site_fract_x
 _atom_site_fract_y
 _atom_site_fract_z
 _atom_site_occupancy
  Tm  Tm0  1  0.285084  0.084767  0.378269  1
  Tm  Tm1  1  0.291553  0.911855  0.877398  1
  Tm  Tm2  1  0.708447  0.088145  0.877398  1
  Tm  Tm3  1  0.714916  0.915233  0.378269  1
  Tm  Tm4  1  0.586335  0.785992  0.877284  1
  Tm  Tm5  1  0.587140  0.207828  0.377966  1
  Tm  Tm6  1  0.412860  0.792172  0.377966  1
  Tm  Tm7  1  0.413665  0.214008  0.877284  1
  Tm  Tm8  1  0.207828  0.412860  0.622034  1
  Tm  Tm9  1  0.214008  0.586335  0.122716  1
  Tm  Tm10  1  0.785992  0.413665  0.122716  1
  Tm  Tm11  1  0.792172  0.587140  0.622034  1
  Tm  Tm12  1  0.911855  0.708447  0.122602  1
  Tm  Tm13  1  0.915233  0.285084  0.621731  1
  Tm  Tm14  1  0.084767  0.714916  0.621731  1
  Tm  Tm15  1  0.088145  0.291553  0.122602  1
  Tm  Tm16  1  0.000000  0.000000  0.000000  1
  Tm  Tm17  1  0.500000  0.500000  0.500000  1
  Mg  Mg18  1  0.000000  0.000000  0.500000  1
  In  In19  1  0.500000  0.500000  0.000000  1
  Ir  Ir20  1  0.846202  0.155628  0.245319  1
  Ir  Ir21  1  0.844372  0.846202  0.754681  1
  Ir  Ir22  1  0.155628  0.153798  0.754681  1
  Ir  Ir23  1  0.153798  0.844372  0.245319  1
  Ir  Ir24  1  0.657427  0.344527  0.743515  1
  Ir  Ir25  1  0.655473  0.657427  0.256485  1
  Ir  Ir26  1  0.344527  0.342573  0.256485  1
  Ir  Ir27  1  0.342573  0.655473  0.743515  1
  Ir  Ir28  1  0.500000  0.000000  0.122567  1
  Ir  Ir29  1  0.500000  0.000000  0.623004  1
  Ir  Ir30  1  0.000000  0.500000  0.877433  1
  Ir  Ir31  1  0.000000  0.500000  0.376996  1
