# generated using pymatgen
data_PrNdMn2(RhO5)2
_symmetry_space_group_name_H-M   'P 1'
_cell_length_a   6.02844700
_cell_length_b   7.53899408
_cell_length_c   8.84876427
_cell_angle_alpha   90.06138339
_cell_angle_beta   90.00000000
_cell_angle_gamma   90.00000000
_symmetry_Int_Tables_number   1
_chemical_formula_structural   PrNdMn2(RhO5)2
_chemical_formula_sum   'Pr2 Nd2 Mn4 Rh4 O20'
_cell_volume   402.16217955
_cell_formula_units_Z   2
loop_
 _symmetry_equiv_pos_site_id
 _symmetry_equiv_pos_as_xyz
  1  'x, y, z'
loop_
 _atom_site_type_symbol
 _atom_site_label
 _atom_site_symmetry_multiplicity
 _atom_site_fract_x
 _atom_site_fract_y
 _atom_site_fract_z
 _atom_site_occupancy
  Pr  Pr0  1  0.000000  0.862353  0.827680  1
  Pr  Pr1  1  0.000000  0.137647  0.172320  1
  Nd  Nd2  1  0.000000  0.362558  0.671801  1
  Nd  Nd3  1  0.000000  0.637442  0.328199  1
  Mn  Mn4  1  0.500000  0.088443  0.851964  1
  Mn  Mn5  1  0.500000  0.911557  0.148036  1
  Mn  Mn6  1  0.500000  0.587326  0.647525  1
  Mn  Mn7  1  0.500000  0.412674  0.352475  1
  Rh  Rh8  1  0.253996  0.500000  0.000000  1
  Rh  Rh9  1  0.745816  0.000000  0.500000  1
  Rh  Rh10  1  0.746004  0.500000  0.000000  1
  Rh  Rh11  1  0.254184  0.000000  0.500000  1
  O  O12  1  0.245280  0.897023  0.286517  1
  O  O13  1  0.245280  0.102977  0.713483  1
  O  O14  1  0.754903  0.399913  0.214212  1
  O  O15  1  0.754903  0.600087  0.785788  1
  O  O16  1  0.754720  0.102977  0.713483  1
  O  O17  1  0.754720  0.897023  0.286517  1
  O  O18  1  0.245097  0.600087  0.785788  1
  O  O19  1  0.245097  0.399913  0.214212  1
  O  O20  1  0.500000  0.347096  0.934096  1
  O  O21  1  0.500000  0.652904  0.065904  1
  O  O22  1  0.500000  0.847063  0.566466  1
  O  O23  1  0.500000  0.152937  0.433534  1
  O  O24  1  0.282382  0.000000  0.000000  1
  O  O25  1  0.719466  0.500000  0.500000  1
  O  O26  1  0.717618  0.000000  0.000000  1
  O  O27  1  0.280534  0.500000  0.500000  1
  O  O28  1  0.000000  0.168100  0.446441  1
  O  O29  1  0.000000  0.831900  0.553559  1
  O  O30  1  0.000000  0.667360  0.056013  1
  O  O31  1  0.000000  0.332640  0.943987  1
