# generated using pymatgen
data_Ta4CrCo3SiP3
_symmetry_space_group_name_H-M   'P 1'
_cell_length_a   3.60196000
_cell_length_b   6.16137835
_cell_length_c   7.03992798
_cell_angle_alpha   90.07940240
_cell_angle_beta   90.00000000
_cell_angle_gamma   90.00000000
_symmetry_Int_Tables_number   1
_chemical_formula_structural   Ta4CrCo3SiP3
_chemical_formula_sum   'Ta4 Cr1 Co3 Si1 P3'
_cell_volume   156.23724168
_cell_formula_units_Z   1
loop_
 _symmetry_equiv_pos_site_id
 _symmetry_equiv_pos_as_xyz
  1  'x, y, z'
loop_
 _atom_site_type_symbol
 _atom_site_label
 _atom_site_symmetry_multiplicity
 _atom_site_fract_x
 _atom_site_fract_y
 _atom_site_fract_z
 _atom_site_occupancy
  Ta  Ta0  1  0.250000  0.017177  0.823048  1
  Ta  Ta1  1  0.250000  0.527606  0.670419  1
  Ta  Ta2  1  0.750000  0.973787  0.177058  1
  Ta  Ta3  1  0.750000  0.473232  0.328235  1
  Cr  Cr4  1  0.750000  0.859187  0.564951  1
  Co  Co5  1  0.250000  0.143444  0.440913  1
  Co  Co6  1  0.250000  0.645788  0.062264  1
  Co  Co7  1  0.750000  0.362628  0.932620  1
  Si  Si8  1  0.250000  0.275112  0.119723  1
  P  P9  1  0.250000  0.772775  0.376001  1
  P  P10  1  0.750000  0.722159  0.880285  1
  P  P11  1  0.750000  0.227106  0.624484  1
