# generated using pymatgen
data_PrNd5(Ho2Pb3)2
_symmetry_space_group_name_H-M   'P 1'
_cell_length_a   9.26772283
_cell_length_b   9.26772270
_cell_length_c   6.77038500
_cell_angle_alpha   90.00000000
_cell_angle_beta   90.00000000
_cell_angle_gamma   120.02705659
_symmetry_Int_Tables_number   1
_chemical_formula_structural   PrNd5(Ho2Pb3)2
_chemical_formula_sum   'Pr1 Nd5 Ho4 Pb6'
_cell_volume   503.46767766
_cell_formula_units_Z   1
loop_
 _symmetry_equiv_pos_site_id
 _symmetry_equiv_pos_as_xyz
  1  'x, y, z'
loop_
 _atom_site_type_symbol
 _atom_site_label
 _atom_site_symmetry_multiplicity
 _atom_site_fract_x
 _atom_site_fract_y
 _atom_site_fract_z
 _atom_site_occupancy
  Pr  Pr0  1  0.759897  0.759897  0.750000  1
  Nd  Nd1  1  0.240134  0.000243  0.750000  1
  Nd  Nd2  1  0.000243  0.240134  0.750000  1
  Nd  Nd3  1  0.240696  0.240696  0.250000  1
  Nd  Nd4  1  0.760305  0.999898  0.250000  1
  Nd  Nd5  1  0.999898  0.760305  0.250000  1
  Ho  Ho6  1  0.666655  0.332994  0.000032  1
  Ho  Ho7  1  0.332994  0.666655  0.000032  1
  Ho  Ho8  1  0.332994  0.666655  0.499968  1
  Ho  Ho9  1  0.666655  0.332994  0.499968  1
  Pb  Pb10  1  0.397722  0.397722  0.750000  1
  Pb  Pb11  1  0.601622  0.000192  0.750000  1
  Pb  Pb12  1  0.000192  0.601622  0.750000  1
  Pb  Pb13  1  0.601676  0.601676  0.250000  1
  Pb  Pb14  1  0.398349  0.999966  0.250000  1
  Pb  Pb15  1  0.999966  0.398349  0.250000  1
