# generated using pymatgen
data_Tb10Sn6Cl
_symmetry_space_group_name_H-M   'P 1'
_cell_length_a   6.56816404
_cell_length_b   9.08419734
_cell_length_c   9.08414001
_cell_angle_alpha   120.00020984
_cell_angle_beta   89.99958293
_cell_angle_gamma   90.00084023
_symmetry_Int_Tables_number   1
_chemical_formula_structural   Tb10Sn6Cl
_chemical_formula_sum   'Tb10 Sn6 Cl1'
_cell_volume   469.40107923
_cell_formula_units_Z   1
loop_
 _symmetry_equiv_pos_site_id
 _symmetry_equiv_pos_as_xyz
  1  'x, y, z'
loop_
 _atom_site_type_symbol
 _atom_site_label
 _atom_site_symmetry_multiplicity
 _atom_site_fract_x
 _atom_site_fract_y
 _atom_site_fract_z
 _atom_site_occupancy
  Tb  Tb0  1  0.500000  0.333319  0.666636  1
  Tb  Tb1  1  0.500000  0.666681  0.333364  1
  Tb  Tb2  1  0.000001  0.666648  0.333296  1
  Tb  Tb3  1  0.000001  0.333353  0.666704  1
  Tb  Tb4  1  0.760799  0.250556  0.000000  1
  Tb  Tb5  1  0.760740  0.749439  0.749434  1
  Tb  Tb6  1  0.760740  0.000004  0.250566  1
  Tb  Tb7  1  0.239200  0.749443  0.000000  1
  Tb  Tb8  1  0.239260  0.250563  0.250567  1
  Tb  Tb9  1  0.239260  0.999996  0.749433  1
  Sn  Sn10  1  0.750610  0.608215  0.000000  1
  Sn  Sn11  1  0.750731  0.391795  0.391794  1
  Sn  Sn12  1  0.750731  0.000001  0.608206  1
  Sn  Sn13  1  0.249390  0.391786  0.000000  1
  Sn  Sn14  1  0.249270  0.608205  0.608205  1
  Sn  Sn15  1  0.249270  0.000000  0.391795  1
  Cl  Cl16  1  0.499998  0.999999  0.000000  1
