# generated using pymatgen
data_Eu5Bi2Pb
_symmetry_space_group_name_H-M   'P 1'
_cell_length_a   9.68286500
_cell_length_b   9.69684620
_cell_length_c   7.23770900
_cell_angle_alpha   90.00000000
_cell_angle_beta   90.00000000
_cell_angle_gamma   119.95231953
_symmetry_Int_Tables_number   1
_chemical_formula_structural   Eu5Bi2Pb
_chemical_formula_sum   'Eu10 Bi4 Pb2'
_cell_volume   588.80920975
_cell_formula_units_Z   2
loop_
 _symmetry_equiv_pos_site_id
 _symmetry_equiv_pos_as_xyz
  1  'x, y, z'
loop_
 _atom_site_type_symbol
 _atom_site_label
 _atom_site_symmetry_multiplicity
 _atom_site_fract_x
 _atom_site_fract_y
 _atom_site_fract_z
 _atom_site_occupancy
  Eu  Eu0  1  0.669082  0.335657  0.997714  1
  Eu  Eu1  1  0.333423  0.664342  0.997714  1
  Eu  Eu2  1  0.269398  0.000000  0.250001  1
  Eu  Eu3  1  0.999210  0.267879  0.250001  1
  Eu  Eu4  1  0.731330  0.732120  0.250001  1
  Eu  Eu5  1  0.669082  0.335657  0.502286  1
  Eu  Eu6  1  0.333423  0.664342  0.502286  1
  Eu  Eu7  1  0.732157  0.000000  0.750000  1
  Eu  Eu8  1  0.268890  0.271877  0.750000  1
  Eu  Eu9  1  0.997013  0.728122  0.750000  1
  Bi  Bi10  1  0.617093  0.000000  0.250001  1
  Bi  Bi11  1  0.381495  0.380321  0.250001  1
  Bi  Bi12  1  0.001174  0.619678  0.250001  1
  Bi  Bi13  1  0.378477  0.000000  0.750000  1
  Pb  Pb14  1  0.999346  0.379940  0.750000  1
  Pb  Pb15  1  0.619406  0.620059  0.750000  1
