# generated using pymatgen
data_Tb2DyLu(NiAs)4
_symmetry_space_group_name_H-M   'P 1'
_cell_length_a   4.04343100
_cell_length_b   4.04343041
_cell_length_c   15.47328700
_cell_angle_alpha   90.00000000
_cell_angle_beta   90.00000000
_cell_angle_gamma   120.00001297
_symmetry_Int_Tables_number   1
_chemical_formula_structural   Tb2DyLu(NiAs)4
_chemical_formula_sum   'Tb2 Dy1 Lu1 Ni4 As4'
_cell_volume   219.08526328
_cell_formula_units_Z   1
loop_
 _symmetry_equiv_pos_site_id
 _symmetry_equiv_pos_as_xyz
  1  'x, y, z'
loop_
 _atom_site_type_symbol
 _atom_site_label
 _atom_site_symmetry_multiplicity
 _atom_site_fract_x
 _atom_site_fract_y
 _atom_site_fract_z
 _atom_site_occupancy
  Tb  Tb0  1  0.000000  0.000000  0.001898  1
  Tb  Tb1  1  0.000000  0.000000  0.498102  1
  Dy  Dy2  1  0.000000  0.000000  0.750000  1
  Lu  Lu3  1  0.000000  0.000000  0.250000  1
  Ni  Ni4  1  0.333333  0.666667  0.139060  1
  Ni  Ni5  1  0.666667  0.333333  0.867357  1
  Ni  Ni6  1  0.666667  0.333333  0.632643  1
  Ni  Ni7  1  0.333333  0.666667  0.360940  1
  As  As8  1  0.333333  0.666667  0.620811  1
  As  As9  1  0.666667  0.333333  0.377056  1
  As  As10  1  0.666667  0.333333  0.122944  1
  As  As11  1  0.333333  0.666667  0.879189  1
