# generated using pymatgen
data_CaYb9(Si2Sb)2
_symmetry_space_group_name_H-M   'P 1'
_cell_length_a   9.11708811
_cell_length_b   9.11708762
_cell_length_c   9.11708788
_cell_angle_alpha   129.50282316
_cell_angle_beta   129.50282560
_cell_angle_gamma   74.20284010
_symmetry_Int_Tables_number   1
_chemical_formula_structural   CaYb9(Si2Sb)2
_chemical_formula_sum   'Ca1 Yb9 Si4 Sb2'
_cell_volume   439.87504513
_cell_formula_units_Z   1
loop_
 _symmetry_equiv_pos_site_id
 _symmetry_equiv_pos_as_xyz
  1  'x, y, z'
loop_
 _atom_site_type_symbol
 _atom_site_label
 _atom_site_symmetry_multiplicity
 _atom_site_fract_x
 _atom_site_fract_y
 _atom_site_fract_z
 _atom_site_occupancy
  Ca  Ca0  1  0.500000  0.500000  0.000000  1
  Yb  Yb1  1  0.533630  0.032935  0.845135  1
  Yb  Yb2  1  0.187799  0.688495  0.154865  1
  Yb  Yb3  1  0.032935  0.187799  0.499305  1
  Yb  Yb4  1  0.688495  0.533630  0.500695  1
  Yb  Yb5  1  0.466370  0.967065  0.154865  1
  Yb  Yb6  1  0.812201  0.311505  0.845135  1
  Yb  Yb7  1  0.967065  0.812201  0.500695  1
  Yb  Yb8  1  0.311505  0.466370  0.499305  1
  Yb  Yb9  1  0.000000  0.000000  0.000000  1
  Si  Si10  1  0.885213  0.385493  0.270705  1
  Si  Si11  1  0.114787  0.614507  0.729295  1
  Si  Si12  1  0.385493  0.114787  0.500280  1
  Si  Si13  1  0.614507  0.885213  0.499720  1
  Sb  Sb14  1  0.249921  0.249921  0.000000  1
  Sb  Sb15  1  0.750079  0.750079  0.000000  1
