# generated using pymatgen
data_Y5Er5(GaSb2)2
_symmetry_space_group_name_H-M   'P 1'
_cell_length_a   8.77987000
_cell_length_b   8.80551528
_cell_length_c   6.36250200
_cell_angle_alpha   90.00000000
_cell_angle_beta   90.00000000
_cell_angle_gamma   119.94331518
_symmetry_Int_Tables_number   1
_chemical_formula_structural   Y5Er5(GaSb2)2
_chemical_formula_sum   'Y5 Er5 Ga2 Sb4'
_cell_volume   426.23509653
_cell_formula_units_Z   1
loop_
 _symmetry_equiv_pos_site_id
 _symmetry_equiv_pos_as_xyz
  1  'x, y, z'
loop_
 _atom_site_type_symbol
 _atom_site_label
 _atom_site_symmetry_multiplicity
 _atom_site_fract_x
 _atom_site_fract_y
 _atom_site_fract_z
 _atom_site_occupancy
  Y  Y0  1  0.244348  0.999204  0.250000  1
  Y  Y1  1  0.755300  0.999984  0.750000  1
  Y  Y2  1  0.987208  0.234391  0.250000  1
  Y  Y3  1  0.753738  0.765665  0.250000  1
  Y  Y4  1  0.245995  0.233449  0.750000  1
  Er  Er5  1  0.342307  0.685018  0.999861  1
  Er  Er6  1  0.657397  0.315045  0.500311  1
  Er  Er7  1  0.657397  0.315045  0.999689  1
  Er  Er8  1  0.342307  0.685018  0.500139  1
  Er  Er9  1  0.013747  0.766594  0.750000  1
  Ga  Ga10  1  0.601779  0.999236  0.250000  1
  Ga  Ga11  1  0.397409  0.000335  0.750000  1
  Sb  Sb12  1  0.994525  0.605656  0.250000  1
  Sb  Sb13  1  0.388981  0.394713  0.250000  1
  Sb  Sb14  1  0.612370  0.605728  0.750000  1
  Sb  Sb15  1  0.005192  0.394920  0.750000  1
