# generated using pymatgen
data_Pu3PaP8
_symmetry_space_group_name_H-M   'P 1'
_cell_length_a   5.40470576
_cell_length_b   5.40470594
_cell_length_c   8.61071600
_cell_angle_alpha   108.29054403
_cell_angle_beta   108.29055584
_cell_angle_gamma   89.99999939
_symmetry_Int_Tables_number   1
_chemical_formula_structural   Pu3PaP8
_chemical_formula_sum   'Pu3 Pa1 P8'
_cell_volume   225.39536379
_cell_formula_units_Z   1
loop_
 _symmetry_equiv_pos_site_id
 _symmetry_equiv_pos_as_xyz
  1  'x, y, z'
loop_
 _atom_site_type_symbol
 _atom_site_label
 _atom_site_symmetry_multiplicity
 _atom_site_fract_x
 _atom_site_fract_y
 _atom_site_fract_z
 _atom_site_occupancy
  Pu  Pu0  1  0.512303  0.512303  0.024604  1
  Pu  Pu1  1  0.717528  0.217527  0.435055  1
  Pu  Pu2  1  0.217527  0.717528  0.435055  1
  Pa  Pa3  1  0.993439  0.993439  0.986877  1
  P  P4  1  0.536024  0.036023  0.072047  1
  P  P5  1  0.036023  0.536024  0.072047  1
  P  P6  1  0.175196  0.175196  0.350393  1
  P  P7  1  0.690520  0.690520  0.381038  1
  P  P8  1  0.145680  0.145680  0.723172  1
  P  P9  1  0.577491  0.145680  0.723172  1
  P  P10  1  0.145680  0.577491  0.723172  1
  P  P11  1  0.577491  0.577491  0.723172  1
