# generated using pymatgen
data_Tb10Y2Co4SnIr
_symmetry_space_group_name_H-M   'P 1'
_cell_length_a   8.34478157
_cell_length_b   8.34478138
_cell_length_c   8.34478088
_cell_angle_alpha   106.96013061
_cell_angle_beta   110.34815829
_cell_angle_gamma   111.13521254
_symmetry_Int_Tables_number   1
_chemical_formula_structural   Tb10Y2Co4SnIr
_chemical_formula_sum   'Tb10 Y2 Co4 Sn1 Ir1'
_cell_volume   446.66180215
_cell_formula_units_Z   1
loop_
 _symmetry_equiv_pos_site_id
 _symmetry_equiv_pos_as_xyz
  1  'x, y, z'
loop_
 _atom_site_type_symbol
 _atom_site_label
 _atom_site_symmetry_multiplicity
 _atom_site_fract_x
 _atom_site_fract_y
 _atom_site_fract_z
 _atom_site_occupancy
  Tb  Tb0  1  0.894465  0.710748  0.183718  1
  Tb  Tb1  1  0.527030  0.710748  0.816282  1
  Tb  Tb2  1  0.306258  0.620707  0.314449  1
  Tb  Tb3  1  0.306258  0.991810  0.685551  1
  Tb  Tb4  1  0.693702  0.379626  0.685924  1
  Tb  Tb5  1  0.693702  0.007778  0.314076  1
  Tb  Tb6  1  0.195420  0.211906  0.407457  1
  Tb  Tb7  1  0.804450  0.787964  0.592543  1
  Tb  Tb8  1  0.195420  0.787964  0.983513  1
  Tb  Tb9  1  0.804450  0.211906  0.016487  1
  Y  Y10  1  0.473814  0.289276  0.184539  1
  Y  Y11  1  0.104738  0.289276  0.815461  1
  Co  Co12  1  0.500798  0.611913  0.111115  1
  Co  Co13  1  0.500798  0.389682  0.888885  1
  Co  Co14  1  0.379670  0.000050  0.379620  1
  Co  Co15  1  0.620430  0.000050  0.620380  1
  Sn  Sn16  1  0.999751  0.499751  0.500000  1
  Ir  Ir17  1  0.998846  0.998846  0.000000  1
