# generated using pymatgen
data_Ca12Sn8Pd3Rh5
_symmetry_space_group_name_H-M   'P 1'
_cell_length_a   5.92039644
_cell_length_b   8.35363852
_cell_length_c   14.09667002
_cell_angle_alpha   90.20644626
_cell_angle_beta   90.09585891
_cell_angle_gamma   90.03969642
_symmetry_Int_Tables_number   1
_chemical_formula_structural   Ca12Sn8Pd3Rh5
_chemical_formula_sum   'Ca12 Sn8 Pd3 Rh5'
_cell_volume   697.17124843
_cell_formula_units_Z   1
loop_
 _symmetry_equiv_pos_site_id
 _symmetry_equiv_pos_as_xyz
  1  'x, y, z'
loop_
 _atom_site_type_symbol
 _atom_site_label
 _atom_site_symmetry_multiplicity
 _atom_site_fract_x
 _atom_site_fract_y
 _atom_site_fract_z
 _atom_site_occupancy
  Ca  Ca0  1  0.150340  0.393734  0.593714  1
  Ca  Ca1  1  0.849902  0.607242  0.094574  1
  Ca  Ca2  1  0.153187  0.101803  0.405463  1
  Ca  Ca3  1  0.849829  0.894125  0.905908  1
  Ca  Ca4  1  0.845433  0.603781  0.402736  1
  Ca  Ca5  1  0.153947  0.399436  0.901934  1
  Ca  Ca6  1  0.845465  0.900573  0.595066  1
  Ca  Ca7  1  0.153568  0.099287  0.098552  1
  Ca  Ca8  1  0.632910  0.251623  0.750933  1
  Ca  Ca9  1  0.367187  0.751590  0.251380  1
  Ca  Ca10  1  0.631190  0.246237  0.251268  1
  Ca  Ca11  1  0.366210  0.752909  0.748478  1
  Sn  Sn12  1  0.636479  0.245113  0.497642  1
  Sn  Sn13  1  0.364997  0.749046  0.000006  1
  Sn  Sn14  1  0.356454  0.753049  0.498255  1
  Sn  Sn15  1  0.648562  0.250569  0.000420  1
  Sn  Sn16  1  0.134237  0.101376  0.748816  1
  Sn  Sn17  1  0.861545  0.900833  0.248984  1
  Sn  Sn18  1  0.135598  0.400936  0.252356  1
  Sn  Sn19  1  0.863887  0.600544  0.751900  1
  Pd  Pd20  1  0.368754  0.037311  0.908075  1
  Pd  Pd21  1  0.629535  0.534832  0.591995  1
  Pd  Pd22  1  0.368752  0.462147  0.092288  1
  Rh  Rh23  1  0.371459  0.034765  0.592908  1
  Rh  Rh24  1  0.629863  0.966919  0.089957  1
  Rh  Rh25  1  0.371184  0.466443  0.409953  1
  Rh  Rh26  1  0.630276  0.532931  0.909771  1
  Rh  Rh27  1  0.629248  0.960845  0.406670  1
