# generated using pymatgen
data_Dy5TmLu10(Ga3Co)2
_symmetry_space_group_name_H-M   'P 1'
_cell_length_a   9.82059600
_cell_length_b   9.82685328
_cell_length_c   6.91069001
_cell_angle_alpha   90.01134854
_cell_angle_beta   90.00000000
_cell_angle_gamma   119.97893860
_symmetry_Int_Tables_number   1
_chemical_formula_structural   Dy5TmLu10(Ga3Co)2
_chemical_formula_sum   'Dy5 Tm1 Lu10 Ga6 Co2'
_cell_volume   577.69216934
_cell_formula_units_Z   1
loop_
 _symmetry_equiv_pos_site_id
 _symmetry_equiv_pos_as_xyz
  1  'x, y, z'
loop_
 _atom_site_type_symbol
 _atom_site_label
 _atom_site_symmetry_multiplicity
 _atom_site_fract_x
 _atom_site_fract_y
 _atom_site_fract_z
 _atom_site_occupancy
  Dy  Dy0  1  0.535495  0.464535  0.708337  1
  Dy  Dy1  1  0.929041  0.464535  0.708337  1
  Dy  Dy2  1  0.535722  0.071444  0.708699  1
  Dy  Dy3  1  0.000022  0.000044  0.231700  1
  Dy  Dy4  1  0.999954  0.999908  0.731739  1
  Tm  Tm5  1  0.463349  0.926700  0.208332  1
  Lu  Lu6  1  0.173848  0.825043  0.511419  1
  Lu  Lu7  1  0.651195  0.825043  0.511419  1
  Lu  Lu8  1  0.174444  0.348887  0.510401  1
  Lu  Lu9  1  0.826657  0.174889  0.014273  1
  Lu  Lu10  1  0.348232  0.174889  0.014273  1
  Lu  Lu11  1  0.825613  0.651227  0.015027  1
  Lu  Lu12  1  0.332889  0.665777  0.827057  1
  Lu  Lu13  1  0.667081  0.334162  0.325602  1
  Lu  Lu14  1  0.462696  0.537145  0.207651  1
  Lu  Lu15  1  0.074448  0.537145  0.207651  1
  Ga  Ga16  1  0.163600  0.835887  0.957245  1
  Ga  Ga17  1  0.672287  0.835887  0.957245  1
  Ga  Ga18  1  0.164347  0.328696  0.957979  1
  Ga  Ga19  1  0.836359  0.163250  0.456244  1
  Ga  Ga20  1  0.326892  0.163250  0.456244  1
  Ga  Ga21  1  0.836489  0.672978  0.455406  1
  Co  Co22  1  0.332671  0.665344  0.445302  1
  Co  Co23  1  0.666669  0.333336  0.947255  1
