# generated using pymatgen
data_Ta4Be2B4IrRu9
_symmetry_space_group_name_H-M   'P 1'
_cell_length_a   9.17855610
_cell_length_b   9.14628411
_cell_length_c   2.96711000
_cell_angle_alpha   90.00000000
_cell_angle_beta   90.00000000
_cell_angle_gamma   90.15240062
_symmetry_Int_Tables_number   1
_chemical_formula_structural   Ta4Be2B4IrRu9
_chemical_formula_sum   'Ta4 Be2 B4 Ir1 Ru9'
_cell_volume   249.08705914
_cell_formula_units_Z   1
loop_
 _symmetry_equiv_pos_site_id
 _symmetry_equiv_pos_as_xyz
  1  'x, y, z'
loop_
 _atom_site_type_symbol
 _atom_site_label
 _atom_site_symmetry_multiplicity
 _atom_site_fract_x
 _atom_site_fract_y
 _atom_site_fract_z
 _atom_site_occupancy
  Ta  Ta0  1  0.827424  0.676036  0.000000  1
  Ta  Ta1  1  0.176574  0.322894  0.000000  1
  Ta  Ta2  1  0.319315  0.825571  0.000000  1
  Ta  Ta3  1  0.675797  0.176975  0.000000  1
  Be  Be4  1  0.500170  0.498831  0.000000  1
  Be  Be5  1  0.000827  0.999915  0.000000  1
  B  B6  1  0.629788  0.876214  0.000000  1
  B  B7  1  0.371437  0.127798  0.000000  1
  B  B8  1  0.128022  0.627771  0.000000  1
  B  B9  1  0.872156  0.371582  0.000000  1
  Ir  Ir10  1  0.565694  0.706723  0.500000  1
  Ru  Ru11  1  0.433573  0.291416  0.500000  1
  Ru  Ru12  1  0.065330  0.791533  0.500000  1
  Ru  Ru13  1  0.932933  0.207972  0.500000  1
  Ru  Ru14  1  0.291971  0.566198  0.500000  1
  Ru  Ru15  1  0.708572  0.434322  0.500000  1
  Ru  Ru16  1  0.207956  0.066737  0.500000  1
  Ru  Ru17  1  0.791592  0.933523  0.500000  1
  Ru  Ru18  1  0.499478  0.999030  0.500000  1
  Ru  Ru19  1  0.001390  0.498958  0.500000  1
