# generated using pymatgen
data_LiDy14Y2Cd3Ni4
_symmetry_space_group_name_H-M   'P 1'
_cell_length_a   9.54908138
_cell_length_b   9.54908128
_cell_length_c   9.55120015
_cell_angle_alpha   59.95013784
_cell_angle_beta   59.95013725
_cell_angle_gamma   59.95459920
_symmetry_Int_Tables_number   1
_chemical_formula_structural   LiDy14Y2Cd3Ni4
_chemical_formula_sum   'Li1 Dy14 Y2 Cd3 Ni4'
_cell_volume   615.16185170
_cell_formula_units_Z   1
loop_
 _symmetry_equiv_pos_site_id
 _symmetry_equiv_pos_as_xyz
  1  'x, y, z'
loop_
 _atom_site_type_symbol
 _atom_site_label
 _atom_site_symmetry_multiplicity
 _atom_site_fract_x
 _atom_site_fract_y
 _atom_site_fract_z
 _atom_site_occupancy
  Li  Li0  1  0.820637  0.820637  0.820661  1
  Dy  Dy1  1  0.597036  0.597036  0.597345  1
  Dy  Dy2  1  0.598186  0.598186  0.204967  1
  Dy  Dy3  1  0.598443  0.204965  0.598217  1
  Dy  Dy4  1  0.204965  0.598443  0.598217  1
  Dy  Dy5  1  0.061644  0.441069  0.441051  1
  Dy  Dy6  1  0.436867  0.064191  0.064166  1
  Dy  Dy7  1  0.441069  0.061644  0.441051  1
  Dy  Dy8  1  0.064191  0.436867  0.064166  1
  Dy  Dy9  1  0.441068  0.441068  0.061628  1
  Dy  Dy10  1  0.064172  0.064172  0.436900  1
  Dy  Dy11  1  0.186508  0.814168  0.814142  1
  Dy  Dy12  1  0.813444  0.186847  0.186839  1
  Dy  Dy13  1  0.814168  0.186508  0.814142  1
  Dy  Dy14  1  0.186847  0.813444  0.186839  1
  Y  Y15  1  0.814405  0.814405  0.186017  1
  Y  Y16  1  0.186580  0.186580  0.813784  1
  Cd  Cd17  1  0.831720  0.831720  0.505612  1
  Cd  Cd18  1  0.831651  0.505676  0.831719  1
  Cd  Cd19  1  0.505676  0.831651  0.831719  1
  Ni  Ni20  1  0.393467  0.393467  0.393489  1
  Ni  Ni21  1  0.391960  0.391960  0.823352  1
  Ni  Ni22  1  0.391930  0.823367  0.391989  1
  Ni  Ni23  1  0.823367  0.391930  0.391989  1
