# generated using pymatgen
data_Pr4Al24Pt8Au
_symmetry_space_group_name_H-M   'P 1'
_cell_length_a   7.58711098
_cell_length_b   7.62252039
_cell_length_c   13.37776670
_cell_angle_alpha   84.62247083
_cell_angle_beta   79.26965001
_cell_angle_gamma   59.86231765
_symmetry_Int_Tables_number   1
_chemical_formula_structural   Pr4Al24Pt8Au
_chemical_formula_sum   'Pr4 Al24 Pt8 Au1'
_cell_volume   657.39128769
_cell_formula_units_Z   1
loop_
 _symmetry_equiv_pos_site_id
 _symmetry_equiv_pos_as_xyz
  1  'x, y, z'
loop_
 _atom_site_type_symbol
 _atom_site_label
 _atom_site_symmetry_multiplicity
 _atom_site_fract_x
 _atom_site_fract_y
 _atom_site_fract_z
 _atom_site_occupancy
  Pr  Pr0  1  0.392437  0.169365  0.809229  1
  Pr  Pr1  1  0.606016  0.831960  0.191405  1
  Pr  Pr2  1  0.734929  0.498358  0.809366  1
  Pr  Pr3  1  0.266468  0.501679  0.190613  1
  Al  Al4  1  0.685573  0.834309  0.947347  1
  Al  Al5  1  0.313004  0.166132  0.054052  1
  Al  Al6  1  0.146790  0.839337  0.558331  1
  Al  Al7  1  0.854222  0.166754  0.437930  1
  Al  Al8  1  0.488986  0.159416  0.556516  1
  Al  Al9  1  0.519493  0.833414  0.440722  1
  Al  Al10  1  0.215382  0.165160  0.332962  1
  Al  Al11  1  0.780136  0.839307  0.668988  1
  Al  Al12  1  0.440656  0.507930  0.669246  1
  Al  Al13  1  0.562898  0.492627  0.332620  1
  Al  Al14  1  0.109705  0.152588  0.668580  1
  Al  Al15  1  0.889442  0.841020  0.333787  1
  Al  Al16  1  0.350297  0.501791  0.947176  1
  Al  Al17  1  0.650454  0.497812  0.054018  1
  Al  Al18  1  0.014436  0.165274  0.957371  1
  Al  Al19  1  0.984917  0.834790  0.044118  1
  Al  Al20  1  0.187608  0.499982  0.437236  1
  Al  Al21  1  0.806854  0.499592  0.556686  1
  Al  Al22  1  0.735976  0.163934  0.184296  1
  Al  Al23  1  0.264895  0.835635  0.815961  1
  Al  Al24  1  0.060257  0.636094  0.818142  1
  Al  Al25  1  0.938450  0.366428  0.185541  1
  Al  Al26  1  0.857294  0.039458  0.815645  1
  Al  Al27  1  0.141440  0.961070  0.184458  1
  Pt  Pt28  1  0.878919  0.505643  0.363677  1
  Pt  Pt29  1  0.658275  0.170685  0.999515  1
  Pt  Pt30  1  0.341988  0.829275  0.999714  1
  Pt  Pt31  1  0.539232  0.166843  0.363618  1
  Pt  Pt32  1  0.461006  0.833179  0.635658  1
  Pt  Pt33  1  0.781913  0.172924  0.634582  1
  Pt  Pt34  1  0.218332  0.827166  0.364454  1
  Pt  Pt35  1  0.999949  0.499984  0.000367  1
  Au  Au36  1  0.121378  0.493080  0.636078  1
