# generated using pymatgen
data_Tb3In3Ru2Pb
_symmetry_space_group_name_H-M   'P 1'
_cell_length_a   7.88970000
_cell_length_b   7.88969909
_cell_length_c   3.92091900
_cell_angle_alpha   90.00000000
_cell_angle_beta   90.00000000
_cell_angle_gamma   120.00001220
_symmetry_Int_Tables_number   1
_chemical_formula_structural   Tb3In3Ru2Pb
_chemical_formula_sum   'Tb3 In3 Ru2 Pb1'
_cell_volume   211.36806828
_cell_formula_units_Z   1
loop_
 _symmetry_equiv_pos_site_id
 _symmetry_equiv_pos_as_xyz
  1  'x, y, z'
loop_
 _atom_site_type_symbol
 _atom_site_label
 _atom_site_symmetry_multiplicity
 _atom_site_fract_x
 _atom_site_fract_y
 _atom_site_fract_z
 _atom_site_occupancy
  Tb  Tb0  1  0.964981  0.578995  0.500000  1
  Tb  Tb1  1  0.421005  0.385986  0.500000  1
  Tb  Tb2  1  0.614014  0.035019  0.500000  1
  In  In3  1  0.755837  0.742141  0.000000  1
  In  In4  1  0.986304  0.244163  0.000000  1
  In  In5  1  0.257859  0.013696  0.000000  1
  Ru  Ru6  1  0.000000  0.000000  0.500000  1
  Ru  Ru7  1  0.666667  0.333333  0.000000  1
  Pb  Pb8  1  0.333333  0.666667  0.000000  1
