# generated using pymatgen
data_Ba3ErCrO6
_symmetry_space_group_name_H-M   'P 1'
_cell_length_a   7.15286393
_cell_length_b   7.15287668
_cell_length_c   7.15284741
_cell_angle_alpha   93.63873208
_cell_angle_beta   93.63741914
_cell_angle_gamma   93.63897497
_symmetry_Int_Tables_number   1
_chemical_formula_structural   Ba3ErCrO6
_chemical_formula_sum   'Ba6 Er2 Cr2 O12'
_cell_volume   363.65363509
_cell_formula_units_Z   2
loop_
 _symmetry_equiv_pos_site_id
 _symmetry_equiv_pos_as_xyz
  1  'x, y, z'
loop_
 _atom_site_type_symbol
 _atom_site_label
 _atom_site_symmetry_multiplicity
 _atom_site_fract_x
 _atom_site_fract_y
 _atom_site_fract_z
 _atom_site_occupancy
  Ba  Ba0  1  0.614035  0.885934  0.249991  1
  Ba  Ba1  1  0.885951  0.249959  0.614126  1
  Ba  Ba2  1  0.250008  0.614082  0.885856  1
  Ba  Ba3  1  0.114106  0.749961  0.385964  1
  Ba  Ba4  1  0.750022  0.385906  0.114026  1
  Ba  Ba5  1  0.385878  0.114109  0.750002  1
  Er  Er6  1  0.249972  0.250037  0.250008  1
  Er  Er7  1  0.749948  0.750039  0.750029  1
  Cr  Cr8  1  0.499987  0.500041  0.499992  1
  Cr  Cr9  1  0.999987  0.000029  0.999994  1
  O  O10  1  0.533216  0.222881  0.405955  1
  O  O11  1  0.222955  0.406021  0.533126  1
  O  O12  1  0.406076  0.533164  0.222789  1
  O  O13  1  0.033131  0.905996  0.722964  1
  O  O14  1  0.905978  0.722869  0.033224  1
  O  O15  1  0.722822  0.033140  0.906081  1
  O  O16  1  0.466894  0.777124  0.593927  1
  O  O17  1  0.777192  0.593980  0.466799  1
  O  O18  1  0.594031  0.466824  0.777037  1
  O  O19  1  0.966810  0.093973  0.277191  1
  O  O20  1  0.093937  0.277115  0.966880  1
  O  O21  1  0.277061  0.966815  0.094040  1
