# generated using pymatgen
data_Nd10InBi5P2
_symmetry_space_group_name_H-M   'P 1'
_cell_length_a   9.51599415
_cell_length_b   9.51599460
_cell_length_c   6.95347200
_cell_angle_alpha   90.00000000
_cell_angle_beta   90.00000000
_cell_angle_gamma   119.78240953
_symmetry_Int_Tables_number   1
_chemical_formula_structural   Nd10InBi5P2
_chemical_formula_sum   'Nd10 In1 Bi5 P2'
_cell_volume   546.49822243
_cell_formula_units_Z   1
loop_
 _symmetry_equiv_pos_site_id
 _symmetry_equiv_pos_as_xyz
  1  'x, y, z'
loop_
 _atom_site_type_symbol
 _atom_site_label
 _atom_site_symmetry_multiplicity
 _atom_site_fract_x
 _atom_site_fract_y
 _atom_site_fract_z
 _atom_site_occupancy
  Nd  Nd0  1  0.662957  0.334730  0.999265  1
  Nd  Nd1  1  0.334730  0.662957  0.999265  1
  Nd  Nd2  1  0.334730  0.662957  0.500735  1
  Nd  Nd3  1  0.662957  0.334730  0.500735  1
  Nd  Nd4  1  0.761571  0.761571  0.750000  1
  Nd  Nd5  1  0.239925  0.003765  0.750000  1
  Nd  Nd6  1  0.003765  0.239925  0.750000  1
  Nd  Nd7  1  0.238073  0.238073  0.250000  1
  Nd  Nd8  1  0.763239  0.001334  0.250000  1
  Nd  Nd9  1  0.001334  0.763239  0.250000  1
  In  In10  1  0.399380  0.399380  0.750000  1
  Bi  Bi11  1  0.601964  0.999930  0.750000  1
  Bi  Bi12  1  0.999930  0.601964  0.750000  1
  Bi  Bi13  1  0.600070  0.600070  0.250000  1
  Bi  Bi14  1  0.397121  0.999425  0.250000  1
  Bi  Bi15  1  0.999425  0.397121  0.250000  1
  P  P16  1  0.999415  0.999415  0.000230  1
  P  P17  1  0.999415  0.999415  0.499770  1
