# generated using pymatgen
data_Tm12Fe3HgBi
_symmetry_space_group_name_H-M   'P 1'
_cell_length_a   8.24753436
_cell_length_b   8.24753473
_cell_length_c   8.24753545
_cell_angle_alpha   108.18083341
_cell_angle_beta   109.17728929
_cell_angle_gamma   111.06891577
_symmetry_Int_Tables_number   1
_chemical_formula_structural   Tm12Fe3HgBi
_chemical_formula_sum   'Tm12 Fe3 Hg1 Bi1'
_cell_volume   431.58321339
_cell_formula_units_Z   1
loop_
 _symmetry_equiv_pos_site_id
 _symmetry_equiv_pos_as_xyz
  1  'x, y, z'
loop_
 _atom_site_type_symbol
 _atom_site_label
 _atom_site_symmetry_multiplicity
 _atom_site_fract_x
 _atom_site_fract_y
 _atom_site_fract_z
 _atom_site_occupancy
  Tm  Tm0  1  0.192549  0.419543  0.226994  1
  Tm  Tm1  1  0.807451  0.580457  0.773006  1
  Tm  Tm2  1  0.192549  0.965555  0.773006  1
  Tm  Tm3  1  0.945554  0.189709  0.755844  1
  Tm  Tm4  1  0.807451  0.034445  0.226994  1
  Tm  Tm5  1  0.054446  0.810291  0.244156  1
  Tm  Tm6  1  0.433865  0.189709  0.244156  1
  Tm  Tm7  1  0.566135  0.810291  0.755844  1
  Tm  Tm8  1  0.313192  0.303823  0.617015  1
  Tm  Tm9  1  0.686808  0.696177  0.382985  1
  Tm  Tm10  1  0.686808  0.303823  0.990632  1
  Tm  Tm11  1  0.313192  0.696177  0.009368  1
  Fe  Fe12  1  0.384879  0.384879  0.000000  1
  Fe  Fe13  1  0.615121  0.615121  0.000000  1
  Fe  Fe14  1  0.000000  0.000000  0.000000  1
  Hg  Hg15  1  0.500000  0.000000  0.500000  1
  Bi  Bi16  1  0.000000  0.500000  0.500000  1
