# generated using pymatgen
data_Tb2Er2Ga5Ni9
_symmetry_space_group_name_H-M   'P 1'
_cell_length_a   5.17067608
_cell_length_b   5.17067569
_cell_length_c   12.22646576
_cell_angle_alpha   77.79241190
_cell_angle_beta   77.79241221
_cell_angle_gamma   59.99999616
_symmetry_Int_Tables_number   1
_chemical_formula_structural   Tb2Er2Ga5Ni9
_chemical_formula_sum   'Tb2 Er2 Ga5 Ni9'
_cell_volume   274.52286502
_cell_formula_units_Z   1
loop_
 _symmetry_equiv_pos_site_id
 _symmetry_equiv_pos_as_xyz
  1  'x, y, z'
loop_
 _atom_site_type_symbol
 _atom_site_label
 _atom_site_symmetry_multiplicity
 _atom_site_fract_x
 _atom_site_fract_y
 _atom_site_fract_z
 _atom_site_occupancy
  Tb  Tb0  1  0.951301  0.951301  0.146096  1
  Tb  Tb1  1  0.048699  0.048699  0.853904  1
  Er  Er2  1  0.854200  0.854200  0.437400  1
  Er  Er3  1  0.145800  0.145800  0.562600  1
  Ga  Ga4  1  0.500000  0.500000  0.500000  1
  Ga  Ga5  1  0.722365  0.722365  0.832906  1
  Ga  Ga6  1  0.277635  0.277635  0.167094  1
  Ga  Ga7  1  0.610564  0.610564  0.168309  1
  Ga  Ga8  1  0.389436  0.389436  0.831691  1
  Ni  Ni9  1  0.000000  0.500000  0.000000  1
  Ni  Ni10  1  0.500000  0.000000  0.000000  1
  Ni  Ni11  1  0.500000  0.500000  0.000000  1
  Ni  Ni12  1  0.386407  0.386407  0.332302  1
  Ni  Ni13  1  0.894882  0.386407  0.332302  1
  Ni  Ni14  1  0.386407  0.894882  0.332302  1
  Ni  Ni15  1  0.613593  0.613593  0.667698  1
  Ni  Ni16  1  0.105118  0.613593  0.667698  1
  Ni  Ni17  1  0.613593  0.105118  0.667698  1
