# generated using pymatgen
data_Dy2YSnBi2Rh3
_symmetry_space_group_name_H-M   'P 1'
_cell_length_a   7.64653029
_cell_length_b   7.56783884
_cell_length_c   3.97660700
_cell_angle_alpha   90.00000000
_cell_angle_beta   90.00000000
_cell_angle_gamma   119.69304503
_symmetry_Int_Tables_number   1
_chemical_formula_structural   Dy2YSnBi2Rh3
_chemical_formula_sum   'Dy2 Y1 Sn1 Bi2 Rh3'
_cell_volume   199.90083510
_cell_formula_units_Z   1
loop_
 _symmetry_equiv_pos_site_id
 _symmetry_equiv_pos_as_xyz
  1  'x, y, z'
loop_
 _atom_site_type_symbol
 _atom_site_label
 _atom_site_symmetry_multiplicity
 _atom_site_fract_x
 _atom_site_fract_y
 _atom_site_fract_z
 _atom_site_occupancy
  Dy  Dy0  1  0.607064  0.011653  0.500000  1
  Dy  Dy1  1  0.999982  0.590156  0.500000  1
  Y  Y2  1  0.392942  0.404145  0.500000  1
  Sn  Sn3  1  0.999960  0.262610  0.000000  1
  Bi  Bi4  1  0.734359  0.736593  0.000000  1
  Bi  Bi5  1  0.265656  0.002238  0.000000  1
  Rh  Rh6  1  0.674679  0.330303  0.000000  1
  Rh  Rh7  1  0.325913  0.657493  0.000000  1
  Rh  Rh8  1  0.999444  0.004810  0.500000  1
