# generated using pymatgen
data_Dy2Er2Al13Ga5Ir6
_symmetry_space_group_name_H-M   'P 1'
_cell_length_a   7.52358235
_cell_length_b   7.52358244
_cell_length_c   9.54750900
_cell_angle_alpha   90.00000000
_cell_angle_beta   90.00000000
_cell_angle_gamma   119.75320791
_symmetry_Int_Tables_number   1
_chemical_formula_structural   Dy2Er2Al13Ga5Ir6
_chemical_formula_sum   'Dy2 Er2 Al13 Ga5 Ir6'
_cell_volume   469.18565983
_cell_formula_units_Z   1
loop_
 _symmetry_equiv_pos_site_id
 _symmetry_equiv_pos_as_xyz
  1  'x, y, z'
loop_
 _atom_site_type_symbol
 _atom_site_label
 _atom_site_symmetry_multiplicity
 _atom_site_fract_x
 _atom_site_fract_y
 _atom_site_fract_z
 _atom_site_occupancy
  Dy  Dy0  1  0.003425  0.331008  0.250000  1
  Dy  Dy1  1  0.331008  0.003425  0.250000  1
  Er  Er2  1  0.998068  0.667408  0.750000  1
  Er  Er3  1  0.667408  0.998068  0.750000  1
  Al  Al4  1  0.125179  0.125179  0.750000  1
  Al  Al5  1  0.000897  0.333735  0.573962  1
  Al  Al6  1  0.998238  0.666009  0.427916  1
  Al  Al7  1  0.998238  0.666009  0.072084  1
  Al  Al8  1  0.333735  0.000897  0.926038  1
  Al  Al9  1  0.000897  0.333735  0.926038  1
  Al  Al10  1  0.666009  0.998238  0.072084  1
  Al  Al11  1  0.666009  0.998238  0.427916  1
  Al  Al12  1  0.333735  0.000897  0.573962  1
  Al  Al13  1  0.334336  0.334336  0.053290  1
  Al  Al14  1  0.666849  0.666849  0.941957  1
  Al  Al15  1  0.666849  0.666849  0.558043  1
  Al  Al16  1  0.334336  0.334336  0.446710  1
  Ga  Ga17  1  0.872492  0.872492  0.250000  1
  Ga  Ga18  1  0.339393  0.546564  0.750000  1
  Ga  Ga19  1  0.660438  0.452978  0.250000  1
  Ga  Ga20  1  0.546564  0.339393  0.750000  1
  Ga  Ga21  1  0.452978  0.660438  0.250000  1
  Ir  Ir22  1  0.672475  0.328402  0.500139  1
  Ir  Ir23  1  0.328402  0.672475  0.500139  1
  Ir  Ir24  1  0.328402  0.672475  0.999861  1
  Ir  Ir25  1  0.672475  0.328402  0.999861  1
  Ir  Ir26  1  0.000581  0.000581  0.502848  1
  Ir  Ir27  1  0.000581  0.000581  0.997152  1
