# generated using pymatgen
data_SmHoTcB6
_symmetry_space_group_name_H-M   'P 1'
_cell_length_a   3.71208100
_cell_length_b   9.20076900
_cell_length_c   11.61787400
_cell_angle_alpha   90.00000000
_cell_angle_beta   90.00000000
_cell_angle_gamma   90.00000000
_symmetry_Int_Tables_number   1
_chemical_formula_structural   SmHoTcB6
_chemical_formula_sum   'Sm4 Ho4 Tc4 B24'
_cell_volume   396.79686616
_cell_formula_units_Z   4
loop_
 _symmetry_equiv_pos_site_id
 _symmetry_equiv_pos_as_xyz
  1  'x, y, z'
loop_
 _atom_site_type_symbol
 _atom_site_label
 _atom_site_symmetry_multiplicity
 _atom_site_fract_x
 _atom_site_fract_y
 _atom_site_fract_z
 _atom_site_occupancy
  Sm  Sm0  1  0.000000  0.323251  0.414609  1
  Sm  Sm1  1  0.000000  0.676749  0.585391  1
  Sm  Sm2  1  0.000000  0.823251  0.085391  1
  Sm  Sm3  1  0.000000  0.176749  0.914609  1
  Ho  Ho4  1  0.000000  0.942892  0.369228  1
  Ho  Ho5  1  0.000000  0.057108  0.630772  1
  Ho  Ho6  1  0.000000  0.442892  0.130772  1
  Ho  Ho7  1  0.000000  0.557108  0.869228  1
  Tc  Tc8  1  0.000000  0.639670  0.319395  1
  Tc  Tc9  1  0.000000  0.360330  0.680605  1
  Tc  Tc10  1  0.000000  0.139670  0.180605  1
  Tc  Tc11  1  0.000000  0.860330  0.819395  1
  B  B12  1  0.500000  0.554671  0.431387  1
  B  B13  1  0.500000  0.445329  0.568613  1
  B  B14  1  0.500000  0.054671  0.068613  1
  B  B15  1  0.500000  0.945329  0.931387  1
  B  B16  1  0.500000  0.749427  0.416648  1
  B  B17  1  0.500000  0.250573  0.583352  1
  B  B18  1  0.500000  0.249427  0.083352  1
  B  B19  1  0.500000  0.750573  0.916648  1
  B  B20  1  0.500000  0.791523  0.265498  1
  B  B21  1  0.500000  0.208477  0.734502  1
  B  B22  1  0.500000  0.291523  0.234502  1
  B  B23  1  0.500000  0.708477  0.765498  1
  B  B24  1  0.500000  0.629858  0.185894  1
  B  B25  1  0.500000  0.370142  0.814106  1
  B  B26  1  0.500000  0.129858  0.314106  1
  B  B27  1  0.500000  0.870142  0.685894  1
  B  B28  1  0.500000  0.983229  0.212376  1
  B  B29  1  0.500000  0.016771  0.787624  1
  B  B30  1  0.500000  0.483229  0.287624  1
  B  B31  1  0.500000  0.516771  0.712376  1
  B  B32  1  0.500000  0.597602  0.027070  1
  B  B33  1  0.500000  0.402398  0.972930  1
  B  B34  1  0.500000  0.097602  0.472930  1
  B  B35  1  0.500000  0.902398  0.527070  1
