# generated using pymatgen
data_SmLu3(Si5Os3)2
_symmetry_space_group_name_H-M   'P 1'
_cell_length_a   8.12728124
_cell_length_b   8.10804885
_cell_length_c   5.76905987
_cell_angle_alpha   70.64047258
_cell_angle_beta   70.59870695
_cell_angle_gamma   94.14201113
_symmetry_Int_Tables_number   1
_chemical_formula_structural   SmLu3(Si5Os3)2
_chemical_formula_sum   'Sm1 Lu3 Si10 Os6'
_cell_volume   331.11975549
_cell_formula_units_Z   1
loop_
 _symmetry_equiv_pos_site_id
 _symmetry_equiv_pos_as_xyz
  1  'x, y, z'
loop_
 _atom_site_type_symbol
 _atom_site_label
 _atom_site_symmetry_multiplicity
 _atom_site_fract_x
 _atom_site_fract_y
 _atom_site_fract_z
 _atom_site_occupancy
  Sm  Sm0  1  0.867863  0.601753  0.752992  1
  Lu  Lu1  1  0.400245  0.128910  0.747517  1
  Lu  Lu2  1  0.129833  0.400001  0.247032  1
  Lu  Lu3  1  0.601696  0.868015  0.253897  1
  Si  Si4  1  0.071969  0.262351  0.832112  1
  Si  Si5  1  0.737358  0.935374  0.666977  1
  Si  Si6  1  0.931691  0.738597  0.166328  1
  Si  Si7  1  0.260284  0.069377  0.333366  1
  Si  Si8  1  0.207114  0.795082  0.751653  1
  Si  Si9  1  0.794512  0.206704  0.247356  1
  Si  Si10  1  0.509443  0.483817  0.753154  1
  Si  Si11  1  0.486118  0.511502  0.249391  1
  Si  Si12  1  0.774696  0.223363  0.751168  1
  Si  Si13  1  0.226333  0.774954  0.247122  1
  Os  Os14  1  0.257582  0.545359  0.629774  1
  Os  Os15  1  0.456813  0.745122  0.867107  1
  Os  Os16  1  0.743108  0.454061  0.371315  1
  Os  Os17  1  0.542457  0.251912  0.133218  1
  Os  Os18  1  0.003360  0.999610  0.749128  1
  Os  Os19  1  0.997523  0.004138  0.249390  1
