# generated using pymatgen
data_Sm3In3AgHgPt
_symmetry_space_group_name_H-M   'P 1'
_cell_length_a   7.96140400
_cell_length_b   7.96140204
_cell_length_c   4.00642600
_cell_angle_alpha   90.00000000
_cell_angle_beta   90.00000000
_cell_angle_gamma   119.99999154
_symmetry_Int_Tables_number   1
_chemical_formula_structural   Sm3In3AgHgPt
_chemical_formula_sum   'Sm3 In3 Ag1 Hg1 Pt1'
_cell_volume   219.92115742
_cell_formula_units_Z   1
loop_
 _symmetry_equiv_pos_site_id
 _symmetry_equiv_pos_as_xyz
  1  'x, y, z'
loop_
 _atom_site_type_symbol
 _atom_site_label
 _atom_site_symmetry_multiplicity
 _atom_site_fract_x
 _atom_site_fract_y
 _atom_site_fract_z
 _atom_site_occupancy
  Sm  Sm0  1  0.977179  0.395622  0.500000  1
  Sm  Sm1  1  0.604378  0.581556  0.500000  1
  Sm  Sm2  1  0.418444  0.022821  0.500000  1
  In  In3  1  0.257831  0.256708  0.000000  1
  In  In4  1  0.998877  0.742169  0.000000  1
  In  In5  1  0.743292  0.001123  0.000000  1
  Ag  Ag6  1  0.000000  0.000000  0.500000  1
  Hg  Hg7  1  0.333333  0.666667  0.000000  1
  Pt  Pt8  1  0.666667  0.333333  0.000000  1
