# generated using pymatgen
data_ZnGa3Rh4
_symmetry_space_group_name_H-M   'P 1'
_cell_length_a   4.30159400
_cell_length_b   5.23918156
_cell_length_c   10.47928200
_cell_angle_alpha   109.14101450
_cell_angle_beta   90.00000000
_cell_angle_gamma   90.00000000
_symmetry_Int_Tables_number   1
_chemical_formula_structural   ZnGa3Rh4
_chemical_formula_sum   'Zn2 Ga6 Rh8'
_cell_volume   223.11303583
_cell_formula_units_Z   2
loop_
 _symmetry_equiv_pos_site_id
 _symmetry_equiv_pos_as_xyz
  1  'x, y, z'
loop_
 _atom_site_type_symbol
 _atom_site_label
 _atom_site_symmetry_multiplicity
 _atom_site_fract_x
 _atom_site_fract_y
 _atom_site_fract_z
 _atom_site_occupancy
  Zn  Zn0  1  0.000000  0.500436  0.250024  1
  Zn  Zn1  1  0.000000  0.499381  0.750050  1
  Ga  Ga2  1  0.500000  0.257426  0.371185  1
  Ga  Ga3  1  0.500000  0.257286  0.871374  1
  Ga  Ga4  1  0.500000  0.743024  0.128745  1
  Ga  Ga5  1  0.500000  0.741850  0.628921  1
  Ga  Ga6  1  0.000000  0.000377  0.999947  1
  Ga  Ga7  1  0.000000  0.000238  0.499735  1
  Rh  Rh8  1  0.500000  0.757386  0.378596  1
  Rh  Rh9  1  0.500000  0.757142  0.878953  1
  Rh  Rh10  1  0.500000  0.243233  0.121304  1
  Rh  Rh11  1  0.500000  0.241870  0.621278  1
  Rh  Rh12  1  0.000000  0.000400  0.249769  1
  Rh  Rh13  1  0.000000  0.999476  0.750032  1
  Rh  Rh14  1  0.000000  0.500144  0.000055  1
  Rh  Rh15  1  0.000000  0.500330  0.500029  1
