# generated using pymatgen
data_K4RhO5
_symmetry_space_group_name_H-M   'P 1'
_cell_length_a   6.40486643
_cell_length_b   6.45434993
_cell_length_c   9.40796704
_cell_angle_alpha   101.70243825
_cell_angle_beta   110.18408993
_cell_angle_gamma   102.85179238
_symmetry_Int_Tables_number   1
_chemical_formula_structural   K4RhO5
_chemical_formula_sum   'K8 Rh2 O10'
_cell_volume   338.87295384
_cell_formula_units_Z   2
loop_
 _symmetry_equiv_pos_site_id
 _symmetry_equiv_pos_as_xyz
  1  'x, y, z'
loop_
 _atom_site_type_symbol
 _atom_site_label
 _atom_site_symmetry_multiplicity
 _atom_site_fract_x
 _atom_site_fract_y
 _atom_site_fract_z
 _atom_site_occupancy
  K  K0  1  0.584162  0.803427  0.093561  1
  K  K1  1  0.207771  0.598671  0.708363  1
  K  K2  1  0.596151  0.296895  0.596516  1
  K  K3  1  0.403849  0.703105  0.403484  1
  K  K4  1  0.415838  0.196573  0.906439  1
  K  K5  1  0.000000  0.000000  0.500000  1
  K  K6  1  0.000000  0.500000  0.000000  1
  K  K7  1  0.792229  0.401329  0.291637  1
  Rh  Rh8  1  0.183800  0.096927  0.189883  1
  Rh  Rh9  1  0.816200  0.903073  0.810117  1
  O  O10  1  0.349725  0.365822  0.156522  1
  O  O11  1  0.650275  0.634178  0.843478  1
  O  O12  1  0.170599  0.286264  0.375611  1
  O  O13  1  0.829401  0.713736  0.624389  1
  O  O14  1  0.971935  0.168466  0.767338  1
  O  O15  1  0.028065  0.831534  0.232662  1
  O  O16  1  0.860662  0.100088  0.033557  1
  O  O17  1  0.139338  0.899912  0.966443  1
  O  O18  1  0.514285  0.940478  0.702599  1
  O  O19  1  0.485715  0.059522  0.297401  1
