# generated using pymatgen
data_Hf6Al16Cu2Rh5
_symmetry_space_group_name_H-M   'P 1'
_cell_length_a   8.68687007
_cell_length_b   8.65652521
_cell_length_c   8.65652550
_cell_angle_alpha   60.23204342
_cell_angle_beta   59.88398023
_cell_angle_gamma   59.88397762
_symmetry_Int_Tables_number   1
_chemical_formula_structural   Hf6Al16Cu2Rh5
_chemical_formula_sum   'Hf6 Al16 Cu2 Rh5'
_cell_volume   460.28289215
_cell_formula_units_Z   1
loop_
 _symmetry_equiv_pos_site_id
 _symmetry_equiv_pos_as_xyz
  1  'x, y, z'
loop_
 _atom_site_type_symbol
 _atom_site_label
 _atom_site_symmetry_multiplicity
 _atom_site_fract_x
 _atom_site_fract_y
 _atom_site_fract_z
 _atom_site_occupancy
  Hf  Hf0  1  0.671976  0.328023  0.328023  1
  Hf  Hf1  1  0.328023  0.671976  0.671976  1
  Hf  Hf2  1  0.307446  0.692553  0.307446  1
  Hf  Hf3  1  0.307446  0.307446  0.692553  1
  Hf  Hf4  1  0.692553  0.307446  0.692553  1
  Hf  Hf5  1  0.692553  0.692553  0.307446  1
  Al  Al6  1  0.332216  0.336980  0.336980  1
  Al  Al7  1  0.336980  0.332216  0.993822  1
  Al  Al8  1  0.993822  0.336980  0.336980  1
  Al  Al9  1  0.336980  0.993822  0.332216  1
  Al  Al10  1  0.667784  0.663020  0.663020  1
  Al  Al11  1  0.663020  0.667784  0.006178  1
  Al  Al12  1  0.663020  0.006178  0.667784  1
  Al  Al13  1  0.006178  0.663020  0.663020  1
  Al  Al14  1  0.112683  0.123114  0.123114  1
  Al  Al15  1  0.123114  0.112683  0.641089  1
  Al  Al16  1  0.641089  0.123114  0.123114  1
  Al  Al17  1  0.123114  0.641089  0.112683  1
  Al  Al18  1  0.887316  0.876885  0.876885  1
  Al  Al19  1  0.876885  0.887316  0.358914  1
  Al  Al20  1  0.876885  0.358914  0.887316  1
  Al  Al21  1  0.358914  0.876885  0.876885  1
  Cu  Cu22  1  0.500000  0.000000  0.000000  1
  Cu  Cu23  1  0.000000  0.500000  0.500000  1
  Rh  Rh24  1  0.000000  0.000000  0.000000  1
  Rh  Rh25  1  0.000000  0.500000  0.000000  1
  Rh  Rh26  1  0.000000  0.000000  0.500000  1
  Rh  Rh27  1  0.500000  0.000000  0.500000  1
  Rh  Rh28  1  0.500000  0.500000  0.000000  1
