# generated using pymatgen
data_Na2Hf3OF12
_symmetry_space_group_name_H-M   'P 1'
_cell_length_a   10.14576612
_cell_length_b   10.14576586
_cell_length_c   10.14576630
_cell_angle_alpha   44.19405118
_cell_angle_beta   44.19405662
_cell_angle_gamma   44.19405183
_symmetry_Int_Tables_number   1
_chemical_formula_structural   Na2Hf3OF12
_chemical_formula_sum   'Na4 Hf6 O2 F24'
_cell_volume   461.13104677
_cell_formula_units_Z   2
loop_
 _symmetry_equiv_pos_site_id
 _symmetry_equiv_pos_as_xyz
  1  'x, y, z'
loop_
 _atom_site_type_symbol
 _atom_site_label
 _atom_site_symmetry_multiplicity
 _atom_site_fract_x
 _atom_site_fract_y
 _atom_site_fract_z
 _atom_site_occupancy
  Na  Na0  1  0.000000  0.000000  0.000000  1
  Na  Na1  1  0.500000  0.500000  0.500000  1
  Na  Na2  1  0.142741  0.142741  0.142741  1
  Na  Na3  1  0.857259  0.857259  0.857259  1
  Hf  Hf4  1  0.580785  0.580785  0.035270  1
  Hf  Hf5  1  0.035270  0.580785  0.580785  1
  Hf  Hf6  1  0.580785  0.035270  0.580785  1
  Hf  Hf7  1  0.419215  0.964730  0.419215  1
  Hf  Hf8  1  0.964730  0.419215  0.419215  1
  Hf  Hf9  1  0.419215  0.419215  0.964730  1
  O  O10  1  0.716904  0.716904  0.716904  1
  O  O11  1  0.283096  0.283096  0.283096  1
  F  F12  1  0.699180  0.699180  0.365320  1
  F  F13  1  0.365320  0.699180  0.699180  1
  F  F14  1  0.699180  0.365320  0.699180  1
  F  F15  1  0.300820  0.634680  0.300820  1
  F  F16  1  0.300820  0.300820  0.634680  1
  F  F17  1  0.634680  0.300820  0.300820  1
  F  F18  1  0.921767  0.921767  0.399667  1
  F  F19  1  0.399667  0.921767  0.921767  1
  F  F20  1  0.652655  0.347345  0.000000  1
  F  F21  1  0.347345  0.000000  0.652655  1
  F  F22  1  0.000000  0.652655  0.347345  1
  F  F23  1  0.347345  0.652655  0.000000  1
  F  F24  1  0.652655  0.000000  0.347345  1
  F  F25  1  0.000000  0.347345  0.652655  1
  F  F26  1  0.908131  0.339063  0.339063  1
  F  F27  1  0.339063  0.339063  0.908131  1
  F  F28  1  0.339063  0.908131  0.339063  1
  F  F29  1  0.660937  0.091869  0.660937  1
  F  F30  1  0.091869  0.660937  0.660937  1
  F  F31  1  0.660937  0.660937  0.091869  1
  F  F32  1  0.600333  0.078233  0.078233  1
  F  F33  1  0.078233  0.078233  0.600333  1
  F  F34  1  0.078233  0.600333  0.078233  1
  F  F35  1  0.921767  0.399667  0.921767  1
