# generated using pymatgen
data_CaB2IrRh
_symmetry_space_group_name_H-M   'P 1'
_cell_length_a   7.09641900
_cell_length_b   6.12982639
_cell_length_c   5.51743853
_cell_angle_alpha   74.86780120
_cell_angle_beta   56.49527886
_cell_angle_gamma   48.63693185
_symmetry_Int_Tables_number   1
_chemical_formula_structural   CaB2IrRh
_chemical_formula_sum   'Ca2 B4 Ir2 Rh2'
_cell_volume   148.12573641
_cell_formula_units_Z   2
loop_
 _symmetry_equiv_pos_site_id
 _symmetry_equiv_pos_as_xyz
  1  'x, y, z'
loop_
 _atom_site_type_symbol
 _atom_site_label
 _atom_site_symmetry_multiplicity
 _atom_site_fract_x
 _atom_site_fract_y
 _atom_site_fract_z
 _atom_site_occupancy
  Ca  Ca0  1  0.501933  0.501933  0.498067  1
  Ca  Ca1  1  0.751933  0.751933  0.748067  1
  B  B2  1  0.818274  0.183027  0.829220  1
  B  B3  1  0.080521  0.420780  0.066973  1
  B  B4  1  0.183027  0.818274  0.169479  1
  B  B5  1  0.420780  0.080521  0.431726  1
  Ir  Ir6  1  0.128274  0.128274  0.871726  1
  Ir  Ir7  1  0.378274  0.378274  0.121726  1
  Rh  Rh8  1  0.118492  0.118492  0.381508  1
  Rh  Rh9  1  0.868492  0.868492  0.131508  1
