# generated using pymatgen
data_PrNdBi2(SO6)2
_symmetry_space_group_name_H-M   'P 1'
_cell_length_a   4.26353362
_cell_length_b   7.46739696
_cell_length_c   8.29390865
_cell_angle_alpha   106.00742760
_cell_angle_beta   91.03318758
_cell_angle_gamma   105.99468238
_symmetry_Int_Tables_number   1
_chemical_formula_structural   PrNdBi2(SO6)2
_chemical_formula_sum   'Pr1 Nd1 Bi2 S2 O12'
_cell_volume   242.72642617
_cell_formula_units_Z   1
loop_
 _symmetry_equiv_pos_site_id
 _symmetry_equiv_pos_as_xyz
  1  'x, y, z'
loop_
 _atom_site_type_symbol
 _atom_site_label
 _atom_site_symmetry_multiplicity
 _atom_site_fract_x
 _atom_site_fract_y
 _atom_site_fract_z
 _atom_site_occupancy
  Pr  Pr0  1  0.658206  0.326013  0.079220  1
  Nd  Nd1  1  0.341262  0.674056  0.920526  1
  Bi  Bi2  1  0.674526  0.346246  0.589856  1
  Bi  Bi3  1  0.326320  0.655481  0.411139  1
  S  S4  1  0.943747  0.997882  0.756125  1
  S  S5  1  0.055722  0.000540  0.243438  1
  O  O6  1  0.766798  0.508773  0.872281  1
  O  O7  1  0.234376  0.494964  0.127092  1
  O  O8  1  0.264819  0.495596  0.618544  1
  O  O9  1  0.735859  0.505683  0.383393  1
  O  O10  1  0.746459  0.991836  0.605086  1
  O  O11  1  0.253003  0.006836  0.394568  1
  O  O12  1  0.729257  0.999472  0.899045  1
  O  O13  1  0.269259  0.996909  0.100013  1
  O  O14  1  0.220999  0.181431  0.807677  1
  O  O15  1  0.776154  0.818357  0.192618  1
  O  O16  1  0.057423  0.821680  0.723215  1
  O  O17  1  0.945812  0.178246  0.276165  1
