# generated using pymatgen
data_Nb2FeF12
_symmetry_space_group_name_H-M   'P 1'
_cell_length_a   5.33367406
_cell_length_b   5.73795794
_cell_length_c   9.45617516
_cell_angle_alpha   104.78562939
_cell_angle_beta   91.04767714
_cell_angle_gamma   119.41733196
_symmetry_Int_Tables_number   1
_chemical_formula_structural   Nb2FeF12
_chemical_formula_sum   'Nb2 Fe1 F12'
_cell_volume   240.16895458
_cell_formula_units_Z   1
loop_
 _symmetry_equiv_pos_site_id
 _symmetry_equiv_pos_as_xyz
  1  'x, y, z'
loop_
 _atom_site_type_symbol
 _atom_site_label
 _atom_site_symmetry_multiplicity
 _atom_site_fract_x
 _atom_site_fract_y
 _atom_site_fract_z
 _atom_site_occupancy
  Nb  Nb0  1  0.778196  0.505379  0.260322  1
  Nb  Nb1  1  0.221804  0.494621  0.739678  1
  Fe  Fe2  1  0.000000  0.000000  0.000000  1
  F  F3  1  0.814123  0.258719  0.700936  1
  F  F4  1  0.185877  0.741281  0.299064  1
  F  F5  1  0.179559  0.745302  0.919206  1
  F  F6  1  0.700176  0.715688  0.420963  1
  F  F7  1  0.299824  0.284312  0.579037  1
  F  F8  1  0.776853  0.265747  0.364388  1
  F  F9  1  0.223147  0.734253  0.635612  1
  F  F10  1  0.347565  0.255824  0.174304  1
  F  F11  1  0.652435  0.744176  0.825696  1
  F  F12  1  0.774704  0.730191  0.129551  1
  F  F13  1  0.225296  0.269809  0.870449  1
  F  F14  1  0.820441  0.254698  0.080794  1
