# generated using pymatgen
data_Ta2BeTcB
_symmetry_space_group_name_H-M   'P 1'
_cell_length_a   6.17788300
_cell_length_b   6.18128800
_cell_length_c   3.28365900
_cell_angle_alpha   90.00000000
_cell_angle_beta   90.00000000
_cell_angle_gamma   90.00000000
_symmetry_Int_Tables_number   1
_chemical_formula_structural   Ta2BeTcB
_chemical_formula_sum   'Ta4 Be2 Tc2 B2'
_cell_volume   125.39398613
_cell_formula_units_Z   2
loop_
 _symmetry_equiv_pos_site_id
 _symmetry_equiv_pos_as_xyz
  1  'x, y, z'
loop_
 _atom_site_type_symbol
 _atom_site_label
 _atom_site_symmetry_multiplicity
 _atom_site_fract_x
 _atom_site_fract_y
 _atom_site_fract_z
 _atom_site_occupancy
  Ta  Ta0  1  0.321326  0.829403  0.500000  1
  Ta  Ta1  1  0.821326  0.670597  0.500000  1
  Ta  Ta2  1  0.177400  0.317462  0.500000  1
  Ta  Ta3  1  0.677400  0.182538  0.500000  1
  Be  Be4  1  0.115214  0.613826  0.000000  1
  Be  Be5  1  0.615214  0.886174  0.000000  1
  Tc  Tc6  1  0.000760  0.004262  0.000000  1
  Tc  Tc7  1  0.500760  0.495738  0.000000  1
  B  B8  1  0.385299  0.115775  0.000000  1
  B  B9  1  0.885299  0.384225  0.000000  1
