# generated using pymatgen
data_Sm2Sn5PdRh2
_symmetry_space_group_name_H-M   'P 1'
_cell_length_a   13.58702260
_cell_length_b   13.58702201
_cell_length_c   7.42423400
_cell_angle_alpha   90.00000000
_cell_angle_beta   90.00000000
_cell_angle_gamma   161.11385965
_symmetry_Int_Tables_number   1
_chemical_formula_structural   Sm2Sn5PdRh2
_chemical_formula_sum   'Sm4 Sn10 Pd2 Rh4'
_cell_volume   443.63680702
_cell_formula_units_Z   2
loop_
 _symmetry_equiv_pos_site_id
 _symmetry_equiv_pos_as_xyz
  1  'x, y, z'
loop_
 _atom_site_type_symbol
 _atom_site_label
 _atom_site_symmetry_multiplicity
 _atom_site_fract_x
 _atom_site_fract_y
 _atom_site_fract_z
 _atom_site_occupancy
  Sm  Sm0  1  0.174724  0.825276  0.746060  1
  Sm  Sm1  1  0.825276  0.174724  0.246060  1
  Sm  Sm2  1  0.475610  0.524390  0.763020  1
  Sm  Sm3  1  0.524390  0.475610  0.263020  1
  Sn  Sn4  1  0.878830  0.121170  0.774593  1
  Sn  Sn5  1  0.121170  0.878830  0.274593  1
  Sn  Sn6  1  0.704509  0.295491  0.449385  1
  Sn  Sn7  1  0.295491  0.704509  0.949385  1
  Sn  Sn8  1  0.597922  0.402078  0.881794  1
  Sn  Sn9  1  0.402078  0.597922  0.381794  1
  Sn  Sn10  1  0.950844  0.049156  0.100150  1
  Sn  Sn11  1  0.049156  0.950844  0.600150  1
  Sn  Sn12  1  0.289870  0.710130  0.523963  1
  Sn  Sn13  1  0.710130  0.289870  0.023963  1
  Pd  Pd14  1  0.050417  0.949583  0.982815  1
  Pd  Pd15  1  0.949583  0.050417  0.482815  1
  Rh  Rh16  1  0.776933  0.223067  0.732535  1
  Rh  Rh17  1  0.223067  0.776933  0.232535  1
  Rh  Rh18  1  0.394066  0.605934  0.017683  1
  Rh  Rh19  1  0.605934  0.394066  0.517683  1
