# generated using pymatgen
data_Nd2TcO6
_symmetry_space_group_name_H-M   'P 1'
_cell_length_a   10.18955129
_cell_length_b   10.18955011
_cell_length_c   5.60217011
_cell_angle_alpha   75.25146251
_cell_angle_beta   75.25146297
_cell_angle_gamma   69.25749215
_symmetry_Int_Tables_number   1
_chemical_formula_structural   Nd2TcO6
_chemical_formula_sum   'Nd8 Tc4 O24'
_cell_volume   517.26617072
_cell_formula_units_Z   4
loop_
 _symmetry_equiv_pos_site_id
 _symmetry_equiv_pos_as_xyz
  1  'x, y, z'
loop_
 _atom_site_type_symbol
 _atom_site_label
 _atom_site_symmetry_multiplicity
 _atom_site_fract_x
 _atom_site_fract_y
 _atom_site_fract_z
 _atom_site_occupancy
  Nd  Nd0  1  0.110239  0.889761  0.750000  1
  Nd  Nd1  1  0.889761  0.110239  0.250000  1
  Nd  Nd2  1  0.060652  0.286464  0.627752  1
  Nd  Nd3  1  0.713536  0.939348  0.872248  1
  Nd  Nd4  1  0.939348  0.713536  0.372248  1
  Nd  Nd5  1  0.286464  0.060652  0.127752  1
  Nd  Nd6  1  0.629953  0.370047  0.750000  1
  Nd  Nd7  1  0.370047  0.629953  0.250000  1
  Tc  Tc8  1  0.505175  0.800806  0.553641  1
  Tc  Tc9  1  0.199194  0.494825  0.946359  1
  Tc  Tc10  1  0.494825  0.199194  0.446359  1
  Tc  Tc11  1  0.800806  0.505175  0.053641  1
  O  O12  1  0.611777  0.177704  0.144933  1
  O  O13  1  0.822296  0.388223  0.355067  1
  O  O14  1  0.388223  0.822296  0.855067  1
  O  O15  1  0.177704  0.611777  0.644933  1
  O  O16  1  0.472640  0.069939  0.734576  1
  O  O17  1  0.930061  0.527360  0.765424  1
  O  O18  1  0.527360  0.930061  0.265424  1
  O  O19  1  0.069939  0.472640  0.234576  1
  O  O20  1  0.322703  0.214141  0.373055  1
  O  O21  1  0.785859  0.677297  0.126945  1
  O  O22  1  0.677297  0.785859  0.626945  1
  O  O23  1  0.214141  0.322703  0.873055  1
  O  O24  1  0.888785  0.924896  0.074370  1
  O  O25  1  0.075104  0.111215  0.425630  1
  O  O26  1  0.111215  0.075104  0.925630  1
  O  O27  1  0.924896  0.888785  0.574370  1
  O  O28  1  0.161345  0.689209  0.088109  1
  O  O29  1  0.310791  0.838655  0.411891  1
  O  O30  1  0.838655  0.310791  0.911891  1
  O  O31  1  0.689209  0.161345  0.588109  1
  O  O32  1  0.382336  0.460973  0.977452  1
  O  O33  1  0.539027  0.617664  0.522548  1
  O  O34  1  0.617664  0.539027  0.022548  1
  O  O35  1  0.460973  0.382336  0.477452  1
