# generated using pymatgen
data_Tb20IrRu5Pt6
_symmetry_space_group_name_H-M   'P 1'
_cell_length_a   10.96367186
_cell_length_b   10.96367164
_cell_length_c   6.45641204
_cell_angle_alpha   89.97317711
_cell_angle_beta   89.97317691
_cell_angle_gamma   90.65373180
_symmetry_Int_Tables_number   1
_chemical_formula_structural   Tb20IrRu5Pt6
_chemical_formula_sum   'Tb20 Ir1 Ru5 Pt6'
_cell_volume   776.02358736
_cell_formula_units_Z   1
loop_
 _symmetry_equiv_pos_site_id
 _symmetry_equiv_pos_as_xyz
  1  'x, y, z'
loop_
 _atom_site_type_symbol
 _atom_site_label
 _atom_site_symmetry_multiplicity
 _atom_site_fract_x
 _atom_site_fract_y
 _atom_site_fract_z
 _atom_site_occupancy
  Tb  Tb0  1  0.296666  0.085822  0.374158  1
  Tb  Tb1  1  0.297195  0.910746  0.874560  1
  Tb  Tb2  1  0.703629  0.090554  0.874543  1
  Tb  Tb3  1  0.703169  0.914839  0.375060  1
  Tb  Tb4  1  0.583791  0.795962  0.873290  1
  Tb  Tb5  1  0.588145  0.206859  0.379822  1
  Tb  Tb6  1  0.412536  0.793553  0.380306  1
  Tb  Tb7  1  0.417234  0.205018  0.873257  1
  Tb  Tb8  1  0.204038  0.416209  0.626710  1
  Tb  Tb9  1  0.206447  0.587464  0.119694  1
  Tb  Tb10  1  0.793141  0.411855  0.120178  1
  Tb  Tb11  1  0.794982  0.582766  0.626743  1
  Tb  Tb12  1  0.914178  0.703334  0.125842  1
  Tb  Tb13  1  0.909446  0.296371  0.625457  1
  Tb  Tb14  1  0.089254  0.702805  0.625440  1
  Tb  Tb15  1  0.085161  0.296831  0.124940  1
  Tb  Tb16  1  0.000381  0.000129  0.500859  1
  Tb  Tb17  1  0.999871  0.999619  0.999141  1
  Tb  Tb18  1  0.501394  0.499611  0.997165  1
  Tb  Tb19  1  0.500389  0.498606  0.502835  1
  Ir  Ir20  1  0.347364  0.652636  0.750000  1
  Ru  Ru21  1  0.651486  0.348514  0.750000  1
  Ru  Ru22  1  0.500098  0.999850  0.126633  1
  Ru  Ru23  1  0.500137  0.000280  0.623496  1
  Ru  Ru24  1  0.999720  0.499863  0.876504  1
  Ru  Ru25  1  0.000150  0.499902  0.373367  1
  Pt  Pt26  1  0.848067  0.151933  0.250000  1
  Pt  Pt27  1  0.846394  0.846250  0.749906  1
  Pt  Pt28  1  0.153750  0.153606  0.750094  1
  Pt  Pt29  1  0.152668  0.847332  0.250000  1
  Pt  Pt30  1  0.654069  0.654952  0.250583  1
  Pt  Pt31  1  0.345048  0.345931  0.249417  1
