# generated using pymatgen
data_Nb3IrPt2
_symmetry_space_group_name_H-M   'P 1'
_cell_length_a   2.83254700
_cell_length_b   4.98166900
_cell_length_c   13.99021700
_cell_angle_alpha   90.00000000
_cell_angle_beta   90.00000000
_cell_angle_gamma   90.00000000
_symmetry_Int_Tables_number   1
_chemical_formula_structural   Nb3IrPt2
_chemical_formula_sum   'Nb6 Ir2 Pt4'
_cell_volume   197.41331606
_cell_formula_units_Z   2
loop_
 _symmetry_equiv_pos_site_id
 _symmetry_equiv_pos_as_xyz
  1  'x, y, z'
loop_
 _atom_site_type_symbol
 _atom_site_label
 _atom_site_symmetry_multiplicity
 _atom_site_fract_x
 _atom_site_fract_y
 _atom_site_fract_z
 _atom_site_occupancy
  Nb  Nb0  1  0.000000  0.005868  0.250000  1
  Nb  Nb1  1  0.000000  0.994132  0.750000  1
  Nb  Nb2  1  0.000000  0.340981  0.584997  1
  Nb  Nb3  1  0.000000  0.659019  0.415003  1
  Nb  Nb4  1  0.000000  0.340981  0.915003  1
  Nb  Nb5  1  0.000000  0.659019  0.084997  1
  Ir  Ir6  1  0.500000  0.510570  0.250000  1
  Ir  Ir7  1  0.500000  0.489430  0.750000  1
  Pt  Pt8  1  0.500000  0.838493  0.583369  1
  Pt  Pt9  1  0.500000  0.161507  0.416631  1
  Pt  Pt10  1  0.500000  0.838493  0.916631  1
  Pt  Pt11  1  0.500000  0.161507  0.083369  1
