# generated using pymatgen
data_Er4Tm8OsRh3
_symmetry_space_group_name_H-M   'P 1'
_cell_length_a   6.30167518
_cell_length_b   7.18453158
_cell_length_c   9.06941019
_cell_angle_alpha   90.00819213
_cell_angle_beta   89.97785821
_cell_angle_gamma   90.11928470
_symmetry_Int_Tables_number   1
_chemical_formula_structural   Er4Tm8OsRh3
_chemical_formula_sum   'Er4 Tm8 Os1 Rh3'
_cell_volume   410.61285201
_cell_formula_units_Z   1
loop_
 _symmetry_equiv_pos_site_id
 _symmetry_equiv_pos_as_xyz
  1  'x, y, z'
loop_
 _atom_site_type_symbol
 _atom_site_label
 _atom_site_symmetry_multiplicity
 _atom_site_fract_x
 _atom_site_fract_y
 _atom_site_fract_z
 _atom_site_occupancy
  Er  Er0  1  0.171281  0.178697  0.062208  1
  Er  Er1  1  0.873443  0.536101  0.250052  1
  Er  Er2  1  0.629125  0.034566  0.250150  1
  Er  Er3  1  0.373208  0.965856  0.749804  1
  Tm  Tm4  1  0.332722  0.676933  0.058191  1
  Tm  Tm5  1  0.171189  0.178511  0.437676  1
  Tm  Tm6  1  0.671994  0.323916  0.563862  1
  Tm  Tm7  1  0.824843  0.819380  0.935323  1
  Tm  Tm8  1  0.671910  0.323857  0.935953  1
  Tm  Tm9  1  0.825097  0.819518  0.564625  1
  Tm  Tm10  1  0.332575  0.676904  0.441861  1
  Tm  Tm11  1  0.126488  0.465297  0.749811  1
  Os  Os12  1  0.536818  0.614624  0.749964  1
  Rh  Rh13  1  0.046343  0.885949  0.250770  1
  Rh  Rh14  1  0.456099  0.385558  0.250433  1
  Rh  Rh15  1  0.956866  0.114330  0.749316  1
