# generated using pymatgen
data_Dy4Zr3NbF28
_symmetry_space_group_name_H-M   'P 1'
_cell_length_a   5.70960061
_cell_length_b   9.08243380
_cell_length_c   12.23871542
_cell_angle_alpha   62.56157284
_cell_angle_beta   90.03302222
_cell_angle_gamma   89.85618267
_symmetry_Int_Tables_number   1
_chemical_formula_structural   Dy4Zr3NbF28
_chemical_formula_sum   'Dy4 Zr3 Nb1 F28'
_cell_volume   563.26552838
_cell_formula_units_Z   1
loop_
 _symmetry_equiv_pos_site_id
 _symmetry_equiv_pos_as_xyz
  1  'x, y, z'
loop_
 _atom_site_type_symbol
 _atom_site_label
 _atom_site_symmetry_multiplicity
 _atom_site_fract_x
 _atom_site_fract_y
 _atom_site_fract_z
 _atom_site_occupancy
  Dy  Dy0  1  0.757396  0.814503  0.767032  1
  Dy  Dy1  1  0.254539  0.185326  0.730848  1
  Dy  Dy2  1  0.242667  0.186061  0.236627  1
  Dy  Dy3  1  0.744414  0.818015  0.265842  1
  Zr  Zr4  1  0.755302  0.273547  0.955829  1
  Zr  Zr5  1  0.256409  0.725739  0.544107  1
  Zr  Zr6  1  0.245117  0.726464  0.044759  1
  Nb  Nb7  1  0.742935  0.274265  0.454845  1
  F  F8  1  0.462415  0.709392  0.919211  1
  F  F9  1  0.949757  0.289755  0.584818  1
  F  F10  1  0.536194  0.289369  0.080979  1
  F  F11  1  0.038660  0.710007  0.418176  1
  F  F12  1  0.444635  0.274776  0.548143  1
  F  F13  1  0.946907  0.725202  0.950572  1
  F  F14  1  0.553916  0.719951  0.451150  1
  F  F15  1  0.051210  0.274305  0.051434  1
  F  F16  1  0.775613  0.525522  0.859941  1
  F  F17  1  0.270871  0.474420  0.640207  1
  F  F18  1  0.223301  0.475204  0.140571  1
  F  F19  1  0.731182  0.517510  0.359537  1
  F  F20  1  0.758341  0.021924  0.059484  1
  F  F21  1  0.260288  0.976812  0.443109  1
  F  F22  1  0.242325  0.976656  0.939825  1
  F  F23  1  0.739086  0.031650  0.551862  1
  F  F24  1  0.978733  0.734523  0.646132  1
  F  F25  1  0.482071  0.266938  0.850813  1
  F  F26  1  0.026970  0.270451  0.356210  1
  F  F27  1  0.520803  0.731261  0.149382  1
  F  F28  1  0.037239  0.747765  0.174086  1
  F  F29  1  0.540931  0.254571  0.323798  1
  F  F30  1  0.966461  0.251966  0.828112  1
  F  F31  1  0.465799  0.747553  0.672885  1
  F  F32  1  0.426164  0.972419  0.236357  1
  F  F33  1  0.925536  0.027511  0.268217  1
  F  F34  1  0.573031  0.026782  0.763765  1
  F  F35  1  0.072781  0.971885  0.731333  1
