# generated using pymatgen
data_PrPRh3
_symmetry_space_group_name_H-M   'P 1'
_cell_length_a   4.15172900
_cell_length_b   4.15172900
_cell_length_c   5.11414400
_cell_angle_alpha   90.00000000
_cell_angle_beta   90.00000000
_cell_angle_gamma   90.00000000
_symmetry_Int_Tables_number   1
_chemical_formula_structural   PrPRh3
_chemical_formula_sum   'Pr1 P1 Rh3'
_cell_volume   88.15175187
_cell_formula_units_Z   1
loop_
 _symmetry_equiv_pos_site_id
 _symmetry_equiv_pos_as_xyz
  1  'x, y, z'
loop_
 _atom_site_type_symbol
 _atom_site_label
 _atom_site_symmetry_multiplicity
 _atom_site_fract_x
 _atom_site_fract_y
 _atom_site_fract_z
 _atom_site_occupancy
  Pr  Pr0  1  0.000000  0.000000  0.997594  1
  P  P1  1  0.500000  0.500000  0.686404  1
  Rh  Rh2  1  0.000000  0.500000  0.483984  1
  Rh  Rh3  1  0.500000  0.500000  0.120632  1
  Rh  Rh4  1  0.500000  0.000000  0.483984  1
