# generated using pymatgen
data_YbY7Cu3Si12Pd
_symmetry_space_group_name_H-M   'P 1'
_cell_length_a   8.06954400
_cell_length_b   8.04020236
_cell_length_c   8.17080728
_cell_angle_alpha   89.97392719
_cell_angle_beta   90.00000000
_cell_angle_gamma   120.12078541
_symmetry_Int_Tables_number   1
_chemical_formula_structural   YbY7Cu3Si12Pd
_chemical_formula_sum   'Yb1 Y7 Cu3 Si12 Pd1'
_cell_volume   458.54465835
_cell_formula_units_Z   1
loop_
 _symmetry_equiv_pos_site_id
 _symmetry_equiv_pos_as_xyz
  1  'x, y, z'
loop_
 _atom_site_type_symbol
 _atom_site_label
 _atom_site_symmetry_multiplicity
 _atom_site_fract_x
 _atom_site_fract_y
 _atom_site_fract_z
 _atom_site_occupancy
  Yb  Yb0  1  0.500929  0.001858  0.249857  1
  Y  Y1  1  0.500584  0.001168  0.750236  1
  Y  Y2  1  0.997882  0.498965  0.249730  1
  Y  Y3  1  0.998702  0.499568  0.750125  1
  Y  Y4  1  0.501083  0.498965  0.249730  1
  Y  Y5  1  0.500867  0.499568  0.750125  1
  Y  Y6  1  0.999975  0.999950  0.249690  1
  Y  Y7  1  0.000031  0.000062  0.750200  1
  Cu  Cu8  1  0.333613  0.667227  0.002191  1
  Cu  Cu9  1  0.666352  0.332704  0.998045  1
  Cu  Cu10  1  0.666395  0.332789  0.500871  1
  Si  Si11  1  0.169294  0.338588  0.999440  1
  Si  Si12  1  0.831010  0.662019  0.999985  1
  Si  Si13  1  0.661775  0.830241  0.999671  1
  Si  Si14  1  0.831344  0.662687  0.500845  1
  Si  Si15  1  0.337640  0.169547  0.000200  1
  Si  Si16  1  0.165825  0.331648  0.499962  1
  Si  Si17  1  0.168467  0.830241  0.999671  1
  Si  Si18  1  0.337333  0.169230  0.500183  1
  Si  Si19  1  0.831907  0.169547  0.000200  1
  Si  Si20  1  0.668088  0.833509  0.499835  1
  Si  Si21  1  0.831899  0.169230  0.500183  1
  Si  Si22  1  0.165423  0.833509  0.499835  1
  Pd  Pd23  1  0.333587  0.667175  0.499191  1
