# generated using pymatgen
data_ErTmMnC2
_symmetry_space_group_name_H-M   'P 1'
_cell_length_a   4.97681800
_cell_length_b   6.30128900
_cell_length_c   9.54796900
_cell_angle_alpha   90.00000000
_cell_angle_beta   90.00000000
_cell_angle_gamma   90.00000000
_symmetry_Int_Tables_number   1
_chemical_formula_structural   ErTmMnC2
_chemical_formula_sum   'Er4 Tm4 Mn4 C8'
_cell_volume   299.42782644
_cell_formula_units_Z   4
loop_
 _symmetry_equiv_pos_site_id
 _symmetry_equiv_pos_as_xyz
  1  'x, y, z'
loop_
 _atom_site_type_symbol
 _atom_site_label
 _atom_site_symmetry_multiplicity
 _atom_site_fract_x
 _atom_site_fract_y
 _atom_site_fract_z
 _atom_site_occupancy
  Er  Er0  1  0.250000  0.526013  0.214745  1
  Er  Er1  1  0.750000  0.473987  0.785255  1
  Er  Er2  1  0.750000  0.973987  0.714745  1
  Er  Er3  1  0.250000  0.026013  0.285255  1
  Tm  Tm4  1  0.250000  0.680885  0.555911  1
  Tm  Tm5  1  0.750000  0.319115  0.444089  1
  Tm  Tm6  1  0.750000  0.819115  0.055911  1
  Tm  Tm7  1  0.250000  0.180885  0.944089  1
  Mn  Mn8  1  0.250000  0.728023  0.858611  1
  Mn  Mn9  1  0.750000  0.271977  0.141389  1
  Mn  Mn10  1  0.750000  0.771977  0.358611  1
  Mn  Mn11  1  0.250000  0.228023  0.641389  1
  C  C12  1  0.250000  0.461246  0.760923  1
  C  C13  1  0.750000  0.538754  0.239077  1
  C  C14  1  0.750000  0.038754  0.260923  1
  C  C15  1  0.250000  0.961246  0.739077  1
  C  C16  1  0.250000  0.813179  0.038304  1
  C  C17  1  0.750000  0.186821  0.961696  1
  C  C18  1  0.750000  0.686821  0.538304  1
  C  C19  1  0.250000  0.313179  0.461696  1
