# generated using pymatgen
data_Y4Ga4CuRu3
_symmetry_space_group_name_H-M   'P 1'
_cell_length_a   4.49802100
_cell_length_b   7.11734246
_cell_length_c   7.23919360
_cell_angle_alpha   88.77315148
_cell_angle_beta   90.00000000
_cell_angle_gamma   90.00000000
_symmetry_Int_Tables_number   1
_chemical_formula_structural   Y4Ga4CuRu3
_chemical_formula_sum   'Y4 Ga4 Cu1 Ru3'
_cell_volume   231.70209683
_cell_formula_units_Z   1
loop_
 _symmetry_equiv_pos_site_id
 _symmetry_equiv_pos_as_xyz
  1  'x, y, z'
loop_
 _atom_site_type_symbol
 _atom_site_label
 _atom_site_symmetry_multiplicity
 _atom_site_fract_x
 _atom_site_fract_y
 _atom_site_fract_z
 _atom_site_occupancy
  Y  Y0  1  0.250000  0.018101  0.802003  1
  Y  Y1  1  0.250000  0.515926  0.693091  1
  Y  Y2  1  0.750000  0.991944  0.201714  1
  Y  Y3  1  0.750000  0.483518  0.305965  1
  Ga  Ga4  1  0.250000  0.201451  0.401646  1
  Ga  Ga5  1  0.250000  0.691844  0.108700  1
  Ga  Ga6  1  0.750000  0.795617  0.595954  1
  Ga  Ga7  1  0.750000  0.303814  0.895608  1
  Cu  Cu8  1  0.750000  0.671759  0.931007  1
  Ru  Ru9  1  0.250000  0.838750  0.433446  1
  Ru  Ru10  1  0.250000  0.327739  0.062772  1
  Ru  Ru11  1  0.750000  0.159538  0.568096  1
