# generated using pymatgen
data_Na3Er(PO4)2
_symmetry_space_group_name_H-M   'P 1'
_cell_length_a   5.27440749
_cell_length_b   5.27440748
_cell_length_c   7.14778552
_cell_angle_alpha   89.84424265
_cell_angle_beta   89.84424291
_cell_angle_gamma   64.61939778
_symmetry_Int_Tables_number   1
_chemical_formula_structural   Na3Er(PO4)2
_chemical_formula_sum   'Na3 Er1 P2 O8'
_cell_volume   179.65337794
_cell_formula_units_Z   1
loop_
 _symmetry_equiv_pos_site_id
 _symmetry_equiv_pos_as_xyz
  1  'x, y, z'
loop_
 _atom_site_type_symbol
 _atom_site_label
 _atom_site_symmetry_multiplicity
 _atom_site_fract_x
 _atom_site_fract_y
 _atom_site_fract_z
 _atom_site_occupancy
  Na  Na0  1  0.686308  0.686308  0.285978  1
  Na  Na1  1  0.000000  0.000000  0.500000  1
  Na  Na2  1  0.313692  0.313692  0.714022  1
  Er  Er3  1  0.000000  0.000000  0.000000  1
  P  P4  1  0.653140  0.653140  0.773026  1
  P  P5  1  0.346860  0.346860  0.226974  1
  O  O6  1  0.249137  0.249137  0.402556  1
  O  O7  1  0.750863  0.750863  0.597444  1
  O  O8  1  0.227158  0.676744  0.223612  1
  O  O9  1  0.323256  0.772842  0.776388  1
  O  O10  1  0.772842  0.323256  0.776388  1
  O  O11  1  0.676744  0.227158  0.223612  1
  O  O12  1  0.247152  0.247152  0.049223  1
  O  O13  1  0.752848  0.752848  0.950777  1
