# generated using pymatgen
data_YbCe7(Pt2Pb)4
_symmetry_space_group_name_H-M   'P 1'
_cell_length_a   7.99973090
_cell_length_b   7.99973090
_cell_length_c   7.38563300
_cell_angle_alpha   90.00000000
_cell_angle_beta   90.00000000
_cell_angle_gamma   90.34329972
_symmetry_Int_Tables_number   1
_chemical_formula_structural   YbCe7(Pt2Pb)4
_chemical_formula_sum   'Yb1 Ce7 Pt8 Pb4'
_cell_volume   472.64022872
_cell_formula_units_Z   1
loop_
 _symmetry_equiv_pos_site_id
 _symmetry_equiv_pos_as_xyz
  1  'x, y, z'
loop_
 _atom_site_type_symbol
 _atom_site_label
 _atom_site_symmetry_multiplicity
 _atom_site_fract_x
 _atom_site_fract_y
 _atom_site_fract_z
 _atom_site_occupancy
  Yb  Yb0  1  0.171322  0.828678  0.500000  1
  Ce  Ce1  1  0.673940  0.673433  0.000000  1
  Ce  Ce2  1  0.328546  0.331534  0.500000  1
  Ce  Ce3  1  0.828252  0.171748  0.500000  1
  Ce  Ce4  1  0.668466  0.671454  0.500000  1
  Ce  Ce5  1  0.326567  0.326060  0.000000  1
  Ce  Ce6  1  0.831922  0.168078  0.000000  1
  Ce  Ce7  1  0.171271  0.828729  0.000000  1
  Pt  Pt8  1  0.870047  0.873137  0.748536  1
  Pt  Pt9  1  0.126863  0.129953  0.748536  1
  Pt  Pt10  1  0.629949  0.370051  0.753893  1
  Pt  Pt11  1  0.629949  0.370051  0.246107  1
  Pt  Pt12  1  0.375667  0.624333  0.243735  1
  Pt  Pt13  1  0.126863  0.129953  0.251464  1
  Pt  Pt14  1  0.870047  0.873137  0.251464  1
  Pt  Pt15  1  0.375667  0.624333  0.756265  1
  Pb  Pb16  1  0.495393  0.998062  0.746258  1
  Pb  Pb17  1  0.495393  0.998062  0.253742  1
  Pb  Pb18  1  0.001938  0.504607  0.746258  1
  Pb  Pb19  1  0.001938  0.504607  0.253742  1
