# generated using pymatgen
data_DyEr4Zr3(Co4As3)4
_symmetry_space_group_name_H-M   'P 1'
_cell_length_a   12.72091300
_cell_length_b   12.72091391
_cell_length_c   3.82516500
_cell_angle_alpha   90.00000000
_cell_angle_beta   90.00000000
_cell_angle_gamma   120.00000544
_symmetry_Int_Tables_number   1
_chemical_formula_structural   DyEr4Zr3(Co4As3)4
_chemical_formula_sum   'Dy1 Er4 Zr3 Co16 As12'
_cell_volume   536.06490657
_cell_formula_units_Z   1
loop_
 _symmetry_equiv_pos_site_id
 _symmetry_equiv_pos_as_xyz
  1  'x, y, z'
loop_
 _atom_site_type_symbol
 _atom_site_label
 _atom_site_symmetry_multiplicity
 _atom_site_fract_x
 _atom_site_fract_y
 _atom_site_fract_z
 _atom_site_occupancy
  Dy  Dy0  1  0.333333  0.666667  0.000000  1
  Er  Er1  1  0.182528  0.182572  0.500000  1
  Er  Er2  1  0.817428  0.999956  0.500000  1
  Er  Er3  1  0.000044  0.817472  0.500000  1
  Er  Er4  1  0.666667  0.333333  0.000000  1
  Zr  Zr5  1  0.561031  0.560926  0.000000  1
  Zr  Zr6  1  0.439074  0.000104  0.000000  1
  Zr  Zr7  1  0.999896  0.438969  0.000000  1
  Co  Co8  1  0.720406  0.720359  0.500000  1
  Co  Co9  1  0.279641  0.000047  0.500000  1
  Co  Co10  1  0.999953  0.279594  0.500000  1
  Co  Co11  1  0.177688  0.373133  0.000000  1
  Co  Co12  1  0.626867  0.804554  0.000000  1
  Co  Co13  1  0.195446  0.822312  0.000000  1
  Co  Co14  1  0.804496  0.626677  0.000000  1
  Co  Co15  1  0.822181  0.195504  0.000000  1
  Co  Co16  1  0.373323  0.177819  0.000000  1
  Co  Co17  1  0.357424  0.479692  0.500000  1
  Co  Co18  1  0.520308  0.877732  0.500000  1
  Co  Co19  1  0.122268  0.642576  0.500000  1
  Co  Co20  1  0.877280  0.519893  0.500000  1
  Co  Co21  1  0.642614  0.122720  0.500000  1
  Co  Co22  1  0.480107  0.357386  0.500000  1
  Co  Co23  1  0.000000  0.000000  0.000000  1
  As  As24  1  0.823140  0.823121  0.000000  1
  As  As25  1  0.176879  0.000019  0.000000  1
  As  As26  1  0.999981  0.176860  0.000000  1
  As  As27  1  0.173264  0.481373  0.500000  1
  As  As28  1  0.518627  0.691891  0.500000  1
  As  As29  1  0.308109  0.826736  0.500000  1
  As  As30  1  0.691762  0.517870  0.500000  1
  As  As31  1  0.826108  0.308238  0.500000  1
  As  As32  1  0.482130  0.173892  0.500000  1
  As  As33  1  0.351307  0.351383  0.000000  1
  As  As34  1  0.648617  0.999924  0.000000  1
  As  As35  1  0.000076  0.648693  0.000000  1
