# generated using pymatgen
data_CaLu(Si7Rh3)2
_symmetry_space_group_name_H-M   'P 1'
_cell_length_a   7.97596864
_cell_length_b   7.97596719
_cell_length_c   7.97596853
_cell_angle_alpha   57.08753051
_cell_angle_beta   57.08752834
_cell_angle_gamma   57.08751512
_symmetry_Int_Tables_number   1
_chemical_formula_structural   CaLu(Si7Rh3)2
_chemical_formula_sum   'Ca1 Lu1 Si14 Rh6'
_cell_volume   334.70200210
_cell_formula_units_Z   1
loop_
 _symmetry_equiv_pos_site_id
 _symmetry_equiv_pos_as_xyz
  1  'x, y, z'
loop_
 _atom_site_type_symbol
 _atom_site_label
 _atom_site_symmetry_multiplicity
 _atom_site_fract_x
 _atom_site_fract_y
 _atom_site_fract_z
 _atom_site_occupancy
  Ca  Ca0  1  0.000000  0.000000  0.000000  1
  Lu  Lu1  1  0.500000  0.500000  0.500000  1
  Si  Si2  1  0.750020  0.750020  0.750020  1
  Si  Si3  1  0.249980  0.249980  0.249980  1
  Si  Si4  1  0.851151  0.066395  0.672387  1
  Si  Si5  1  0.672387  0.851151  0.066395  1
  Si  Si6  1  0.066395  0.672387  0.851151  1
  Si  Si7  1  0.648747  0.827543  0.434467  1
  Si  Si8  1  0.434467  0.648747  0.827543  1
  Si  Si9  1  0.827543  0.434467  0.648747  1
  Si  Si10  1  0.172457  0.565533  0.351253  1
  Si  Si11  1  0.565533  0.351253  0.172457  1
  Si  Si12  1  0.351253  0.172457  0.565533  1
  Si  Si13  1  0.933605  0.327613  0.148849  1
  Si  Si14  1  0.327613  0.148849  0.933605  1
  Si  Si15  1  0.148849  0.933605  0.327613  1
  Rh  Rh16  1  0.073058  0.431498  0.747557  1
  Rh  Rh17  1  0.252443  0.926942  0.568502  1
  Rh  Rh18  1  0.568502  0.252443  0.926942  1
  Rh  Rh19  1  0.926942  0.568502  0.252443  1
  Rh  Rh20  1  0.431498  0.747557  0.073058  1
  Rh  Rh21  1  0.747557  0.073058  0.431498  1
