# generated using pymatgen
data_Ac3Cd3IrPd2
_symmetry_space_group_name_H-M   'P 1'
_cell_length_a   7.96655200
_cell_length_b   7.96655078
_cell_length_c   4.15801500
_cell_angle_alpha   90.00000000
_cell_angle_beta   90.00000000
_cell_angle_gamma   120.00000508
_symmetry_Int_Tables_number   1
_chemical_formula_structural   Ac3Cd3IrPd2
_chemical_formula_sum   'Ac3 Cd3 Ir1 Pd2'
_cell_volume   228.53745407
_cell_formula_units_Z   1
loop_
 _symmetry_equiv_pos_site_id
 _symmetry_equiv_pos_as_xyz
  1  'x, y, z'
loop_
 _atom_site_type_symbol
 _atom_site_label
 _atom_site_symmetry_multiplicity
 _atom_site_fract_x
 _atom_site_fract_y
 _atom_site_fract_z
 _atom_site_occupancy
  Ac  Ac0  1  0.415926  0.403804  0.500000  1
  Ac  Ac1  1  0.987878  0.584074  0.500000  1
  Ac  Ac2  1  0.596196  0.012122  0.500000  1
  Cd  Cd3  1  0.752680  0.756527  0.000000  1
  Cd  Cd4  1  0.243473  0.996155  0.000000  1
  Cd  Cd5  1  0.003845  0.247320  0.000000  1
  Ir  Ir6  1  0.666667  0.333333  0.000000  1
  Pd  Pd7  1  0.000000  0.000000  0.500000  1
  Pd  Pd8  1  0.333333  0.666667  0.000000  1
