# generated using pymatgen
data_Hf10Sn5BiB2
_symmetry_space_group_name_H-M   'P 1'
_cell_length_a   8.49196400
_cell_length_b   8.49196374
_cell_length_c   5.74755100
_cell_angle_alpha   90.00000000
_cell_angle_beta   90.00000000
_cell_angle_gamma   120.07253680
_symmetry_Int_Tables_number   1
_chemical_formula_structural   Hf10Sn5BiB2
_chemical_formula_sum   'Hf10 Sn5 Bi1 B2'
_cell_volume   358.68386293
_cell_formula_units_Z   1
loop_
 _symmetry_equiv_pos_site_id
 _symmetry_equiv_pos_as_xyz
  1  'x, y, z'
loop_
 _atom_site_type_symbol
 _atom_site_label
 _atom_site_symmetry_multiplicity
 _atom_site_fract_x
 _atom_site_fract_y
 _atom_site_fract_z
 _atom_site_occupancy
  Hf  Hf0  1  0.668176  0.332363  0.001772  1
  Hf  Hf1  1  0.332363  0.668176  0.001772  1
  Hf  Hf2  1  0.332363  0.668176  0.498228  1
  Hf  Hf3  1  0.668176  0.332363  0.498228  1
  Hf  Hf4  1  0.775055  0.775055  0.750000  1
  Hf  Hf5  1  0.226094  0.995742  0.750000  1
  Hf  Hf6  1  0.995742  0.226094  0.750000  1
  Hf  Hf7  1  0.227296  0.227296  0.250000  1
  Hf  Hf8  1  0.772097  0.000266  0.250000  1
  Hf  Hf9  1  0.000266  0.772097  0.250000  1
  Sn  Sn10  1  0.599192  0.999124  0.750000  1
  Sn  Sn11  1  0.999124  0.599192  0.750000  1
  Sn  Sn12  1  0.601873  0.601873  0.250000  1
  Sn  Sn13  1  0.400072  0.000354  0.250000  1
  Sn  Sn14  1  0.000354  0.400072  0.250000  1
  Bi  Bi15  1  0.400376  0.400376  0.750000  1
  B  B16  1  0.000691  0.000691  0.999975  1
  B  B17  1  0.000691  0.000691  0.500025  1
