# generated using pymatgen
data_DyMnAl8FeCu2
_symmetry_space_group_name_H-M   'P 1'
_cell_length_a   6.67756621
_cell_length_b   6.69182186
_cell_length_c   6.70598214
_cell_angle_alpha   98.37934233
_cell_angle_beta   98.27414953
_cell_angle_gamma   135.18949859
_symmetry_Int_Tables_number   1
_chemical_formula_structural   DyMnAl8FeCu2
_chemical_formula_sum   'Dy1 Mn1 Al8 Fe1 Cu2'
_cell_volume   195.35051105
_cell_formula_units_Z   1
loop_
 _symmetry_equiv_pos_site_id
 _symmetry_equiv_pos_as_xyz
  1  'x, y, z'
loop_
 _atom_site_type_symbol
 _atom_site_label
 _atom_site_symmetry_multiplicity
 _atom_site_fract_x
 _atom_site_fract_y
 _atom_site_fract_z
 _atom_site_occupancy
  Dy  Dy0  1  0.000000  0.000000  0.000000  1
  Mn  Mn1  1  0.500000  0.000000  0.000000  1
  Al  Al2  1  0.009896  0.654386  0.664017  1
  Al  Al3  1  0.345879  0.990369  0.335983  1
  Al  Al4  1  0.654121  0.009631  0.664017  1
  Al  Al5  1  0.990104  0.345614  0.335983  1
  Al  Al6  1  0.496220  0.719906  0.216623  1
  Al  Al7  1  0.503780  0.280094  0.783377  1
  Al  Al8  1  0.720404  0.496717  0.216623  1
  Al  Al9  1  0.279596  0.503283  0.783377  1
  Fe  Fe10  1  0.000000  0.500000  0.000000  1
  Cu  Cu11  1  0.500000  0.500000  0.500000  1
  Cu  Cu12  1  0.000000  0.000000  0.500000  1
