# generated using pymatgen
data_Tb5Er(MoO7)2
_symmetry_space_group_name_H-M   'P 1'
_cell_length_a   6.53333515
_cell_length_b   6.43693903
_cell_length_c   7.49585582
_cell_angle_alpha   90.03796695
_cell_angle_beta   89.95185233
_cell_angle_gamma   108.80253966
_symmetry_Int_Tables_number   1
_chemical_formula_structural   Tb5Er(MoO7)2
_chemical_formula_sum   'Tb5 Er1 Mo2 O14'
_cell_volume   298.41312021
_cell_formula_units_Z   1
loop_
 _symmetry_equiv_pos_site_id
 _symmetry_equiv_pos_as_xyz
  1  'x, y, z'
loop_
 _atom_site_type_symbol
 _atom_site_label
 _atom_site_symmetry_multiplicity
 _atom_site_fract_x
 _atom_site_fract_y
 _atom_site_fract_z
 _atom_site_occupancy
  Tb  Tb0  1  0.000446  0.461712  0.745498  1
  Tb  Tb1  1  0.532947  0.001192  0.753764  1
  Tb  Tb2  1  0.533209  0.526996  0.500980  1
  Tb  Tb3  1  0.471200  0.474873  0.002076  1
  Tb  Tb4  1  0.466797  0.999220  0.256701  1
  Er  Er5  1  0.000925  0.538891  0.241831  1
  Mo  Mo6  1  0.001303  0.001585  0.499833  1
  Mo  Mo7  1  0.998735  0.998557  0.001346  1
  O  O8  1  0.075897  0.925987  0.250083  1
  O  O9  1  0.037456  0.302450  0.455382  1
  O  O10  1  0.077926  0.324793  0.029331  1
  O  O11  1  0.354890  0.631388  0.254519  1
  O  O12  1  0.365885  0.627110  0.747989  1
  O  O13  1  0.327108  0.085745  0.974609  1
  O  O14  1  0.318678  0.077848  0.533553  1
  O  O15  1  0.685003  0.927152  0.035479  1
  O  O16  1  0.668519  0.911462  0.476364  1
  O  O17  1  0.638940  0.375482  0.247110  1
  O  O18  1  0.642165  0.368606  0.753584  1
  O  O19  1  0.924532  0.677849  0.525402  1
  O  O20  1  0.951788  0.689318  0.963884  1
  O  O21  1  0.925647  0.071782  0.750682  1
