# generated using pymatgen
data_TbHo2In3IrPd2
_symmetry_space_group_name_H-M   'P 1'
_cell_length_a   7.74345742
_cell_length_b   7.73899740
_cell_length_c   3.79684800
_cell_angle_alpha   90.00000000
_cell_angle_beta   90.00000000
_cell_angle_gamma   120.05703127
_symmetry_Int_Tables_number   1
_chemical_formula_structural   TbHo2In3IrPd2
_chemical_formula_sum   'Tb1 Ho2 In3 Ir1 Pd2'
_cell_volume   196.93530924
_cell_formula_units_Z   1
loop_
 _symmetry_equiv_pos_site_id
 _symmetry_equiv_pos_as_xyz
  1  'x, y, z'
loop_
 _atom_site_type_symbol
 _atom_site_label
 _atom_site_symmetry_multiplicity
 _atom_site_fract_x
 _atom_site_fract_y
 _atom_site_fract_z
 _atom_site_occupancy
  Tb  Tb0  1  0.583373  0.599884  0.000000  1
  Ho  Ho1  1  0.399765  0.983064  0.000000  1
  Ho  Ho2  1  0.017072  0.416943  0.000000  1
  In  In3  1  0.996627  0.735690  0.500000  1
  In  In4  1  0.263738  0.259696  0.500000  1
  In  In5  1  0.739697  0.004632  0.500000  1
  Ir  Ir6  1  0.332344  0.667003  0.500000  1
  Pd  Pd7  1  0.000476  0.000517  0.000000  1
  Pd  Pd8  1  0.666907  0.332571  0.500000  1
