# generated using pymatgen
data_Dy10AlSb5
_symmetry_space_group_name_H-M   'P 1'
_cell_length_a   6.38786700
_cell_length_b   8.96104560
_cell_length_c   8.93961727
_cell_angle_alpha   120.07933595
_cell_angle_beta   90.00023867
_cell_angle_gamma   89.99952007
_symmetry_Int_Tables_number   1
_chemical_formula_structural   Dy10AlSb5
_chemical_formula_sum   'Dy10 Al1 Sb5'
_cell_volume   442.80892124
_cell_formula_units_Z   1
loop_
 _symmetry_equiv_pos_site_id
 _symmetry_equiv_pos_as_xyz
  1  'x, y, z'
loop_
 _atom_site_type_symbol
 _atom_site_label
 _atom_site_symmetry_multiplicity
 _atom_site_fract_x
 _atom_site_fract_y
 _atom_site_fract_z
 _atom_site_occupancy
  Dy  Dy0  1  0.500887  0.337979  0.672841  1
  Dy  Dy1  1  0.500887  0.665139  0.327159  1
  Dy  Dy2  1  0.999113  0.665143  0.327162  1
  Dy  Dy3  1  0.999113  0.337981  0.672838  1
  Dy  Dy4  1  0.749999  0.248601  0.000000  1
  Dy  Dy5  1  0.749999  0.754140  0.762735  1
  Dy  Dy6  1  0.749999  0.991405  0.237265  1
  Dy  Dy7  1  0.249999  0.756648  0.000000  1
  Dy  Dy8  1  0.250000  0.245110  0.244661  1
  Dy  Dy9  1  0.250000  0.000449  0.755339  1
  Al  Al10  1  0.749998  0.604963  0.000000  1
  Sb  Sb11  1  0.750003  0.388722  0.390416  1
  Sb  Sb12  1  0.750003  0.998306  0.609584  1
  Sb  Sb13  1  0.249998  0.392179  0.000000  1
  Sb  Sb14  1  0.250001  0.610765  0.608293  1
  Sb  Sb15  1  0.250001  0.002472  0.391707  1
