# generated using pymatgen
data_Ba4ScReTeO12
_symmetry_space_group_name_H-M   'P 1'
_cell_length_a   10.07673521
_cell_length_b   10.07673535
_cell_length_c   10.07673524
_cell_angle_alpha   33.67567197
_cell_angle_beta   33.67567131
_cell_angle_gamma   33.67567018
_symmetry_Int_Tables_number   1
_chemical_formula_structural   Ba4ScReTeO12
_chemical_formula_sum   'Ba4 Sc1 Re1 Te1 O12'
_cell_volume   280.26981679
_cell_formula_units_Z   1
loop_
 _symmetry_equiv_pos_site_id
 _symmetry_equiv_pos_as_xyz
  1  'x, y, z'
loop_
 _atom_site_type_symbol
 _atom_site_label
 _atom_site_symmetry_multiplicity
 _atom_site_fract_x
 _atom_site_fract_y
 _atom_site_fract_z
 _atom_site_occupancy
  Ba  Ba0  1  0.709047  0.709047  0.709047  1
  Ba  Ba1  1  0.288435  0.288435  0.288435  1
  Ba  Ba2  1  0.870115  0.870115  0.870115  1
  Ba  Ba3  1  0.138668  0.138668  0.138668  1
  Sc  Sc4  1  0.000056  0.000056  0.000056  1
  Re  Re5  1  0.418534  0.418534  0.418534  1
  Te  Te6  1  0.581272  0.581272  0.581272  1
  O  O7  1  0.384532  0.384532  0.869465  1
  O  O8  1  0.869465  0.384532  0.384532  1
  O  O9  1  0.384532  0.869465  0.384532  1
  O  O10  1  0.606840  0.606840  0.141723  1
  O  O11  1  0.141723  0.606840  0.606840  1
  O  O12  1  0.606840  0.141723  0.606840  1
  O  O13  1  0.217937  0.217937  0.691167  1
  O  O14  1  0.691167  0.217937  0.217937  1
  O  O15  1  0.217937  0.691167  0.217937  1
  O  O16  1  0.783394  0.783394  0.306114  1
  O  O17  1  0.306114  0.783394  0.783394  1
  O  O18  1  0.783394  0.306114  0.783394  1
