# generated using pymatgen
data_Ho(TcO4)3
_symmetry_space_group_name_H-M   'P 1'
_cell_length_a   9.97114900
_cell_length_b   9.97114796
_cell_length_c   6.22343000
_cell_angle_alpha   90.00000000
_cell_angle_beta   90.00000000
_cell_angle_gamma   120.00000500
_symmetry_Int_Tables_number   1
_chemical_formula_structural   Ho(TcO4)3
_chemical_formula_sum   'Ho2 Tc6 O24'
_cell_volume   535.85931605
_cell_formula_units_Z   2
loop_
 _symmetry_equiv_pos_site_id
 _symmetry_equiv_pos_as_xyz
  1  'x, y, z'
loop_
 _atom_site_type_symbol
 _atom_site_label
 _atom_site_symmetry_multiplicity
 _atom_site_fract_x
 _atom_site_fract_y
 _atom_site_fract_z
 _atom_site_occupancy
  Ho  Ho0  1  0.666667  0.333333  0.750000  1
  Ho  Ho1  1  0.333333  0.666667  0.250000  1
  Tc  Tc2  1  0.604820  0.702282  0.750000  1
  Tc  Tc3  1  0.097462  0.395180  0.750000  1
  Tc  Tc4  1  0.297718  0.902538  0.750000  1
  Tc  Tc5  1  0.395180  0.297718  0.250000  1
  Tc  Tc6  1  0.902538  0.604820  0.250000  1
  Tc  Tc7  1  0.702282  0.097462  0.250000  1
  O  O8  1  0.560311  0.509309  0.750000  1
  O  O9  1  0.948997  0.439689  0.750000  1
  O  O10  1  0.490691  0.051003  0.750000  1
  O  O11  1  0.439689  0.490691  0.250000  1
  O  O12  1  0.051003  0.560311  0.250000  1
  O  O13  1  0.509309  0.948997  0.250000  1
  O  O14  1  0.474603  0.260860  0.020580  1
  O  O15  1  0.786256  0.525397  0.020580  1
  O  O16  1  0.739140  0.213744  0.020580  1
  O  O17  1  0.525397  0.739140  0.520580  1
  O  O18  1  0.213744  0.474603  0.520580  1
  O  O19  1  0.260860  0.786256  0.520580  1
  O  O20  1  0.525397  0.739140  0.979420  1
  O  O21  1  0.213744  0.474603  0.979420  1
  O  O22  1  0.260860  0.786256  0.979420  1
  O  O23  1  0.474603  0.260860  0.479420  1
  O  O24  1  0.786256  0.525397  0.479420  1
  O  O25  1  0.739140  0.213744  0.479420  1
  O  O26  1  0.800610  0.820796  0.750000  1
  O  O27  1  0.020186  0.199390  0.750000  1
  O  O28  1  0.179204  0.979814  0.750000  1
  O  O29  1  0.199390  0.179204  0.250000  1
  O  O30  1  0.979814  0.800610  0.250000  1
  O  O31  1  0.820796  0.020186  0.250000  1
