# generated using pymatgen
data_TmTh3Co7Ni7B6
_symmetry_space_group_name_H-M   'P 1'
_cell_length_a   5.02564346
_cell_length_b   5.01702876
_cell_length_c   13.20792500
_cell_angle_alpha   90.00000000
_cell_angle_beta   90.00000000
_cell_angle_gamma   119.94332396
_symmetry_Int_Tables_number   1
_chemical_formula_structural   TmTh3Co7Ni7B6
_chemical_formula_sum   'Tm1 Th3 Co7 Ni7 B6'
_cell_volume   288.57003749
_cell_formula_units_Z   1
loop_
 _symmetry_equiv_pos_site_id
 _symmetry_equiv_pos_as_xyz
  1  'x, y, z'
loop_
 _atom_site_type_symbol
 _atom_site_label
 _atom_site_symmetry_multiplicity
 _atom_site_fract_x
 _atom_site_fract_y
 _atom_site_fract_z
 _atom_site_occupancy
  Tm  Tm0  1  0.000000  0.000000  0.499508  1
  Th  Th1  1  0.000000  0.000000  0.003069  1
  Th  Th2  1  0.000000  0.000000  0.735511  1
  Th  Th3  1  0.000000  0.000000  0.264101  1
  Co  Co4  1  0.000000  0.500000  0.160551  1
  Co  Co5  1  0.500000  0.500000  0.612936  1
  Co  Co6  1  0.500000  0.000000  0.612936  1
  Co  Co7  1  0.000000  0.500000  0.613447  1
  Co  Co8  1  0.500000  0.500000  0.386807  1
  Co  Co9  1  0.500000  0.000000  0.386807  1
  Co  Co10  1  0.000000  0.500000  0.385921  1
  Ni  Ni11  1  0.673830  0.336914  0.000434  1
  Ni  Ni12  1  0.326170  0.663086  0.000434  1
  Ni  Ni13  1  0.500000  0.500000  0.843210  1
  Ni  Ni14  1  0.500000  0.000000  0.843210  1
  Ni  Ni15  1  0.000000  0.500000  0.842858  1
  Ni  Ni16  1  0.500000  0.500000  0.156151  1
  Ni  Ni17  1  0.500000  0.000000  0.156151  1
  B  B18  1  0.666504  0.333252  0.499469  1
  B  B19  1  0.333496  0.666748  0.499469  1
  B  B20  1  0.665595  0.332797  0.727441  1
  B  B21  1  0.334405  0.667203  0.727441  1
  B  B22  1  0.333062  0.666531  0.271069  1
  B  B23  1  0.666938  0.333469  0.271069  1
