# generated using pymatgen
data_Lu9Ge4B16Rh
_symmetry_space_group_name_H-M   'P 1'
_cell_length_a   7.07405400
_cell_length_b   7.07405400
_cell_length_c   7.73614300
_cell_angle_alpha   90.00000000
_cell_angle_beta   90.00000000
_cell_angle_gamma   90.00000000
_symmetry_Int_Tables_number   1
_chemical_formula_structural   Lu9Ge4B16Rh
_chemical_formula_sum   'Lu9 Ge4 B16 Rh1'
_cell_volume   387.13392464
_cell_formula_units_Z   1
loop_
 _symmetry_equiv_pos_site_id
 _symmetry_equiv_pos_as_xyz
  1  'x, y, z'
loop_
 _atom_site_type_symbol
 _atom_site_label
 _atom_site_symmetry_multiplicity
 _atom_site_fract_x
 _atom_site_fract_y
 _atom_site_fract_z
 _atom_site_occupancy
  Lu  Lu0  1  0.680146  0.179304  0.225955  1
  Lu  Lu1  1  0.319854  0.820696  0.774045  1
  Lu  Lu2  1  0.319854  0.820696  0.225955  1
  Lu  Lu3  1  0.820696  0.680146  0.225955  1
  Lu  Lu4  1  0.820696  0.680146  0.774045  1
  Lu  Lu5  1  0.680146  0.179304  0.774045  1
  Lu  Lu6  1  0.179304  0.319854  0.774045  1
  Lu  Lu7  1  0.179304  0.319854  0.225955  1
  Lu  Lu8  1  0.500000  0.500000  0.500000  1
  Ge  Ge9  1  0.119411  0.632590  0.500000  1
  Ge  Ge10  1  0.880589  0.367410  0.500000  1
  Ge  Ge11  1  0.367410  0.119411  0.500000  1
  Ge  Ge12  1  0.632590  0.880589  0.500000  1
  B  B13  1  0.174038  0.038718  0.000000  1
  B  B14  1  0.825962  0.961282  0.000000  1
  B  B15  1  0.961282  0.174038  0.000000  1
  B  B16  1  0.327406  0.541058  0.000000  1
  B  B17  1  0.038718  0.825962  0.000000  1
  B  B18  1  0.672594  0.458942  0.000000  1
  B  B19  1  0.541058  0.672594  0.000000  1
  B  B20  1  0.458942  0.327406  0.000000  1
  B  B21  1  0.088948  0.588770  0.000000  1
  B  B22  1  0.911052  0.411230  0.000000  1
  B  B23  1  0.411230  0.088948  0.000000  1
  B  B24  1  0.588770  0.911052  0.000000  1
  B  B25  1  0.000000  0.000000  0.170103  1
  B  B26  1  0.000000  0.000000  0.829897  1
  B  B27  1  0.500000  0.500000  0.830240  1
  B  B28  1  0.500000  0.500000  0.169760  1
  Rh  Rh29  1  0.000000  0.000000  0.500000  1
