# generated using pymatgen
data_Ca2(CuAu2)3
_symmetry_space_group_name_H-M   'P 1'
_cell_length_a   8.65663447
_cell_length_b   8.65663377
_cell_length_c   8.65663311
_cell_angle_alpha   57.09485917
_cell_angle_beta   57.09485832
_cell_angle_gamma   57.09485954
_symmetry_Int_Tables_number   1
_chemical_formula_structural   Ca2(CuAu2)3
_chemical_formula_sum   'Ca4 Cu6 Au12'
_cell_volume   427.99140338
_cell_formula_units_Z   2
loop_
 _symmetry_equiv_pos_site_id
 _symmetry_equiv_pos_as_xyz
  1  'x, y, z'
loop_
 _atom_site_type_symbol
 _atom_site_label
 _atom_site_symmetry_multiplicity
 _atom_site_fract_x
 _atom_site_fract_y
 _atom_site_fract_z
 _atom_site_occupancy
  Ca  Ca0  1  0.907840  0.907840  0.907840  1
  Ca  Ca1  1  0.407840  0.407840  0.407840  1
  Ca  Ca2  1  0.092160  0.092160  0.092160  1
  Ca  Ca3  1  0.592160  0.592160  0.592160  1
  Cu  Cu4  1  0.571703  0.750000  0.928297  1
  Cu  Cu5  1  0.928297  0.571703  0.750000  1
  Cu  Cu6  1  0.750000  0.928297  0.571703  1
  Cu  Cu7  1  0.428297  0.250000  0.071703  1
  Cu  Cu8  1  0.071703  0.428297  0.250000  1
  Cu  Cu9  1  0.250000  0.071703  0.428297  1
  Au  Au10  1  0.480798  0.861969  0.203629  1
  Au  Au11  1  0.203629  0.480798  0.861969  1
  Au  Au12  1  0.861969  0.203629  0.480798  1
  Au  Au13  1  0.703629  0.361969  0.980798  1
  Au  Au14  1  0.980798  0.703629  0.361969  1
  Au  Au15  1  0.361969  0.980798  0.703629  1
  Au  Au16  1  0.519202  0.138031  0.796371  1
  Au  Au17  1  0.796371  0.519202  0.138031  1
  Au  Au18  1  0.138031  0.796371  0.519202  1
  Au  Au19  1  0.296371  0.638031  0.019202  1
  Au  Au20  1  0.019202  0.296371  0.638031  1
  Au  Au21  1  0.638031  0.019202  0.296371  1
