# generated using pymatgen
data_Dy5Ho3Sc12Si15Pb
_symmetry_space_group_name_H-M   'P 1'
_cell_length_a   7.12740092
_cell_length_b   7.41439423
_cell_length_c   14.05888709
_cell_angle_alpha   89.99579347
_cell_angle_beta   89.53181136
_cell_angle_gamma   90.04564305
_symmetry_Int_Tables_number   1
_chemical_formula_structural   Dy5Ho3Sc12Si15Pb
_chemical_formula_sum   'Dy5 Ho3 Sc12 Si15 Pb1'
_cell_volume   742.92191082
_cell_formula_units_Z   1
loop_
 _symmetry_equiv_pos_site_id
 _symmetry_equiv_pos_as_xyz
  1  'x, y, z'
loop_
 _atom_site_type_symbol
 _atom_site_label
 _atom_site_symmetry_multiplicity
 _atom_site_fract_x
 _atom_site_fract_y
 _atom_site_fract_z
 _atom_site_occupancy
  Dy  Dy0  1  0.012713  0.175931  0.096719  1
  Dy  Dy1  1  0.987559  0.824597  0.903967  1
  Dy  Dy2  1  0.488488  0.676381  0.903858  1
  Dy  Dy3  1  0.986969  0.832367  0.598510  1
  Dy  Dy4  1  0.511902  0.323704  0.097047  1
  Ho  Ho5  1  0.006030  0.168877  0.398475  1
  Ho  Ho6  1  0.514643  0.318983  0.398531  1
  Ho  Ho7  1  0.502971  0.685998  0.600321  1
  Sc  Sc8  1  0.161275  0.502596  0.756670  1
  Sc  Sc9  1  0.838236  0.497584  0.249406  1
  Sc  Sc10  1  0.338595  0.002645  0.249438  1
  Sc  Sc11  1  0.662682  0.997368  0.751480  1
  Sc  Sc12  1  0.342669  0.160043  0.631240  1
  Sc  Sc13  1  0.664821  0.825679  0.372679  1
  Sc  Sc14  1  0.164373  0.684109  0.368954  1
  Sc  Sc15  1  0.669159  0.823168  0.124232  1
  Sc  Sc16  1  0.820776  0.323066  0.626699  1
  Sc  Sc17  1  0.330152  0.175445  0.875350  1
  Sc  Sc18  1  0.830308  0.323441  0.875438  1
  Sc  Sc19  1  0.169433  0.676854  0.125103  1
  Si  Si20  1  0.033812  0.119058  0.751302  1
  Si  Si21  1  0.964542  0.885031  0.247040  1
  Si  Si22  1  0.466626  0.615742  0.248726  1
  Si  Si23  1  0.531292  0.385471  0.751564  1
  Si  Si24  1  0.285612  0.869722  0.752082  1
  Si  Si25  1  0.713548  0.126549  0.247819  1
  Si  Si26  1  0.212975  0.372741  0.249495  1
  Si  Si27  1  0.788852  0.627714  0.751186  1
  Si  Si28  1  0.826140  0.539257  0.458122  1
  Si  Si29  1  0.338767  0.964389  0.459905  1
  Si  Si30  1  0.842910  0.534541  0.039400  1
  Si  Si31  1  0.660736  0.037402  0.538115  1
  Si  Si32  1  0.156595  0.464823  0.961727  1
  Si  Si33  1  0.656552  0.035142  0.960598  1
  Si  Si34  1  0.342705  0.965190  0.039761  1
  Pb  Pb35  1  0.174579  0.458389  0.539041  1
