# generated using pymatgen
data_Tb6TcNi17As12
_symmetry_space_group_name_H-M   'P 1'
_cell_length_a   3.90563400
_cell_length_b   10.90512800
_cell_length_c   12.76344200
_cell_angle_alpha   90.00000000
_cell_angle_beta   90.00000000
_cell_angle_gamma   90.00000000
_symmetry_Int_Tables_number   1
_chemical_formula_structural   Tb6TcNi17As12
_chemical_formula_sum   'Tb6 Tc1 Ni17 As12'
_cell_volume   543.61335743
_cell_formula_units_Z   1
loop_
 _symmetry_equiv_pos_site_id
 _symmetry_equiv_pos_as_xyz
  1  'x, y, z'
loop_
 _atom_site_type_symbol
 _atom_site_label
 _atom_site_symmetry_multiplicity
 _atom_site_fract_x
 _atom_site_fract_y
 _atom_site_fract_z
 _atom_site_occupancy
  Tb  Tb0  1  0.000000  0.500000  0.524059  1
  Tb  Tb1  1  0.500000  0.000000  0.478564  1
  Tb  Tb2  1  0.500000  0.817108  0.207653  1
  Tb  Tb3  1  0.500000  0.182892  0.207653  1
  Tb  Tb4  1  0.000000  0.684649  0.793485  1
  Tb  Tb5  1  0.000000  0.315351  0.793485  1
  Tc  Tc6  1  0.500000  0.500000  0.151630  1
  Ni  Ni7  1  0.000000  0.000000  0.843937  1
  Ni  Ni8  1  0.500000  0.500000  0.700216  1
  Ni  Ni9  1  0.000000  0.000000  0.302362  1
  Ni  Ni10  1  0.000000  0.500000  0.982618  1
  Ni  Ni11  1  0.500000  0.000000  0.019568  1
  Ni  Ni12  1  0.500000  0.329059  0.992858  1
  Ni  Ni13  1  0.500000  0.670941  0.992858  1
  Ni  Ni14  1  0.000000  0.163611  0.003622  1
  Ni  Ni15  1  0.000000  0.836389  0.003622  1
  Ni  Ni16  1  0.500000  0.303724  0.426212  1
  Ni  Ni17  1  0.500000  0.696276  0.426212  1
  Ni  Ni18  1  0.000000  0.196616  0.573959  1
  Ni  Ni19  1  0.000000  0.803384  0.573959  1
  Ni  Ni20  1  0.500000  0.879292  0.707791  1
  Ni  Ni21  1  0.500000  0.120708  0.707791  1
  Ni  Ni22  1  0.000000  0.619369  0.290888  1
  Ni  Ni23  1  0.000000  0.380631  0.290888  1
  As  As24  1  0.500000  0.500000  0.878341  1
  As  As25  1  0.000000  0.000000  0.125420  1
  As  As26  1  0.500000  0.500000  0.346485  1
  As  As27  1  0.000000  0.000000  0.655481  1
  As  As28  1  0.500000  0.313616  0.613700  1
  As  As29  1  0.500000  0.686384  0.613700  1
  As  As30  1  0.000000  0.185927  0.387182  1
  As  As31  1  0.000000  0.814073  0.387182  1
  As  As32  1  0.500000  0.850232  0.890224  1
  As  As33  1  0.500000  0.149768  0.890224  1
  As  As34  1  0.000000  0.654734  0.108089  1
  As  As35  1  0.000000  0.345266  0.108089  1
