# generated using pymatgen
data_Hf5Ti3Al15Ru7
_symmetry_space_group_name_H-M   'P 1'
_cell_length_a   8.78146813
_cell_length_b   8.78192436
_cell_length_c   8.78210851
_cell_angle_alpha   120.21018080
_cell_angle_beta   120.00097811
_cell_angle_gamma   89.81789177
_symmetry_Int_Tables_number   1
_chemical_formula_structural   Hf5Ti3Al15Ru7
_chemical_formula_sum   'Hf5 Ti3 Al15 Ru7'
_cell_volume   478.12412103
_cell_formula_units_Z   1
loop_
 _symmetry_equiv_pos_site_id
 _symmetry_equiv_pos_as_xyz
  1  'x, y, z'
loop_
 _atom_site_type_symbol
 _atom_site_label
 _atom_site_symmetry_multiplicity
 _atom_site_fract_x
 _atom_site_fract_y
 _atom_site_fract_z
 _atom_site_occupancy
  Hf  Hf0  1  0.793384  0.284302  0.065842  1
  Hf  Hf1  1  0.218514  0.284362  0.490926  1
  Hf  Hf2  1  0.206756  0.706736  0.499994  1
  Hf  Hf3  1  0.218426  0.727539  0.934184  1
  Hf  Hf4  1  0.793367  0.727565  0.509037  1
  Ti  Ti5  1  0.776568  0.276530  0.500054  1
  Ti  Ti6  1  0.378956  0.121596  0.742557  1
  Ti  Ti7  1  0.379000  0.636410  0.257422  1
  Al  Al8  1  0.984736  0.484768  0.500001  1
  Al  Al9  1  0.164317  0.336707  0.172335  1
  Al  Al10  1  0.164354  0.991905  0.827618  1
  Al  Al11  1  0.152890  0.342764  0.810123  1
  Al  Al12  1  0.532577  0.342738  0.189857  1
  Al  Al13  1  0.840377  0.652063  0.811602  1
  Al  Al14  1  0.840440  0.028754  0.188342  1
  Al  Al15  1  0.834358  0.660366  0.173978  1
  Al  Al16  1  0.486500  0.660428  0.826114  1
  Al  Al17  1  0.387376  0.125167  0.262166  1
  Al  Al18  1  0.863042  0.125195  0.737880  1
  Al  Al19  1  0.620802  0.880489  0.259645  1
  Al  Al20  1  0.620845  0.361157  0.740359  1
  Al  Al21  1  0.617219  0.876384  0.740886  1
  Al  Al22  1  0.135476  0.876355  0.259127  1
  Ru  Ru23  1  0.999274  0.997860  0.500290  1
  Ru  Ru24  1  0.497639  0.997880  0.998646  1
  Ru  Ru25  1  0.497338  0.497352  0.999973  1
  Ru  Ru26  1  0.497508  0.498993  0.499717  1
  Ru  Ru27  1  0.999250  0.498984  0.001323  1
  Ru  Ru28  1  0.000673  0.000633  0.999991  1
  Ru  Ru29  1  0.498032  0.998010  0.500015  1
