# generated using pymatgen
data_Tb6TcPd
_symmetry_space_group_name_H-M   'P 1'
_cell_length_a   6.40452095
_cell_length_b   7.39500047
_cell_length_c   9.30298400
_cell_angle_alpha   90.00000000
_cell_angle_beta   90.00000000
_cell_angle_gamma   90.73365628
_symmetry_Int_Tables_number   1
_chemical_formula_structural   Tb6TcPd
_chemical_formula_sum   'Tb12 Tc2 Pd2'
_cell_volume   440.56655596
_cell_formula_units_Z   2
loop_
 _symmetry_equiv_pos_site_id
 _symmetry_equiv_pos_as_xyz
  1  'x, y, z'
loop_
 _atom_site_type_symbol
 _atom_site_label
 _atom_site_symmetry_multiplicity
 _atom_site_fract_x
 _atom_site_fract_y
 _atom_site_fract_z
 _atom_site_occupancy
  Tb  Tb0  1  0.631038  0.040904  0.250000  1
  Tb  Tb1  1  0.368962  0.959096  0.750000  1
  Tb  Tb2  1  0.125037  0.470382  0.750000  1
  Tb  Tb3  1  0.874963  0.529618  0.250000  1
  Tb  Tb4  1  0.175360  0.186577  0.064095  1
  Tb  Tb5  1  0.824640  0.813423  0.935905  1
  Tb  Tb6  1  0.661509  0.325929  0.940668  1
  Tb  Tb7  1  0.824640  0.813423  0.564095  1
  Tb  Tb8  1  0.338491  0.674071  0.059332  1
  Tb  Tb9  1  0.175360  0.186577  0.435905  1
  Tb  Tb10  1  0.338491  0.674071  0.440668  1
  Tb  Tb11  1  0.661509  0.325929  0.559332  1
  Tc  Tc12  1  0.464386  0.383591  0.250000  1
  Tc  Tc13  1  0.535614  0.616409  0.750000  1
  Pd  Pd14  1  0.942764  0.113816  0.750000  1
  Pd  Pd15  1  0.057236  0.886184  0.250000  1
