# generated using pymatgen
data_Tb3HfZn2Pt3
_symmetry_space_group_name_H-M   'P 1'
_cell_length_a   7.24437300
_cell_length_b   7.34483583
_cell_length_c   4.06470400
_cell_angle_alpha   90.00000000
_cell_angle_beta   90.00000000
_cell_angle_gamma   119.54856126
_symmetry_Int_Tables_number   1
_chemical_formula_structural   Tb3HfZn2Pt3
_chemical_formula_sum   'Tb3 Hf1 Zn2 Pt3'
_cell_volume   188.14823000
_cell_formula_units_Z   1
loop_
 _symmetry_equiv_pos_site_id
 _symmetry_equiv_pos_as_xyz
  1  'x, y, z'
loop_
 _atom_site_type_symbol
 _atom_site_label
 _atom_site_symmetry_multiplicity
 _atom_site_fract_x
 _atom_site_fract_y
 _atom_site_fract_z
 _atom_site_occupancy
  Tb  Tb0  1  0.617642  0.000000  0.000000  1
  Tb  Tb1  1  0.415988  0.432971  0.000000  1
  Tb  Tb2  1  0.983018  0.567029  0.000000  1
  Hf  Hf3  1  0.238149  0.000000  0.499999  1
  Zn  Zn4  1  0.002836  0.251818  0.499999  1
  Zn  Zn5  1  0.751017  0.748182  0.499999  1
  Pt  Pt6  1  0.011270  0.000000  0.000000  1
  Pt  Pt7  1  0.648701  0.317324  0.499999  1
  Pt  Pt8  1  0.331378  0.682676  0.499999  1
