# generated using pymatgen
data_TbYbDy2(ReC2)2
_symmetry_space_group_name_H-M   'P 1'
_cell_length_a   5.13548100
_cell_length_b   6.55620241
_cell_length_c   10.00090600
_cell_angle_alpha   88.94548566
_cell_angle_beta   90.00000000
_cell_angle_gamma   90.00000000
_symmetry_Int_Tables_number   1
_chemical_formula_structural   TbYbDy2(ReC2)2
_chemical_formula_sum   'Tb2 Yb2 Dy4 Re4 C8'
_cell_volume   336.66600518
_cell_formula_units_Z   2
loop_
 _symmetry_equiv_pos_site_id
 _symmetry_equiv_pos_as_xyz
  1  'x, y, z'
loop_
 _atom_site_type_symbol
 _atom_site_label
 _atom_site_symmetry_multiplicity
 _atom_site_fract_x
 _atom_site_fract_y
 _atom_site_fract_z
 _atom_site_occupancy
  Tb  Tb0  1  0.250000  0.534016  0.221123  1
  Tb  Tb1  1  0.750000  0.465984  0.778877  1
  Yb  Yb2  1  0.750000  0.964963  0.721821  1
  Yb  Yb3  1  0.250000  0.035037  0.278179  1
  Dy  Dy4  1  0.250000  0.688414  0.553977  1
  Dy  Dy5  1  0.750000  0.311586  0.446023  1
  Dy  Dy6  1  0.750000  0.819031  0.054191  1
  Dy  Dy7  1  0.250000  0.180969  0.945809  1
  Re  Re8  1  0.250000  0.720408  0.862178  1
  Re  Re9  1  0.750000  0.279592  0.137822  1
  Re  Re10  1  0.750000  0.774697  0.362429  1
  Re  Re11  1  0.250000  0.225303  0.637571  1
  C  C12  1  0.250000  0.455511  0.759538  1
  C  C13  1  0.750000  0.544489  0.240462  1
  C  C14  1  0.750000  0.043663  0.259943  1
  C  C15  1  0.250000  0.956337  0.740057  1
  C  C16  1  0.250000  0.814834  0.042664  1
  C  C17  1  0.750000  0.185166  0.957336  1
  C  C18  1  0.750000  0.678954  0.544245  1
  C  C19  1  0.250000  0.321046  0.455755  1
