# generated using pymatgen
data_Pa8Ta2Ti3Si16W7
_symmetry_space_group_name_H-M   'P 1'
_cell_length_a   6.93547999
_cell_length_b   6.93737565
_cell_length_c   13.04556224
_cell_angle_alpha   89.90904426
_cell_angle_beta   89.93549900
_cell_angle_gamma   89.90061028
_symmetry_Int_Tables_number   1
_chemical_formula_structural   Pa8Ta2Ti3Si16W7
_chemical_formula_sum   'Pa8 Ta2 Ti3 Si16 W7'
_cell_volume   627.67244192
_cell_formula_units_Z   1
loop_
 _symmetry_equiv_pos_site_id
 _symmetry_equiv_pos_as_xyz
  1  'x, y, z'
loop_
 _atom_site_type_symbol
 _atom_site_label
 _atom_site_symmetry_multiplicity
 _atom_site_fract_x
 _atom_site_fract_y
 _atom_site_fract_z
 _atom_site_occupancy
  Pa  Pa0  1  0.999996  0.665747  0.027241  1
  Pa  Pa1  1  0.997843  0.333053  0.530085  1
  Pa  Pa2  1  0.665092  0.001911  0.971578  1
  Pa  Pa3  1  0.166229  0.499597  0.778658  1
  Pa  Pa4  1  0.834104  0.501399  0.278796  1
  Pa  Pa5  1  0.500556  0.167103  0.220274  1
  Pa  Pa6  1  0.502241  0.834068  0.722644  1
  Pa  Pa7  1  0.333586  0.999238  0.471638  1
  Ta  Ta8  1  0.331239  0.496850  0.375969  1
  Ta  Ta9  1  0.667297  0.666746  0.500327  1
  Ti  Ti10  1  0.834413  0.165543  0.749942  1
  Ti  Ti11  1  0.164418  0.835161  0.249614  1
  Ti  Ti12  1  0.333558  0.332564  0.999632  1
  Si  Si13  1  0.032224  0.716596  0.436064  1
  Si  Si14  1  0.970795  0.282852  0.935752  1
  Si  Si15  1  0.715914  0.032437  0.564458  1
  Si  Si16  1  0.211934  0.466583  0.182951  1
  Si  Si17  1  0.782533  0.527679  0.686998  1
  Si  Si18  1  0.470887  0.218162  0.813696  1
  Si  Si19  1  0.533572  0.792079  0.314071  1
  Si  Si20  1  0.283330  0.969385  0.064247  1
  Si  Si21  1  0.799521  0.877236  0.182205  1
  Si  Si22  1  0.296186  0.621499  0.569674  1
  Si  Si23  1  0.700156  0.380645  0.066957  1
  Si  Si24  1  0.624137  0.294012  0.431691  1
  Si  Si25  1  0.379891  0.700070  0.933432  1
  Si  Si26  1  0.120432  0.199473  0.316278  1
  Si  Si27  1  0.199966  0.118969  0.683188  1
  Si  Si28  1  0.880469  0.801190  0.817873  1
  W  W29  1  0.828006  0.004995  0.371317  1
  W  W30  1  0.991020  0.173606  0.128247  1
  W  W31  1  0.002836  0.825274  0.628960  1
  W  W32  1  0.490364  0.324995  0.619955  1
  W  W33  1  0.177030  0.994013  0.871558  1
  W  W34  1  0.502382  0.671994  0.124642  1
  W  W35  1  0.675847  0.507277  0.879391  1
