# generated using pymatgen
data_YLu(MgIr4)2
_symmetry_space_group_name_H-M   'P 1'
_cell_length_a   5.28270300
_cell_length_b   5.28270239
_cell_length_c   8.56677100
_cell_angle_alpha   90.00000000
_cell_angle_beta   90.00000000
_cell_angle_gamma   120.00001011
_symmetry_Int_Tables_number   1
_chemical_formula_structural   YLu(MgIr4)2
_chemical_formula_sum   'Y1 Lu1 Mg2 Ir8'
_cell_volume   207.04277713
_cell_formula_units_Z   1
loop_
 _symmetry_equiv_pos_site_id
 _symmetry_equiv_pos_as_xyz
  1  'x, y, z'
loop_
 _atom_site_type_symbol
 _atom_site_label
 _atom_site_symmetry_multiplicity
 _atom_site_fract_x
 _atom_site_fract_y
 _atom_site_fract_z
 _atom_site_occupancy
  Y  Y0  1  0.333333  0.666667  0.069335  1
  Lu  Lu1  1  0.666667  0.333333  0.569453  1
  Mg  Mg2  1  0.666667  0.333333  0.934905  1
  Mg  Mg3  1  0.333333  0.666667  0.435874  1
  Ir  Ir4  1  0.000000  0.000000  0.996160  1
  Ir  Ir5  1  0.000000  0.000000  0.496631  1
  Ir  Ir6  1  0.828797  0.657594  0.250702  1
  Ir  Ir7  1  0.170947  0.829053  0.748511  1
  Ir  Ir8  1  0.658106  0.829053  0.748511  1
  Ir  Ir9  1  0.342406  0.171203  0.250702  1
  Ir  Ir10  1  0.828797  0.171203  0.250702  1
  Ir  Ir11  1  0.170947  0.341894  0.748511  1
