# generated using pymatgen
data_Yb9Mg(Cu2Hg)2
_symmetry_space_group_name_H-M   'P 1'
_cell_length_a   8.91515189
_cell_length_b   8.91515102
_cell_length_c   8.91515149
_cell_angle_alpha   129.53507749
_cell_angle_beta   129.53507600
_cell_angle_gamma   74.15111735
_symmetry_Int_Tables_number   1
_chemical_formula_structural   Yb9Mg(Cu2Hg)2
_chemical_formula_sum   'Yb9 Mg1 Cu4 Hg2'
_cell_volume   410.93837842
_cell_formula_units_Z   1
loop_
 _symmetry_equiv_pos_site_id
 _symmetry_equiv_pos_as_xyz
  1  'x, y, z'
loop_
 _atom_site_type_symbol
 _atom_site_label
 _atom_site_symmetry_multiplicity
 _atom_site_fract_x
 _atom_site_fract_y
 _atom_site_fract_z
 _atom_site_occupancy
  Yb  Yb0  1  0.500000  0.500000  0.000000  1
  Yb  Yb1  1  0.544713  0.024606  0.840991  1
  Yb  Yb2  1  0.183616  0.703723  0.159009  1
  Yb  Yb3  1  0.024606  0.183616  0.479893  1
  Yb  Yb4  1  0.703723  0.544713  0.520107  1
  Yb  Yb5  1  0.455287  0.975394  0.159009  1
  Yb  Yb6  1  0.816384  0.296277  0.840991  1
  Yb  Yb7  1  0.975394  0.816384  0.520107  1
  Yb  Yb8  1  0.296277  0.455287  0.479893  1
  Mg  Mg9  1  0.000000  0.000000  0.000000  1
  Cu  Cu10  1  0.115930  0.621990  0.737921  1
  Cu  Cu11  1  0.884070  0.378010  0.262079  1
  Cu  Cu12  1  0.621990  0.884070  0.506060  1
  Cu  Cu13  1  0.378010  0.115930  0.493940  1
  Hg  Hg14  1  0.264115  0.264115  0.000000  1
  Hg  Hg15  1  0.735885  0.735885  0.000000  1
