# generated using pymatgen
data_CeDy2In3CuRh2
_symmetry_space_group_name_H-M   'P 1'
_cell_length_a   7.48641175
_cell_length_b   7.48641167
_cell_length_c   3.92617700
_cell_angle_alpha   90.00000000
_cell_angle_beta   90.00000000
_cell_angle_gamma   118.22238959
_symmetry_Int_Tables_number   1
_chemical_formula_structural   CeDy2In3CuRh2
_chemical_formula_sum   'Ce1 Dy2 In3 Cu1 Rh2'
_cell_volume   193.88835206
_cell_formula_units_Z   1
loop_
 _symmetry_equiv_pos_site_id
 _symmetry_equiv_pos_as_xyz
  1  'x, y, z'
loop_
 _atom_site_type_symbol
 _atom_site_label
 _atom_site_symmetry_multiplicity
 _atom_site_fract_x
 _atom_site_fract_y
 _atom_site_fract_z
 _atom_site_occupancy
  Ce  Ce0  1  0.578639  0.578639  0.500000  1
  Dy  Dy1  1  0.412367  0.999604  0.500000  1
  Dy  Dy2  1  0.999604  0.412367  0.500000  1
  In  In3  1  0.749400  0.008216  0.000000  1
  In  In4  1  0.008216  0.749400  0.000000  1
  In  In5  1  0.240798  0.240798  0.000000  1
  Cu  Cu6  1  0.995501  0.995501  0.500000  1
  Rh  Rh7  1  0.351558  0.663916  0.000000  1
  Rh  Rh8  1  0.663916  0.351558  0.000000  1
