# generated using pymatgen
data_Y4Al24CuPt8
_symmetry_space_group_name_H-M   'P 1'
_cell_length_a   7.52976348
_cell_length_b   7.54477269
_cell_length_c   13.12769285
_cell_angle_alpha   84.63634983
_cell_angle_beta   79.05595247
_cell_angle_gamma   59.92420775
_symmetry_Int_Tables_number   1
_chemical_formula_structural   Y4Al24CuPt8
_chemical_formula_sum   'Y4 Al24 Cu1 Pt8'
_cell_volume   633.63959450
_cell_formula_units_Z   1
loop_
 _symmetry_equiv_pos_site_id
 _symmetry_equiv_pos_as_xyz
  1  'x, y, z'
loop_
 _atom_site_type_symbol
 _atom_site_label
 _atom_site_symmetry_multiplicity
 _atom_site_fract_x
 _atom_site_fract_y
 _atom_site_fract_z
 _atom_site_occupancy
  Y  Y0  1  0.393358  0.169179  0.807457  1
  Y  Y1  1  0.605999  0.831737  0.192443  1
  Y  Y2  1  0.734234  0.499142  0.807392  1
  Y  Y3  1  0.266824  0.501168  0.192164  1
  Al  Al4  1  0.684552  0.833292  0.944869  1
  Al  Al5  1  0.315543  0.166220  0.055541  1
  Al  Al6  1  0.146219  0.834557  0.561655  1
  Al  Al7  1  0.854325  0.167105  0.437177  1
  Al  Al8  1  0.481338  0.165965  0.559168  1
  Al  Al9  1  0.520081  0.833441  0.440368  1
  Al  Al10  1  0.217423  0.165324  0.330108  1
  Al  Al11  1  0.785549  0.831714  0.670453  1
  Al  Al12  1  0.433889  0.506782  0.670572  1
  Al  Al13  1  0.562818  0.493469  0.329878  1
  Al  Al14  1  0.109698  0.163066  0.669099  1
  Al  Al15  1  0.890175  0.839817  0.331207  1
  Al  Al16  1  0.352311  0.499365  0.944814  1
  Al  Al17  1  0.647758  0.500346  0.055472  1
  Al  Al18  1  0.015289  0.167468  0.953892  1
  Al  Al19  1  0.984409  0.832551  0.046779  1
  Al  Al20  1  0.186423  0.499932  0.441987  1
  Al  Al21  1  0.812249  0.500508  0.559120  1
  Al  Al22  1  0.734054  0.164039  0.184021  1
  Al  Al23  1  0.265542  0.835182  0.815997  1
  Al  Al24  1  0.062270  0.628478  0.812830  1
  Al  Al25  1  0.938680  0.369055  0.185125  1
  Al  Al26  1  0.856088  0.040412  0.815502  1
  Al  Al27  1  0.144206  0.958312  0.184363  1
  Cu  Cu28  1  0.118631  0.493995  0.638832  1
  Pt  Pt29  1  0.879972  0.507956  0.362540  1
  Pt  Pt30  1  0.657558  0.171173  0.999442  1
  Pt  Pt31  1  0.342808  0.828420  0.999721  1
  Pt  Pt32  1  0.537053  0.167169  0.362578  1
  Pt  Pt33  1  0.462175  0.833671  0.637780  1
  Pt  Pt34  1  0.779344  0.175239  0.636570  1
  Pt  Pt35  1  0.220838  0.824602  0.363456  1
  Pt  Pt36  1  0.000317  0.500148  0.999629  1
