# generated using pymatgen
data_Hg(IrSe2)4
_symmetry_space_group_name_H-M   'P 1'
_cell_length_a   3.79334790
_cell_length_b   8.16887144
_cell_length_c   9.52751735
_cell_angle_alpha   77.38563473
_cell_angle_beta   78.51721950
_cell_angle_gamma   76.57435912
_symmetry_Int_Tables_number   1
_chemical_formula_structural   Hg(IrSe2)4
_chemical_formula_sum   'Hg1 Ir4 Se8'
_cell_volume   276.78848852
_cell_formula_units_Z   1
loop_
 _symmetry_equiv_pos_site_id
 _symmetry_equiv_pos_as_xyz
  1  'x, y, z'
loop_
 _atom_site_type_symbol
 _atom_site_label
 _atom_site_symmetry_multiplicity
 _atom_site_fract_x
 _atom_site_fract_y
 _atom_site_fract_z
 _atom_site_occupancy
  Hg  Hg0  1  0.499896  0.000081  0.000125  1
  Ir  Ir1  1  0.633157  0.189079  0.544608  1
  Ir  Ir2  1  0.844015  0.483663  0.828304  1
  Ir  Ir3  1  0.155937  0.516488  0.171639  1
  Ir  Ir4  1  0.366913  0.810778  0.455395  1
  Se  Se5  1  0.461082  0.299342  0.778495  1
  Se  Se6  1  0.538874  0.700719  0.221532  1
  Se  Se7  1  0.901748  0.630278  0.566227  1
  Se  Se8  1  0.098365  0.369547  0.433723  1
  Se  Se9  1  0.216360  0.656575  0.910704  1
  Se  Se10  1  0.783584  0.343607  0.089226  1
  Se  Se11  1  0.821507  0.005518  0.351469  1
  Se  Se12  1  0.178561  0.994324  0.648553  1
