# generated using pymatgen
data_Y4Zn4In3Ga
_symmetry_space_group_name_H-M   'P 1'
_cell_length_a   4.60411500
_cell_length_b   4.60411477
_cell_length_c   14.72520300
_cell_angle_alpha   90.00000000
_cell_angle_beta   90.00000000
_cell_angle_gamma   120.00000882
_symmetry_Int_Tables_number   1
_chemical_formula_structural   Y4Zn4In3Ga
_chemical_formula_sum   'Y4 Zn4 In3 Ga1'
_cell_volume   270.32374021
_cell_formula_units_Z   1
loop_
 _symmetry_equiv_pos_site_id
 _symmetry_equiv_pos_as_xyz
  1  'x, y, z'
loop_
 _atom_site_type_symbol
 _atom_site_label
 _atom_site_symmetry_multiplicity
 _atom_site_fract_x
 _atom_site_fract_y
 _atom_site_fract_z
 _atom_site_occupancy
  Y  Y0  1  0.000000  0.000000  0.505889  1
  Y  Y1  1  0.000000  0.000000  0.999270  1
  Y  Y2  1  0.000000  0.000000  0.252411  1
  Y  Y3  1  0.000000  0.000000  0.746345  1
  Zn  Zn4  1  0.333333  0.666667  0.406252  1
  Zn  Zn5  1  0.666667  0.333333  0.647038  1
  Zn  Zn6  1  0.666667  0.333333  0.844332  1
  Zn  Zn7  1  0.333333  0.666667  0.098617  1
  In  In8  1  0.333333  0.666667  0.887707  1
  In  In9  1  0.666667  0.333333  0.138260  1
  In  In10  1  0.666667  0.333333  0.366070  1
  Ga  Ga11  1  0.333333  0.666667  0.607810  1
