# generated using pymatgen
data_Tb11YTcRu3
_symmetry_space_group_name_H-M   'P 1'
_cell_length_a   6.32993240
_cell_length_b   7.37794054
_cell_length_c   9.23747371
_cell_angle_alpha   89.95636226
_cell_angle_beta   90.01029979
_cell_angle_gamma   90.01858364
_symmetry_Int_Tables_number   1
_chemical_formula_structural   Tb11YTcRu3
_chemical_formula_sum   'Tb11 Y1 Tc1 Ru3'
_cell_volume   431.40709417
_cell_formula_units_Z   1
loop_
 _symmetry_equiv_pos_site_id
 _symmetry_equiv_pos_as_xyz
  1  'x, y, z'
loop_
 _atom_site_type_symbol
 _atom_site_label
 _atom_site_symmetry_multiplicity
 _atom_site_fract_x
 _atom_site_fract_y
 _atom_site_fract_z
 _atom_site_occupancy
  Tb  Tb0  1  0.632894  0.041131  0.249985  1
  Tb  Tb1  1  0.364995  0.956550  0.749902  1
  Tb  Tb2  1  0.134484  0.456854  0.749951  1
  Tb  Tb3  1  0.870890  0.542685  0.250023  1
  Tb  Tb4  1  0.167361  0.175894  0.064945  1
  Tb  Tb5  1  0.831423  0.823862  0.935061  1
  Tb  Tb6  1  0.666149  0.324613  0.936404  1
  Tb  Tb7  1  0.831339  0.823857  0.564788  1
  Tb  Tb8  1  0.332193  0.676123  0.064633  1
  Tb  Tb9  1  0.167582  0.175873  0.435050  1
  Tb  Tb10  1  0.332172  0.675893  0.435527  1
  Y  Y11  1  0.666163  0.324577  0.563294  1
  Tc  Tc12  1  0.462260  0.386112  0.249875  1
  Ru  Ru13  1  0.539177  0.616462  0.750399  1
  Ru  Ru14  1  0.962252  0.114272  0.750251  1
  Ru  Ru15  1  0.038667  0.885245  0.249912  1
