# generated using pymatgen
data_Dy5YVB14Mo
_symmetry_space_group_name_H-M   'P 1'
_cell_length_a   8.16876600
_cell_length_b   8.16876591
_cell_length_c   9.45767100
_cell_angle_alpha   90.00000000
_cell_angle_beta   90.00000000
_cell_angle_gamma   155.58460707
_symmetry_Int_Tables_number   1
_chemical_formula_structural   Dy5YVB14Mo
_chemical_formula_sum   'Dy5 Y1 V1 B14 Mo1'
_cell_volume   260.86395860
_cell_formula_units_Z   1
loop_
 _symmetry_equiv_pos_site_id
 _symmetry_equiv_pos_as_xyz
  1  'x, y, z'
loop_
 _atom_site_type_symbol
 _atom_site_label
 _atom_site_symmetry_multiplicity
 _atom_site_fract_x
 _atom_site_fract_y
 _atom_site_fract_z
 _atom_site_occupancy
  Dy  Dy0  1  0.744290  0.255710  0.750000  1
  Dy  Dy1  1  0.606076  0.393924  0.061758  1
  Dy  Dy2  1  0.393346  0.606654  0.941565  1
  Dy  Dy3  1  0.393346  0.606654  0.558435  1
  Dy  Dy4  1  0.606076  0.393924  0.438242  1
  Y  Y5  1  0.258262  0.741738  0.250000  1
  V  V6  1  0.447214  0.552786  0.250000  1
  B  B7  1  0.978719  0.021281  0.095252  1
  B  B8  1  0.019723  0.980277  0.908911  1
  B  B9  1  0.019723  0.980277  0.591089  1
  B  B10  1  0.978719  0.021281  0.404748  1
  B  B11  1  0.772767  0.227233  0.032754  1
  B  B12  1  0.227311  0.772689  0.968263  1
  B  B13  1  0.227311  0.772689  0.531737  1
  B  B14  1  0.772767  0.227233  0.467246  1
  B  B15  1  0.867616  0.132384  0.150181  1
  B  B16  1  0.134642  0.865358  0.853355  1
  B  B17  1  0.134642  0.865358  0.646645  1
  B  B18  1  0.867616  0.132384  0.349819  1
  B  B19  1  0.040456  0.959544  0.250000  1
  B  B20  1  0.956176  0.043824  0.750000  1
  Mo  Mo21  1  0.553203  0.446797  0.750000  1
