# generated using pymatgen
data_SrPr2Zr(GaO3)4
_symmetry_space_group_name_H-M   'P 1'
_cell_length_a   11.10220996
_cell_length_b   11.16049472
_cell_length_c   11.17187687
_cell_angle_alpha   109.51390987
_cell_angle_beta   109.33032765
_cell_angle_gamma   109.25399639
_symmetry_Int_Tables_number   1
_chemical_formula_structural   SrPr2Zr(GaO3)4
_chemical_formula_sum   'Sr4 Pr8 Zr4 Ga16 O48'
_cell_volume   1069.73088873
_cell_formula_units_Z   4
loop_
 _symmetry_equiv_pos_site_id
 _symmetry_equiv_pos_as_xyz
  1  'x, y, z'
loop_
 _atom_site_type_symbol
 _atom_site_label
 _atom_site_symmetry_multiplicity
 _atom_site_fract_x
 _atom_site_fract_y
 _atom_site_fract_z
 _atom_site_occupancy
  Sr  Sr0  1  0.623049  0.241759  0.373863  1
  Sr  Sr1  1  0.874573  0.121855  0.245243  1
  Sr  Sr2  1  0.125427  0.878145  0.754757  1
  Sr  Sr3  1  0.376951  0.758241  0.626137  1
  Pr  Pr4  1  0.249811  0.623305  0.877133  1
  Pr  Pr5  1  0.628732  0.370738  0.750434  1
  Pr  Pr6  1  0.126346  0.252335  0.881203  1
  Pr  Pr7  1  0.249691  0.122722  0.369113  1
  Pr  Pr8  1  0.873654  0.747665  0.118797  1
  Pr  Pr9  1  0.750309  0.877278  0.630887  1
  Pr  Pr10  1  0.371268  0.629262  0.249566  1
  Pr  Pr11  1  0.750189  0.376695  0.122867  1
  Zr  Zr12  1  0.000000  0.000000  0.500000  1
  Zr  Zr13  1  0.500000  0.000000  0.000000  1
  Zr  Zr14  1  0.000000  0.500000  0.500000  1
  Zr  Zr15  1  0.500000  0.500000  0.500000  1
  Ga  Ga16  1  0.881661  0.634460  0.761826  1
  Ga  Ga17  1  0.626642  0.749135  0.875682  1
  Ga  Ga18  1  0.869784  0.252415  0.630406  1
  Ga  Ga19  1  0.246231  0.870156  0.128556  1
  Ga  Ga20  1  0.254864  0.374923  0.633058  1
  Ga  Ga21  1  0.500000  0.500000  0.000000  1
  Ga  Ga22  1  0.000000  0.000000  0.000000  1
  Ga  Ga23  1  0.622936  0.871917  0.249233  1
  Ga  Ga24  1  0.377064  0.128083  0.750767  1
  Ga  Ga25  1  0.500000  0.000000  0.500000  1
  Ga  Ga26  1  0.753769  0.129844  0.871443  1
  Ga  Ga27  1  0.745136  0.625077  0.366942  1
  Ga  Ga28  1  0.130216  0.747585  0.369594  1
  Ga  Ga29  1  0.000000  0.500000  0.000000  1
  Ga  Ga30  1  0.373358  0.250865  0.124318  1
  Ga  Ga31  1  0.118339  0.365540  0.238174  1
  O  O32  1  0.297883  0.876796  0.985256  1
  O  O33  1  0.413226  0.294793  0.316744  1
  O  O34  1  0.687951  0.487061  0.608884  1
  O  O35  1  0.022403  0.618107  0.708223  1
  O  O36  1  0.478995  0.792991  0.883693  1
  O  O37  1  0.204086  0.517192  0.623599  1
  O  O38  1  0.885496  0.299457  0.488275  1
  O  O39  1  0.020901  0.402380  0.822881  1
  O  O40  1  0.676478  0.200237  0.588248  1
  O  O41  1  0.395335  0.014858  0.321241  1
  O  O42  1  0.616299  0.014614  0.200696  1
  O  O43  1  0.618287  0.595990  0.917333  1
  O  O44  1  0.085988  0.177172  0.197797  1
  O  O45  1  0.403232  0.378057  0.585693  1
  O  O46  1  0.300798  0.419234  0.825517  1
  O  O47  1  0.106806  0.184310  0.483451  1
  O  O48  1  0.882027  0.582100  0.906042  1
  O  O49  1  0.820843  0.896789  0.016690  1
  O  O50  1  0.916143  0.100787  0.624040  1
  O  O51  1  0.198059  0.674831  0.079758  1
  O  O52  1  0.583272  0.880523  0.402943  1
  O  O53  1  0.815347  0.908687  0.294130  1
  O  O54  1  0.523875  0.322992  0.902021  1
  O  O55  1  0.095580  0.916394  0.118977  1
  O  O56  1  0.904420  0.083606  0.881023  1
  O  O57  1  0.476125  0.677008  0.097979  1
  O  O58  1  0.184653  0.091313  0.705870  1
  O  O59  1  0.416728  0.119477  0.597057  1
  O  O60  1  0.801941  0.325169  0.920242  1
  O  O61  1  0.083857  0.899213  0.375960  1
  O  O62  1  0.179157  0.103211  0.983310  1
  O  O63  1  0.117973  0.417900  0.093958  1
  O  O64  1  0.893194  0.815690  0.516549  1
  O  O65  1  0.699202  0.580766  0.174483  1
  O  O66  1  0.596768  0.621943  0.414307  1
  O  O67  1  0.914012  0.822828  0.802203  1
  O  O68  1  0.381713  0.404010  0.082667  1
  O  O69  1  0.383701  0.985386  0.799304  1
  O  O70  1  0.604665  0.985142  0.678759  1
  O  O71  1  0.323522  0.799763  0.411752  1
  O  O72  1  0.979099  0.597620  0.177119  1
  O  O73  1  0.114504  0.700543  0.511725  1
  O  O74  1  0.795914  0.482808  0.376401  1
  O  O75  1  0.521005  0.207009  0.116307  1
  O  O76  1  0.977597  0.381893  0.291777  1
  O  O77  1  0.312049  0.512939  0.391116  1
  O  O78  1  0.586774  0.705207  0.683256  1
  O  O79  1  0.702117  0.123204  0.014744  1
