# generated using pymatgen
data_LiHoTm2(Co4P3)2
_symmetry_space_group_name_H-M   'P 1'
_cell_length_a   3.70148900
_cell_length_b   10.54760500
_cell_length_c   12.14380100
_cell_angle_alpha   90.00000000
_cell_angle_beta   90.00000000
_cell_angle_gamma   90.00000000
_symmetry_Int_Tables_number   1
_chemical_formula_structural   LiHoTm2(Co4P3)2
_chemical_formula_sum   'Li2 Ho2 Tm4 Co16 P12'
_cell_volume   474.11638280
_cell_formula_units_Z   2
loop_
 _symmetry_equiv_pos_site_id
 _symmetry_equiv_pos_as_xyz
  1  'x, y, z'
loop_
 _atom_site_type_symbol
 _atom_site_label
 _atom_site_symmetry_multiplicity
 _atom_site_fract_x
 _atom_site_fract_y
 _atom_site_fract_z
 _atom_site_occupancy
  Li  Li0  1  0.500000  0.500000  0.153572  1
  Li  Li1  1  0.000000  0.000000  0.846428  1
  Ho  Ho2  1  0.000000  0.500000  0.523577  1
  Ho  Ho3  1  0.500000  0.000000  0.476423  1
  Tm  Tm4  1  0.500000  0.819768  0.205967  1
  Tm  Tm5  1  0.500000  0.180232  0.205967  1
  Tm  Tm6  1  0.000000  0.680232  0.794033  1
  Tm  Tm7  1  0.000000  0.319768  0.794033  1
  Co  Co8  1  0.500000  0.500000  0.704430  1
  Co  Co9  1  0.000000  0.000000  0.295570  1
  Co  Co10  1  0.000000  0.500000  0.986719  1
  Co  Co11  1  0.500000  0.000000  0.013281  1
  Co  Co12  1  0.500000  0.332817  0.996705  1
  Co  Co13  1  0.500000  0.667183  0.996705  1
  Co  Co14  1  0.000000  0.167183  0.003295  1
  Co  Co15  1  0.000000  0.832817  0.003295  1
  Co  Co16  1  0.500000  0.296389  0.431052  1
  Co  Co17  1  0.500000  0.703611  0.431052  1
  Co  Co18  1  0.000000  0.203611  0.568948  1
  Co  Co19  1  0.000000  0.796389  0.568948  1
  Co  Co20  1  0.500000  0.878073  0.706736  1
  Co  Co21  1  0.500000  0.121927  0.706736  1
  Co  Co22  1  0.000000  0.621927  0.293264  1
  Co  Co23  1  0.000000  0.378073  0.293264  1
  P  P24  1  0.500000  0.500000  0.884243  1
  P  P25  1  0.000000  0.000000  0.115757  1
  P  P26  1  0.500000  0.500000  0.346689  1
  P  P27  1  0.000000  0.000000  0.653311  1
  P  P28  1  0.500000  0.310209  0.616682  1
  P  P29  1  0.500000  0.689791  0.616682  1
  P  P30  1  0.000000  0.189791  0.383318  1
  P  P31  1  0.000000  0.810209  0.383318  1
  P  P32  1  0.500000  0.842803  0.892788  1
  P  P33  1  0.500000  0.157197  0.892788  1
  P  P34  1  0.000000  0.657197  0.107212  1
  P  P35  1  0.000000  0.342803  0.107212  1
