# generated using pymatgen
data_YbSn6Ru3Pt
_symmetry_space_group_name_H-M   'P 1'
_cell_length_a   6.98334970
_cell_length_b   6.98352265
_cell_length_c   6.98352231
_cell_angle_alpha   89.66909393
_cell_angle_beta   120.15575665
_cell_angle_gamma   120.15576782
_symmetry_Int_Tables_number   1
_chemical_formula_structural   YbSn6Ru3Pt
_chemical_formula_sum   'Yb1 Sn6 Ru3 Pt1'
_cell_volume   240.38075132
_cell_formula_units_Z   1
loop_
 _symmetry_equiv_pos_site_id
 _symmetry_equiv_pos_as_xyz
  1  'x, y, z'
loop_
 _atom_site_type_symbol
 _atom_site_label
 _atom_site_symmetry_multiplicity
 _atom_site_fract_x
 _atom_site_fract_y
 _atom_site_fract_z
 _atom_site_occupancy
  Yb  Yb0  1  0.000183  0.998819  0.998819  1
  Sn  Sn1  1  0.662673  0.128773  0.128773  1
  Sn  Sn2  1  0.339682  0.457212  0.457212  1
  Sn  Sn3  1  0.986355  0.879649  0.522746  1
  Sn  Sn4  1  0.986355  0.522746  0.879649  1
  Sn  Sn5  1  0.496528  0.485325  0.998034  1
  Sn  Sn6  1  0.496528  0.998034  0.485325  1
  Ru  Ru7  1  0.660561  0.411550  0.411550  1
  Ru  Ru8  1  0.006683  0.258109  0.598444  1
  Ru  Ru9  1  0.006683  0.598444  0.258109  1
  Pt  Pt10  1  0.357768  0.761338  0.761338  1
