# generated using pymatgen
data_P6Pt4Pb
_symmetry_space_group_name_H-M   'P 1'
_cell_length_a   5.78429128
_cell_length_b   5.78429197
_cell_length_c   11.50198101
_cell_angle_alpha   89.53517266
_cell_angle_beta   89.53517248
_cell_angle_gamma   88.59093788
_symmetry_Int_Tables_number   1
_chemical_formula_structural   P6Pt4Pb
_chemical_formula_sum   'P12 Pt8 Pb2'
_cell_volume   384.69253862
_cell_formula_units_Z   2
loop_
 _symmetry_equiv_pos_site_id
 _symmetry_equiv_pos_as_xyz
  1  'x, y, z'
loop_
 _atom_site_type_symbol
 _atom_site_label
 _atom_site_symmetry_multiplicity
 _atom_site_fract_x
 _atom_site_fract_y
 _atom_site_fract_z
 _atom_site_occupancy
  P  P0  1  0.087545  0.131047  0.305119  1
  P  P1  1  0.868953  0.912455  0.194881  1
  P  P2  1  0.912455  0.868953  0.694881  1
  P  P3  1  0.131047  0.087545  0.805119  1
  P  P4  1  0.615554  0.884410  0.948806  1
  P  P5  1  0.115590  0.384446  0.551194  1
  P  P6  1  0.384446  0.115590  0.051194  1
  P  P7  1  0.884410  0.615554  0.448806  1
  P  P8  1  0.883792  0.390148  0.050544  1
  P  P9  1  0.609852  0.116208  0.449456  1
  P  P10  1  0.390148  0.883792  0.550544  1
  P  P11  1  0.116208  0.609852  0.949456  1
  Pt  Pt12  1  0.508917  0.920984  0.749820  1
  Pt  Pt13  1  0.079016  0.491083  0.750180  1
  Pt  Pt14  1  0.500000  0.500000  0.500000  1
  Pt  Pt15  1  0.500000  0.500000  0.000000  1
  Pt  Pt16  1  0.000000  0.000000  0.500000  1
  Pt  Pt17  1  0.000000  0.000000  0.000000  1
  Pt  Pt18  1  0.920984  0.508917  0.249820  1
  Pt  Pt19  1  0.491083  0.079016  0.250180  1
  Pb  Pb20  1  0.600246  0.399754  0.750000  1
  Pb  Pb21  1  0.399754  0.600246  0.250000  1
