# generated using pymatgen
data_Th8Ti9Nb3Si16
_symmetry_space_group_name_H-M   'P 1'
_cell_length_a   7.03747238
_cell_length_b   7.19653502
_cell_length_c   13.60423800
_cell_angle_alpha   90.00000000
_cell_angle_beta   90.00000000
_cell_angle_gamma   89.94899936
_symmetry_Int_Tables_number   1
_chemical_formula_structural   Th8Ti9Nb3Si16
_chemical_formula_sum   'Th8 Ti9 Nb3 Si16'
_cell_volume   688.99202559
_cell_formula_units_Z   1
loop_
 _symmetry_equiv_pos_site_id
 _symmetry_equiv_pos_as_xyz
  1  'x, y, z'
loop_
 _atom_site_type_symbol
 _atom_site_label
 _atom_site_symmetry_multiplicity
 _atom_site_fract_x
 _atom_site_fract_y
 _atom_site_fract_z
 _atom_site_occupancy
  Th  Th0  1  0.501548  0.667795  0.595973  1
  Th  Th1  1  0.002734  0.832436  0.903400  1
  Th  Th2  1  0.498057  0.332401  0.096012  1
  Th  Th3  1  0.998328  0.168524  0.403492  1
  Th  Th4  1  0.498057  0.332401  0.403988  1
  Th  Th5  1  0.998328  0.168524  0.096508  1
  Th  Th6  1  0.501548  0.667795  0.904027  1
  Th  Th7  1  0.002734  0.832436  0.596600  1
  Ti  Ti8  1  0.661189  0.172846  0.626315  1
  Ti  Ti9  1  0.165790  0.325232  0.874352  1
  Ti  Ti10  1  0.336814  0.826410  0.125909  1
  Ti  Ti11  1  0.836758  0.673548  0.374202  1
  Ti  Ti12  1  0.336814  0.826410  0.374091  1
  Ti  Ti13  1  0.836758  0.673548  0.125798  1
  Ti  Ti14  1  0.661189  0.172846  0.873685  1
  Ti  Ti15  1  0.165790  0.325232  0.625648  1
  Ti  Ti16  1  0.833730  0.493574  0.750000  1
  Nb  Nb17  1  0.334251  0.005051  0.750000  1
  Nb  Nb18  1  0.166151  0.505434  0.250000  1
  Nb  Nb19  1  0.665738  0.995167  0.250000  1
  Si  Si20  1  0.659327  0.955066  0.455347  1
  Si  Si21  1  0.158748  0.545249  0.044302  1
  Si  Si22  1  0.340536  0.044749  0.955660  1
  Si  Si23  1  0.841361  0.455342  0.545881  1
  Si  Si24  1  0.340536  0.044749  0.544340  1
  Si  Si25  1  0.841361  0.455342  0.954119  1
  Si  Si26  1  0.659327  0.955066  0.044653  1
  Si  Si27  1  0.158748  0.545249  0.455698  1
  Si  Si28  1  0.457161  0.362667  0.750000  1
  Si  Si29  1  0.955946  0.140927  0.750000  1
  Si  Si30  1  0.543616  0.638074  0.250000  1
  Si  Si31  1  0.043129  0.862140  0.250000  1
  Si  Si32  1  0.699052  0.886544  0.750000  1
  Si  Si33  1  0.196113  0.610820  0.750000  1
  Si  Si34  1  0.301581  0.112527  0.250000  1
  Si  Si35  1  0.801151  0.387881  0.250000  1
