# generated using pymatgen
data_Dy5Er11(C2Cl3)4
_symmetry_space_group_name_H-M   'P 1'
_cell_length_a   3.62734100
_cell_length_b   10.41580200
_cell_length_c   19.64268200
_cell_angle_alpha   90.00090861
_cell_angle_beta   90.00000000
_cell_angle_gamma   90.00000000
_symmetry_Int_Tables_number   1
_chemical_formula_structural   Dy5Er11(C2Cl3)4
_chemical_formula_sum   'Dy5 Er11 C8 Cl12'
_cell_volume   742.13324360
_cell_formula_units_Z   1
loop_
 _symmetry_equiv_pos_site_id
 _symmetry_equiv_pos_as_xyz
  1  'x, y, z'
loop_
 _atom_site_type_symbol
 _atom_site_label
 _atom_site_symmetry_multiplicity
 _atom_site_fract_x
 _atom_site_fract_y
 _atom_site_fract_z
 _atom_site_occupancy
  Dy  Dy0  1  0.250000  0.138392  0.573701  1
  Dy  Dy1  1  0.250000  0.638137  0.926673  1
  Dy  Dy2  1  0.750000  0.861604  0.426095  1
  Dy  Dy3  1  0.750000  0.361554  0.073800  1
  Dy  Dy4  1  0.250000  0.636280  0.755810  1
  Er  Er5  1  0.250000  0.136240  0.743599  1
  Er  Er6  1  0.750000  0.363851  0.243724  1
  Er  Er7  1  0.750000  0.863875  0.256354  1
  Er  Er8  1  0.250000  0.101276  0.331331  1
  Er  Er9  1  0.250000  0.601133  0.168801  1
  Er  Er10  1  0.750000  0.899201  0.668785  1
  Er  Er11  1  0.750000  0.398776  0.831446  1
  Er  Er12  1  0.250000  0.125905  0.166229  1
  Er  Er13  1  0.250000  0.626224  0.333876  1
  Er  Er14  1  0.750000  0.874389  0.834273  1
  Er  Er15  1  0.750000  0.374117  0.666009  1
  C  C16  1  0.250000  0.864797  0.346722  1
  C  C17  1  0.250000  0.364738  0.153246  1
  C  C18  1  0.750000  0.135218  0.652956  1
  C  C19  1  0.750000  0.635311  0.847595  1
  C  C20  1  0.250000  0.385075  0.750452  1
  C  C21  1  0.250000  0.888808  0.749603  1
  C  C22  1  0.750000  0.612987  0.249522  1
  C  C23  1  0.750000  0.113420  0.250499  1
  Cl  Cl24  1  0.250000  0.375129  0.951312  1
  Cl  Cl25  1  0.250000  0.876140  0.548611  1
  Cl  Cl26  1  0.750000  0.623649  0.048587  1
  Cl  Cl27  1  0.750000  0.123904  0.451811  1
  Cl  Cl28  1  0.250000  0.890046  0.942447  1
  Cl  Cl29  1  0.250000  0.389815  0.557632  1
  Cl  Cl30  1  0.750000  0.110260  0.057582  1
  Cl  Cl31  1  0.750000  0.610174  0.442465  1
  Cl  Cl32  1  0.250000  0.361738  0.353135  1
  Cl  Cl33  1  0.250000  0.861678  0.147068  1
  Cl  Cl34  1  0.750000  0.638165  0.645498  1
  Cl  Cl35  1  0.750000  0.137995  0.852754  1
