# generated using pymatgen
data_Tb9Ho3InGaNi4
_symmetry_space_group_name_H-M   'P 1'
_cell_length_a   8.38444962
_cell_length_b   8.38363018
_cell_length_c   8.38444909
_cell_angle_alpha   113.86113615
_cell_angle_beta   109.38179964
_cell_angle_gamma   105.28867959
_symmetry_Int_Tables_number   1
_chemical_formula_structural   Tb9Ho3InGaNi4
_chemical_formula_sum   'Tb9 Ho3 In1 Ga1 Ni4'
_cell_volume   451.12315366
_cell_formula_units_Z   1
loop_
 _symmetry_equiv_pos_site_id
 _symmetry_equiv_pos_as_xyz
  1  'x, y, z'
loop_
 _atom_site_type_symbol
 _atom_site_label
 _atom_site_symmetry_multiplicity
 _atom_site_fract_x
 _atom_site_fract_y
 _atom_site_fract_z
 _atom_site_occupancy
  Tb  Tb0  1  0.425438  0.228589  0.196010  1
  Tb  Tb1  1  0.575153  0.771179  0.804793  1
  Tb  Tb2  1  0.032579  0.228589  0.803151  1
  Tb  Tb3  1  0.966386  0.771179  0.196026  1
  Tb  Tb4  1  0.181128  0.289873  0.471858  1
  Tb  Tb5  1  0.819282  0.709786  0.528784  1
  Tb  Tb6  1  0.181003  0.709786  0.890504  1
  Tb  Tb7  1  0.818014  0.289873  0.108745  1
  Tb  Tb8  1  0.324324  0.634063  0.309741  1
  Ho  Ho9  1  0.675197  0.364188  0.688989  1
  Ho  Ho10  1  0.325262  0.015098  0.689836  1
  Ho  Ho11  1  0.675121  0.985549  0.310428  1
  In  In12  1  0.500255  0.499706  0.999451  1
  Ga  Ga13  1  0.000331  0.000387  0.000055  1
  Ni  Ni14  1  0.353019  0.001101  0.352963  1
  Ni  Ni15  1  0.648139  0.001101  0.648082  1
  Ni  Ni16  1  0.123052  0.623947  0.500895  1
  Ni  Ni17  1  0.876318  0.376006  0.499688  1
