# generated using pymatgen
data_Ho4Er8InCo4Cu
_symmetry_space_group_name_H-M   'P 1'
_cell_length_a   8.25319989
_cell_length_b   8.25319883
_cell_length_c   8.25320005
_cell_angle_alpha   111.09868318
_cell_angle_beta   110.69947987
_cell_angle_gamma   106.65201573
_symmetry_Int_Tables_number   1
_chemical_formula_structural   Ho4Er8InCo4Cu
_chemical_formula_sum   'Ho4 Er8 In1 Co4 Cu1'
_cell_volume   431.97161531
_cell_formula_units_Z   1
loop_
 _symmetry_equiv_pos_site_id
 _symmetry_equiv_pos_as_xyz
  1  'x, y, z'
loop_
 _atom_site_type_symbol
 _atom_site_label
 _atom_site_symmetry_multiplicity
 _atom_site_fract_x
 _atom_site_fract_y
 _atom_site_fract_z
 _atom_site_occupancy
  Ho  Ho0  1  0.186253  0.290894  0.477147  1
  Ho  Ho1  1  0.813747  0.709106  0.522853  1
  Ho  Ho2  1  0.186253  0.709106  0.895360  1
  Ho  Ho3  1  0.813747  0.290894  0.104640  1
  Er  Er4  1  0.315179  0.620498  0.305319  1
  Er  Er5  1  0.684821  0.379502  0.694681  1
  Er  Er6  1  0.315179  0.009860  0.694681  1
  Er  Er7  1  0.684821  0.990140  0.305319  1
  Er  Er8  1  0.415866  0.217022  0.198845  1
  Er  Er9  1  0.584134  0.782978  0.801155  1
  Er  Er10  1  0.018177  0.217022  0.801155  1
  Er  Er11  1  0.981823  0.782978  0.198845  1
  In  In12  1  0.500000  0.500000  0.000000  1
  Co  Co13  1  0.113329  0.613329  0.500000  1
  Co  Co14  1  0.886671  0.386671  0.500000  1
  Co  Co15  1  0.377486  0.000000  0.377486  1
  Co  Co16  1  0.622514  0.000000  0.622514  1
  Cu  Cu17  1  0.000000  0.000000  0.000000  1
