# generated using pymatgen
data_Nd4Sm6Co2Cl15
_symmetry_space_group_name_H-M   'P 1'
_cell_length_a   9.20557881
_cell_length_b   9.97995385
_cell_length_c   10.71723600
_cell_angle_alpha   92.29878514
_cell_angle_beta   113.92674501
_cell_angle_gamma   110.70474725
_symmetry_Int_Tables_number   1
_chemical_formula_structural   Nd4Sm6Co2Cl15
_chemical_formula_sum   'Nd4 Sm6 Co2 Cl15'
_cell_volume   822.25105112
_cell_formula_units_Z   1
loop_
 _symmetry_equiv_pos_site_id
 _symmetry_equiv_pos_as_xyz
  1  'x, y, z'
loop_
 _atom_site_type_symbol
 _atom_site_label
 _atom_site_symmetry_multiplicity
 _atom_site_fract_x
 _atom_site_fract_y
 _atom_site_fract_z
 _atom_site_occupancy
  Nd  Nd0  1  0.810942  0.412935  0.276568  1
  Nd  Nd1  1  0.189058  0.587065  0.723432  1
  Nd  Nd2  1  0.674714  0.746441  0.816359  1
  Nd  Nd3  1  0.325286  0.253559  0.183641  1
  Sm  Sm4  1  0.529207  0.702725  0.106672  1
  Sm  Sm5  1  0.470793  0.297275  0.893328  1
  Sm  Sm6  1  0.597811  0.044208  0.344737  1
  Sm  Sm7  1  0.402189  0.955792  0.655263  1
  Sm  Sm8  1  0.737726  0.080252  0.048935  1
  Sm  Sm9  1  0.262274  0.919748  0.951065  1
  Co  Co10  1  0.465580  0.826666  0.880275  1
  Co  Co11  1  0.534420  0.173334  0.119725  1
  Cl  Cl12  1  0.000000  0.000000  0.000000  1
  Cl  Cl13  1  0.632500  0.889452  0.586270  1
  Cl  Cl14  1  0.367500  0.110548  0.413730  1
  Cl  Cl15  1  0.881606  0.299980  0.522161  1
  Cl  Cl16  1  0.118394  0.700020  0.477839  1
  Cl  Cl17  1  0.310584  0.771077  0.188213  1
  Cl  Cl18  1  0.689416  0.228923  0.811787  1
  Cl  Cl19  1  0.055725  0.337848  0.221256  1
  Cl  Cl20  1  0.179118  0.059606  0.704577  1
  Cl  Cl21  1  0.820882  0.940394  0.295423  1
  Cl  Cl22  1  0.256634  0.417756  0.951245  1
  Cl  Cl23  1  0.743366  0.582244  0.048755  1
  Cl  Cl24  1  0.405539  0.467186  0.670702  1
  Cl  Cl25  1  0.594461  0.532814  0.329298  1
  Cl  Cl26  1  0.944275  0.662152  0.778744  1
