# generated using pymatgen
data_CaYb4Bi2Pb
_symmetry_space_group_name_H-M   'P 1'
_cell_length_a   9.29358600
_cell_length_b   9.36327805
_cell_length_c   6.98867600
_cell_angle_alpha   90.00000000
_cell_angle_beta   90.00000000
_cell_angle_gamma   119.75408030
_symmetry_Int_Tables_number   1
_chemical_formula_structural   CaYb4Bi2Pb
_chemical_formula_sum   'Ca2 Yb8 Bi4 Pb2'
_cell_volume   527.96807080
_cell_formula_units_Z   2
loop_
 _symmetry_equiv_pos_site_id
 _symmetry_equiv_pos_as_xyz
  1  'x, y, z'
loop_
 _atom_site_type_symbol
 _atom_site_label
 _atom_site_symmetry_multiplicity
 _atom_site_fract_x
 _atom_site_fract_y
 _atom_site_fract_z
 _atom_site_occupancy
  Ca  Ca0  1  0.004177  0.734864  0.750000  1
  Ca  Ca1  1  0.730685  0.734864  0.250000  1
  Yb  Yb2  1  0.269904  0.265118  0.750000  1
  Yb  Yb3  1  0.732072  0.000095  0.750000  1
  Yb  Yb4  1  0.334485  0.668972  0.500000  1
  Yb  Yb5  1  0.268023  0.000095  0.250000  1
  Yb  Yb6  1  0.995215  0.265118  0.250000  1
  Yb  Yb7  1  0.665489  0.330976  0.500000  1
  Yb  Yb8  1  0.334485  0.668972  0.000000  1
  Yb  Yb9  1  0.665489  0.330976  0.000000  1
  Bi  Bi10  1  0.378828  0.381109  0.250000  1
  Bi  Bi11  1  0.002280  0.381109  0.750000  1
  Bi  Bi12  1  0.620867  0.618527  0.750000  1
  Bi  Bi13  1  0.997661  0.618527  0.250000  1
  Pb  Pb14  1  0.612883  0.000339  0.250000  1
  Pb  Pb15  1  0.387456  0.000339  0.750000  1
