# generated using pymatgen
data_La2B4Ru3Rh
_symmetry_space_group_name_H-M   'P 1'
_cell_length_a   6.90555100
_cell_length_b   6.07516050
_cell_length_c   5.61612343
_cell_angle_alpha   72.28655174
_cell_angle_beta   56.93389113
_cell_angle_gamma   51.02186351
_symmetry_Int_Tables_number   1
_chemical_formula_structural   La2B4Ru3Rh
_chemical_formula_sum   'La2 B4 Ru3 Rh1'
_cell_volume   153.22081590
_cell_formula_units_Z   1
loop_
 _symmetry_equiv_pos_site_id
 _symmetry_equiv_pos_as_xyz
  1  'x, y, z'
loop_
 _atom_site_type_symbol
 _atom_site_label
 _atom_site_symmetry_multiplicity
 _atom_site_fract_x
 _atom_site_fract_y
 _atom_site_fract_z
 _atom_site_occupancy
  La  La0  1  0.001509  0.001509  0.998491  1
  La  La1  1  0.250211  0.250211  0.249789  1
  B  B2  1  0.319400  0.674607  0.317849  1
  B  B3  1  0.674607  0.319400  0.688145  1
  B  B4  1  0.575114  0.927805  0.574712  1
  B  B5  1  0.927805  0.575114  0.922369  1
  Ru  Ru6  1  0.364931  0.364931  0.635069  1
  Ru  Ru7  1  0.614467  0.614467  0.885533  1
  Ru  Ru8  1  0.886473  0.886473  0.613527  1
  Rh  Rh9  1  0.635484  0.635484  0.364516  1
