# generated using pymatgen
data_Dy8ReRu2WC8
_symmetry_space_group_name_H-M   'P 1'
_cell_length_a   5.10360600
_cell_length_b   6.56714640
_cell_length_c   9.88376962
_cell_angle_alpha   90.21950138
_cell_angle_beta   90.00000000
_cell_angle_gamma   90.00000000
_symmetry_Int_Tables_number   1
_chemical_formula_structural   Dy8ReRu2WC8
_chemical_formula_sum   'Dy8 Re1 Ru2 W1 C8'
_cell_volume   331.26325425
_cell_formula_units_Z   1
loop_
 _symmetry_equiv_pos_site_id
 _symmetry_equiv_pos_as_xyz
  1  'x, y, z'
loop_
 _atom_site_type_symbol
 _atom_site_label
 _atom_site_symmetry_multiplicity
 _atom_site_fract_x
 _atom_site_fract_y
 _atom_site_fract_z
 _atom_site_occupancy
  Dy  Dy0  1  0.250000  0.819217  0.941115  1
  Dy  Dy1  1  0.250000  0.323460  0.555374  1
  Dy  Dy2  1  0.750000  0.175201  0.056600  1
  Dy  Dy3  1  0.750000  0.681084  0.441391  1
  Dy  Dy4  1  0.250000  0.468285  0.214688  1
  Dy  Dy5  1  0.250000  0.967680  0.282923  1
  Dy  Dy6  1  0.750000  0.535284  0.781986  1
  Dy  Dy7  1  0.750000  0.030987  0.716044  1
  Re  Re8  1  0.750000  0.221033  0.364757  1
  Ru  Ru9  1  0.250000  0.778171  0.632552  1
  Ru  Ru10  1  0.750000  0.720618  0.134333  1
  W  W11  1  0.250000  0.280473  0.866718  1
  C  C12  1  0.250000  0.044541  0.741072  1
  C  C13  1  0.250000  0.547026  0.759239  1
  C  C14  1  0.750000  0.955408  0.260887  1
  C  C15  1  0.750000  0.454030  0.243815  1
  C  C16  1  0.250000  0.676410  0.449820  1
  C  C17  1  0.250000  0.176506  0.054925  1
  C  C18  1  0.750000  0.321333  0.549491  1
  C  C19  1  0.750000  0.823253  0.952271  1
