# generated using pymatgen
data_Hf6Sc3(In2Co)7
_symmetry_space_group_name_H-M   'P 1'
_cell_length_a   9.43730260
_cell_length_b   9.42345376
_cell_length_c   9.42345435
_cell_angle_alpha   59.98501701
_cell_angle_beta   60.02056676
_cell_angle_gamma   60.02058132
_symmetry_Int_Tables_number   1
_chemical_formula_structural   Hf6Sc3(In2Co)7
_chemical_formula_sum   'Hf6 Sc3 In14 Co7'
_cell_volume   592.70538274
_cell_formula_units_Z   1
loop_
 _symmetry_equiv_pos_site_id
 _symmetry_equiv_pos_as_xyz
  1  'x, y, z'
loop_
 _atom_site_type_symbol
 _atom_site_label
 _atom_site_symmetry_multiplicity
 _atom_site_fract_x
 _atom_site_fract_y
 _atom_site_fract_z
 _atom_site_occupancy
  Hf  Hf0  1  0.119550  0.642161  0.118898  1
  Hf  Hf1  1  0.356224  0.882819  0.879062  1
  Hf  Hf2  1  0.881902  0.882977  0.879148  1
  Hf  Hf3  1  0.643776  0.120938  0.117181  1
  Hf  Hf4  1  0.880450  0.881102  0.357839  1
  Hf  Hf5  1  0.118098  0.120852  0.117023  1
  Sc  Sc6  1  0.500000  0.497787  0.502213  1
  Sc  Sc7  1  0.880328  0.361661  0.877444  1
  Sc  Sc8  1  0.119672  0.122556  0.638339  1
  In  In9  1  0.500000  0.842226  0.157774  1
  In  In10  1  0.499415  0.842708  0.500209  1
  In  In11  1  0.499577  0.156243  0.500558  1
  In  In12  1  0.500423  0.499442  0.843757  1
  In  In13  1  0.157010  0.499275  0.500965  1
  In  In14  1  0.844100  0.156569  0.500139  1
  In  In15  1  0.157671  0.842733  0.500159  1
  In  In16  1  0.500000  0.155604  0.844396  1
  In  In17  1  0.155900  0.499861  0.843431  1
  In  In18  1  0.500585  0.499791  0.157292  1
  In  In19  1  0.842990  0.499035  0.500725  1
  In  In20  1  0.842329  0.499841  0.157267  1
  In  In21  1  0.251254  0.250127  0.246818  1
  In  In22  1  0.748746  0.753182  0.749873  1
  Co  Co23  1  0.782216  0.781938  0.218073  1
  Co  Co24  1  0.000000  0.997820  0.002180  1
  Co  Co25  1  0.217784  0.781927  0.218062  1
  Co  Co26  1  0.219910  0.776202  0.784066  1
  Co  Co27  1  0.225940  0.218346  0.781658  1
  Co  Co28  1  0.774060  0.218342  0.781654  1
  Co  Co29  1  0.780090  0.215934  0.223798  1
