# generated using pymatgen
data_Hf4Zr4Tl4Co3Cu5
_symmetry_space_group_name_H-M   'P 1'
_cell_length_a   7.26823623
_cell_length_b   7.26823550
_cell_length_c   6.75582718
_cell_angle_alpha   89.95987975
_cell_angle_beta   89.95988057
_cell_angle_gamma   90.04809101
_symmetry_Int_Tables_number   1
_chemical_formula_structural   Hf4Zr4Tl4Co3Cu5
_chemical_formula_sum   'Hf4 Zr4 Tl4 Co3 Cu5'
_cell_volume   356.89148793
_cell_formula_units_Z   1
loop_
 _symmetry_equiv_pos_site_id
 _symmetry_equiv_pos_as_xyz
  1  'x, y, z'
loop_
 _atom_site_type_symbol
 _atom_site_label
 _atom_site_symmetry_multiplicity
 _atom_site_fract_x
 _atom_site_fract_y
 _atom_site_fract_z
 _atom_site_occupancy
  Hf  Hf0  1  0.651047  0.354296  0.492362  1
  Hf  Hf1  1  0.354296  0.651047  0.492362  1
  Hf  Hf2  1  0.674896  0.338497  0.008178  1
  Hf  Hf3  1  0.338497  0.674896  0.008178  1
  Zr  Zr4  1  0.155877  0.155877  0.005354  1
  Zr  Zr5  1  0.829927  0.829927  0.996886  1
  Zr  Zr6  1  0.805192  0.805192  0.502309  1
  Zr  Zr7  1  0.192750  0.192750  0.491202  1
  Tl  Tl8  1  0.501724  0.004879  0.245876  1
  Tl  Tl9  1  0.498213  0.000943  0.752785  1
  Tl  Tl10  1  0.004879  0.501724  0.245876  1
  Tl  Tl11  1  0.000943  0.498213  0.752785  1
  Co  Co12  1  0.373506  0.373506  0.224880  1
  Co  Co13  1  0.619634  0.619634  0.768276  1
  Co  Co14  1  0.627570  0.627570  0.228498  1
  Cu  Cu15  1  0.875491  0.123800  0.710740  1
  Cu  Cu16  1  0.874868  0.121513  0.287147  1
  Cu  Cu17  1  0.375375  0.375375  0.788416  1
  Cu  Cu18  1  0.121513  0.874868  0.287147  1
  Cu  Cu19  1  0.123800  0.875491  0.710740  1
