# generated using pymatgen
data_Tm7(PaGa4)5
_symmetry_space_group_name_H-M   'P 1'
_cell_length_a   6.03963823
_cell_length_b   9.51027433
_cell_length_c   11.58325852
_cell_angle_alpha   89.97081754
_cell_angle_beta   89.81293782
_cell_angle_gamma   89.99017038
_symmetry_Int_Tables_number   1
_chemical_formula_structural   Tm7(PaGa4)5
_chemical_formula_sum   'Tm7 Pa5 Ga20'
_cell_volume   665.32270118
_cell_formula_units_Z   1
loop_
 _symmetry_equiv_pos_site_id
 _symmetry_equiv_pos_as_xyz
  1  'x, y, z'
loop_
 _atom_site_type_symbol
 _atom_site_label
 _atom_site_symmetry_multiplicity
 _atom_site_fract_x
 _atom_site_fract_y
 _atom_site_fract_z
 _atom_site_occupancy
  Tm  Tm0  1  0.856704  0.745668  0.072864  1
  Tm  Tm1  1  0.638474  0.752657  0.573650  1
  Tm  Tm2  1  0.143473  0.245776  0.927212  1
  Tm  Tm3  1  0.356515  0.255594  0.427988  1
  Tm  Tm4  1  0.385563  0.002982  0.148969  1
  Tm  Tm5  1  0.883608  0.998082  0.350438  1
  Tm  Tm6  1  0.616541  0.502306  0.850832  1
  Pa  Pa7  1  0.881635  0.504266  0.351521  1
  Pa  Pa8  1  0.619390  0.994814  0.851476  1
  Pa  Pa9  1  0.117836  0.003112  0.648972  1
  Pa  Pa10  1  0.383762  0.495875  0.149545  1
  Pa  Pa11  1  0.116768  0.498984  0.646753  1
  Ga  Ga12  1  0.867009  0.049597  0.091763  1
  Ga  Ga13  1  0.629204  0.449343  0.592368  1
  Ga  Ga14  1  0.134684  0.549854  0.909552  1
  Ga  Ga15  1  0.365244  0.952035  0.406831  1
  Ga  Ga16  1  0.129113  0.944200  0.909283  1
  Ga  Ga17  1  0.370438  0.557143  0.409507  1
  Ga  Ga18  1  0.873656  0.443798  0.090879  1
  Ga  Ga19  1  0.627585  0.054252  0.591006  1
  Ga  Ga20  1  0.160093  0.752246  0.260258  1
  Ga  Ga21  1  0.340395  0.748943  0.764593  1
  Ga  Ga22  1  0.842891  0.250831  0.737496  1
  Ga  Ga23  1  0.659326  0.249214  0.238551  1
  Ga  Ga24  1  0.392979  0.748475  0.998207  1
  Ga  Ga25  1  0.105137  0.753634  0.495210  1
  Ga  Ga26  1  0.608915  0.247808  0.002706  1
  Ga  Ga27  1  0.889453  0.251117  0.503537  1
  Ga  Ga28  1  0.601064  0.751101  0.295834  1
  Ga  Ga29  1  0.902508  0.747133  0.792472  1
  Ga  Ga30  1  0.398316  0.250051  0.704806  1
  Ga  Ga31  1  0.101723  0.249109  0.204919  1
