# generated using pymatgen
data_Ba2AgSb4Au3
_symmetry_space_group_name_H-M   'P 1'
_cell_length_a   4.87537000
_cell_length_b   4.95821203
_cell_length_c   11.40416873
_cell_angle_alpha   89.04386184
_cell_angle_beta   90.00000000
_cell_angle_gamma   90.00000000
_symmetry_Int_Tables_number   1
_chemical_formula_structural   Ba2AgSb4Au3
_chemical_formula_sum   'Ba2 Ag1 Sb4 Au3'
_cell_volume   275.63593427
_cell_formula_units_Z   1
loop_
 _symmetry_equiv_pos_site_id
 _symmetry_equiv_pos_as_xyz
  1  'x, y, z'
loop_
 _atom_site_type_symbol
 _atom_site_label
 _atom_site_symmetry_multiplicity
 _atom_site_fract_x
 _atom_site_fract_y
 _atom_site_fract_z
 _atom_site_occupancy
  Ba  Ba0  1  0.250000  0.737406  0.755347  1
  Ba  Ba1  1  0.750000  0.261054  0.244649  1
  Ag  Ag2  1  0.750000  0.690143  0.000355  1
  Sb  Sb3  1  0.750000  0.752099  0.500117  1
  Sb  Sb4  1  0.250000  0.248678  0.499665  1
  Sb  Sb5  1  0.250000  0.801362  0.125927  1
  Sb  Sb6  1  0.750000  0.196038  0.874240  1
  Au  Au7  1  0.750000  0.251276  0.633027  1
  Au  Au8  1  0.250000  0.749577  0.367559  1
  Au  Au9  1  0.250000  0.312367  0.999114  1
