# generated using pymatgen
data_Tb8Si12Ni2PdAu
_symmetry_space_group_name_H-M   'P 1'
_cell_length_a   8.07758100
_cell_length_b   8.07758145
_cell_length_c   8.17518800
_cell_angle_alpha   90.00000000
_cell_angle_beta   90.00000000
_cell_angle_gamma   120.00001754
_symmetry_Int_Tables_number   1
_chemical_formula_structural   Tb8Si12Ni2PdAu
_chemical_formula_sum   'Tb8 Si12 Ni2 Pd1 Au1'
_cell_volume   461.94574503
_cell_formula_units_Z   1
loop_
 _symmetry_equiv_pos_site_id
 _symmetry_equiv_pos_as_xyz
  1  'x, y, z'
loop_
 _atom_site_type_symbol
 _atom_site_label
 _atom_site_symmetry_multiplicity
 _atom_site_fract_x
 _atom_site_fract_y
 _atom_site_fract_z
 _atom_site_occupancy
  Tb  Tb0  1  0.504362  0.008723  0.252228  1
  Tb  Tb1  1  0.503741  0.007482  0.747937  1
  Tb  Tb2  1  0.991277  0.495639  0.252228  1
  Tb  Tb3  1  0.992518  0.496259  0.747937  1
  Tb  Tb4  1  0.504361  0.495639  0.252228  1
  Tb  Tb5  1  0.503741  0.496259  0.747936  1
  Tb  Tb6  1  0.000000  0.000000  0.251846  1
  Tb  Tb7  1  0.000000  0.000000  0.747493  1
  Si  Si8  1  0.161205  0.322411  0.999425  1
  Si  Si9  1  0.826917  0.653834  0.999943  1
  Si  Si10  1  0.677589  0.838795  0.999425  1
  Si  Si11  1  0.828564  0.657129  0.501130  1
  Si  Si12  1  0.346166  0.173083  0.999943  1
  Si  Si13  1  0.165071  0.330143  0.498887  1
  Si  Si14  1  0.161205  0.838795  0.999425  1
  Si  Si15  1  0.342871  0.171436  0.501130  1
  Si  Si16  1  0.826917  0.173083  0.999943  1
  Si  Si17  1  0.669857  0.834929  0.498887  1
  Si  Si18  1  0.828564  0.171436  0.501130  1
  Si  Si19  1  0.165071  0.834929  0.498887  1
  Ni  Ni20  1  0.666665  0.333334  0.000788  1
  Ni  Ni21  1  0.666667  0.333334  0.500550  1
  Pd  Pd22  1  0.333333  0.666667  0.499391  1
  Au  Au23  1  0.333333  0.666667  0.001282  1
