# generated using pymatgen
data_Sr5(LiAg)3
_symmetry_space_group_name_H-M   'P 1'
_cell_length_a   16.98184484
_cell_length_b   16.98184489
_cell_length_c   4.58978200
_cell_angle_alpha   90.00000000
_cell_angle_beta   90.00000000
_cell_angle_gamma   164.25671870
_symmetry_Int_Tables_number   1
_chemical_formula_structural   Sr5(LiAg)3
_chemical_formula_sum   'Sr5 Li3 Ag3'
_cell_volume   359.13336057
_cell_formula_units_Z   1
loop_
 _symmetry_equiv_pos_site_id
 _symmetry_equiv_pos_as_xyz
  1  'x, y, z'
loop_
 _atom_site_type_symbol
 _atom_site_label
 _atom_site_symmetry_multiplicity
 _atom_site_fract_x
 _atom_site_fract_y
 _atom_site_fract_z
 _atom_site_occupancy
  Sr  Sr0  1  0.998903  0.001097  0.000000  1
  Sr  Sr1  1  0.615579  0.384419  0.000000  1
  Sr  Sr2  1  0.383374  0.616624  0.000000  1
  Sr  Sr3  1  0.803825  0.196173  0.500001  1
  Sr  Sr4  1  0.194743  0.805255  0.500001  1
  Li  Li5  1  0.727742  0.272256  0.000000  1
  Li  Li6  1  0.916234  0.083765  0.500001  1
  Li  Li7  1  0.540141  0.459857  0.500001  1
  Ag  Ag8  1  0.273858  0.726140  0.000000  1
  Ag  Ag9  1  0.458668  0.541330  0.500001  1
  Ag  Ag10  1  0.086925  0.913074  0.500001  1
