# generated using pymatgen
data_Ho5Tm11(HgRh)4
_symmetry_space_group_name_H-M   'P 1'
_cell_length_a   9.51278883
_cell_length_b   9.51006045
_cell_length_c   9.51005954
_cell_angle_alpha   59.85413734
_cell_angle_beta   59.79646889
_cell_angle_gamma   59.79647416
_symmetry_Int_Tables_number   1
_chemical_formula_structural   Ho5Tm11(HgRh)4
_chemical_formula_sum   'Ho5 Tm11 Hg4 Rh4'
_cell_volume   605.81272461
_cell_formula_units_Z   1
loop_
 _symmetry_equiv_pos_site_id
 _symmetry_equiv_pos_as_xyz
  1  'x, y, z'
loop_
 _atom_site_type_symbol
 _atom_site_label
 _atom_site_symmetry_multiplicity
 _atom_site_fract_x
 _atom_site_fract_y
 _atom_site_fract_z
 _atom_site_occupancy
  Ho  Ho0  1  0.063459  0.063515  0.436654  1
  Ho  Ho1  1  0.437093  0.062103  0.436789  1
  Ho  Ho2  1  0.063459  0.436654  0.063515  1
  Ho  Ho3  1  0.054837  0.647761  0.647761  1
  Ho  Ho4  1  0.437093  0.436789  0.062103  1
  Tm  Tm5  1  0.648107  0.053867  0.647832  1
  Tm  Tm6  1  0.188274  0.812610  0.188123  1
  Tm  Tm7  1  0.188274  0.188123  0.812610  1
  Tm  Tm8  1  0.811133  0.811496  0.189765  1
  Tm  Tm9  1  0.438248  0.062016  0.062016  1
  Tm  Tm10  1  0.812046  0.188434  0.188434  1
  Tm  Tm11  1  0.061492  0.437664  0.437664  1
  Tm  Tm12  1  0.811133  0.189765  0.811496  1
  Tm  Tm13  1  0.189634  0.811825  0.811825  1
  Tm  Tm14  1  0.648107  0.647832  0.053867  1
  Tm  Tm15  1  0.649044  0.649462  0.649462  1
  Hg  Hg16  1  0.415721  0.416116  0.416116  1
  Hg  Hg17  1  0.753813  0.415677  0.415677  1
  Hg  Hg18  1  0.416390  0.753815  0.414484  1
  Hg  Hg19  1  0.416390  0.414484  0.753815  1
  Rh  Rh20  1  0.855860  0.856752  0.428389  1
  Rh  Rh21  1  0.855325  0.858148  0.858148  1
  Rh  Rh22  1  0.429201  0.856700  0.856700  1
  Rh  Rh23  1  0.855860  0.428389  0.856752  1
