# generated using pymatgen
data_Sc12Fe3Si12Pt
_symmetry_space_group_name_H-M   'P 1'
_cell_length_a   4.01569200
_cell_length_b   10.09256790
_cell_length_c   11.64127548
_cell_angle_alpha   89.90511289
_cell_angle_beta   90.00000000
_cell_angle_gamma   90.00000000
_symmetry_Int_Tables_number   1
_chemical_formula_structural   Sc12Fe3Si12Pt
_chemical_formula_sum   'Sc12 Fe3 Si12 Pt1'
_cell_volume   471.80446497
_cell_formula_units_Z   1
loop_
 _symmetry_equiv_pos_site_id
 _symmetry_equiv_pos_as_xyz
  1  'x, y, z'
loop_
 _atom_site_type_symbol
 _atom_site_label
 _atom_site_symmetry_multiplicity
 _atom_site_fract_x
 _atom_site_fract_y
 _atom_site_fract_z
 _atom_site_occupancy
  Sc  Sc0  1  0.250000  0.882116  0.025963  1
  Sc  Sc1  1  0.250000  0.617699  0.523692  1
  Sc  Sc2  1  0.750000  0.125147  0.981007  1
  Sc  Sc3  1  0.750000  0.381529  0.472736  1
  Sc  Sc4  1  0.250000  0.919716  0.602894  1
  Sc  Sc5  1  0.250000  0.580301  0.101354  1
  Sc  Sc6  1  0.750000  0.078578  0.400409  1
  Sc  Sc7  1  0.750000  0.420918  0.900572  1
  Sc  Sc8  1  0.250000  0.651484  0.798722  1
  Sc  Sc9  1  0.250000  0.840907  0.298786  1
  Sc  Sc10  1  0.750000  0.341817  0.201255  1
  Sc  Sc11  1  0.750000  0.167295  0.697550  1
  Fe  Fe12  1  0.250000  0.389686  0.675001  1
  Fe  Fe13  1  0.250000  0.108216  0.176112  1
  Fe  Fe14  1  0.750000  0.608860  0.323472  1
  Si  Si15  1  0.250000  0.020521  0.824325  1
  Si  Si16  1  0.250000  0.495057  0.320571  1
  Si  Si17  1  0.750000  0.994678  0.180038  1
  Si  Si18  1  0.750000  0.499970  0.678462  1
  Si  Si19  1  0.250000  0.257759  0.837493  1
  Si  Si20  1  0.250000  0.245138  0.336296  1
  Si  Si21  1  0.750000  0.746361  0.163491  1
  Si  Si22  1  0.750000  0.744202  0.655006  1
  Si  Si23  1  0.250000  0.201491  0.544230  1
  Si  Si24  1  0.250000  0.301874  0.047897  1
  Si  Si25  1  0.750000  0.799680  0.451768  1
  Si  Si26  1  0.750000  0.691114  0.958213  1
  Pt  Pt27  1  0.750000  0.887888  0.822684  1
