# generated using pymatgen
data_EuErTm2(Si5Pt3)2
_symmetry_space_group_name_H-M   'P 1'
_cell_length_a   8.16701198
_cell_length_b   8.16514320
_cell_length_c   8.16514321
_cell_angle_alpha   136.64823372
_cell_angle_beta   104.08052112
_cell_angle_gamma   91.69044147
_symmetry_Int_Tables_number   1
_chemical_formula_structural   EuErTm2(Si5Pt3)2
_chemical_formula_sum   'Eu1 Er1 Tm2 Si10 Pt6'
_cell_volume   344.69065246
_cell_formula_units_Z   1
loop_
 _symmetry_equiv_pos_site_id
 _symmetry_equiv_pos_as_xyz
  1  'x, y, z'
loop_
 _atom_site_type_symbol
 _atom_site_label
 _atom_site_symmetry_multiplicity
 _atom_site_fract_x
 _atom_site_fract_y
 _atom_site_fract_z
 _atom_site_occupancy
  Eu  Eu0  1  0.361642  0.629068  0.732573  1
  Er  Er1  1  0.641557  0.371475  0.270082  1
  Tm  Tm2  1  0.099183  0.870760  0.228424  1
  Tm  Tm3  1  0.899917  0.128974  0.770943  1
  Si  Si4  1  0.001185  0.745774  0.746348  1
  Si  Si5  1  0.001185  0.254837  0.255411  1
  Si  Si6  1  0.271086  0.019692  0.748411  1
  Si  Si7  1  0.727784  0.479826  0.749653  1
  Si  Si8  1  0.727784  0.978131  0.247958  1
  Si  Si9  1  0.271086  0.522675  0.251395  1
  Si  Si10  1  0.761271  0.611533  0.149739  1
  Si  Si11  1  0.235857  0.386261  0.849596  1
  Si  Si12  1  0.458742  0.111444  0.347297  1
  Si  Si13  1  0.542065  0.889500  0.652564  1
  Pt  Pt14  1  0.500341  0.750690  0.252793  1
  Pt  Pt15  1  0.500341  0.247548  0.749650  1
  Pt  Pt16  1  0.020901  0.638398  0.382502  1
  Pt  Pt17  1  0.974392  0.359125  0.615267  1
  Pt  Pt18  1  0.249467  0.137296  0.112171  1
  Pt  Pt19  1  0.754213  0.866990  0.887224  1
