# generated using pymatgen
data_Pr3Nd3Tl10
_symmetry_space_group_name_H-M   'P 1'
_cell_length_a   6.70500907
_cell_length_b   6.70641272
_cell_length_c   10.78559058
_cell_angle_alpha   90.03785116
_cell_angle_beta   90.03671150
_cell_angle_gamma   102.14501954
_symmetry_Int_Tables_number   1
_chemical_formula_structural   Pr3Nd3Tl10
_chemical_formula_sum   'Pr3 Nd3 Tl10'
_cell_volume   474.13567615
_cell_formula_units_Z   1
loop_
 _symmetry_equiv_pos_site_id
 _symmetry_equiv_pos_as_xyz
  1  'x, y, z'
loop_
 _atom_site_type_symbol
 _atom_site_label
 _atom_site_symmetry_multiplicity
 _atom_site_fract_x
 _atom_site_fract_y
 _atom_site_fract_z
 _atom_site_occupancy
  Pr  Pr0  1  0.202857  0.797040  0.499916  1
  Pr  Pr1  1  0.203107  0.796729  0.999994  1
  Pr  Pr2  1  0.796794  0.202867  0.500004  1
  Nd  Nd3  1  0.626980  0.626843  0.250195  1
  Nd  Nd4  1  0.373138  0.373247  0.749863  1
  Nd  Nd5  1  0.797119  0.202852  0.999953  1
  Tl  Tl6  1  0.008993  0.009539  0.249214  1
  Tl  Tl7  1  0.990486  0.990847  0.750749  1
  Tl  Tl8  1  0.306612  0.306749  0.042815  1
  Tl  Tl9  1  0.693267  0.693562  0.957388  1
  Tl  Tl10  1  0.306996  0.306831  0.456672  1
  Tl  Tl11  1  0.693206  0.692849  0.543273  1
  Tl  Tl12  1  0.510384  0.071691  0.249238  1
  Tl  Tl13  1  0.928375  0.489750  0.750696  1
  Tl  Tl14  1  0.490981  0.929446  0.750245  1
  Tl  Tl15  1  0.070705  0.509155  0.249786  1
