# generated using pymatgen
data_Te3PdCl16
_symmetry_space_group_name_H-M   'P 1'
_cell_length_a   10.51917838
_cell_length_b   10.51917888
_cell_length_c   12.65755100
_cell_angle_alpha   90.00000000
_cell_angle_beta   90.00000000
_cell_angle_gamma   103.19756741
_symmetry_Int_Tables_number   1
_chemical_formula_structural   Te3PdCl16
_chemical_formula_sum   'Te6 Pd2 Cl32'
_cell_volume   1363.60575280
_cell_formula_units_Z   2
loop_
 _symmetry_equiv_pos_site_id
 _symmetry_equiv_pos_as_xyz
  1  'x, y, z'
loop_
 _atom_site_type_symbol
 _atom_site_label
 _atom_site_symmetry_multiplicity
 _atom_site_fract_x
 _atom_site_fract_y
 _atom_site_fract_z
 _atom_site_occupancy
  Te  Te0  1  0.537462  0.266175  0.998485  1
  Te  Te1  1  0.462538  0.733825  0.498485  1
  Te  Te2  1  0.733825  0.462538  0.498485  1
  Te  Te3  1  0.266175  0.537462  0.998485  1
  Te  Te4  1  0.138845  0.138845  0.728967  1
  Te  Te5  1  0.861155  0.861155  0.228967  1
  Pd  Pd6  1  0.664456  0.664456  0.982238  1
  Pd  Pd7  1  0.335544  0.335544  0.482238  1
  Cl  Cl8  1  0.730714  0.252105  0.089375  1
  Cl  Cl9  1  0.269286  0.747895  0.589375  1
  Cl  Cl10  1  0.747895  0.269286  0.589375  1
  Cl  Cl11  1  0.252105  0.730714  0.089375  1
  Cl  Cl12  1  0.566276  0.123763  0.861947  1
  Cl  Cl13  1  0.433724  0.876237  0.361947  1
  Cl  Cl14  1  0.876237  0.433724  0.361947  1
  Cl  Cl15  1  0.123763  0.566276  0.861947  1
  Cl  Cl16  1  0.401639  0.108396  0.108258  1
  Cl  Cl17  1  0.598361  0.891604  0.608258  1
  Cl  Cl18  1  0.891604  0.598361  0.608258  1
  Cl  Cl19  1  0.108396  0.401639  0.108258  1
  Cl  Cl20  1  0.001795  0.001795  0.609151  1
  Cl  Cl21  1  0.998205  0.998205  0.109151  1
  Cl  Cl22  1  0.177732  0.960986  0.828976  1
  Cl  Cl23  1  0.822268  0.039014  0.328976  1
  Cl  Cl24  1  0.039014  0.822268  0.328976  1
  Cl  Cl25  1  0.960986  0.177732  0.828976  1
  Cl  Cl26  1  0.645367  0.848409  0.081585  1
  Cl  Cl27  1  0.354633  0.151591  0.581585  1
  Cl  Cl28  1  0.151591  0.354633  0.581585  1
  Cl  Cl29  1  0.848409  0.645367  0.081585  1
  Cl  Cl30  1  0.797476  0.797476  0.863369  1
  Cl  Cl31  1  0.202524  0.202524  0.363369  1
  Cl  Cl32  1  0.685908  0.483265  0.879453  1
  Cl  Cl33  1  0.314092  0.516735  0.379453  1
  Cl  Cl34  1  0.516735  0.314092  0.379453  1
  Cl  Cl35  1  0.483265  0.685908  0.879453  1
  Cl  Cl36  1  0.523433  0.523433  0.107100  1
  Cl  Cl37  1  0.476567  0.476567  0.607100  1
  Cl  Cl38  1  0.310390  0.310390  0.889867  1
  Cl  Cl39  1  0.689610  0.689610  0.389867  1
