# generated using pymatgen
data_DyYB4(IrOs)2
_symmetry_space_group_name_H-M   'P 1'
_cell_length_a   6.80124811
_cell_length_b   6.00316299
_cell_length_c   5.57025009
_cell_angle_alpha   71.87188305
_cell_angle_beta   57.01824624
_cell_angle_gamma   51.10988403
_symmetry_Int_Tables_number   1
_chemical_formula_structural   DyYB4(IrOs)2
_chemical_formula_sum   'Dy1 Y1 B4 Ir2 Os2'
_cell_volume   148.32760127
_cell_formula_units_Z   1
loop_
 _symmetry_equiv_pos_site_id
 _symmetry_equiv_pos_as_xyz
  1  'x, y, z'
loop_
 _atom_site_type_symbol
 _atom_site_label
 _atom_site_symmetry_multiplicity
 _atom_site_fract_x
 _atom_site_fract_y
 _atom_site_fract_z
 _atom_site_occupancy
  Dy  Dy0  1  0.750000  0.750000  0.750000  1
  Y  Y1  1  0.500000  0.500000  0.500000  1
  B  B2  1  0.180421  0.819579  0.180421  1
  B  B3  1  0.057688  0.442312  0.057688  1
  B  B4  1  0.819579  0.180421  0.819579  1
  B  B5  1  0.442312  0.057688  0.442312  1
  Ir  Ir6  1  0.385336  0.385336  0.114664  1
  Ir  Ir7  1  0.114664  0.114664  0.385336  1
  Os  Os8  1  0.863671  0.863671  0.136329  1
  Os  Os9  1  0.136329  0.136329  0.863671  1
