# generated using pymatgen
data_PrY7(Ga3Pt)4
_symmetry_space_group_name_H-M   'P 1'
_cell_length_a   8.87504200
_cell_length_b   8.90560274
_cell_length_c   7.07807400
_cell_angle_alpha   90.00000000
_cell_angle_beta   90.00000000
_cell_angle_gamma   120.11495296
_symmetry_Int_Tables_number   1
_chemical_formula_structural   PrY7(Ga3Pt)4
_chemical_formula_sum   'Pr1 Y7 Ga12 Pt4'
_cell_volume   483.92185647
_cell_formula_units_Z   1
loop_
 _symmetry_equiv_pos_site_id
 _symmetry_equiv_pos_as_xyz
  1  'x, y, z'
loop_
 _atom_site_type_symbol
 _atom_site_label
 _atom_site_symmetry_multiplicity
 _atom_site_fract_x
 _atom_site_fract_y
 _atom_site_fract_z
 _atom_site_occupancy
  Pr  Pr0  1  0.039161  0.519572  0.750000  1
  Y  Y1  1  0.999710  0.999826  0.250000  1
  Y  Y2  1  0.999480  0.999772  0.750000  1
  Y  Y3  1  0.519460  0.038253  0.250000  1
  Y  Y4  1  0.519444  0.481246  0.250000  1
  Y  Y5  1  0.961554  0.480787  0.250000  1
  Y  Y6  1  0.482013  0.963316  0.750000  1
  Y  Y7  1  0.482033  0.518658  0.750000  1
  Ga  Ga8  1  0.168191  0.333889  0.048256  1
  Ga  Ga9  1  0.168246  0.834282  0.451748  1
  Ga  Ga10  1  0.666141  0.833086  0.454086  1
  Ga  Ga11  1  0.666141  0.833086  0.045914  1
  Ga  Ga12  1  0.168246  0.834282  0.048252  1
  Ga  Ga13  1  0.831001  0.666520  0.956322  1
  Ga  Ga14  1  0.830945  0.164502  0.956332  1
  Ga  Ga15  1  0.333348  0.166656  0.953265  1
  Ga  Ga16  1  0.168191  0.333889  0.451744  1
  Ga  Ga17  1  0.333348  0.166656  0.546735  1
  Ga  Ga18  1  0.831001  0.666520  0.543678  1
  Ga  Ga19  1  0.830945  0.164502  0.543668  1
  Pt  Pt20  1  0.336124  0.668025  0.035995  1
  Pt  Pt21  1  0.336124  0.668025  0.464005  1
  Pt  Pt22  1  0.664578  0.332325  0.971349  1
  Pt  Pt23  1  0.664578  0.332325  0.528651  1
