# generated using pymatgen
data_Er3Lu5(Ga3Pt)4
_symmetry_space_group_name_H-M   'P 1'
_cell_length_a   8.80272000
_cell_length_b   8.81279697
_cell_length_c   6.92935800
_cell_angle_alpha   90.00000000
_cell_angle_beta   90.00000000
_cell_angle_gamma   119.96379401
_symmetry_Int_Tables_number   1
_chemical_formula_structural   Er3Lu5(Ga3Pt)4
_chemical_formula_sum   'Er3 Lu5 Ga12 Pt4'
_cell_volume   465.70683791
_cell_formula_units_Z   1
loop_
 _symmetry_equiv_pos_site_id
 _symmetry_equiv_pos_as_xyz
  1  'x, y, z'
loop_
 _atom_site_type_symbol
 _atom_site_label
 _atom_site_symmetry_multiplicity
 _atom_site_fract_x
 _atom_site_fract_y
 _atom_site_fract_z
 _atom_site_occupancy
  Er  Er0  1  0.000200  0.999929  0.250000  1
  Er  Er1  1  0.999837  0.000053  0.750000  1
  Er  Er2  1  0.520425  0.040941  0.250000  1
  Lu  Lu3  1  0.520438  0.479683  0.250000  1
  Lu  Lu4  1  0.958902  0.479575  0.250000  1
  Lu  Lu5  1  0.479312  0.958556  0.750000  1
  Lu  Lu6  1  0.479571  0.520473  0.750000  1
  Lu  Lu7  1  0.041279  0.520616  0.750000  1
  Ga  Ga8  1  0.166758  0.333664  0.047310  1
  Ga  Ga9  1  0.166618  0.832660  0.453080  1
  Ga  Ga10  1  0.666325  0.832892  0.453079  1
  Ga  Ga11  1  0.666325  0.832892  0.046921  1
  Ga  Ga12  1  0.166618  0.832660  0.046920  1
  Ga  Ga13  1  0.833258  0.666366  0.952820  1
  Ga  Ga14  1  0.833138  0.167185  0.952502  1
  Ga  Ga15  1  0.333756  0.166972  0.952482  1
  Ga  Ga16  1  0.166758  0.333664  0.452690  1
  Ga  Ga17  1  0.333756  0.166972  0.547518  1
  Ga  Ga18  1  0.833258  0.666366  0.547180  1
  Ga  Ga19  1  0.833138  0.167185  0.547498  1
  Pt  Pt20  1  0.333152  0.666088  0.027524  1
  Pt  Pt21  1  0.333152  0.666088  0.472476  1
  Pt  Pt22  1  0.667013  0.334259  0.971240  1
  Pt  Pt23  1  0.667013  0.334259  0.528760  1
