# generated using pymatgen
data_TbCdGePt3
_symmetry_space_group_name_H-M   'P 1'
_cell_length_a   5.21487523
_cell_length_b   5.21487522
_cell_length_c   5.21487502
_cell_angle_alpha   64.23402528
_cell_angle_beta   64.23402685
_cell_angle_gamma   64.23402782
_symmetry_Int_Tables_number   1
_chemical_formula_structural   TbCdGePt3
_chemical_formula_sum   'Tb1 Cd1 Ge1 Pt3'
_cell_volume   109.61344113
_cell_formula_units_Z   1
loop_
 _symmetry_equiv_pos_site_id
 _symmetry_equiv_pos_as_xyz
  1  'x, y, z'
loop_
 _atom_site_type_symbol
 _atom_site_label
 _atom_site_symmetry_multiplicity
 _atom_site_fract_x
 _atom_site_fract_y
 _atom_site_fract_z
 _atom_site_occupancy
  Tb  Tb0  1  0.249790  0.249790  0.249790  1
  Cd  Cd1  1  0.997164  0.997164  0.997164  1
  Ge  Ge2  1  0.624264  0.624264  0.624264  1
  Pt  Pt3  1  0.627725  0.627725  0.123331  1
  Pt  Pt4  1  0.627725  0.123331  0.627725  1
  Pt  Pt5  1  0.123331  0.627725  0.627725  1
