# generated using pymatgen
data_Rb2Zn(HgSe2)2
_symmetry_space_group_name_H-M   'P 1'
_cell_length_a   9.92832243
_cell_length_b   9.92832246
_cell_length_c   9.92832318
_cell_angle_alpha   141.22716574
_cell_angle_beta   108.35101037
_cell_angle_gamma   84.57903099
_symmetry_Int_Tables_number   1
_chemical_formula_structural   Rb2Zn(HgSe2)2
_chemical_formula_sum   'Rb4 Zn2 Hg4 Se8'
_cell_volume   562.61746219
_cell_formula_units_Z   2
loop_
 _symmetry_equiv_pos_site_id
 _symmetry_equiv_pos_as_xyz
  1  'x, y, z'
loop_
 _atom_site_type_symbol
 _atom_site_label
 _atom_site_symmetry_multiplicity
 _atom_site_fract_x
 _atom_site_fract_y
 _atom_site_fract_z
 _atom_site_occupancy
  Rb  Rb0  1  0.124396  0.773053  0.897450  1
  Rb  Rb1  1  0.875604  0.226947  0.102550  1
  Rb  Rb2  1  0.624396  0.726947  0.351343  1
  Rb  Rb3  1  0.375604  0.273053  0.648657  1
  Zn  Zn4  1  0.250000  0.750000  0.500000  1
  Zn  Zn5  1  0.750000  0.250000  0.500000  1
  Hg  Hg6  1  0.916812  0.750000  0.166812  1
  Hg  Hg7  1  0.583188  0.750000  0.833188  1
  Hg  Hg8  1  0.083188  0.250000  0.833188  1
  Hg  Hg9  1  0.416812  0.250000  0.166812  1
  Se  Se10  1  0.233176  0.651572  0.171472  1
  Se  Se11  1  0.480100  0.061704  0.828528  1
  Se  Se12  1  0.019900  0.848428  0.581603  1
  Se  Se13  1  0.266824  0.438296  0.418397  1
  Se  Se14  1  0.766824  0.348428  0.828528  1
  Se  Se15  1  0.519900  0.938296  0.171472  1
  Se  Se16  1  0.980100  0.151572  0.418397  1
  Se  Se17  1  0.733176  0.561704  0.581603  1
