# generated using pymatgen
data_NdYErSi2Ni
_symmetry_space_group_name_H-M   'P 1'
_cell_length_a   4.13561700
_cell_length_b   11.50323300
_cell_length_c   11.42752600
_cell_angle_alpha   90.00000000
_cell_angle_beta   90.00000000
_cell_angle_gamma   90.00000000
_symmetry_Int_Tables_number   1
_chemical_formula_structural   NdYErSi2Ni
_chemical_formula_sum   'Nd4 Y4 Er4 Si8 Ni4'
_cell_volume   543.64130529
_cell_formula_units_Z   4
loop_
 _symmetry_equiv_pos_site_id
 _symmetry_equiv_pos_as_xyz
  1  'x, y, z'
loop_
 _atom_site_type_symbol
 _atom_site_label
 _atom_site_symmetry_multiplicity
 _atom_site_fract_x
 _atom_site_fract_y
 _atom_site_fract_z
 _atom_site_occupancy
  Nd  Nd0  1  0.250000  0.126559  0.556219  1
  Nd  Nd1  1  0.250000  0.373441  0.056219  1
  Nd  Nd2  1  0.750000  0.873441  0.443781  1
  Nd  Nd3  1  0.750000  0.626559  0.943781  1
  Y  Y4  1  0.250000  0.804503  0.717812  1
  Y  Y5  1  0.250000  0.695497  0.217812  1
  Y  Y6  1  0.750000  0.195497  0.282188  1
  Y  Y7  1  0.750000  0.304503  0.782188  1
  Er  Er8  1  0.250000  0.057380  0.884388  1
  Er  Er9  1  0.250000  0.442620  0.384388  1
  Er  Er10  1  0.750000  0.942620  0.115612  1
  Er  Er11  1  0.750000  0.557380  0.615612  1
  Si  Si12  1  0.250000  0.819018  0.976445  1
  Si  Si13  1  0.250000  0.680982  0.476445  1
  Si  Si14  1  0.750000  0.180982  0.023555  1
  Si  Si15  1  0.750000  0.319018  0.523555  1
  Si  Si16  1  0.250000  0.495054  0.796791  1
  Si  Si17  1  0.250000  0.004946  0.296791  1
  Si  Si18  1  0.750000  0.504946  0.203209  1
  Si  Si19  1  0.750000  0.995054  0.703209  1
  Ni  Ni20  1  0.250000  0.371807  0.625901  1
  Ni  Ni21  1  0.250000  0.128193  0.125901  1
  Ni  Ni22  1  0.750000  0.628193  0.374099  1
  Ni  Ni23  1  0.750000  0.871807  0.874099  1
