# generated using pymatgen
data_Tb2Yb3Dy(MnC3)4
_symmetry_space_group_name_H-M   'P 1'
_cell_length_a   8.07658467
_cell_length_b   8.08099297
_cell_length_c   4.98301000
_cell_angle_alpha   90.00000000
_cell_angle_beta   90.00000000
_cell_angle_gamma   120.10164689
_symmetry_Int_Tables_number   1
_chemical_formula_structural   Tb2Yb3Dy(MnC3)4
_chemical_formula_sum   'Tb2 Yb3 Dy1 Mn4 C12'
_cell_volume   281.36438694
_cell_formula_units_Z   1
loop_
 _symmetry_equiv_pos_site_id
 _symmetry_equiv_pos_as_xyz
  1  'x, y, z'
loop_
 _atom_site_type_symbol
 _atom_site_label
 _atom_site_symmetry_multiplicity
 _atom_site_fract_x
 _atom_site_fract_y
 _atom_site_fract_z
 _atom_site_occupancy
  Tb  Tb0  1  0.312802  0.932306  0.750000  1
  Tb  Tb1  1  0.068349  0.384792  0.750000  1
  Yb  Yb2  1  0.613572  0.686068  0.750000  1
  Yb  Yb3  1  0.926195  0.614921  0.250000  1
  Yb  Yb4  1  0.683158  0.071779  0.250000  1
  Dy  Dy5  1  0.382418  0.314632  0.250000  1
  Mn  Mn6  1  0.996425  0.997856  0.501152  1
  Mn  Mn7  1  0.996425  0.997856  0.998848  1
  Mn  Mn8  1  0.667461  0.330999  0.750000  1
  Mn  Mn9  1  0.332579  0.663078  0.250000  1
  C  C10  1  0.957388  0.771977  0.750000  1
  C  C11  1  0.195612  0.964038  0.250000  1
  C  C12  1  0.774528  0.819979  0.250000  1
  C  C13  1  0.228847  0.192704  0.750000  1
  C  C14  1  0.821085  0.043964  0.750000  1
  C  C15  1  0.040295  0.222821  0.250000  1
  C  C16  1  0.858483  0.578214  0.750000  1
  C  C17  1  0.279122  0.854095  0.250000  1
  C  C18  1  0.581766  0.720836  0.250000  1
  C  C19  1  0.424263  0.282534  0.750000  1
  C  C20  1  0.138792  0.417093  0.250000  1
  C  C21  1  0.720434  0.137459  0.750000  1
