# generated using pymatgen
data_Y2(AlGa)3
_symmetry_space_group_name_H-M   'P 1'
_cell_length_a   6.22276100
_cell_length_b   6.22276152
_cell_length_c   4.68305600
_cell_angle_alpha   90.00000000
_cell_angle_beta   90.00000000
_cell_angle_gamma   119.99999191
_symmetry_Int_Tables_number   1
_chemical_formula_structural   Y2(AlGa)3
_chemical_formula_sum   'Y2 Al3 Ga3'
_cell_volume   157.04578947
_cell_formula_units_Z   1
loop_
 _symmetry_equiv_pos_site_id
 _symmetry_equiv_pos_as_xyz
  1  'x, y, z'
loop_
 _atom_site_type_symbol
 _atom_site_label
 _atom_site_symmetry_multiplicity
 _atom_site_fract_x
 _atom_site_fract_y
 _atom_site_fract_z
 _atom_site_occupancy
  Y  Y0  1  0.333333  0.666667  0.750000  1
  Y  Y1  1  0.666667  0.333333  0.250000  1
  Al  Al2  1  0.854010  0.708022  0.750000  1
  Al  Al3  1  0.291978  0.145990  0.750000  1
  Al  Al4  1  0.854010  0.145990  0.750000  1
  Ga  Ga5  1  0.146700  0.293400  0.250000  1
  Ga  Ga6  1  0.706600  0.853300  0.250000  1
  Ga  Ga7  1  0.146700  0.853300  0.250000  1
