# generated using pymatgen
data_Sr15Ac(NdPt4)4
_symmetry_space_group_name_H-M   'P 1'
_cell_length_a   7.92992834
_cell_length_b   8.08842683
_cell_length_c   15.57629000
_cell_angle_alpha   90.08852471
_cell_angle_beta   90.08796033
_cell_angle_gamma   90.05806350
_symmetry_Int_Tables_number   1
_chemical_formula_structural   Sr15Ac(NdPt4)4
_chemical_formula_sum   'Sr15 Ac1 Nd4 Pt16'
_cell_volume   999.07040458
_cell_formula_units_Z   1
loop_
 _symmetry_equiv_pos_site_id
 _symmetry_equiv_pos_as_xyz
  1  'x, y, z'
loop_
 _atom_site_type_symbol
 _atom_site_label
 _atom_site_symmetry_multiplicity
 _atom_site_fract_x
 _atom_site_fract_y
 _atom_site_fract_z
 _atom_site_occupancy
  Sr  Sr0  1  0.165091  0.328133  0.379972  1
  Sr  Sr1  1  0.335835  0.827851  0.618575  1
  Sr  Sr2  1  0.836606  0.670765  0.881651  1
  Sr  Sr3  1  0.492188  0.323336  0.903890  1
  Sr  Sr4  1  0.989420  0.178551  0.597283  1
  Sr  Sr5  1  0.510207  0.679553  0.401869  1
  Sr  Sr6  1  0.008253  0.821512  0.096971  1
  Sr  Sr7  1  0.508054  0.677584  0.097433  1
  Sr  Sr8  1  0.006676  0.819235  0.407046  1
  Sr  Sr9  1  0.493679  0.319631  0.593865  1
  Sr  Sr10  1  0.990388  0.183618  0.905791  1
  Sr  Sr11  1  0.172491  0.485342  0.748419  1
  Sr  Sr12  1  0.676897  0.014951  0.749720  1
  Sr  Sr13  1  0.828759  0.515604  0.250298  1
  Sr  Sr14  1  0.322434  0.985610  0.250444  1
  Ac  Ac15  1  0.333977  0.833878  0.879106  1
  Nd  Nd16  1  0.832947  0.670267  0.623597  1
  Nd  Nd17  1  0.666125  0.170094  0.375097  1
  Nd  Nd18  1  0.164224  0.329232  0.123432  1
  Nd  Nd19  1  0.663473  0.172061  0.122052  1
  Pt  Pt20  1  0.330813  0.045872  0.041869  1
  Pt  Pt21  1  0.819899  0.458998  0.463351  1
  Pt  Pt22  1  0.680061  0.958586  0.534963  1
  Pt  Pt23  1  0.172660  0.535881  0.966232  1
  Pt  Pt24  1  0.656696  0.975669  0.962728  1
  Pt  Pt25  1  0.138523  0.530809  0.543892  1
  Pt  Pt26  1  0.360266  0.031176  0.454758  1
  Pt  Pt27  1  0.845629  0.453963  0.044989  1
  Pt  Pt28  1  0.544759  0.622788  0.751572  1
  Pt  Pt29  1  0.041040  0.878186  0.746929  1
  Pt  Pt30  1  0.462157  0.371169  0.245195  1
  Pt  Pt31  1  0.951044  0.126223  0.243461  1
  Pt  Pt32  1  0.286470  0.123188  0.753803  1
  Pt  Pt33  1  0.786211  0.380448  0.745211  1
  Pt  Pt34  1  0.708361  0.884365  0.249435  1
  Pt  Pt35  1  0.217684  0.615870  0.245098  1
