# generated using pymatgen
data_Hf2Mn3Ni9As7
_symmetry_space_group_name_H-M   'P 1'
_cell_length_a   9.42892200
_cell_length_b   9.42892202
_cell_length_c   3.71052900
_cell_angle_alpha   90.00000000
_cell_angle_beta   90.00000000
_cell_angle_gamma   119.99999995
_symmetry_Int_Tables_number   1
_chemical_formula_structural   Hf2Mn3Ni9As7
_chemical_formula_sum   'Hf2 Mn3 Ni9 As7'
_cell_volume   285.68704636
_cell_formula_units_Z   1
loop_
 _symmetry_equiv_pos_site_id
 _symmetry_equiv_pos_as_xyz
  1  'x, y, z'
loop_
 _atom_site_type_symbol
 _atom_site_label
 _atom_site_symmetry_multiplicity
 _atom_site_fract_x
 _atom_site_fract_y
 _atom_site_fract_z
 _atom_site_occupancy
  Hf  Hf0  1  0.333333  0.666667  0.000000  1
  Hf  Hf1  1  0.000000  0.000000  0.500000  1
  Mn  Mn2  1  0.764325  0.557175  0.500000  1
  Mn  Mn3  1  0.442825  0.207150  0.500000  1
  Mn  Mn4  1  0.792850  0.235675  0.500000  1
  Ni  Ni5  1  0.280853  0.382777  0.500000  1
  Ni  Ni6  1  0.617223  0.898075  0.500000  1
  Ni  Ni7  1  0.101925  0.719147  0.500000  1
  Ni  Ni8  1  0.505667  0.455918  0.000000  1
  Ni  Ni9  1  0.544082  0.049749  0.000000  1
  Ni  Ni10  1  0.950251  0.494333  0.000000  1
  Ni  Ni11  1  0.724421  0.768367  0.000000  1
  Ni  Ni12  1  0.231633  0.956053  0.000000  1
  Ni  Ni13  1  0.043947  0.275579  0.000000  1
  As  As14  1  0.958412  0.750186  0.000000  1
  As  As15  1  0.249814  0.208226  0.000000  1
  As  As16  1  0.791774  0.041588  0.000000  1
  As  As17  1  0.666667  0.333333  0.000000  1
  As  As18  1  0.541485  0.625407  0.500000  1
  As  As19  1  0.374593  0.916078  0.500000  1
  As  As20  1  0.083922  0.458515  0.500000  1
