# generated using pymatgen
data_Hf16TcNi4Ru3
_symmetry_space_group_name_H-M   'P 1'
_cell_length_a   8.62001958
_cell_length_b   8.61590492
_cell_length_c   8.61590500
_cell_angle_alpha   59.99999587
_cell_angle_beta   60.01578482
_cell_angle_gamma   60.01578918
_symmetry_Int_Tables_number   1
_chemical_formula_structural   Hf16TcNi4Ru3
_chemical_formula_sum   'Hf16 Tc1 Ni4 Ru3'
_cell_volume   452.58341081
_cell_formula_units_Z   1
loop_
 _symmetry_equiv_pos_site_id
 _symmetry_equiv_pos_as_xyz
  1  'x, y, z'
loop_
 _atom_site_type_symbol
 _atom_site_label
 _atom_site_symmetry_multiplicity
 _atom_site_fract_x
 _atom_site_fract_y
 _atom_site_fract_z
 _atom_site_occupancy
  Hf  Hf0  1  0.675455  0.108181  0.108181  1
  Hf  Hf1  1  0.106686  0.681449  0.105931  1
  Hf  Hf2  1  0.106686  0.105931  0.681449  1
  Hf  Hf3  1  0.106686  0.105931  0.105931  1
  Hf  Hf4  1  0.316223  0.315188  0.684295  1
  Hf  Hf5  1  0.687250  0.682485  0.315133  1
  Hf  Hf6  1  0.316223  0.684295  0.315188  1
  Hf  Hf7  1  0.687250  0.315133  0.682485  1
  Hf  Hf8  1  0.687250  0.315133  0.315133  1
  Hf  Hf9  1  0.316223  0.684295  0.684295  1
  Hf  Hf10  1  0.949757  0.951269  0.549488  1
  Hf  Hf11  1  0.550145  0.550017  0.949920  1
  Hf  Hf12  1  0.949757  0.549488  0.951269  1
  Hf  Hf13  1  0.550145  0.949920  0.550017  1
  Hf  Hf14  1  0.550145  0.949920  0.949920  1
  Hf  Hf15  1  0.949757  0.549488  0.549488  1
  Tc  Tc16  1  0.997321  0.334226  0.334226  1
  Ni  Ni17  1  0.321649  0.892784  0.892784  1
  Ni  Ni18  1  0.891654  0.319288  0.894530  1
  Ni  Ni19  1  0.891654  0.894530  0.319288  1
  Ni  Ni20  1  0.891654  0.894530  0.894530  1
  Ru  Ru21  1  0.333477  0.995521  0.335501  1
  Ru  Ru22  1  0.333477  0.335501  0.995521  1
  Ru  Ru23  1  0.333477  0.335501  0.335501  1
