# generated using pymatgen
data_Nd8ReOsBr8
_symmetry_space_group_name_H-M   'P 1'
_cell_length_a   9.40144786
_cell_length_b   9.40144635
_cell_length_c   6.68140370
_cell_angle_alpha   89.96406617
_cell_angle_beta   89.96405864
_cell_angle_gamma   89.52441368
_symmetry_Int_Tables_number   1
_chemical_formula_structural   Nd8ReOsBr8
_chemical_formula_sum   'Nd8 Re1 Os1 Br8'
_cell_volume   590.53004160
_cell_formula_units_Z   1
loop_
 _symmetry_equiv_pos_site_id
 _symmetry_equiv_pos_as_xyz
  1  'x, y, z'
loop_
 _atom_site_type_symbol
 _atom_site_label
 _atom_site_symmetry_multiplicity
 _atom_site_fract_x
 _atom_site_fract_y
 _atom_site_fract_z
 _atom_site_occupancy
  Nd  Nd0  1  0.750920  0.099246  0.990583  1
  Nd  Nd1  1  0.098633  0.751346  0.489691  1
  Nd  Nd2  1  0.097050  0.247235  0.000292  1
  Nd  Nd3  1  0.246984  0.096661  0.499558  1
  Nd  Nd4  1  0.903339  0.753016  0.000442  1
  Nd  Nd5  1  0.900754  0.249080  0.509417  1
  Nd  Nd6  1  0.248654  0.901367  0.010309  1
  Nd  Nd7  1  0.752765  0.902950  0.499708  1
  Re  Re8  1  0.997382  0.002618  0.250000  1
  Os  Os9  1  0.002381  0.997619  0.750000  1
  Br  Br10  1  0.589402  0.180760  0.565022  1
  Br  Br11  1  0.817985  0.591543  0.430104  1
  Br  Br12  1  0.408457  0.182015  0.069896  1
  Br  Br13  1  0.181497  0.407718  0.568224  1
  Br  Br14  1  0.592282  0.818503  0.931776  1
  Br  Br15  1  0.410606  0.818331  0.435170  1
  Br  Br16  1  0.181669  0.589394  0.064830  1
  Br  Br17  1  0.819240  0.410598  0.934978  1
