# generated using pymatgen
data_Sr5(InAs3)2
_symmetry_space_group_name_H-M   'P 1'
_cell_length_a   4.44401000
_cell_length_b   12.15539700
_cell_length_c   14.10333600
_cell_angle_alpha   90.00000000
_cell_angle_beta   90.00000000
_cell_angle_gamma   90.00000000
_symmetry_Int_Tables_number   1
_chemical_formula_structural   Sr5(InAs3)2
_chemical_formula_sum   'Sr10 In4 As12'
_cell_volume   761.84395849
_cell_formula_units_Z   2
loop_
 _symmetry_equiv_pos_site_id
 _symmetry_equiv_pos_as_xyz
  1  'x, y, z'
loop_
 _atom_site_type_symbol
 _atom_site_label
 _atom_site_symmetry_multiplicity
 _atom_site_fract_x
 _atom_site_fract_y
 _atom_site_fract_z
 _atom_site_occupancy
  Sr  Sr0  1  0.500000  0.088239  0.751868  1
  Sr  Sr1  1  0.500000  0.588239  0.748132  1
  Sr  Sr2  1  0.500000  0.325244  0.513967  1
  Sr  Sr3  1  0.500000  0.674756  0.486033  1
  Sr  Sr4  1  0.500000  0.825244  0.986033  1
  Sr  Sr5  1  0.500000  0.911761  0.248132  1
  Sr  Sr6  1  0.500000  0.174756  0.013967  1
  Sr  Sr7  1  0.500000  0.500000  0.000000  1
  Sr  Sr8  1  0.500000  0.000000  0.500000  1
  Sr  Sr9  1  0.500000  0.411761  0.251868  1
  In  In10  1  0.000000  0.829244  0.786689  1
  In  In11  1  0.000000  0.170756  0.213311  1
  In  In12  1  0.000000  0.670756  0.286689  1
  In  In13  1  0.000000  0.329244  0.713311  1
  As  As14  1  0.500000  0.839324  0.678225  1
  As  As15  1  0.000000  0.480585  0.411173  1
  As  As16  1  0.500000  0.160676  0.321775  1
  As  As17  1  0.000000  0.019415  0.911173  1
  As  As18  1  0.000000  0.846146  0.403017  1
  As  As19  1  0.000000  0.980585  0.088827  1
  As  As20  1  0.000000  0.346146  0.096983  1
  As  As21  1  0.000000  0.519415  0.588827  1
  As  As22  1  0.000000  0.153854  0.596983  1
  As  As23  1  0.000000  0.653854  0.903017  1
  As  As24  1  0.500000  0.660676  0.178225  1
  As  As25  1  0.500000  0.339324  0.821775  1
