# generated using pymatgen
data_YbSmI26
_symmetry_space_group_name_H-M   'P 1'
_cell_length_a   12.96770444
_cell_length_b   11.55304012
_cell_length_c   15.20415758
_cell_angle_alpha   122.55511545
_cell_angle_beta   90.78896217
_cell_angle_gamma   101.51168899
_symmetry_Int_Tables_number   1
_chemical_formula_structural   YbSmI26
_chemical_formula_sum   'Yb1 Sm1 I26'
_cell_volume   1860.95216245
_cell_formula_units_Z   1
loop_
 _symmetry_equiv_pos_site_id
 _symmetry_equiv_pos_as_xyz
  1  'x, y, z'
loop_
 _atom_site_type_symbol
 _atom_site_label
 _atom_site_symmetry_multiplicity
 _atom_site_fract_x
 _atom_site_fract_y
 _atom_site_fract_z
 _atom_site_occupancy
  Yb  Yb0  1  0.330314  0.874384  0.934988  1
  Sm  Sm1  1  0.664614  0.118798  0.062550  1
  I  I2  1  0.388335  0.664422  0.986672  1
  I  I3  1  0.605684  0.326862  0.010105  1
  I  I4  1  0.583723  0.815972  0.395350  1
  I  I5  1  0.421262  0.195508  0.609618  1
  I  I6  1  0.738286  0.689592  0.020360  1
  I  I7  1  0.259922  0.307474  0.982646  1
  I  I8  1  0.724349  0.968006  0.172484  1
  I  I9  1  0.275590  0.031457  0.828998  1
  I  I10  1  0.450189  0.150438  0.143470  1
  I  I11  1  0.556549  0.848051  0.859942  1
  I  I12  1  0.224810  0.655130  0.696600  1
  I  I13  1  0.775964  0.349395  0.299113  1
  I  I14  1  0.096151  0.828096  0.980405  1
  I  I15  1  0.892997  0.166577  0.011498  1
  I  I16  1  0.077099  0.075660  0.192614  1
  I  I17  1  0.918653  0.910577  0.798948  1
  I  I18  1  0.275464  0.922279  0.461148  1
  I  I19  1  0.730039  0.087277  0.544683  1
  I  I20  1  0.318611  0.421358  0.647405  1
  I  I21  1  0.681738  0.587824  0.351900  1
  I  I22  1  0.860866  0.373515  0.706307  1
  I  I23  1  0.142525  0.637830  0.302091  1
  I  I24  1  0.947091  0.693096  0.601021  1
  I  I25  1  0.058129  0.296306  0.396324  1
  I  I26  1  0.259821  0.636154  0.132324  1
  I  I27  1  0.741224  0.367964  0.870437  1
