# generated using pymatgen
data_SmNp3Al12Pd
_symmetry_space_group_name_H-M   'P 1'
_cell_length_a   7.49589205
_cell_length_b   7.51911481
_cell_length_c   7.49589200
_cell_angle_alpha   109.53399468
_cell_angle_beta   109.40837959
_cell_angle_gamma   109.53399733
_symmetry_Int_Tables_number   1
_chemical_formula_structural   SmNp3Al12Pd
_chemical_formula_sum   'Sm1 Np3 Al12 Pd1'
_cell_volume   324.97831443
_cell_formula_units_Z   1
loop_
 _symmetry_equiv_pos_site_id
 _symmetry_equiv_pos_as_xyz
  1  'x, y, z'
loop_
 _atom_site_type_symbol
 _atom_site_label
 _atom_site_symmetry_multiplicity
 _atom_site_fract_x
 _atom_site_fract_y
 _atom_site_fract_z
 _atom_site_occupancy
  Sm  Sm0  1  0.000000  0.500000  0.000000  1
  Np  Np1  1  0.500000  0.000000  0.000000  1
  Np  Np2  1  0.000000  0.000000  0.500000  1
  Np  Np3  1  0.500000  0.500000  0.500000  1
  Al  Al4  1  0.293055  0.004690  0.293055  1
  Al  Al5  1  0.495968  0.247984  0.747984  1
  Al  Al6  1  0.000000  0.711636  0.706945  1
  Al  Al7  1  0.706945  0.995310  0.706945  1
  Al  Al8  1  0.747984  0.500000  0.252016  1
  Al  Al9  1  0.252016  0.752016  0.504032  1
  Al  Al10  1  0.747984  0.247984  0.495968  1
  Al  Al11  1  0.706945  0.711636  0.000000  1
  Al  Al12  1  0.252016  0.500000  0.747984  1
  Al  Al13  1  0.504032  0.752016  0.252016  1
  Al  Al14  1  0.293055  0.288364  0.000000  1
  Al  Al15  1  0.000000  0.288364  0.293055  1
  Pd  Pd16  1  0.000000  0.000000  0.000000  1
