# generated using pymatgen
data_La3Gd(As4O9)2
_symmetry_space_group_name_H-M   'P 1'
_cell_length_a   7.02643514
_cell_length_b   7.79962843
_cell_length_c   10.04618943
_cell_angle_alpha   95.00670997
_cell_angle_beta   104.17474519
_cell_angle_gamma   104.86816251
_symmetry_Int_Tables_number   1
_chemical_formula_structural   La3Gd(As4O9)2
_chemical_formula_sum   'La3 Gd1 As8 O18'
_cell_volume   509.26968394
_cell_formula_units_Z   1
loop_
 _symmetry_equiv_pos_site_id
 _symmetry_equiv_pos_as_xyz
  1  'x, y, z'
loop_
 _atom_site_type_symbol
 _atom_site_label
 _atom_site_symmetry_multiplicity
 _atom_site_fract_x
 _atom_site_fract_y
 _atom_site_fract_z
 _atom_site_occupancy
  La  La0  1  0.253881  0.942113  0.616267  1
  La  La1  1  0.752664  0.061600  0.382405  1
  La  La2  1  0.714542  0.533372  0.404895  1
  Gd  Gd3  1  0.281878  0.469687  0.597512  1
  As  As4  1  0.675912  0.783603  0.069456  1
  As  As5  1  0.323760  0.222679  0.925959  1
  As  As6  1  0.180854  0.755105  0.912804  1
  As  As7  1  0.819866  0.246455  0.082914  1
  As  As8  1  0.750703  0.912017  0.708180  1
  As  As9  1  0.248275  0.081900  0.292572  1
  As  As10  1  0.805267  0.345392  0.700097  1
  As  As11  1  0.189827  0.650839  0.303900  1
  O  O12  1  0.722391  0.755773  0.246214  1
  O  O13  1  0.281621  0.254408  0.750413  1
  O  O14  1  0.314620  0.981232  0.876695  1
  O  O15  1  0.682417  0.022968  0.117829  1
  O  O16  1  0.603239  0.315008  0.982900  1
  O  O17  1  0.396727  0.691210  0.018320  1
  O  O18  1  0.150943  0.652416  0.743906  1
  O  O19  1  0.857674  0.345435  0.254461  1
  O  O20  1  0.844570  0.866868  0.560278  1
  O  O21  1  0.159666  0.137515  0.441131  1
  O  O22  1  0.500753  0.766542  0.666584  1
  O  O23  1  0.498211  0.224510  0.327862  1
  O  O24  1  0.366993  0.541233  0.382351  1
  O  O25  1  0.617173  0.445216  0.621644  1
  O  O26  1  0.091278  0.662382  0.454416  1
  O  O27  1  0.913740  0.336372  0.552841  1
  O  O28  1  0.358396  0.898160  0.363482  1
  O  O29  1  0.642160  0.097989  0.641714  1
