# generated using pymatgen
data_Yb3Y3Al18(Si3Os4)2
_symmetry_space_group_name_H-M   'P 1'
_cell_length_a   8.70325023
_cell_length_b   8.65968127
_cell_length_c   9.61832100
_cell_angle_alpha   90.00000000
_cell_angle_beta   90.00000000
_cell_angle_gamma   120.13998552
_symmetry_Int_Tables_number   1
_chemical_formula_structural   Yb3Y3Al18(Si3Os4)2
_chemical_formula_sum   'Yb3 Y3 Al18 Si6 Os8'
_cell_volume   626.90096283
_cell_formula_units_Z   1
loop_
 _symmetry_equiv_pos_site_id
 _symmetry_equiv_pos_as_xyz
  1  'x, y, z'
loop_
 _atom_site_type_symbol
 _atom_site_label
 _atom_site_symmetry_multiplicity
 _atom_site_fract_x
 _atom_site_fract_y
 _atom_site_fract_z
 _atom_site_occupancy
  Yb  Yb0  1  0.194769  0.388619  0.250000  1
  Yb  Yb1  1  0.805774  0.611640  0.750000  1
  Yb  Yb2  1  0.608910  0.806664  0.250000  1
  Y  Y3  1  0.390741  0.193022  0.750000  1
  Y  Y4  1  0.198059  0.807852  0.250000  1
  Y  Y5  1  0.802578  0.192296  0.750000  1
  Al  Al6  1  0.165672  0.331766  0.577242  1
  Al  Al7  1  0.833485  0.668096  0.422501  1
  Al  Al8  1  0.668966  0.833920  0.575477  1
  Al  Al9  1  0.833485  0.668096  0.077499  1
  Al  Al10  1  0.331113  0.166245  0.422805  1
  Al  Al11  1  0.165672  0.331766  0.922758  1
  Al  Al12  1  0.165117  0.833683  0.576854  1
  Al  Al13  1  0.331113  0.166245  0.077195  1
  Al  Al14  1  0.834260  0.165694  0.423259  1
  Al  Al15  1  0.668966  0.833920  0.924523  1
  Al  Al16  1  0.834260  0.165694  0.076741  1
  Al  Al17  1  0.165117  0.833683  0.923146  1
  Al  Al18  1  0.872180  0.432444  0.250000  1
  Al  Al19  1  0.126962  0.567481  0.750000  1
  Al  Al20  1  0.560121  0.433828  0.250000  1
  Al  Al21  1  0.440839  0.567985  0.750000  1
  Al  Al22  1  0.998855  0.999198  0.250000  1
  Al  Al23  1  0.999662  0.999662  0.750000  1
  Si  Si24  1  0.332265  0.663701  0.037734  1
  Si  Si25  1  0.669140  0.336899  0.961630  1
  Si  Si26  1  0.669140  0.336899  0.538370  1
  Si  Si27  1  0.332265  0.663701  0.462266  1
  Si  Si28  1  0.564642  0.127717  0.250000  1
  Si  Si29  1  0.436083  0.871794  0.750000  1
  Os  Os30  1  0.499435  0.000580  0.999072  1
  Os  Os31  1  0.000266  0.500026  0.999501  1
  Os  Os32  1  0.499435  0.000580  0.500928  1
  Os  Os33  1  0.499482  0.498830  0.998502  1
  Os  Os34  1  0.000266  0.500026  0.500499  1
  Os  Os35  1  0.499482  0.498830  0.501498  1
  Os  Os36  1  0.000713  0.000459  0.000379  1
  Os  Os37  1  0.000713  0.000459  0.499621  1
