# generated using pymatgen
data_Ho16MgIn3Ru4
_symmetry_space_group_name_H-M   'P 1'
_cell_length_a   9.63739120
_cell_length_b   9.60038843
_cell_length_c   9.60038800
_cell_angle_alpha   59.99999460
_cell_angle_beta   60.12692321
_cell_angle_gamma   60.12692749
_symmetry_Int_Tables_number   1
_chemical_formula_structural   Ho16MgIn3Ru4
_chemical_formula_sum   'Ho16 Mg1 In3 Ru4'
_cell_volume   629.29254649
_cell_formula_units_Z   1
loop_
 _symmetry_equiv_pos_site_id
 _symmetry_equiv_pos_as_xyz
  1  'x, y, z'
loop_
 _atom_site_type_symbol
 _atom_site_label
 _atom_site_symmetry_multiplicity
 _atom_site_fract_x
 _atom_site_fract_y
 _atom_site_fract_z
 _atom_site_occupancy
  Ho  Ho0  1  0.347627  0.346138  0.346138  1
  Ho  Ho1  1  0.347627  0.346138  0.960096  1
  Ho  Ho2  1  0.347627  0.960096  0.346138  1
  Ho  Ho3  1  0.955745  0.348085  0.348085  1
  Ho  Ho4  1  0.808501  0.191340  0.191340  1
  Ho  Ho5  1  0.189826  0.811003  0.811003  1
  Ho  Ho6  1  0.189826  0.811003  0.188167  1
  Ho  Ho7  1  0.808501  0.191340  0.808819  1
  Ho  Ho8  1  0.189826  0.188167  0.811003  1
  Ho  Ho9  1  0.808501  0.808819  0.191340  1
  Ho  Ho10  1  0.939479  0.560176  0.560176  1
  Ho  Ho11  1  0.560594  0.939430  0.939430  1
  Ho  Ho12  1  0.560594  0.939430  0.560545  1
  Ho  Ho13  1  0.939479  0.560176  0.940169  1
  Ho  Ho14  1  0.560594  0.560545  0.939430  1
  Ho  Ho15  1  0.939479  0.940169  0.560176  1
  Mg  Mg16  1  0.267977  0.577341  0.577341  1
  In  In17  1  0.580779  0.581979  0.581979  1
  In  In18  1  0.580779  0.581979  0.255264  1
  In  In19  1  0.580779  0.255264  0.581979  1
  Ru  Ru20  1  0.138175  0.140333  0.140333  1
  Ru  Ru21  1  0.138175  0.140333  0.581157  1
  Ru  Ru22  1  0.138175  0.581157  0.140333  1
  Ru  Ru23  1  0.581332  0.139556  0.139556  1
