# generated using pymatgen
data_HoEr5PtI10
_symmetry_space_group_name_H-M   'P 1'
_cell_length_a   7.69254546
_cell_length_b   9.68604921
_cell_length_c   9.72591139
_cell_angle_alpha   107.22585778
_cell_angle_beta   96.99922915
_cell_angle_gamma   104.67570205
_symmetry_Int_Tables_number   1
_chemical_formula_structural   HoEr5PtI10
_chemical_formula_sum   'Ho1 Er5 Pt1 I10'
_cell_volume   654.21619941
_cell_formula_units_Z   1
loop_
 _symmetry_equiv_pos_site_id
 _symmetry_equiv_pos_as_xyz
  1  'x, y, z'
loop_
 _atom_site_type_symbol
 _atom_site_label
 _atom_site_symmetry_multiplicity
 _atom_site_fract_x
 _atom_site_fract_y
 _atom_site_fract_z
 _atom_site_occupancy
  Ho  Ho0  1  0.885599  0.959682  0.240585  1
  Er  Er1  1  0.113470  0.039737  0.759536  1
  Er  Er2  1  0.347076  0.125187  0.165058  1
  Er  Er3  1  0.653189  0.874929  0.834504  1
  Er  Er4  1  0.971871  0.285664  0.086279  1
  Er  Er5  1  0.028339  0.714460  0.913607  1
  Pt  Pt6  1  0.000281  0.000135  0.999456  1
  I  I7  1  0.355608  0.453314  0.272762  1
  I  I8  1  0.644619  0.546789  0.727181  1
  I  I9  1  0.914467  0.627215  0.179728  1
  I  I10  1  0.085604  0.373187  0.820716  1
  I  I11  1  0.453790  0.817201  0.092359  1
  I  I12  1  0.546367  0.182948  0.907868  1
  I  I13  1  0.258637  0.087499  0.463483  1
  I  I14  1  0.741074  0.912370  0.536608  1
  I  I15  1  0.779539  0.258852  0.347689  1
  I  I16  1  0.220468  0.740829  0.652578  1
