# generated using pymatgen
data_La4DyRh2
_symmetry_space_group_name_H-M   'P 1'
_cell_length_a   6.66165036
_cell_length_b   7.26469559
_cell_length_c   9.23384800
_cell_angle_alpha   95.70738396
_cell_angle_beta   111.14436522
_cell_angle_gamma   90.00000343
_symmetry_Int_Tables_number   1
_chemical_formula_structural   La4DyRh2
_chemical_formula_sum   'La8 Dy2 Rh4'
_cell_volume   414.40896079
_cell_formula_units_Z   2
loop_
 _symmetry_equiv_pos_site_id
 _symmetry_equiv_pos_as_xyz
  1  'x, y, z'
loop_
 _atom_site_type_symbol
 _atom_site_label
 _atom_site_symmetry_multiplicity
 _atom_site_fract_x
 _atom_site_fract_y
 _atom_site_fract_z
 _atom_site_occupancy
  La  La0  1  0.800172  0.083543  0.817742  1
  La  La1  1  0.982429  0.416457  0.182258  1
  La  La2  1  0.199828  0.916457  0.182258  1
  La  La3  1  0.017571  0.583543  0.817742  1
  La  La4  1  0.215846  0.184794  0.573903  1
  La  La5  1  0.641944  0.315206  0.426097  1
  La  La6  1  0.784154  0.815206  0.426097  1
  La  La7  1  0.358056  0.684794  0.573903  1
  Dy  Dy8  1  0.431086  0.250000  0.000000  1
  Dy  Dy9  1  0.568914  0.750000  0.000000  1
  Rh  Rh10  1  0.595344  0.425330  0.787467  1
  Rh  Rh11  1  0.807877  0.074670  0.212533  1
  Rh  Rh12  1  0.404656  0.574670  0.212533  1
  Rh  Rh13  1  0.192123  0.925330  0.787467  1
