# generated using pymatgen
data_Pr2Nd3InSi2
_symmetry_space_group_name_H-M   'P 1'
_cell_length_a   7.93324816
_cell_length_b   7.93324759
_cell_length_c   9.30007408
_cell_angle_alpha   115.24662246
_cell_angle_beta   115.24662380
_cell_angle_gamma   89.99999839
_symmetry_Int_Tables_number   1
_chemical_formula_structural   Pr2Nd3InSi2
_chemical_formula_sum   'Pr4 Nd6 In2 Si4'
_cell_volume   466.84721187
_cell_formula_units_Z   2
loop_
 _symmetry_equiv_pos_site_id
 _symmetry_equiv_pos_as_xyz
  1  'x, y, z'
loop_
 _atom_site_type_symbol
 _atom_site_label
 _atom_site_symmetry_multiplicity
 _atom_site_fract_x
 _atom_site_fract_y
 _atom_site_fract_z
 _atom_site_occupancy
  Pr  Pr0  1  0.038186  0.184643  0.722829  1
  Pr  Pr1  1  0.684643  0.538186  0.722829  1
  Pr  Pr2  1  0.184643  0.684643  0.722829  1
  Pr  Pr3  1  0.538186  0.038186  0.722829  1
  Nd  Nd4  1  0.500555  0.500555  0.001111  1
  Nd  Nd5  1  0.000555  0.000555  0.001111  1
  Nd  Nd6  1  0.960875  0.814565  0.275440  1
  Nd  Nd7  1  0.314565  0.460875  0.275440  1
  Nd  Nd8  1  0.814565  0.314565  0.275440  1
  Nd  Nd9  1  0.460875  0.960875  0.275440  1
  In  In10  1  0.748757  0.748757  0.497513  1
  In  In11  1  0.248757  0.248757  0.497513  1
  Si  Si12  1  0.617036  0.885383  0.002419  1
  Si  Si13  1  0.385383  0.117036  0.002419  1
  Si  Si14  1  0.885383  0.385383  0.002419  1
  Si  Si15  1  0.117036  0.617036  0.002419  1
