# generated using pymatgen
data_Tb3Mg3SnHg2
_symmetry_space_group_name_H-M   'P 1'
_cell_length_a   7.66723600
_cell_length_b   7.66723673
_cell_length_c   4.44309100
_cell_angle_alpha   90.00000000
_cell_angle_beta   90.00000000
_cell_angle_gamma   119.99999683
_symmetry_Int_Tables_number   1
_chemical_formula_structural   Tb3Mg3SnHg2
_chemical_formula_sum   'Tb3 Mg3 Sn1 Hg2'
_cell_volume   226.20049851
_cell_formula_units_Z   1
loop_
 _symmetry_equiv_pos_site_id
 _symmetry_equiv_pos_as_xyz
  1  'x, y, z'
loop_
 _atom_site_type_symbol
 _atom_site_label
 _atom_site_symmetry_multiplicity
 _atom_site_fract_x
 _atom_site_fract_y
 _atom_site_fract_z
 _atom_site_occupancy
  Tb  Tb0  1  0.414781  0.992350  0.000000  1
  Tb  Tb1  1  0.007650  0.422431  0.000000  1
  Tb  Tb2  1  0.577569  0.585219  0.000000  1
  Mg  Mg3  1  0.750786  0.993561  0.500000  1
  Mg  Mg4  1  0.242775  0.249214  0.500000  1
  Mg  Mg5  1  0.006439  0.757225  0.500000  1
  Sn  Sn6  1  0.666666  0.333333  0.500000  1
  Hg  Hg7  1  0.000000  0.000000  0.000000  1
  Hg  Hg8  1  0.333334  0.666667  0.500000  1
