# generated using pymatgen
data_DyTm2CoSn3Pt2
_symmetry_space_group_name_H-M   'P 1'
_cell_length_a   7.59835712
_cell_length_b   7.57483701
_cell_length_c   3.73166900
_cell_angle_alpha   90.00000000
_cell_angle_beta   90.00000000
_cell_angle_gamma   119.89766393
_symmetry_Int_Tables_number   1
_chemical_formula_structural   DyTm2CoSn3Pt2
_chemical_formula_sum   'Dy1 Tm2 Co1 Sn3 Pt2'
_cell_volume   186.19742246
_cell_formula_units_Z   1
loop_
 _symmetry_equiv_pos_site_id
 _symmetry_equiv_pos_as_xyz
  1  'x, y, z'
loop_
 _atom_site_type_symbol
 _atom_site_label
 _atom_site_symmetry_multiplicity
 _atom_site_fract_x
 _atom_site_fract_y
 _atom_site_fract_z
 _atom_site_occupancy
  Dy  Dy0  1  0.000000  0.402095  0.000000  1
  Tm  Tm1  1  0.598515  0.598368  0.000000  1
  Tm  Tm2  1  0.401485  0.999853  0.000000  1
  Co  Co3  1  0.000000  0.999183  0.000000  1
  Sn  Sn4  1  0.000000  0.748879  0.500000  1
  Sn  Sn5  1  0.252310  0.250951  0.500000  1
  Sn  Sn6  1  0.747690  0.998641  0.500000  1
  Pt  Pt7  1  0.336565  0.669298  0.500000  1
  Pt  Pt8  1  0.663435  0.332732  0.500000  1
