# generated using pymatgen
data_DySc5MnBi2
_symmetry_space_group_name_H-M   'P 1'
_cell_length_a   4.11240900
_cell_length_b   7.77019179
_cell_length_c   7.84276258
_cell_angle_alpha   119.69436279
_cell_angle_beta   90.00000000
_cell_angle_gamma   90.00000000
_symmetry_Int_Tables_number   1
_chemical_formula_structural   DySc5MnBi2
_chemical_formula_sum   'Dy1 Sc5 Mn1 Bi2'
_cell_volume   217.69931316
_cell_formula_units_Z   1
loop_
 _symmetry_equiv_pos_site_id
 _symmetry_equiv_pos_as_xyz
  1  'x, y, z'
loop_
 _atom_site_type_symbol
 _atom_site_label
 _atom_site_symmetry_multiplicity
 _atom_site_fract_x
 _atom_site_fract_y
 _atom_site_fract_z
 _atom_site_occupancy
  Dy  Dy0  1  0.000000  0.607647  0.000000  1
  Sc  Sc1  1  0.500000  0.776152  0.773957  1
  Sc  Sc2  1  0.500000  0.002195  0.226043  1
  Sc  Sc3  1  0.500000  0.230646  0.000000  1
  Sc  Sc4  1  0.000000  0.382354  0.383847  1
  Sc  Sc5  1  0.000000  0.998506  0.616153  1
  Mn  Mn6  1  0.000000  0.007504  0.000000  1
  Bi  Bi7  1  0.500000  0.669438  0.343879  1
  Bi  Bi8  1  0.500000  0.325558  0.656121  1
