# generated using pymatgen
data_Nd10Zn(GaRu2)3
_symmetry_space_group_name_H-M   'P 1'
_cell_length_a   8.54347487
_cell_length_b   8.54347439
_cell_length_c   8.48550600
_cell_angle_alpha   109.33383204
_cell_angle_beta   109.33383090
_cell_angle_gamma   109.60826477
_symmetry_Int_Tables_number   1
_chemical_formula_structural   Nd10Zn(GaRu2)3
_chemical_formula_sum   'Nd10 Zn1 Ga3 Ru6'
_cell_volume   477.59356058
_cell_formula_units_Z   1
loop_
 _symmetry_equiv_pos_site_id
 _symmetry_equiv_pos_as_xyz
  1  'x, y, z'
loop_
 _atom_site_type_symbol
 _atom_site_label
 _atom_site_symmetry_multiplicity
 _atom_site_fract_x
 _atom_site_fract_y
 _atom_site_fract_z
 _atom_site_occupancy
  Nd  Nd0  1  0.249536  0.684299  0.436250  1
  Nd  Nd1  1  0.748923  0.813558  0.062850  1
  Nd  Nd2  1  0.434764  0.250464  0.686712  1
  Nd  Nd3  1  0.686442  0.435366  0.249292  1
  Nd  Nd4  1  0.064635  0.751077  0.813927  1
  Nd  Nd5  1  0.815701  0.065237  0.751950  1
  Nd  Nd6  1  0.218177  0.217337  0.216976  1
  Nd  Nd7  1  0.500001  0.000000  0.281818  1
  Nd  Nd8  1  0.282663  0.500841  0.999639  1
  Nd  Nd9  1  0.999160  0.281823  0.498800  1
  Zn  Zn10  1  0.500001  0.000000  0.914594  1
  Ga  Ga11  1  0.589082  0.588304  0.588635  1
  Ga  Ga12  1  0.911696  0.500778  0.000330  1
  Ga  Ga13  1  0.999223  0.910918  0.499554  1
  Ru  Ru14  1  0.245338  0.124085  0.870059  1
  Ru  Ru15  1  0.749114  0.378250  0.628429  1
  Ru  Ru16  1  0.878747  0.254664  0.124722  1
  Ru  Ru17  1  0.121749  0.870864  0.250180  1
  Ru  Ru18  1  0.629135  0.750886  0.379313  1
  Ru  Ru19  1  0.375914  0.621252  0.745975  1
