# generated using pymatgen
data_EuFeP3Rh4
_symmetry_space_group_name_H-M   'P 1'
_cell_length_a   3.89118800
_cell_length_b   10.84306500
_cell_length_c   12.58356900
_cell_angle_alpha   90.00000000
_cell_angle_beta   90.00000000
_cell_angle_gamma   90.00000000
_symmetry_Int_Tables_number   1
_chemical_formula_structural   EuFeP3Rh4
_chemical_formula_sum   'Eu4 Fe4 P12 Rh16'
_cell_volume   530.93103218
_cell_formula_units_Z   4
loop_
 _symmetry_equiv_pos_site_id
 _symmetry_equiv_pos_as_xyz
  1  'x, y, z'
loop_
 _atom_site_type_symbol
 _atom_site_label
 _atom_site_symmetry_multiplicity
 _atom_site_fract_x
 _atom_site_fract_y
 _atom_site_fract_z
 _atom_site_occupancy
  Eu  Eu0  1  0.250000  0.583006  0.708321  1
  Eu  Eu1  1  0.250000  0.916994  0.208321  1
  Eu  Eu2  1  0.750000  0.416994  0.291679  1
  Eu  Eu3  1  0.750000  0.083006  0.791679  1
  Fe  Fe4  1  0.250000  0.461548  0.935440  1
  Fe  Fe5  1  0.250000  0.038452  0.435440  1
  Fe  Fe6  1  0.750000  0.538452  0.064560  1
  Fe  Fe7  1  0.750000  0.961548  0.564560  1
  P  P8  1  0.250000  0.430499  0.105709  1
  P  P9  1  0.250000  0.069501  0.605709  1
  P  P10  1  0.750000  0.569501  0.894291  1
  P  P11  1  0.750000  0.930499  0.394291  1
  P  P12  1  0.250000  0.272875  0.869372  1
  P  P13  1  0.250000  0.227125  0.369372  1
  P  P14  1  0.750000  0.727125  0.130628  1
  P  P15  1  0.750000  0.772875  0.630628  1
  P  P16  1  0.250000  0.602824  0.390062  1
  P  P17  1  0.250000  0.897176  0.890062  1
  P  P18  1  0.750000  0.397176  0.609938  1
  P  P19  1  0.750000  0.102824  0.109938  1
  Rh  Rh20  1  0.250000  0.714348  0.989263  1
  Rh  Rh21  1  0.250000  0.785652  0.489263  1
  Rh  Rh22  1  0.750000  0.285652  0.010737  1
  Rh  Rh23  1  0.750000  0.214348  0.510737  1
  Rh  Rh24  1  0.250000  0.407937  0.484201  1
  Rh  Rh25  1  0.250000  0.092063  0.984201  1
  Rh  Rh26  1  0.750000  0.592063  0.515799  1
  Rh  Rh27  1  0.750000  0.907937  0.015799  1
  Rh  Rh28  1  0.250000  0.228616  0.173504  1
  Rh  Rh29  1  0.250000  0.271384  0.673504  1
  Rh  Rh30  1  0.750000  0.771384  0.826496  1
  Rh  Rh31  1  0.750000  0.728616  0.326496  1
  Rh  Rh32  1  0.250000  0.880370  0.699586  1
  Rh  Rh33  1  0.250000  0.619630  0.199586  1
  Rh  Rh34  1  0.750000  0.119630  0.300414  1
  Rh  Rh35  1  0.750000  0.380370  0.800414  1
