# generated using pymatgen
data_Nb3B4As2Ru10W
_symmetry_space_group_name_H-M   'P 1'
_cell_length_a   9.37562407
_cell_length_b   9.37562407
_cell_length_c   2.95423000
_cell_angle_alpha   90.00000000
_cell_angle_beta   90.00000000
_cell_angle_gamma   89.98587104
_symmetry_Int_Tables_number   1
_chemical_formula_structural   Nb3B4As2Ru10W
_chemical_formula_sum   'Nb3 B4 As2 Ru10 W1'
_cell_volume   259.68368279
_cell_formula_units_Z   1
loop_
 _symmetry_equiv_pos_site_id
 _symmetry_equiv_pos_as_xyz
  1  'x, y, z'
loop_
 _atom_site_type_symbol
 _atom_site_label
 _atom_site_symmetry_multiplicity
 _atom_site_fract_x
 _atom_site_fract_y
 _atom_site_fract_z
 _atom_site_occupancy
  Nb  Nb0  1  0.175707  0.324293  0.000000  1
  Nb  Nb1  1  0.323461  0.823999  0.000000  1
  Nb  Nb2  1  0.676001  0.176539  0.000000  1
  B  B3  1  0.623916  0.876084  0.000000  1
  B  B4  1  0.376886  0.123114  0.000000  1
  B  B5  1  0.123873  0.623558  0.000000  1
  B  B6  1  0.876442  0.376127  0.000000  1
  As  As7  1  0.498740  0.499141  0.000000  1
  As  As8  1  0.000859  0.001260  0.000000  1
  Ru  Ru9  1  0.573255  0.712264  0.500000  1
  Ru  Ru10  1  0.431821  0.286099  0.500000  1
  Ru  Ru11  1  0.064563  0.785122  0.500000  1
  Ru  Ru12  1  0.930472  0.214236  0.500000  1
  Ru  Ru13  1  0.285764  0.569528  0.500000  1
  Ru  Ru14  1  0.714878  0.435437  0.500000  1
  Ru  Ru15  1  0.213901  0.068179  0.500000  1
  Ru  Ru16  1  0.787736  0.926745  0.500000  1
  Ru  Ru17  1  0.500660  0.999340  0.500000  1
  Ru  Ru18  1  0.997645  0.502355  0.500000  1
  W  W19  1  0.823421  0.676579  0.000000  1
