# generated using pymatgen
data_KEr(SbAu)2
_symmetry_space_group_name_H-M   'P 1'
_cell_length_a   4.60583900
_cell_length_b   4.60583875
_cell_length_c   18.86282100
_cell_angle_alpha   90.00000000
_cell_angle_beta   90.00000000
_cell_angle_gamma   120.00000899
_symmetry_Int_Tables_number   1
_chemical_formula_structural   KEr(SbAu)2
_chemical_formula_sum   'K2 Er2 Sb4 Au4'
_cell_volume   346.54107461
_cell_formula_units_Z   2
loop_
 _symmetry_equiv_pos_site_id
 _symmetry_equiv_pos_as_xyz
  1  'x, y, z'
loop_
 _atom_site_type_symbol
 _atom_site_label
 _atom_site_symmetry_multiplicity
 _atom_site_fract_x
 _atom_site_fract_y
 _atom_site_fract_z
 _atom_site_occupancy
  K  K0  1  0.000000  0.000000  0.500000  1
  K  K1  1  0.000000  0.000000  0.000000  1
  Er  Er2  1  0.000000  0.000000  0.250000  1
  Er  Er3  1  0.000000  0.000000  0.750000  1
  Sb  Sb4  1  0.333333  0.666667  0.367443  1
  Sb  Sb5  1  0.666667  0.333333  0.632557  1
  Sb  Sb6  1  0.666667  0.333333  0.867443  1
  Sb  Sb7  1  0.333333  0.666667  0.132557  1
  Au  Au8  1  0.666667  0.333333  0.333534  1
  Au  Au9  1  0.333333  0.666667  0.666466  1
  Au  Au10  1  0.333333  0.666667  0.833534  1
  Au  Au11  1  0.666667  0.333333  0.166466  1
