# generated using pymatgen
data_SmHoEr2Zr4F28
_symmetry_space_group_name_H-M   'P 1'
_cell_length_a   5.75777103
_cell_length_b   9.11213397
_cell_length_c   12.24765348
_cell_angle_alpha   62.39608033
_cell_angle_beta   89.98544450
_cell_angle_gamma   90.02571481
_symmetry_Int_Tables_number   1
_chemical_formula_structural   SmHoEr2Zr4F28
_chemical_formula_sum   'Sm1 Ho1 Er2 Zr4 F28'
_cell_volume   569.43641978
_cell_formula_units_Z   1
loop_
 _symmetry_equiv_pos_site_id
 _symmetry_equiv_pos_as_xyz
  1  'x, y, z'
loop_
 _atom_site_type_symbol
 _atom_site_label
 _atom_site_symmetry_multiplicity
 _atom_site_fract_x
 _atom_site_fract_y
 _atom_site_fract_z
 _atom_site_occupancy
  Sm  Sm0  1  0.756613  0.817091  0.766391  1
  Ho  Ho1  1  0.743828  0.817890  0.266158  1
  Er  Er2  1  0.243762  0.184190  0.233977  1
  Er  Er3  1  0.257287  0.187113  0.733548  1
  Zr  Zr4  1  0.743848  0.276885  0.453182  1
  Zr  Zr5  1  0.244500  0.725421  0.048450  1
  Zr  Zr6  1  0.254842  0.725382  0.541798  1
  Zr  Zr7  1  0.755483  0.271109  0.956389  1
  F  F8  1  0.464044  0.709924  0.924158  1
  F  F9  1  0.967957  0.288622  0.577728  1
  F  F10  1  0.530778  0.286745  0.079150  1
  F  F11  1  0.030819  0.710762  0.418859  1
  F  F12  1  0.454051  0.280680  0.550260  1
  F  F13  1  0.954080  0.717356  0.954910  1
  F  F14  1  0.547444  0.719597  0.447832  1
  F  F15  1  0.045486  0.278078  0.052380  1
  F  F16  1  0.769419  0.521660  0.859464  1
  F  F17  1  0.267616  0.473337  0.640364  1
  F  F18  1  0.234693  0.473049  0.143830  1
  F  F19  1  0.732852  0.527777  0.356511  1
  F  F20  1  0.759183  0.020501  0.059560  1
  F  F21  1  0.258945  0.976581  0.439635  1
  F  F22  1  0.240561  0.975822  0.942065  1
  F  F23  1  0.739678  0.026042  0.555367  1
  F  F24  1  0.984305  0.732557  0.646063  1
  F  F25  1  0.484810  0.265343  0.850376  1
  F  F26  1  0.012007  0.264865  0.347946  1
  F  F27  1  0.513811  0.735380  0.153058  1
  F  F28  1  0.031891  0.747353  0.174934  1
  F  F29  1  0.529235  0.253726  0.326982  1
  F  F30  1  0.969057  0.250745  0.828614  1
  F  F31  1  0.461880  0.744409  0.670813  1
  F  F32  1  0.432965  0.976711  0.235846  1
  F  F33  1  0.935116  0.025636  0.264183  1
  F  F34  1  0.567517  0.033797  0.765215  1
  F  F35  1  0.079639  0.977861  0.734000  1
