# generated using pymatgen
data_Ho8ScTi(Si8W5)2
_symmetry_space_group_name_H-M   'P 1'
_cell_length_a   6.90955849
_cell_length_b   6.90955764
_cell_length_c   12.81048106
_cell_angle_alpha   89.92209542
_cell_angle_beta   90.07790338
_cell_angle_gamma   90.16099376
_symmetry_Int_Tables_number   1
_chemical_formula_structural   Ho8ScTi(Si8W5)2
_chemical_formula_sum   'Ho8 Sc1 Ti1 Si16 W10'
_cell_volume   611.59435082
_cell_formula_units_Z   1
loop_
 _symmetry_equiv_pos_site_id
 _symmetry_equiv_pos_as_xyz
  1  'x, y, z'
loop_
 _atom_site_type_symbol
 _atom_site_label
 _atom_site_symmetry_multiplicity
 _atom_site_fract_x
 _atom_site_fract_y
 _atom_site_fract_z
 _atom_site_occupancy
  Ho  Ho0  1  0.336212  0.999402  0.468888  1
  Ho  Ho1  1  0.501203  0.839048  0.718598  1
  Ho  Ho2  1  0.499508  0.160294  0.219687  1
  Ho  Ho3  1  0.839048  0.501203  0.281402  1
  Ho  Ho4  1  0.160294  0.499508  0.780313  1
  Ho  Ho5  1  0.664559  0.000048  0.968986  1
  Ho  Ho6  1  0.999402  0.336212  0.531112  1
  Ho  Ho7  1  0.000048  0.664559  0.031014  1
  Sc  Sc8  1  0.332312  0.332312  0.000000  1
  Ti  Ti9  1  0.667905  0.667905  0.500000  1
  Si  Si10  1  0.201056  0.125631  0.682541  1
  Si  Si11  1  0.374046  0.706731  0.932200  1
  Si  Si12  1  0.627131  0.296720  0.433080  1
  Si  Si13  1  0.706731  0.374046  0.067800  1
  Si  Si14  1  0.296720  0.627131  0.566920  1
  Si  Si15  1  0.798788  0.873378  0.183056  1
  Si  Si16  1  0.125631  0.201056  0.317459  1
  Si  Si17  1  0.873378  0.798788  0.816944  1
  Si  Si18  1  0.289528  0.958077  0.064695  1
  Si  Si19  1  0.536452  0.790572  0.313124  1
  Si  Si20  1  0.465873  0.209082  0.810771  1
  Si  Si21  1  0.790572  0.536452  0.686876  1
  Si  Si22  1  0.209082  0.465873  0.189229  1
  Si  Si23  1  0.709072  0.038624  0.564292  1
  Si  Si24  1  0.958077  0.289528  0.935305  1
  Si  Si25  1  0.038624  0.709072  0.435708  1
  W  W26  1  0.165246  0.833600  0.251036  1
  W  W27  1  0.833600  0.165246  0.748964  1
  W  W28  1  0.164134  0.000450  0.871825  1
  W  W29  1  0.497357  0.661431  0.124984  1
  W  W30  1  0.504450  0.341038  0.622894  1
  W  W31  1  0.661431  0.497357  0.875016  1
  W  W32  1  0.341038  0.504450  0.377106  1
  W  W33  1  0.833914  0.997122  0.374440  1
  W  W34  1  0.000450  0.164134  0.128175  1
  W  W35  1  0.997122  0.833914  0.625560  1
