# generated using pymatgen
data_Ge2H7Br
_symmetry_space_group_name_H-M   'P 1'
_cell_length_a   4.11733601
_cell_length_b   6.54484944
_cell_length_c   8.53342819
_cell_angle_alpha   65.74307412
_cell_angle_beta   89.74743376
_cell_angle_gamma   82.82118626
_symmetry_Int_Tables_number   1
_chemical_formula_structural   Ge2H7Br
_chemical_formula_sum   'Ge2 H7 Br1'
_cell_volume   207.72759296
_cell_formula_units_Z   1
loop_
 _symmetry_equiv_pos_site_id
 _symmetry_equiv_pos_as_xyz
  1  'x, y, z'
loop_
 _atom_site_type_symbol
 _atom_site_label
 _atom_site_symmetry_multiplicity
 _atom_site_fract_x
 _atom_site_fract_y
 _atom_site_fract_z
 _atom_site_occupancy
  Ge  Ge0  1  0.712490  0.089047  0.507714  1
  Ge  Ge1  1  0.183474  0.241561  0.344584  1
  H  H2  1  0.370095  0.286942  0.912625  1
  H  H3  1  0.200824  0.174176  0.191732  1
  H  H4  1  0.531500  0.841028  0.072898  1
  H  H5  1  0.449324  0.377932  0.843739  1
  H  H6  1  0.709758  0.086165  0.689619  1
  H  H7  1  0.621177  0.832738  0.152314  1
  H  H8  1  0.134550  0.501123  0.275586  1
  Br  Br9  1  0.801751  0.701151  0.561345  1
