# generated using pymatgen
data_DyEr2(P2Rh3)3
_symmetry_space_group_name_H-M   'P 1'
_cell_length_a   3.91898800
_cell_length_b   11.20178700
_cell_length_c   12.74711700
_cell_angle_alpha   90.00000000
_cell_angle_beta   90.00000000
_cell_angle_gamma   90.00000000
_symmetry_Int_Tables_number   1
_chemical_formula_structural   DyEr2(P2Rh3)3
_chemical_formula_sum   'Dy2 Er4 P12 Rh18'
_cell_volume   559.59421486
_cell_formula_units_Z   2
loop_
 _symmetry_equiv_pos_site_id
 _symmetry_equiv_pos_as_xyz
  1  'x, y, z'
loop_
 _atom_site_type_symbol
 _atom_site_label
 _atom_site_symmetry_multiplicity
 _atom_site_fract_x
 _atom_site_fract_y
 _atom_site_fract_z
 _atom_site_occupancy
  Dy  Dy0  1  0.750000  0.250000  0.479279  1
  Dy  Dy1  1  0.250000  0.750000  0.520721  1
  Er  Er2  1  0.250000  0.935050  0.794914  1
  Er  Er3  1  0.250000  0.564950  0.794914  1
  Er  Er4  1  0.750000  0.064950  0.205086  1
  Er  Er5  1  0.750000  0.435050  0.205086  1
  P  P6  1  0.250000  0.250000  0.122469  1
  P  P7  1  0.750000  0.750000  0.877531  1
  P  P8  1  0.250000  0.250000  0.648188  1
  P  P9  1  0.750000  0.750000  0.351812  1
  P  P10  1  0.250000  0.434445  0.380919  1
  P  P11  1  0.250000  0.065555  0.380919  1
  P  P12  1  0.750000  0.565555  0.619081  1
  P  P13  1  0.750000  0.934445  0.619081  1
  P  P14  1  0.250000  0.903935  0.107611  1
  P  P15  1  0.250000  0.596065  0.107611  1
  P  P16  1  0.750000  0.096065  0.892389  1
  P  P17  1  0.750000  0.403935  0.892389  1
  Rh  Rh18  1  0.250000  0.250000  0.830432  1
  Rh  Rh19  1  0.750000  0.750000  0.169568  1
  Rh  Rh20  1  0.250000  0.250000  0.299050  1
  Rh  Rh21  1  0.750000  0.750000  0.700950  1
  Rh  Rh22  1  0.750000  0.250000  0.021331  1
  Rh  Rh23  1  0.250000  0.750000  0.978669  1
  Rh  Rh24  1  0.250000  0.416006  0.006803  1
  Rh  Rh25  1  0.250000  0.083994  0.006803  1
  Rh  Rh26  1  0.750000  0.583994  0.993197  1
  Rh  Rh27  1  0.750000  0.916006  0.993197  1
  Rh  Rh28  1  0.250000  0.455082  0.568801  1
  Rh  Rh29  1  0.250000  0.044918  0.568801  1
  Rh  Rh30  1  0.750000  0.544918  0.431199  1
  Rh  Rh31  1  0.750000  0.955082  0.431199  1
  Rh  Rh32  1  0.250000  0.877917  0.288834  1
  Rh  Rh33  1  0.250000  0.622083  0.288834  1
  Rh  Rh34  1  0.750000  0.122083  0.711166  1
  Rh  Rh35  1  0.750000  0.377917  0.711166  1
