# generated using pymatgen
data_Lu12CdInGa4
_symmetry_space_group_name_H-M   'P 1'
_cell_length_a   8.45902284
_cell_length_b   8.45902440
_cell_length_c   8.45902268
_cell_angle_alpha   111.96179444
_cell_angle_beta   112.41265934
_cell_angle_gamma   104.16629864
_symmetry_Int_Tables_number   1
_chemical_formula_structural   Lu12CdInGa4
_chemical_formula_sum   'Lu12 Cd1 In1 Ga4'
_cell_volume   462.98288053
_cell_formula_units_Z   1
loop_
 _symmetry_equiv_pos_site_id
 _symmetry_equiv_pos_as_xyz
  1  'x, y, z'
loop_
 _atom_site_type_symbol
 _atom_site_label
 _atom_site_symmetry_multiplicity
 _atom_site_fract_x
 _atom_site_fract_y
 _atom_site_fract_z
 _atom_site_occupancy
  Lu  Lu0  1  0.443157  0.241362  0.201796  1
  Lu  Lu1  1  0.556843  0.758638  0.798204  1
  Lu  Lu2  1  0.039566  0.241362  0.798204  1
  Lu  Lu3  1  0.960434  0.758638  0.201796  1
  Lu  Lu4  1  0.183902  0.276772  0.460674  1
  Lu  Lu5  1  0.816098  0.723228  0.539326  1
  Lu  Lu6  1  0.183902  0.723228  0.907131  1
  Lu  Lu7  1  0.816098  0.276772  0.092869  1
  Lu  Lu8  1  0.320003  0.616323  0.296319  1
  Lu  Lu9  1  0.679997  0.383677  0.703681  1
  Lu  Lu10  1  0.320003  0.023683  0.703681  1
  Lu  Lu11  1  0.679997  0.976317  0.296319  1
  Cd  Cd12  1  0.000000  0.000000  0.000000  1
  In  In13  1  0.500000  0.500000  0.000000  1
  Ga  Ga14  1  0.351642  0.000000  0.351642  1
  Ga  Ga15  1  0.648358  0.000000  0.648358  1
  Ga  Ga16  1  0.121278  0.621278  0.500000  1
  Ga  Ga17  1  0.878722  0.378722  0.500000  1
