# generated using pymatgen
data_Dy2Er3(ReO6)2
_symmetry_space_group_name_H-M   'P 1'
_cell_length_a   6.80865318
_cell_length_b   6.80865357
_cell_length_c   7.51185699
_cell_angle_alpha   73.86669548
_cell_angle_beta   73.86669618
_cell_angle_gamma   49.12967376
_symmetry_Int_Tables_number   1
_chemical_formula_structural   Dy2Er3(ReO6)2
_chemical_formula_sum   'Dy2 Er3 Re2 O12'
_cell_volume   250.73958071
_cell_formula_units_Z   1
loop_
 _symmetry_equiv_pos_site_id
 _symmetry_equiv_pos_as_xyz
  1  'x, y, z'
loop_
 _atom_site_type_symbol
 _atom_site_label
 _atom_site_symmetry_multiplicity
 _atom_site_fract_x
 _atom_site_fract_y
 _atom_site_fract_z
 _atom_site_occupancy
  Dy  Dy0  1  0.696779  0.696779  0.641573  1
  Dy  Dy1  1  0.303221  0.303221  0.358427  1
  Er  Er2  1  0.685653  0.685653  0.175630  1
  Er  Er3  1  0.314347  0.314347  0.824370  1
  Er  Er4  1  0.000000  0.000000  0.500000  1
  Re  Re5  1  0.785928  0.214072  0.000000  1
  Re  Re6  1  0.214072  0.785928  0.000000  1
  O  O7  1  0.000628  0.000628  0.207808  1
  O  O8  1  0.999372  0.999372  0.792192  1
  O  O9  1  0.581770  0.086253  0.084071  1
  O  O10  1  0.418230  0.913747  0.915929  1
  O  O11  1  0.913747  0.418230  0.915929  1
  O  O12  1  0.086253  0.581770  0.084071  1
  O  O13  1  0.499727  0.499727  0.178148  1
  O  O14  1  0.500273  0.500273  0.821852  1
  O  O15  1  0.405288  0.901011  0.424828  1
  O  O16  1  0.594712  0.098989  0.575172  1
  O  O17  1  0.098989  0.594712  0.575172  1
  O  O18  1  0.901011  0.405288  0.424828  1
