# generated using pymatgen
data_Ho12AlZnNi4
_symmetry_space_group_name_H-M   'P 1'
_cell_length_a   8.28922222
_cell_length_b   8.28922329
_cell_length_c   8.28922292
_cell_angle_alpha   113.21805970
_cell_angle_beta   109.57230925
_cell_angle_gamma   105.71021282
_symmetry_Int_Tables_number   1
_chemical_formula_structural   Ho12AlZnNi4
_chemical_formula_sum   'Ho12 Al1 Zn1 Ni4'
_cell_volume   436.56956036
_cell_formula_units_Z   1
loop_
 _symmetry_equiv_pos_site_id
 _symmetry_equiv_pos_as_xyz
  1  'x, y, z'
loop_
 _atom_site_type_symbol
 _atom_site_label
 _atom_site_symmetry_multiplicity
 _atom_site_fract_x
 _atom_site_fract_y
 _atom_site_fract_z
 _atom_site_occupancy
  Ho  Ho0  1  0.955918  0.263828  0.692090  1
  Ho  Ho1  1  0.044082  0.736172  0.307910  1
  Ho  Ho2  1  0.674208  0.864928  0.190719  1
  Ho  Ho3  1  0.325792  0.516513  0.190719  1
  Ho  Ho4  1  0.325792  0.135072  0.809281  1
  Ho  Ho5  1  0.674208  0.483487  0.809281  1
  Ho  Ho6  1  0.571738  0.263828  0.307910  1
  Ho  Ho7  1  0.428262  0.736172  0.692090  1
  Ho  Ho8  1  0.179929  0.785304  0.965233  1
  Ho  Ho9  1  0.820071  0.785304  0.605376  1
  Ho  Ho10  1  0.179929  0.214696  0.394624  1
  Ho  Ho11  1  0.820071  0.214696  0.034767  1
  Al  Al12  1  0.500000  0.000000  0.500000  1
  Zn  Zn13  1  0.000000  0.500000  0.500000  1
  Ni  Ni14  1  0.121584  0.121584  0.000000  1
  Ni  Ni15  1  0.878416  0.878416  0.000000  1
  Ni  Ni16  1  0.659185  0.500000  0.159185  1
  Ni  Ni17  1  0.340815  0.500000  0.840815  1
