# generated using pymatgen
data_YAlCu3Pd
_symmetry_space_group_name_H-M   'P 1'
_cell_length_a   5.09040257
_cell_length_b   5.09040292
_cell_length_c   5.05496809
_cell_angle_alpha   59.76783974
_cell_angle_beta   59.76783353
_cell_angle_gamma   59.99999772
_symmetry_Int_Tables_number   1
_chemical_formula_structural   YAlCu3Pd
_chemical_formula_sum   'Y1 Al1 Cu3 Pd1'
_cell_volume   92.29427259
_cell_formula_units_Z   1
loop_
 _symmetry_equiv_pos_site_id
 _symmetry_equiv_pos_as_xyz
  1  'x, y, z'
loop_
 _atom_site_type_symbol
 _atom_site_label
 _atom_site_symmetry_multiplicity
 _atom_site_fract_x
 _atom_site_fract_y
 _atom_site_fract_z
 _atom_site_occupancy
  Y  Y0  1  0.004373  0.004373  0.986880  1
  Al  Al1  1  0.619300  0.619300  0.142101  1
  Cu  Cu2  1  0.623786  0.124814  0.627616  1
  Cu  Cu3  1  0.124814  0.623786  0.627616  1
  Cu  Cu4  1  0.623786  0.623786  0.627616  1
  Pd  Pd5  1  0.253942  0.253942  0.238174  1
