# generated using pymatgen
data_Tm12Si12IrPt3
_symmetry_space_group_name_H-M   'P 1'
_cell_length_a   4.21114300
_cell_length_b   10.56737410
_cell_length_c   12.18373700
_cell_angle_alpha   90.00782387
_cell_angle_beta   90.00000000
_cell_angle_gamma   90.00000000
_symmetry_Int_Tables_number   1
_chemical_formula_structural   Tm12Si12IrPt3
_chemical_formula_sum   'Tm12 Si12 Ir1 Pt3'
_cell_volume   542.18510593
_cell_formula_units_Z   1
loop_
 _symmetry_equiv_pos_site_id
 _symmetry_equiv_pos_as_xyz
  1  'x, y, z'
loop_
 _atom_site_type_symbol
 _atom_site_label
 _atom_site_symmetry_multiplicity
 _atom_site_fract_x
 _atom_site_fract_y
 _atom_site_fract_z
 _atom_site_occupancy
  Tm  Tm0  1  0.250000  0.877807  0.020393  1
  Tm  Tm1  1  0.250000  0.620479  0.521953  1
  Tm  Tm2  1  0.750000  0.121169  0.978704  1
  Tm  Tm3  1  0.750000  0.378767  0.480084  1
  Tm  Tm4  1  0.250000  0.919661  0.602373  1
  Tm  Tm5  1  0.250000  0.579801  0.101741  1
  Tm  Tm6  1  0.750000  0.080397  0.398667  1
  Tm  Tm7  1  0.750000  0.420235  0.897422  1
  Tm  Tm8  1  0.250000  0.658634  0.800469  1
  Tm  Tm9  1  0.250000  0.839119  0.301469  1
  Tm  Tm10  1  0.750000  0.339078  0.198400  1
  Tm  Tm11  1  0.750000  0.161530  0.698226  1
  Si  Si12  1  0.250000  0.017169  0.824023  1
  Si  Si13  1  0.250000  0.484187  0.322930  1
  Si  Si14  1  0.750000  0.983592  0.176540  1
  Si  Si15  1  0.750000  0.511212  0.677564  1
  Si  Si16  1  0.250000  0.248221  0.840201  1
  Si  Si17  1  0.250000  0.254848  0.343874  1
  Si  Si18  1  0.750000  0.754180  0.156555  1
  Si  Si19  1  0.750000  0.744699  0.656267  1
  Si  Si20  1  0.250000  0.198225  0.543814  1
  Si  Si21  1  0.250000  0.306368  0.040704  1
  Si  Si22  1  0.750000  0.807473  0.459022  1
  Si  Si23  1  0.750000  0.692973  0.958227  1
  Ir  Ir24  1  0.250000  0.390406  0.680520  1
  Pt  Pt25  1  0.250000  0.110053  0.181648  1
  Pt  Pt26  1  0.750000  0.609829  0.319115  1
  Pt  Pt27  1  0.750000  0.889888  0.819096  1
