# generated using pymatgen
data_Pr6GaSiPd10
_symmetry_space_group_name_H-M   'P 1'
_cell_length_a   8.44469596
_cell_length_b   8.44469497
_cell_length_c   8.44469400
_cell_angle_alpha   126.60721600
_cell_angle_beta   126.15206208
_cell_angle_gamma   79.26561403
_symmetry_Int_Tables_number   1
_chemical_formula_structural   Pr6GaSiPd10
_chemical_formula_sum   'Pr6 Ga1 Si1 Pd10'
_cell_volume   377.39870575
_cell_formula_units_Z   1
loop_
 _symmetry_equiv_pos_site_id
 _symmetry_equiv_pos_as_xyz
  1  'x, y, z'
loop_
 _atom_site_type_symbol
 _atom_site_label
 _atom_site_symmetry_multiplicity
 _atom_site_fract_x
 _atom_site_fract_y
 _atom_site_fract_z
 _atom_site_occupancy
  Pr  Pr0  1  0.224063  0.450396  0.773666  1
  Pr  Pr1  1  0.775226  0.548488  0.226737  1
  Pr  Pr2  1  0.823269  0.049604  0.773666  1
  Pr  Pr3  1  0.178250  0.951512  0.226737  1
  Pr  Pr4  1  0.394379  0.250000  0.144379  1
  Pr  Pr5  1  0.614823  0.750000  0.864823  1
  Ga  Ga6  1  0.797151  0.250000  0.547151  1
  Si  Si7  1  0.216204  0.750000  0.466204  1
  Pd  Pd8  1  0.173926  0.410210  0.364171  1
  Pd  Pd9  1  0.833381  0.190821  0.231773  1
  Pd  Pd10  1  0.453961  0.089790  0.763716  1
  Pd  Pd11  1  0.540951  0.309179  0.642560  1
  Pd  Pd12  1  0.986100  0.529096  0.015195  1
  Pd  Pd13  1  0.986100  0.970904  0.457003  1
  Pd  Pd14  1  0.453961  0.690245  0.364171  1
  Pd  Pd15  1  0.540951  0.898392  0.231773  1
  Pd  Pd16  1  0.173926  0.809755  0.763716  1
  Pd  Pd17  1  0.833381  0.601608  0.642560  1
