# generated using pymatgen
data_YbErAlCdPt2
_symmetry_space_group_name_H-M   'P 1'
_cell_length_a   4.17623300
_cell_length_b   7.06520300
_cell_length_c   8.43418715
_cell_angle_alpha   91.38643543
_cell_angle_beta   90.00000000
_cell_angle_gamma   90.00000000
_symmetry_Int_Tables_number   1
_chemical_formula_structural   YbErAlCdPt2
_chemical_formula_sum   'Yb2 Er2 Al2 Cd2 Pt4'
_cell_volume   248.78571463
_cell_formula_units_Z   2
loop_
 _symmetry_equiv_pos_site_id
 _symmetry_equiv_pos_as_xyz
  1  'x, y, z'
loop_
 _atom_site_type_symbol
 _atom_site_label
 _atom_site_symmetry_multiplicity
 _atom_site_fract_x
 _atom_site_fract_y
 _atom_site_fract_z
 _atom_site_occupancy
  Yb  Yb0  1  0.250000  0.463717  0.177963  1
  Yb  Yb1  1  0.750000  0.536283  0.822037  1
  Er  Er2  1  0.750000  0.043789  0.677088  1
  Er  Er3  1  0.250000  0.956211  0.322912  1
  Al  Al4  1  0.750000  0.634057  0.441532  1
  Al  Al5  1  0.250000  0.365943  0.558468  1
  Cd  Cd6  1  0.250000  0.851221  0.933923  1
  Cd  Cd7  1  0.750000  0.148779  0.066077  1
  Pt  Pt8  1  0.250000  0.733920  0.602642  1
  Pt  Pt9  1  0.750000  0.266080  0.397358  1
  Pt  Pt10  1  0.750000  0.752385  0.156941  1
  Pt  Pt11  1  0.250000  0.247615  0.843059  1
