# generated using pymatgen
data_Ti24SiS7
_symmetry_space_group_name_H-M   'P 1'
_cell_length_a   9.84929269
_cell_length_b   9.87148383
_cell_length_c   4.99057911
_cell_angle_alpha   89.71505064
_cell_angle_beta   90.12083095
_cell_angle_gamma   90.02190635
_symmetry_Int_Tables_number   1
_chemical_formula_structural   Ti24SiS7
_chemical_formula_sum   'Ti24 Si1 S7'
_cell_volume   485.21258868
_cell_formula_units_Z   1
loop_
 _symmetry_equiv_pos_site_id
 _symmetry_equiv_pos_as_xyz
  1  'x, y, z'
loop_
 _atom_site_type_symbol
 _atom_site_label
 _atom_site_symmetry_multiplicity
 _atom_site_fract_x
 _atom_site_fract_y
 _atom_site_fract_z
 _atom_site_occupancy
  Ti  Ti0  1  0.214957  0.681849  0.985687  1
  Ti  Ti1  1  0.786905  0.320849  0.983751  1
  Ti  Ti2  1  0.181158  0.283981  0.486708  1
  Ti  Ti3  1  0.820853  0.715299  0.484064  1
  Ti  Ti4  1  0.284149  0.818873  0.516227  1
  Ti  Ti5  1  0.717843  0.177525  0.511659  1
  Ti  Ti6  1  0.315020  0.214725  0.015979  1
  Ti  Ti7  1  0.680793  0.784241  0.017348  1
  Ti  Ti8  1  0.640371  0.535009  0.719670  1
  Ti  Ti9  1  0.356813  0.478015  0.721003  1
  Ti  Ti10  1  0.028196  0.859771  0.219220  1
  Ti  Ti11  1  0.971523  0.138236  0.219468  1
  Ti  Ti12  1  0.861501  0.970498  0.780145  1
  Ti  Ti13  1  0.138829  0.026294  0.780122  1
  Ti  Ti14  1  0.471801  0.639727  0.280407  1
  Ti  Ti15  1  0.529082  0.362583  0.278672  1
  Ti  Ti16  1  0.106042  0.585282  0.459823  1
  Ti  Ti17  1  0.893500  0.414481  0.462306  1
  Ti  Ti18  1  0.084753  0.394168  0.959167  1
  Ti  Ti19  1  0.915284  0.607189  0.960470  1
  Ti  Ti20  1  0.393012  0.914257  0.040632  1
  Ti  Ti21  1  0.607936  0.082528  0.039437  1
  Ti  Ti22  1  0.413496  0.102844  0.539712  1
  Ti  Ti23  1  0.586187  0.892083  0.540552  1
  Si  Si24  1  0.539363  0.295400  0.783945  1
  S  S25  1  0.708552  0.539672  0.213376  1
  S  S26  1  0.291866  0.459567  0.212805  1
  S  S27  1  0.039895  0.792092  0.712856  1
  S  S28  1  0.960830  0.207108  0.713420  1
  S  S29  1  0.793235  0.958813  0.286955  1
  S  S30  1  0.206333  0.038480  0.286602  1
  S  S31  1  0.459925  0.708559  0.787810  1
