# generated using pymatgen
data_TmLu7(ZrIr3)2
_symmetry_space_group_name_H-M   'P 1'
_cell_length_a   10.70339829
_cell_length_b   10.70367600
_cell_length_c   6.17419700
_cell_angle_alpha   90.00000000
_cell_angle_beta   89.80928669
_cell_angle_gamma   90.00000000
_symmetry_Int_Tables_number   1
_chemical_formula_structural   TmLu7(ZrIr3)2
_chemical_formula_sum   'Tm2 Lu14 Zr4 Ir12'
_cell_volume   707.34732863
_cell_formula_units_Z   2
loop_
 _symmetry_equiv_pos_site_id
 _symmetry_equiv_pos_as_xyz
  1  'x, y, z'
loop_
 _atom_site_type_symbol
 _atom_site_label
 _atom_site_symmetry_multiplicity
 _atom_site_fract_x
 _atom_site_fract_y
 _atom_site_fract_z
 _atom_site_occupancy
  Tm  Tm0  1  0.087364  0.711738  0.633758  1
  Tm  Tm1  1  0.087364  0.288262  0.133758  1
  Lu  Lu2  1  0.292027  0.084069  0.371013  1
  Lu  Lu3  1  0.292027  0.915931  0.871013  1
  Lu  Lu4  1  0.709015  0.085954  0.866015  1
  Lu  Lu5  1  0.709015  0.914046  0.366015  1
  Lu  Lu6  1  0.585835  0.790625  0.869360  1
  Lu  Lu7  1  0.585835  0.209375  0.369360  1
  Lu  Lu8  1  0.414375  0.790165  0.367978  1
  Lu  Lu9  1  0.414375  0.209835  0.867978  1
  Lu  Lu10  1  0.209009  0.413729  0.631867  1
  Lu  Lu11  1  0.209009  0.586271  0.131867  1
  Lu  Lu12  1  0.790479  0.413777  0.133025  1
  Lu  Lu13  1  0.790479  0.586223  0.633025  1
  Lu  Lu14  1  0.912767  0.708719  0.131490  1
  Lu  Lu15  1  0.912767  0.291281  0.631490  1
  Zr  Zr16  1  0.998236  0.001560  0.495813  1
  Zr  Zr17  1  0.998236  0.998440  0.995813  1
  Zr  Zr18  1  0.500551  0.499867  0.000959  1
  Zr  Zr19  1  0.500551  0.500133  0.500959  1
  Ir  Ir20  1  0.848989  0.148081  0.248701  1
  Ir  Ir21  1  0.848989  0.851919  0.748701  1
  Ir  Ir22  1  0.148181  0.148149  0.746198  1
  Ir  Ir23  1  0.148181  0.851851  0.246198  1
  Ir  Ir24  1  0.649270  0.351762  0.750540  1
  Ir  Ir25  1  0.649270  0.648238  0.250540  1
  Ir  Ir26  1  0.353431  0.350564  0.252332  1
  Ir  Ir27  1  0.353431  0.649436  0.752332  1
  Ir  Ir28  1  0.500799  0.000373  0.114163  1
  Ir  Ir29  1  0.500799  0.999627  0.614163  1
  Ir  Ir30  1  0.999673  0.499775  0.886786  1
  Ir  Ir31  1  0.999673  0.500225  0.386786  1
