# generated using pymatgen
data_RbSb12(IrRu)2
_symmetry_space_group_name_H-M   'P 1'
_cell_length_a   8.18625885
_cell_length_b   8.18625944
_cell_length_c   8.18367361
_cell_angle_alpha   109.45929952
_cell_angle_beta   109.48784039
_cell_angle_gamma   109.47931498
_symmetry_Int_Tables_number   1
_chemical_formula_structural   RbSb12(IrRu)2
_chemical_formula_sum   'Rb1 Sb12 Ir2 Ru2'
_cell_volume   422.11305029
_cell_formula_units_Z   1
loop_
 _symmetry_equiv_pos_site_id
 _symmetry_equiv_pos_as_xyz
  1  'x, y, z'
loop_
 _atom_site_type_symbol
 _atom_site_label
 _atom_site_symmetry_multiplicity
 _atom_site_fract_x
 _atom_site_fract_y
 _atom_site_fract_z
 _atom_site_occupancy
  Rb  Rb0  1  0.000000  0.000000  0.000000  1
  Sb  Sb1  1  0.658187  0.840909  0.499097  1
  Sb  Sb2  1  0.341813  0.159091  0.500903  1
  Sb  Sb3  1  0.844299  0.186262  0.345505  1
  Sb  Sb4  1  0.813835  0.658310  0.159390  1
  Sb  Sb5  1  0.840758  0.498795  0.654495  1
  Sb  Sb6  1  0.186165  0.341690  0.840610  1
  Sb  Sb7  1  0.155701  0.813738  0.654495  1
  Sb  Sb8  1  0.498918  0.654444  0.840610  1
  Sb  Sb9  1  0.501082  0.345556  0.159390  1
  Sb  Sb10  1  0.159242  0.501205  0.345505  1
  Sb  Sb11  1  0.345362  0.843705  0.189068  1
  Sb  Sb12  1  0.654638  0.156295  0.810932  1
  Ir  Ir13  1  0.500000  0.000000  0.000000  1
  Ir  Ir14  1  0.000000  0.500000  0.000000  1
  Ru  Ru15  1  0.500000  0.500000  0.500000  1
  Ru  Ru16  1  0.000000  0.000000  0.500000  1
