# generated using pymatgen
data_TbEr7(IrPd)4
_symmetry_space_group_name_H-M   'P 1'
_cell_length_a   6.94616500
_cell_length_b   4.84734000
_cell_length_c   9.66643800
_cell_angle_alpha   90.00000000
_cell_angle_beta   89.99993401
_cell_angle_gamma   90.00000000
_symmetry_Int_Tables_number   1
_chemical_formula_structural   TbEr7(IrPd)4
_chemical_formula_sum   'Tb1 Er7 Ir4 Pd4'
_cell_volume   325.47306072
_cell_formula_units_Z   1
loop_
 _symmetry_equiv_pos_site_id
 _symmetry_equiv_pos_as_xyz
  1  'x, y, z'
loop_
 _atom_site_type_symbol
 _atom_site_label
 _atom_site_symmetry_multiplicity
 _atom_site_fract_x
 _atom_site_fract_y
 _atom_site_fract_z
 _atom_site_occupancy
  Tb  Tb0  1  0.999899  0.249999  0.874908  1
  Er  Er1  1  0.999918  0.750000  0.125834  1
  Er  Er2  1  0.500168  0.750000  0.125324  1
  Er  Er3  1  0.999922  0.249999  0.374906  1
  Er  Er4  1  0.500149  0.249999  0.374909  1
  Er  Er5  1  0.500151  0.750000  0.624865  1
  Er  Er6  1  0.999846  0.750000  0.624350  1
  Er  Er7  1  0.499880  0.249999  0.874904  1
  Ir  Ir8  1  0.748962  0.249999  0.126103  1
  Ir  Ir9  1  0.249822  0.750000  0.375102  1
  Ir  Ir10  1  0.748944  0.249999  0.623619  1
  Ir  Ir11  1  0.252123  0.750000  0.875129  1
  Pd  Pd12  1  0.251623  0.249999  0.126295  1
  Pd  Pd13  1  0.749929  0.750000  0.375278  1
  Pd  Pd14  1  0.251600  0.249999  0.623149  1
  Pd  Pd15  1  0.747064  0.750000  0.875330  1
