# generated using pymatgen
data_La3Th(Zn5Sn)2
_symmetry_space_group_name_H-M   'P 1'
_cell_length_a   8.67052000
_cell_length_b   8.67052037
_cell_length_c   9.13927400
_cell_angle_alpha   90.00000000
_cell_angle_beta   90.00000000
_cell_angle_gamma   149.53695175
_symmetry_Int_Tables_number   1
_chemical_formula_structural   La3Th(Zn5Sn)2
_chemical_formula_sum   'La3 Th1 Zn10 Sn2'
_cell_volume   348.33332993
_cell_formula_units_Z   1
loop_
 _symmetry_equiv_pos_site_id
 _symmetry_equiv_pos_as_xyz
  1  'x, y, z'
loop_
 _atom_site_type_symbol
 _atom_site_label
 _atom_site_symmetry_multiplicity
 _atom_site_fract_x
 _atom_site_fract_y
 _atom_site_fract_z
 _atom_site_occupancy
  La  La0  1  0.792923  0.207077  0.750000  1
  La  La1  1  0.000433  0.999567  0.501132  1
  La  La2  1  0.000433  0.999567  0.998868  1
  Th  Th3  1  0.207393  0.792607  0.250000  1
  Zn  Zn4  1  0.813536  0.186464  0.391032  1
  Zn  Zn5  1  0.185488  0.814512  0.607686  1
  Zn  Zn6  1  0.813536  0.186464  0.108968  1
  Zn  Zn7  1  0.185488  0.814512  0.892314  1
  Zn  Zn8  1  0.657321  0.342679  0.483493  1
  Zn  Zn9  1  0.343073  0.656927  0.514239  1
  Zn  Zn10  1  0.657321  0.342679  0.016507  1
  Zn  Zn11  1  0.343073  0.656927  0.985761  1
  Zn  Zn12  1  0.397183  0.602817  0.250000  1
  Zn  Zn13  1  0.602608  0.397392  0.750000  1
  Sn  Sn14  1  0.557547  0.442453  0.250000  1
  Sn  Sn15  1  0.442645  0.557355  0.750000  1
