# generated using pymatgen
data_Lu5ZnGaBi
_symmetry_space_group_name_H-M   'P 1'
_cell_length_a   8.39310094
_cell_length_b   8.39310096
_cell_length_c   8.56426113
_cell_angle_alpha   123.74738554
_cell_angle_beta   123.74738277
_cell_angle_gamma   82.31525748
_symmetry_Int_Tables_number   1
_chemical_formula_structural   Lu5ZnGaBi
_chemical_formula_sum   'Lu10 Zn2 Ga2 Bi2'
_cell_volume   403.54721643
_cell_formula_units_Z   2
loop_
 _symmetry_equiv_pos_site_id
 _symmetry_equiv_pos_as_xyz
  1  'x, y, z'
loop_
 _atom_site_type_symbol
 _atom_site_label
 _atom_site_symmetry_multiplicity
 _atom_site_fract_x
 _atom_site_fract_y
 _atom_site_fract_z
 _atom_site_occupancy
  Lu  Lu0  1  0.000000  0.000000  0.000000  1
  Lu  Lu1  1  0.500000  0.500000  0.000000  1
  Lu  Lu2  1  0.793782  0.293782  0.799068  1
  Lu  Lu3  1  0.206218  0.706218  0.200932  1
  Lu  Lu4  1  0.494714  0.994714  0.200932  1
  Lu  Lu5  1  0.293430  0.483525  0.500000  1
  Lu  Lu6  1  0.016475  0.206570  0.500000  1
  Lu  Lu7  1  0.505286  0.005286  0.799068  1
  Lu  Lu8  1  0.706570  0.516475  0.500000  1
  Lu  Lu9  1  0.983525  0.793430  0.500000  1
  Zn  Zn10  1  0.636143  0.863857  0.500000  1
  Zn  Zn11  1  0.363857  0.136143  0.500000  1
  Ga  Ga12  1  0.149848  0.649848  0.799695  1
  Ga  Ga13  1  0.850152  0.350152  0.200305  1
  Bi  Bi14  1  0.250000  0.250000  0.000000  1
  Bi  Bi15  1  0.750000  0.750000  0.000000  1
