# generated using pymatgen
data_Tb8GaPd23Au
_symmetry_space_group_name_H-M   'P 1'
_cell_length_a   8.38681200
_cell_length_b   8.39220100
_cell_length_c   8.38431000
_cell_angle_alpha   90.00000000
_cell_angle_beta   90.00000000
_cell_angle_gamma   90.00000000
_symmetry_Int_Tables_number   1
_chemical_formula_structural   Tb8GaPd23Au
_chemical_formula_sum   'Tb8 Ga1 Pd23 Au1'
_cell_volume   590.11969924
_cell_formula_units_Z   1
loop_
 _symmetry_equiv_pos_site_id
 _symmetry_equiv_pos_as_xyz
  1  'x, y, z'
loop_
 _atom_site_type_symbol
 _atom_site_label
 _atom_site_symmetry_multiplicity
 _atom_site_fract_x
 _atom_site_fract_y
 _atom_site_fract_z
 _atom_site_occupancy
  Tb  Tb0  1  0.256348  0.248127  0.747796  1
  Tb  Tb1  1  0.251879  0.747749  0.252450  1
  Tb  Tb2  1  0.748121  0.252251  0.252450  1
  Tb  Tb3  1  0.743652  0.751873  0.747796  1
  Tb  Tb4  1  0.748121  0.747749  0.252450  1
  Tb  Tb5  1  0.743652  0.248127  0.747796  1
  Tb  Tb6  1  0.256348  0.751873  0.747796  1
  Tb  Tb7  1  0.251879  0.252251  0.252450  1
  Ga  Ga8  1  0.000000  0.000000  0.000703  1
  Pd  Pd9  1  0.500000  0.500000  0.747095  1
  Pd  Pd10  1  0.500000  0.253747  0.499319  1
  Pd  Pd11  1  0.255205  0.500000  0.500622  1
  Pd  Pd12  1  0.500000  0.500000  0.252749  1
  Pd  Pd13  1  0.500000  0.746253  0.499319  1
  Pd  Pd14  1  0.744795  0.500000  0.500622  1
  Pd  Pd15  1  0.000000  0.000000  0.707403  1
  Pd  Pd16  1  0.000000  0.291141  0.998777  1
  Pd  Pd17  1  0.292156  0.000000  0.000839  1
  Pd  Pd18  1  0.000000  0.000000  0.292900  1
  Pd  Pd19  1  0.000000  0.708859  0.998777  1
  Pd  Pd20  1  0.707844  0.000000  0.000839  1
  Pd  Pd21  1  0.500000  0.261005  0.000804  1
  Pd  Pd22  1  0.261155  0.000000  0.499472  1
  Pd  Pd23  1  0.000000  0.260078  0.500388  1
  Pd  Pd24  1  0.500000  0.000000  0.739237  1
  Pd  Pd25  1  0.261234  0.500000  0.999305  1
  Pd  Pd26  1  0.000000  0.500000  0.260869  1
  Pd  Pd27  1  0.500000  0.738995  0.000804  1
  Pd  Pd28  1  0.000000  0.739922  0.500388  1
  Pd  Pd29  1  0.500000  0.000000  0.261319  1
  Pd  Pd30  1  0.738845  0.000000  0.499472  1
  Pd  Pd31  1  0.738766  0.500000  0.999305  1
  Au  Au32  1  0.000000  0.500000  0.737689  1
