# generated using pymatgen
data_Lu4PdPt3O14
_symmetry_space_group_name_H-M   'P 1'
_cell_length_a   7.16753681
_cell_length_b   7.16546777
_cell_length_c   7.16546800
_cell_angle_alpha   59.99999895
_cell_angle_beta   60.00954754
_cell_angle_gamma   60.00954604
_symmetry_Int_Tables_number   1
_chemical_formula_structural   Lu4PdPt3O14
_chemical_formula_sum   'Lu4 Pd1 Pt3 O14'
_cell_volume   260.25956049
_cell_formula_units_Z   1
loop_
 _symmetry_equiv_pos_site_id
 _symmetry_equiv_pos_as_xyz
  1  'x, y, z'
loop_
 _atom_site_type_symbol
 _atom_site_label
 _atom_site_symmetry_multiplicity
 _atom_site_fract_x
 _atom_site_fract_y
 _atom_site_fract_z
 _atom_site_occupancy
  Lu  Lu0  1  0.625000  0.625000  0.125000  1
  Lu  Lu1  1  0.625000  0.625000  0.625000  1
  Lu  Lu2  1  0.625000  0.125000  0.625000  1
  Lu  Lu3  1  0.125000  0.625000  0.625000  1
  Pd  Pd4  1  0.625000  0.125000  0.125000  1
  Pt  Pt5  1  0.125000  0.125000  0.125000  1
  Pt  Pt6  1  0.125000  0.125000  0.625000  1
  Pt  Pt7  1  0.125000  0.625000  0.125000  1
  O  O8  1  0.030163  0.469953  0.469953  1
  O  O9  1  0.781197  0.779538  0.219632  1
  O  O10  1  0.781197  0.219632  0.219632  1
  O  O11  1  0.468803  0.030368  0.470462  1
  O  O12  1  0.750074  0.749975  0.749975  1
  O  O13  1  0.030163  0.469953  0.029930  1
  O  O14  1  0.030163  0.029930  0.469953  1
  O  O15  1  0.219837  0.780047  0.220070  1
  O  O16  1  0.219837  0.220070  0.780047  1
  O  O17  1  0.781197  0.219632  0.779538  1
  O  O18  1  0.499926  0.500025  0.500025  1
  O  O19  1  0.468803  0.030368  0.030368  1
  O  O20  1  0.468803  0.470462  0.030368  1
  O  O21  1  0.219837  0.780047  0.780047  1
