# generated using pymatgen
data_TbDy3Al16(SiIr3)2
_symmetry_space_group_name_H-M   'P 1'
_cell_length_a   7.53854643
_cell_length_b   7.53898146
_cell_length_c   9.35073200
_cell_angle_alpha   90.00000000
_cell_angle_beta   90.00000000
_cell_angle_gamma   119.65694666
_symmetry_Int_Tables_number   1
_chemical_formula_structural   TbDy3Al16(SiIr3)2
_chemical_formula_sum   'Tb1 Dy3 Al16 Si2 Ir6'
_cell_volume   461.81438693
_cell_formula_units_Z   1
loop_
 _symmetry_equiv_pos_site_id
 _symmetry_equiv_pos_as_xyz
  1  'x, y, z'
loop_
 _atom_site_type_symbol
 _atom_site_label
 _atom_site_symmetry_multiplicity
 _atom_site_fract_x
 _atom_site_fract_y
 _atom_site_fract_z
 _atom_site_occupancy
  Tb  Tb0  1  0.994964  0.674650  0.750000  1
  Dy  Dy1  1  0.005197  0.325305  0.250000  1
  Dy  Dy2  1  0.674784  0.995003  0.750000  1
  Dy  Dy3  1  0.325378  0.005228  0.250000  1
  Al  Al4  1  0.001272  0.336048  0.576340  1
  Al  Al5  1  0.998718  0.663718  0.423303  1
  Al  Al6  1  0.998718  0.663718  0.076697  1
  Al  Al7  1  0.336511  0.001501  0.923684  1
  Al  Al8  1  0.001272  0.336048  0.923660  1
  Al  Al9  1  0.663714  0.998712  0.076484  1
  Al  Al10  1  0.663714  0.998712  0.423516  1
  Al  Al11  1  0.336511  0.001501  0.576316  1
  Al  Al12  1  0.335541  0.335548  0.057045  1
  Al  Al13  1  0.664192  0.664410  0.943217  1
  Al  Al14  1  0.664192  0.664410  0.556783  1
  Al  Al15  1  0.335541  0.335548  0.442955  1
  Al  Al16  1  0.335808  0.548411  0.750000  1
  Al  Al17  1  0.664302  0.451542  0.250000  1
  Al  Al18  1  0.548190  0.335431  0.750000  1
  Al  Al19  1  0.451547  0.664336  0.250000  1
  Si  Si20  1  0.128917  0.129022  0.750000  1
  Si  Si21  1  0.871199  0.871197  0.250000  1
  Ir  Ir22  1  0.671651  0.328097  0.499874  1
  Ir  Ir23  1  0.328290  0.671756  0.499888  1
  Ir  Ir24  1  0.328290  0.671756  0.000112  1
  Ir  Ir25  1  0.671651  0.328097  0.000126  1
  Ir  Ir26  1  0.999968  0.000149  0.499864  1
  Ir  Ir27  1  0.999968  0.000149  0.000136  1
