# generated using pymatgen
data_MgP4Ru5Rh
_symmetry_space_group_name_H-M   'P 1'
_cell_length_a   7.02209893
_cell_length_b   6.96398792
_cell_length_c   3.59693800
_cell_angle_alpha   90.00000000
_cell_angle_beta   90.00000000
_cell_angle_gamma   119.72661076
_symmetry_Int_Tables_number   1
_chemical_formula_structural   MgP4Ru5Rh
_chemical_formula_sum   'Mg1 P4 Ru5 Rh1'
_cell_volume   152.74899913
_cell_formula_units_Z   1
loop_
 _symmetry_equiv_pos_site_id
 _symmetry_equiv_pos_as_xyz
  1  'x, y, z'
loop_
 _atom_site_type_symbol
 _atom_site_label
 _atom_site_symmetry_multiplicity
 _atom_site_fract_x
 _atom_site_fract_y
 _atom_site_fract_z
 _atom_site_occupancy
  Mg  Mg0  1  0.999633  0.999817  0.000000  1
  P  P1  1  0.814532  0.192199  0.500000  1
  P  P2  1  0.376307  0.188154  0.500000  1
  P  P3  1  0.324549  0.662275  0.000000  1
  P  P4  1  0.814532  0.622333  0.500000  1
  Ru  Ru5  1  0.194587  0.804713  0.500000  1
  Ru  Ru6  1  0.194587  0.389875  0.500000  1
  Ru  Ru7  1  0.536748  0.071831  0.000000  1
  Ru  Ru8  1  0.924835  0.462418  0.000000  1
  Ru  Ru9  1  0.536748  0.464918  0.000000  1
  Rh  Rh10  1  0.616270  0.808136  0.500000  1
