# generated using pymatgen
data_Nd15Dy5(Ir2Ru)4
_symmetry_space_group_name_H-M   'P 1'
_cell_length_a   11.14600727
_cell_length_b   11.14084850
_cell_length_c   6.56705532
_cell_angle_alpha   90.07262738
_cell_angle_beta   90.00208831
_cell_angle_gamma   90.02500321
_symmetry_Int_Tables_number   1
_chemical_formula_structural   Nd15Dy5(Ir2Ru)4
_chemical_formula_sum   'Nd15 Dy5 Ir8 Ru4'
_cell_volume   815.46978607
_cell_formula_units_Z   1
loop_
 _symmetry_equiv_pos_site_id
 _symmetry_equiv_pos_as_xyz
  1  'x, y, z'
loop_
 _atom_site_type_symbol
 _atom_site_label
 _atom_site_symmetry_multiplicity
 _atom_site_fract_x
 _atom_site_fract_y
 _atom_site_fract_z
 _atom_site_occupancy
  Nd  Nd0  1  0.290368  0.088026  0.380032  1
  Nd  Nd1  1  0.291674  0.913186  0.880935  1
  Nd  Nd2  1  0.708692  0.086779  0.881377  1
  Nd  Nd3  1  0.708515  0.913080  0.380846  1
  Nd  Nd4  1  0.586852  0.791540  0.880780  1
  Nd  Nd5  1  0.586868  0.208653  0.380881  1
  Nd  Nd6  1  0.413119  0.791566  0.381073  1
  Nd  Nd7  1  0.412691  0.208465  0.881443  1
  Nd  Nd8  1  0.207750  0.412098  0.619242  1
  Nd  Nd9  1  0.207843  0.584768  0.119086  1
  Nd  Nd10  1  0.792711  0.412427  0.118973  1
  Nd  Nd11  1  0.791598  0.586246  0.619153  1
  Nd  Nd12  1  0.913561  0.708178  0.119028  1
  Nd  Nd13  1  0.914547  0.291381  0.618997  1
  Nd  Nd14  1  0.086837  0.708373  0.618577  1
  Dy  Dy15  1  0.085829  0.293373  0.116081  1
  Dy  Dy16  1  0.000120  0.000367  0.500570  1
  Dy  Dy17  1  0.000845  0.001541  0.000990  1
  Dy  Dy18  1  0.499888  0.499614  0.000527  1
  Dy  Dy19  1  0.499485  0.499808  0.499880  1
  Ir  Ir20  1  0.854550  0.149956  0.248332  1
  Ir  Ir21  1  0.851879  0.851678  0.750008  1
  Ir  Ir22  1  0.147684  0.150319  0.755316  1
  Ir  Ir23  1  0.148129  0.852319  0.250346  1
  Ir  Ir24  1  0.647976  0.351773  0.749938  1
  Ir  Ir25  1  0.648192  0.648316  0.249955  1
  Ir  Ir26  1  0.348669  0.351315  0.248481  1
  Ir  Ir27  1  0.351688  0.647967  0.750292  1
  Ru  Ru28  1  0.499787  0.000144  0.119761  1
  Ru  Ru29  1  0.500006  0.000308  0.619399  1
  Ru  Ru30  1  0.000777  0.497923  0.881705  1
  Ru  Ru31  1  0.000873  0.498511  0.377995  1
