# generated using pymatgen
data_Sr2GePt8
_symmetry_space_group_name_H-M   'P 1'
_cell_length_a   9.43986864
_cell_length_b   9.43986802
_cell_length_c   4.30250500
_cell_angle_alpha   90.00000000
_cell_angle_beta   90.00000000
_cell_angle_gamma   145.76390806
_symmetry_Int_Tables_number   1
_chemical_formula_structural   Sr2GePt8
_chemical_formula_sum   'Sr2 Ge1 Pt8'
_cell_volume   215.70304519
_cell_formula_units_Z   1
loop_
 _symmetry_equiv_pos_site_id
 _symmetry_equiv_pos_as_xyz
  1  'x, y, z'
loop_
 _atom_site_type_symbol
 _atom_site_label
 _atom_site_symmetry_multiplicity
 _atom_site_fract_x
 _atom_site_fract_y
 _atom_site_fract_z
 _atom_site_occupancy
  Sr  Sr0  1  0.616649  0.373865  0.500000  1
  Sr  Sr1  1  0.373865  0.616649  0.500000  1
  Ge  Ge2  1  0.230037  0.230037  0.000000  1
  Pt  Pt3  1  0.103614  0.875979  0.000000  1
  Pt  Pt4  1  0.875979  0.103614  0.000000  1
  Pt  Pt5  1  0.490535  0.991166  0.000000  1
  Pt  Pt6  1  0.991166  0.490535  0.000000  1
  Pt  Pt7  1  0.194039  0.790168  0.500000  1
  Pt  Pt8  1  0.790168  0.194039  0.500000  1
  Pt  Pt9  1  0.991366  0.991366  0.500000  1
  Pt  Pt10  1  0.656182  0.656182  0.000000  1
