# generated using pymatgen
data_NaTmCoH6
_symmetry_space_group_name_H-M   'P 1'
_cell_length_a   6.86110500
_cell_length_b   6.86110500
_cell_length_c   6.86110500
_cell_angle_alpha   90.00000000
_cell_angle_beta   90.00000000
_cell_angle_gamma   90.00000000
_symmetry_Int_Tables_number   1
_chemical_formula_structural   NaTmCoH6
_chemical_formula_sum   'Na4 Tm4 Co4 H24'
_cell_volume   322.98488370
_cell_formula_units_Z   4
loop_
 _symmetry_equiv_pos_site_id
 _symmetry_equiv_pos_as_xyz
  1  'x, y, z'
loop_
 _atom_site_type_symbol
 _atom_site_label
 _atom_site_symmetry_multiplicity
 _atom_site_fract_x
 _atom_site_fract_y
 _atom_site_fract_z
 _atom_site_occupancy
  Na  Na0  1  0.000000  0.000000  0.500000  1
  Na  Na1  1  0.000000  0.500000  0.000000  1
  Na  Na2  1  0.500000  0.000000  0.000000  1
  Na  Na3  1  0.000000  0.000000  0.000000  1
  Tm  Tm4  1  0.500000  0.500000  0.500000  1
  Tm  Tm5  1  0.000000  0.500000  0.500000  1
  Tm  Tm6  1  0.500000  0.000000  0.500000  1
  Tm  Tm7  1  0.500000  0.500000  0.000000  1
  Co  Co8  1  0.266429  0.733571  0.733571  1
  Co  Co9  1  0.733571  0.266429  0.733571  1
  Co  Co10  1  0.733571  0.733571  0.266429  1
  Co  Co11  1  0.266429  0.266429  0.266429  1
  H  H12  1  0.738021  0.738021  0.499496  1
  H  H13  1  0.261979  0.261979  0.499496  1
  H  H14  1  0.034280  0.734073  0.734073  1
  H  H15  1  0.265927  0.965720  0.734073  1
  H  H16  1  0.734073  0.034280  0.734073  1
  H  H17  1  0.965720  0.265927  0.734073  1
  H  H18  1  0.738021  0.499496  0.738021  1
  H  H19  1  0.499496  0.738021  0.738021  1
  H  H20  1  0.500504  0.261979  0.738021  1
  H  H21  1  0.261979  0.500504  0.738021  1
  H  H22  1  0.265927  0.734073  0.965720  1
  H  H23  1  0.734073  0.265927  0.965720  1
  H  H24  1  0.734073  0.734073  0.034280  1
  H  H25  1  0.265927  0.265927  0.034280  1
  H  H26  1  0.261979  0.499496  0.261979  1
  H  H27  1  0.500504  0.738021  0.261979  1
  H  H28  1  0.499496  0.261979  0.261979  1
  H  H29  1  0.738021  0.500504  0.261979  1
  H  H30  1  0.965720  0.734073  0.265927  1
  H  H31  1  0.734073  0.965720  0.265927  1
  H  H32  1  0.265927  0.034280  0.265927  1
  H  H33  1  0.034280  0.265927  0.265927  1
  H  H34  1  0.261979  0.738021  0.500504  1
  H  H35  1  0.738021  0.261979  0.500504  1
