# generated using pymatgen
data_Tb4Ga24NiPt8
_symmetry_space_group_name_H-M   'P 1'
_cell_length_a   7.55724905
_cell_length_b   7.55553459
_cell_length_c   13.25977367
_cell_angle_alpha   84.33555215
_cell_angle_beta   79.02738286
_cell_angle_gamma   60.11705300
_symmetry_Int_Tables_number   1
_chemical_formula_structural   Tb4Ga24NiPt8
_chemical_formula_sum   'Tb4 Ga24 Ni1 Pt8'
_cell_volume   644.44981466
_cell_formula_units_Z   1
loop_
 _symmetry_equiv_pos_site_id
 _symmetry_equiv_pos_as_xyz
  1  'x, y, z'
loop_
 _atom_site_type_symbol
 _atom_site_label
 _atom_site_symmetry_multiplicity
 _atom_site_fract_x
 _atom_site_fract_y
 _atom_site_fract_z
 _atom_site_occupancy
  Tb  Tb0  1  0.396858  0.164261  0.810061  1
  Tb  Tb1  1  0.603142  0.835739  0.189939  1
  Tb  Tb2  1  0.729186  0.497792  0.810134  1
  Tb  Tb3  1  0.270814  0.502208  0.189866  1
  Ga  Ga4  1  0.691615  0.824759  0.941813  1
  Ga  Ga5  1  0.308385  0.175241  0.058187  1
  Ga  Ga6  1  0.147097  0.832958  0.560329  1
  Ga  Ga7  1  0.852903  0.167042  0.439671  1
  Ga  Ga8  1  0.479910  0.167724  0.557545  1
  Ga  Ga9  1  0.520090  0.832276  0.442455  1
  Ga  Ga10  1  0.218584  0.166055  0.325571  1
  Ga  Ga11  1  0.781416  0.833945  0.674429  1
  Ga  Ga12  1  0.436164  0.505494  0.674235  1
  Ga  Ga13  1  0.563836  0.494506  0.325765  1
  Ga  Ga14  1  0.108335  0.162123  0.673422  1
  Ga  Ga15  1  0.891665  0.837877  0.326578  1
  Ga  Ga16  1  0.347319  0.496903  0.942025  1
  Ga  Ga17  1  0.652681  0.503097  0.057975  1
  Ga  Ga18  1  0.017710  0.179982  0.946854  1
  Ga  Ga19  1  0.982290  0.820018  0.053146  1
  Ga  Ga20  1  0.185979  0.498043  0.442565  1
  Ga  Ga21  1  0.814021  0.501957  0.557435  1
  Ga  Ga22  1  0.738834  0.164785  0.181957  1
  Ga  Ga23  1  0.261166  0.835215  0.818043  1
  Ga  Ga24  1  0.059178  0.621759  0.821746  1
  Ga  Ga25  1  0.940822  0.378241  0.178254  1
  Ga  Ga26  1  0.859507  0.036405  0.817810  1
  Ga  Ga27  1  0.140493  0.963595  0.182191  1
  Ni  Ni28  1  0.000000  0.500000  0.000000  1
  Pt  Pt29  1  0.118799  0.495161  0.640063  1
  Pt  Pt30  1  0.881201  0.504839  0.359937  1
  Pt  Pt31  1  0.660064  0.169896  0.999928  1
  Pt  Pt32  1  0.339936  0.830104  0.000072  1
  Pt  Pt33  1  0.538451  0.166087  0.360063  1
  Pt  Pt34  1  0.461549  0.833913  0.639937  1
  Pt  Pt35  1  0.778714  0.175218  0.638712  1
  Pt  Pt36  1  0.221286  0.824782  0.361288  1
