# generated using pymatgen
data_AcPm(SiAu)2
_symmetry_space_group_name_H-M   'P 1'
_cell_length_a   6.18429325
_cell_length_b   6.18429262
_cell_length_c   6.18429400
_cell_angle_alpha   138.63252183
_cell_angle_beta   102.75507573
_cell_angle_gamma   91.64631755
_symmetry_Int_Tables_number   1
_chemical_formula_structural   AcPm(SiAu)2
_chemical_formula_sum   'Ac1 Pm1 Si2 Au2'
_cell_volume   145.35549113
_cell_formula_units_Z   1
loop_
 _symmetry_equiv_pos_site_id
 _symmetry_equiv_pos_as_xyz
  1  'x, y, z'
loop_
 _atom_site_type_symbol
 _atom_site_label
 _atom_site_symmetry_multiplicity
 _atom_site_fract_x
 _atom_site_fract_y
 _atom_site_fract_z
 _atom_site_occupancy
  Ac  Ac0  1  0.503438  0.500095  0.003564  1
  Pm  Pm1  1  0.005858  0.000045  0.005813  1
  Si  Si2  1  0.928391  0.266750  0.661585  1
  Si  Si3  1  0.394843  0.733190  0.661605  1
  Au  Au4  1  0.587636  0.253855  0.333705  1
  Au  Au5  1  0.079831  0.746063  0.333727  1
