# generated using pymatgen
data_La3Nd2(Sn5Ir2)2
_symmetry_space_group_name_H-M   'P 1'
_cell_length_a   14.21347100
_cell_length_b   14.21347100
_cell_length_c   4.71231100
_cell_angle_alpha   90.00000000
_cell_angle_beta   90.00000000
_cell_angle_gamma   90.00000000
_symmetry_Int_Tables_number   1
_chemical_formula_structural   La3Nd2(Sn5Ir2)2
_chemical_formula_sum   'La6 Nd4 Sn20 Ir8'
_cell_volume   951.99406415
_cell_formula_units_Z   2
loop_
 _symmetry_equiv_pos_site_id
 _symmetry_equiv_pos_as_xyz
  1  'x, y, z'
loop_
 _atom_site_type_symbol
 _atom_site_label
 _atom_site_symmetry_multiplicity
 _atom_site_fract_x
 _atom_site_fract_y
 _atom_site_fract_z
 _atom_site_occupancy
  La  La0  1  0.500000  0.500000  0.000000  1
  La  La1  1  0.000000  0.000000  0.000000  1
  La  La2  1  0.887537  0.387537  0.500000  1
  La  La3  1  0.112463  0.612463  0.500000  1
  La  La4  1  0.387537  0.112463  0.500000  1
  La  La5  1  0.612463  0.887537  0.500000  1
  Nd  Nd6  1  0.676444  0.176444  0.500000  1
  Nd  Nd7  1  0.323556  0.823556  0.500000  1
  Nd  Nd8  1  0.176444  0.323556  0.500000  1
  Nd  Nd9  1  0.823556  0.676444  0.500000  1
  Sn  Sn10  1  0.569813  0.069813  0.000000  1
  Sn  Sn11  1  0.430187  0.930187  0.000000  1
  Sn  Sn12  1  0.069813  0.430187  0.000000  1
  Sn  Sn13  1  0.930187  0.569813  0.000000  1
  Sn  Sn14  1  0.655113  0.698050  0.000000  1
  Sn  Sn15  1  0.344887  0.301950  0.000000  1
  Sn  Sn16  1  0.155113  0.801950  0.000000  1
  Sn  Sn17  1  0.844887  0.198050  0.000000  1
  Sn  Sn18  1  0.301950  0.655113  0.000000  1
  Sn  Sn19  1  0.698050  0.344887  0.000000  1
  Sn  Sn20  1  0.198050  0.155113  0.000000  1
  Sn  Sn21  1  0.801950  0.844887  0.000000  1
  Sn  Sn22  1  0.663985  0.505293  0.500000  1
  Sn  Sn23  1  0.336015  0.494707  0.500000  1
  Sn  Sn24  1  0.163985  0.994707  0.500000  1
  Sn  Sn25  1  0.836015  0.005293  0.500000  1
  Sn  Sn26  1  0.494707  0.663985  0.500000  1
  Sn  Sn27  1  0.505293  0.336015  0.500000  1
  Sn  Sn28  1  0.005293  0.163985  0.500000  1
  Sn  Sn29  1  0.994707  0.836015  0.500000  1
  Ir  Ir30  1  0.746293  0.528069  0.000000  1
  Ir  Ir31  1  0.253707  0.471931  0.000000  1
  Ir  Ir32  1  0.246293  0.971931  0.000000  1
  Ir  Ir33  1  0.753707  0.028069  0.000000  1
  Ir  Ir34  1  0.471931  0.746293  0.000000  1
  Ir  Ir35  1  0.528069  0.253707  0.000000  1
  Ir  Ir36  1  0.028069  0.246293  0.000000  1
  Ir  Ir37  1  0.971931  0.753707  0.000000  1
