# generated using pymatgen
data_Lu8In3Cu
_symmetry_space_group_name_H-M   'P 1'
_cell_length_a   10.32816800
_cell_length_b   10.32816812
_cell_length_c   6.71098400
_cell_angle_alpha   90.00000000
_cell_angle_beta   90.00000000
_cell_angle_gamma   119.99999962
_symmetry_Int_Tables_number   1
_chemical_formula_structural   Lu8In3Cu
_chemical_formula_sum   'Lu16 In6 Cu2'
_cell_volume   619.95965659
_cell_formula_units_Z   2
loop_
 _symmetry_equiv_pos_site_id
 _symmetry_equiv_pos_as_xyz
  1  'x, y, z'
loop_
 _atom_site_type_symbol
 _atom_site_label
 _atom_site_symmetry_multiplicity
 _atom_site_fract_x
 _atom_site_fract_y
 _atom_site_fract_z
 _atom_site_occupancy
  Lu  Lu0  1  0.524559  0.049118  0.509818  1
  Lu  Lu1  1  0.950882  0.475441  0.509818  1
  Lu  Lu2  1  0.524559  0.475441  0.509818  1
  Lu  Lu3  1  0.475441  0.950882  0.009818  1
  Lu  Lu4  1  0.049118  0.524559  0.009818  1
  Lu  Lu5  1  0.475441  0.524559  0.009818  1
  Lu  Lu6  1  0.175938  0.351875  0.721843  1
  Lu  Lu7  1  0.648125  0.824062  0.721843  1
  Lu  Lu8  1  0.175938  0.824062  0.721843  1
  Lu  Lu9  1  0.824062  0.648125  0.221843  1
  Lu  Lu10  1  0.351875  0.175938  0.221843  1
  Lu  Lu11  1  0.824062  0.175938  0.221843  1
  Lu  Lu12  1  0.666667  0.333333  0.880551  1
  Lu  Lu13  1  0.333333  0.666667  0.380551  1
  Lu  Lu14  1  0.000000  0.000000  0.488873  1
  Lu  Lu15  1  0.000000  0.000000  0.988873  1
  In  In16  1  0.836050  0.672101  0.743726  1
  In  In17  1  0.327899  0.163950  0.743726  1
  In  In18  1  0.836050  0.163950  0.743726  1
  In  In19  1  0.163950  0.327899  0.243726  1
  In  In20  1  0.672101  0.836050  0.243726  1
  In  In21  1  0.163950  0.836050  0.243726  1
  Cu  Cu22  1  0.666667  0.333333  0.283438  1
  Cu  Cu23  1  0.333333  0.666667  0.783438  1
