# generated using pymatgen
data_Th8In4Pd5Pt3
_symmetry_space_group_name_H-M   'P 1'
_cell_length_a   8.00144665
_cell_length_b   8.00349308
_cell_length_c   7.61623373
_cell_angle_alpha   90.03326372
_cell_angle_beta   89.99523284
_cell_angle_gamma   89.91597597
_symmetry_Int_Tables_number   1
_chemical_formula_structural   Th8In4Pd5Pt3
_chemical_formula_sum   'Th8 In4 Pd5 Pt3'
_cell_volume   487.73936582
_cell_formula_units_Z   1
loop_
 _symmetry_equiv_pos_site_id
 _symmetry_equiv_pos_as_xyz
  1  'x, y, z'
loop_
 _atom_site_type_symbol
 _atom_site_label
 _atom_site_symmetry_multiplicity
 _atom_site_fract_x
 _atom_site_fract_y
 _atom_site_fract_z
 _atom_site_occupancy
  Th  Th0  1  0.673774  0.673626  0.501550  1
  Th  Th1  1  0.823646  0.173532  0.498638  1
  Th  Th2  1  0.674994  0.675277  0.998478  1
  Th  Th3  1  0.824866  0.171746  0.001427  1
  Th  Th4  1  0.173307  0.823330  0.503437  1
  Th  Th5  1  0.327401  0.327261  0.000860  1
  Th  Th6  1  0.171974  0.825013  0.996582  1
  Th  Th7  1  0.328672  0.328993  0.499097  1
  In  In8  1  0.002345  0.500721  0.249177  1
  In  In9  1  0.497388  0.004763  0.749469  1
  In  In10  1  0.496139  0.995792  0.250246  1
  In  In11  1  0.998231  0.493928  0.750573  1
  Pd  Pd12  1  0.631632  0.369069  0.751695  1
  Pd  Pd13  1  0.369056  0.632100  0.248261  1
  Pd  Pd14  1  0.128325  0.128198  0.251717  1
  Pd  Pd15  1  0.872213  0.871342  0.251785  1
  Pd  Pd16  1  0.131374  0.131386  0.748337  1
  Pt  Pt17  1  0.626498  0.374045  0.248699  1
  Pt  Pt18  1  0.374573  0.625672  0.751315  1
  Pt  Pt19  1  0.873593  0.874206  0.748655  1
