# generated using pymatgen
data_V3Fe(OF3)3
_symmetry_space_group_name_H-M   'P 1'
_cell_length_a   5.30621991
_cell_length_b   5.37282023
_cell_length_c   9.09150823
_cell_angle_alpha   74.26542267
_cell_angle_beta   89.92849441
_cell_angle_gamma   60.87459889
_symmetry_Int_Tables_number   1
_chemical_formula_structural   V3Fe(OF3)3
_chemical_formula_sum   'V3 Fe1 O3 F9'
_cell_volume   215.28475595
_cell_formula_units_Z   1
loop_
 _symmetry_equiv_pos_site_id
 _symmetry_equiv_pos_as_xyz
  1  'x, y, z'
loop_
 _atom_site_type_symbol
 _atom_site_label
 _atom_site_symmetry_multiplicity
 _atom_site_fract_x
 _atom_site_fract_y
 _atom_site_fract_z
 _atom_site_occupancy
  V  V0  1  0.497439  0.974036  0.491834  1
  V  V1  1  0.265059  0.518496  0.744600  1
  V  V2  1  0.001955  0.025211  0.009237  1
  Fe  Fe3  1  0.749673  0.502022  0.249631  1
  O  O4  1  0.953328  0.241402  0.121941  1
  O  O5  1  0.542213  0.766874  0.373994  1
  O  O6  1  0.407564  0.734227  0.664359  1
  F  F7  1  0.909691  0.751218  0.588025  1
  F  F8  1  0.932379  0.740149  0.165199  1
  F  F9  1  0.421914  0.753143  0.075804  1
  F  F10  1  0.573312  0.261122  0.339023  1
  F  F11  1  0.586041  0.234072  0.917087  1
  F  F12  1  0.446600  0.235314  0.626694  1
  F  F13  1  0.051149  0.750468  0.880342  1
  F  F14  1  0.083219  0.260382  0.830856  1
  F  F15  1  0.078464  0.251864  0.421370  1
