# generated using pymatgen
data_Yb10CeDyRu4
_symmetry_space_group_name_H-M   'P 1'
_cell_length_a   6.28881865
_cell_length_b   7.55058137
_cell_length_c   9.44663700
_cell_angle_alpha   90.00000000
_cell_angle_beta   90.00000000
_cell_angle_gamma   87.84057621
_symmetry_Int_Tables_number   1
_chemical_formula_structural   Yb10CeDyRu4
_chemical_formula_sum   'Yb10 Ce1 Dy1 Ru4'
_cell_volume   448.24780132
_cell_formula_units_Z   1
loop_
 _symmetry_equiv_pos_site_id
 _symmetry_equiv_pos_as_xyz
  1  'x, y, z'
loop_
 _atom_site_type_symbol
 _atom_site_label
 _atom_site_symmetry_multiplicity
 _atom_site_fract_x
 _atom_site_fract_y
 _atom_site_fract_z
 _atom_site_occupancy
  Yb  Yb0  1  0.662851  0.166022  0.061464  1
  Yb  Yb1  1  0.366860  0.541445  0.250000  1
  Yb  Yb2  1  0.847432  0.671777  0.061074  1
  Yb  Yb3  1  0.159786  0.328984  0.925692  1
  Yb  Yb4  1  0.336503  0.832795  0.926670  1
  Yb  Yb5  1  0.634619  0.459672  0.750000  1
  Yb  Yb6  1  0.336503  0.832795  0.573330  1
  Yb  Yb7  1  0.159786  0.328984  0.574308  1
  Yb  Yb8  1  0.847432  0.671777  0.438926  1
  Yb  Yb9  1  0.662851  0.166022  0.438536  1
  Ce  Ce10  1  0.157996  0.060239  0.250000  1
  Dy  Dy11  1  0.858655  0.955430  0.750000  1
  Ru  Ru12  1  0.993607  0.339429  0.250000  1
  Ru  Ru13  1  0.468736  0.118876  0.750000  1
  Ru  Ru14  1  0.477326  0.897616  0.250000  1
  Ru  Ru15  1  0.029058  0.628138  0.750000  1
