# generated using pymatgen
data_Th10Sn6HgBi
_symmetry_space_group_name_H-M   'P 1'
_cell_length_a   9.67626622
_cell_length_b   9.67626543
_cell_length_c   6.64656909
_cell_angle_alpha   90.00931456
_cell_angle_beta   90.00931234
_cell_angle_gamma   120.05033832
_symmetry_Int_Tables_number   1
_chemical_formula_structural   Th10Sn6HgBi
_chemical_formula_sum   'Th10 Sn6 Hg1 Bi1'
_cell_volume   538.67050597
_cell_formula_units_Z   1
loop_
 _symmetry_equiv_pos_site_id
 _symmetry_equiv_pos_as_xyz
  1  'x, y, z'
loop_
 _atom_site_type_symbol
 _atom_site_label
 _atom_site_symmetry_multiplicity
 _atom_site_fract_x
 _atom_site_fract_y
 _atom_site_fract_z
 _atom_site_occupancy
  Th  Th0  1  0.003869  0.721485  0.748831  1
  Th  Th1  1  0.278205  0.278205  0.748838  1
  Th  Th2  1  0.330655  0.667076  0.498592  1
  Th  Th3  1  0.667076  0.330655  0.498592  1
  Th  Th4  1  0.720605  0.720605  0.250931  1
  Th  Th5  1  0.721485  0.003869  0.748831  1
  Th  Th6  1  0.999921  0.280138  0.251280  1
  Th  Th7  1  0.280138  0.999921  0.251280  1
  Th  Th8  1  0.330848  0.667069  0.001283  1
  Th  Th9  1  0.667069  0.330848  0.001283  1
  Sn  Sn10  1  0.000566  0.378532  0.750273  1
  Sn  Sn11  1  0.378532  0.000566  0.750273  1
  Sn  Sn12  1  0.622044  0.999810  0.249652  1
  Sn  Sn13  1  0.377979  0.377979  0.249890  1
  Sn  Sn14  1  0.999810  0.622044  0.249652  1
  Sn  Sn15  1  0.999556  0.999556  0.499759  1
  Hg  Hg16  1  0.999739  0.999739  0.000654  1
  Bi  Bi17  1  0.621904  0.621904  0.750106  1
