# generated using pymatgen
data_Th2SiP(Ru2C)2
_symmetry_space_group_name_H-M   'P 1'
_cell_length_a   5.94093767
_cell_length_b   5.94093820
_cell_length_c   7.17935900
_cell_angle_alpha   90.00000000
_cell_angle_beta   90.00000000
_cell_angle_gamma   141.40063972
_symmetry_Int_Tables_number   1
_chemical_formula_structural   Th2SiP(Ru2C)2
_chemical_formula_sum   'Th2 Si1 P1 Ru4 C2'
_cell_volume   158.08490766
_cell_formula_units_Z   1
loop_
 _symmetry_equiv_pos_site_id
 _symmetry_equiv_pos_as_xyz
  1  'x, y, z'
loop_
 _atom_site_type_symbol
 _atom_site_label
 _atom_site_symmetry_multiplicity
 _atom_site_fract_x
 _atom_site_fract_y
 _atom_site_fract_z
 _atom_site_occupancy
  Th  Th0  1  0.552497  0.447503  0.250000  1
  Th  Th1  1  0.446751  0.553249  0.750000  1
  Si  Si2  1  0.726349  0.273651  0.750000  1
  P  P3  1  0.272621  0.727379  0.250000  1
  Ru  Ru4  1  0.835122  0.164878  0.056866  1
  Ru  Ru5  1  0.165981  0.834019  0.948786  1
  Ru  Ru6  1  0.165981  0.834019  0.551214  1
  Ru  Ru7  1  0.835122  0.164878  0.443134  1
  C  C8  1  0.999788  0.000212  0.998662  1
  C  C9  1  0.999788  0.000212  0.501338  1
