# generated using pymatgen
data_Ba6Te3N2
_symmetry_space_group_name_H-M   'P 1'
_cell_length_a   9.24182107
_cell_length_b   9.24182066
_cell_length_c   9.24181943
_cell_angle_alpha   94.13741833
_cell_angle_beta   94.13741579
_cell_angle_gamma   94.13741263
_symmetry_Int_Tables_number   1
_chemical_formula_structural   Ba6Te3N2
_chemical_formula_sum   'Ba12 Te6 N4'
_cell_volume   782.86884831
_cell_formula_units_Z   2
loop_
 _symmetry_equiv_pos_site_id
 _symmetry_equiv_pos_as_xyz
  1  'x, y, z'
loop_
 _atom_site_type_symbol
 _atom_site_label
 _atom_site_symmetry_multiplicity
 _atom_site_fract_x
 _atom_site_fract_y
 _atom_site_fract_z
 _atom_site_occupancy
  Ba  Ba0  1  0.407038  0.212793  0.519730  1
  Ba  Ba1  1  0.519730  0.407038  0.212793  1
  Ba  Ba2  1  0.212793  0.519730  0.407038  1
  Ba  Ba3  1  0.712793  0.907038  0.019730  1
  Ba  Ba4  1  0.019730  0.712793  0.907038  1
  Ba  Ba5  1  0.907038  0.019730  0.712793  1
  Ba  Ba6  1  0.592962  0.787207  0.480270  1
  Ba  Ba7  1  0.480270  0.592962  0.787207  1
  Ba  Ba8  1  0.787207  0.480270  0.592962  1
  Ba  Ba9  1  0.287207  0.092962  0.980270  1
  Ba  Ba10  1  0.980270  0.287207  0.092962  1
  Ba  Ba11  1  0.092962  0.980270  0.287207  1
  Te  Te12  1  0.750000  0.137089  0.362911  1
  Te  Te13  1  0.362911  0.750000  0.137089  1
  Te  Te14  1  0.137089  0.362911  0.750000  1
  Te  Te15  1  0.637089  0.250000  0.862911  1
  Te  Te16  1  0.862911  0.637089  0.250000  1
  Te  Te17  1  0.250000  0.862911  0.637089  1
  N  N18  1  0.500000  0.500000  0.500000  1
  N  N19  1  0.000000  0.000000  0.000000  1
  N  N20  1  0.250000  0.250000  0.250000  1
  N  N21  1  0.750000  0.750000  0.750000  1
