# generated using pymatgen
data_Ho4Al24IrPd8
_symmetry_space_group_name_H-M   'P 1'
_cell_length_a   7.52496904
_cell_length_b   7.55444061
_cell_length_c   13.18035875
_cell_angle_alpha   84.62974869
_cell_angle_beta   79.14375392
_cell_angle_gamma   59.93895980
_symmetry_Int_Tables_number   1
_chemical_formula_structural   Ho4Al24IrPd8
_chemical_formula_sum   'Ho4 Al24 Ir1 Pd8'
_cell_volume   636.87503765
_cell_formula_units_Z   1
loop_
 _symmetry_equiv_pos_site_id
 _symmetry_equiv_pos_as_xyz
  1  'x, y, z'
loop_
 _atom_site_type_symbol
 _atom_site_label
 _atom_site_symmetry_multiplicity
 _atom_site_fract_x
 _atom_site_fract_y
 _atom_site_fract_z
 _atom_site_occupancy
  Ho  Ho0  1  0.392964  0.169157  0.809287  1
  Ho  Ho1  1  0.607036  0.830843  0.190713  1
  Ho  Ho2  1  0.734134  0.497804  0.809192  1
  Ho  Ho3  1  0.265866  0.502196  0.190808  1
  Al  Al4  1  0.686904  0.831060  0.945262  1
  Al  Al5  1  0.313096  0.168940  0.054738  1
  Al  Al6  1  0.146168  0.832796  0.561384  1
  Al  Al7  1  0.853832  0.167204  0.438616  1
  Al  Al8  1  0.479102  0.166657  0.559258  1
  Al  Al9  1  0.520898  0.833343  0.440742  1
  Al  Al10  1  0.217458  0.165027  0.328695  1
  Al  Al11  1  0.782542  0.834973  0.671305  1
  Al  Al12  1  0.436329  0.507063  0.671274  1
  Al  Al13  1  0.563671  0.492937  0.328726  1
  Al  Al14  1  0.108858  0.159669  0.669858  1
  Al  Al15  1  0.891142  0.840331  0.330142  1
  Al  Al16  1  0.349918  0.499765  0.945511  1
  Al  Al17  1  0.650082  0.500235  0.054489  1
  Al  Al18  1  0.015376  0.170631  0.954362  1
  Al  Al19  1  0.984624  0.829369  0.045638  1
  Al  Al20  1  0.187078  0.499484  0.440772  1
  Al  Al21  1  0.812922  0.500516  0.559228  1
  Al  Al22  1  0.733127  0.163332  0.183379  1
  Al  Al23  1  0.266873  0.836668  0.816621  1
  Al  Al24  1  0.061403  0.630105  0.816920  1
  Al  Al25  1  0.938597  0.369895  0.183080  1
  Al  Al26  1  0.855038  0.042554  0.816186  1
  Al  Al27  1  0.144962  0.957446  0.183814  1
  Ir  Ir28  1  0.000000  0.500000  0.000000  1
  Pd  Pd29  1  0.119611  0.492791  0.638456  1
  Pd  Pd30  1  0.880389  0.507209  0.361544  1
  Pd  Pd31  1  0.657300  0.171128  0.999537  1
  Pd  Pd32  1  0.342700  0.828872  0.000463  1
  Pd  Pd33  1  0.538298  0.166840  0.361866  1
  Pd  Pd34  1  0.461702  0.833160  0.638134  1
  Pd  Pd35  1  0.778162  0.174530  0.637235  1
  Pd  Pd36  1  0.221838  0.825470  0.362765  1
