# generated using pymatgen
data_Re2Os3Ru2Rh
_symmetry_space_group_name_H-M   'P 1'
_cell_length_a   5.51330200
_cell_length_b   5.51391898
_cell_length_c   4.35362700
_cell_angle_alpha   90.00000000
_cell_angle_beta   90.00000000
_cell_angle_gamma   119.99629864
_symmetry_Int_Tables_number   1
_chemical_formula_structural   Re2Os3Ru2Rh
_chemical_formula_sum   'Re2 Os3 Ru2 Rh1'
_cell_volume   114.62258770
_cell_formula_units_Z   1
loop_
 _symmetry_equiv_pos_site_id
 _symmetry_equiv_pos_as_xyz
  1  'x, y, z'
loop_
 _atom_site_type_symbol
 _atom_site_label
 _atom_site_symmetry_multiplicity
 _atom_site_fract_x
 _atom_site_fract_y
 _atom_site_fract_z
 _atom_site_occupancy
  Re  Re0  1  0.333443  0.666885  0.750000  1
  Re  Re1  1  0.663859  0.327717  0.250000  1
  Os  Os2  1  0.664238  0.836801  0.250000  1
  Os  Os3  1  0.172563  0.836801  0.250000  1
  Os  Os4  1  0.832297  0.664594  0.750000  1
  Ru  Ru5  1  0.333691  0.167492  0.750000  1
  Ru  Ru6  1  0.833800  0.167492  0.750000  1
  Rh  Rh7  1  0.166110  0.332220  0.250000  1
