# generated using pymatgen
data_Pr21Fe8Sn(BiC2)6
_symmetry_space_group_name_H-M   'P 1'
_cell_length_a   11.56047386
_cell_length_b   11.57263913
_cell_length_c   11.57263839
_cell_angle_alpha   59.93047101
_cell_angle_beta   60.03476262
_cell_angle_gamma   60.03476197
_symmetry_Int_Tables_number   1
_chemical_formula_structural   Pr21Fe8Sn(BiC2)6
_chemical_formula_sum   'Pr21 Fe8 Sn1 Bi6 C12'
_cell_volume   1094.77395890
_cell_formula_units_Z   1
loop_
 _symmetry_equiv_pos_site_id
 _symmetry_equiv_pos_as_xyz
  1  'x, y, z'
loop_
 _atom_site_type_symbol
 _atom_site_label
 _atom_site_symmetry_multiplicity
 _atom_site_fract_x
 _atom_site_fract_y
 _atom_site_fract_z
 _atom_site_occupancy
  Pr  Pr0  1  0.362871  0.909670  0.364588  1
  Pr  Pr1  1  0.000144  0.657780  0.341933  1
  Pr  Pr2  1  0.362267  0.363197  0.363197  1
  Pr  Pr3  1  0.636803  0.088661  0.637733  1
  Pr  Pr4  1  0.911339  0.363197  0.363197  1
  Pr  Pr5  1  0.657605  0.342395  0.000131  1
  Pr  Pr6  1  0.999869  0.342395  0.000131  1
  Pr  Pr7  1  0.635412  0.637129  0.637129  1
  Pr  Pr8  1  0.999869  0.000131  0.342395  1
  Pr  Pr9  1  0.636803  0.637733  0.088661  1
  Pr  Pr10  1  0.362871  0.364588  0.909670  1
  Pr  Pr11  1  0.658067  0.999856  0.999856  1
  Pr  Pr12  1  0.003074  0.996926  0.658376  1
  Pr  Pr13  1  0.657605  0.000131  0.342395  1
  Pr  Pr14  1  0.090330  0.637129  0.637129  1
  Pr  Pr15  1  0.342220  0.999856  0.999856  1
  Pr  Pr16  1  0.000144  0.341933  0.657780  1
  Pr  Pr17  1  0.341624  0.996926  0.658376  1
  Pr  Pr18  1  0.495018  0.504982  0.504982  1
  Pr  Pr19  1  0.341624  0.658376  0.996926  1
  Pr  Pr20  1  0.003074  0.658376  0.996926  1
  Fe  Fe21  1  0.195203  0.413998  0.195594  1
  Fe  Fe22  1  0.195203  0.195594  0.413998  1
  Fe  Fe23  1  0.586002  0.804797  0.804797  1
  Fe  Fe24  1  0.195822  0.195162  0.195162  1
  Fe  Fe25  1  0.413852  0.195162  0.195162  1
  Fe  Fe26  1  0.804406  0.804797  0.804797  1
  Fe  Fe27  1  0.804838  0.804178  0.586148  1
  Fe  Fe28  1  0.804838  0.586148  0.804178  1
  Sn  Sn29  1  0.290949  0.709051  0.709051  1
  Bi  Bi30  1  0.711417  0.710576  0.288583  1
  Bi  Bi31  1  0.709782  0.290218  0.290218  1
  Bi  Bi32  1  0.711417  0.288583  0.710576  1
  Bi  Bi33  1  0.289424  0.710576  0.288583  1
  Bi  Bi34  1  0.998688  0.001312  0.001312  1
  Bi  Bi35  1  0.289424  0.288583  0.710576  1
  C  C36  1  0.108916  0.108836  0.391057  1
  C  C37  1  0.891164  0.891084  0.608809  1
  C  C38  1  0.108667  0.391333  0.391333  1
  C  C39  1  0.108916  0.391057  0.108836  1
  C  C40  1  0.608943  0.608809  0.891084  1
  C  C41  1  0.891164  0.608809  0.891084  1
  C  C42  1  0.391191  0.391057  0.108836  1
  C  C43  1  0.391191  0.108836  0.391057  1
  C  C44  1  0.891173  0.608827  0.608827  1
  C  C45  1  0.608943  0.891084  0.608809  1
  C  C46  1  0.391173  0.108827  0.108827  1
  C  C47  1  0.608667  0.891333  0.891333  1
