# generated using pymatgen
data_Er3LuGa4(CoNi)2
_symmetry_space_group_name_H-M   'P 1'
_cell_length_a   4.36625800
_cell_length_b   6.96444926
_cell_length_c   6.91411713
_cell_angle_alpha   89.76053179
_cell_angle_beta   90.00000000
_cell_angle_gamma   90.00000000
_symmetry_Int_Tables_number   1
_chemical_formula_structural   Er3LuGa4(CoNi)2
_chemical_formula_sum   'Er3 Lu1 Ga4 Co2 Ni2'
_cell_volume   210.24666339
_cell_formula_units_Z   1
loop_
 _symmetry_equiv_pos_site_id
 _symmetry_equiv_pos_as_xyz
  1  'x, y, z'
loop_
 _atom_site_type_symbol
 _atom_site_label
 _atom_site_symmetry_multiplicity
 _atom_site_fract_x
 _atom_site_fract_y
 _atom_site_fract_z
 _atom_site_occupancy
  Er  Er0  1  0.250000  0.194719  0.517286  1
  Er  Er1  1  0.250000  0.304285  0.022477  1
  Er  Er2  1  0.750000  0.696291  0.977243  1
  Lu  Lu3  1  0.750000  0.801514  0.482112  1
  Ga  Ga4  1  0.250000  0.892935  0.197442  1
  Ga  Ga5  1  0.750000  0.404842  0.303627  1
  Ga  Ga6  1  0.250000  0.597655  0.695753  1
  Ga  Ga7  1  0.750000  0.106032  0.803076  1
  Co  Co8  1  0.250000  0.567837  0.343432  1
  Co  Co9  1  0.750000  0.435339  0.656568  1
  Ni  Ni10  1  0.250000  0.928965  0.828921  1
  Ni  Ni11  1  0.750000  0.069585  0.172066  1
