# generated using pymatgen
data_HoLu3(B4W)4
_symmetry_space_group_name_H-M   'P 1'
_cell_length_a   3.60124800
_cell_length_b   5.99771482
_cell_length_c   11.58620359
_cell_angle_alpha   89.93999153
_cell_angle_beta   90.00000000
_cell_angle_gamma   90.00000000
_symmetry_Int_Tables_number   1
_chemical_formula_structural   HoLu3(B4W)4
_chemical_formula_sum   'Ho1 Lu3 B16 W4'
_cell_volume   250.25326919
_cell_formula_units_Z   1
loop_
 _symmetry_equiv_pos_site_id
 _symmetry_equiv_pos_as_xyz
  1  'x, y, z'
loop_
 _atom_site_type_symbol
 _atom_site_label
 _atom_site_symmetry_multiplicity
 _atom_site_fract_x
 _atom_site_fract_y
 _atom_site_fract_z
 _atom_site_occupancy
  Ho  Ho0  1  0.000000  0.372442  0.649614  1
  Lu  Lu1  1  0.000000  0.127350  0.149107  1
  Lu  Lu2  1  0.000000  0.872413  0.851123  1
  Lu  Lu3  1  0.000000  0.627446  0.350718  1
  B  B4  1  0.500000  0.477600  0.194494  1
  B  B5  1  0.500000  0.523661  0.806626  1
  B  B6  1  0.500000  0.977431  0.305130  1
  B  B7  1  0.500000  0.021966  0.694400  1
  B  B8  1  0.500000  0.289093  0.312662  1
  B  B9  1  0.500000  0.712326  0.687212  1
  B  B10  1  0.500000  0.789121  0.186863  1
  B  B11  1  0.500000  0.210596  0.813931  1
  B  B12  1  0.500000  0.367547  0.467204  1
  B  B13  1  0.500000  0.632608  0.531181  1
  B  B14  1  0.500000  0.867819  0.032125  1
  B  B15  1  0.500000  0.131990  0.968477  1
  B  B16  1  0.500000  0.385175  0.048387  1
  B  B17  1  0.500000  0.615222  0.952343  1
  B  B18  1  0.500000  0.884739  0.451279  1
  B  B19  1  0.500000  0.113548  0.547180  1
  W  W20  1  0.000000  0.131397  0.414042  1
  W  W21  1  0.000000  0.868245  0.584599  1
  W  W22  1  0.000000  0.632044  0.085485  1
  W  W23  1  0.000000  0.368222  0.915819  1
