# generated using pymatgen
data_Tb18Nd2Si15Rh
_symmetry_space_group_name_H-M   'P 1'
_cell_length_a   7.45336992
_cell_length_b   7.81244326
_cell_length_c   14.73841000
_cell_angle_alpha   89.78053212
_cell_angle_beta   90.04115744
_cell_angle_gamma   89.93570723
_symmetry_Int_Tables_number   1
_chemical_formula_structural   Tb18Nd2Si15Rh
_chemical_formula_sum   'Tb18 Nd2 Si15 Rh1'
_cell_volume   858.19625170
_cell_formula_units_Z   1
loop_
 _symmetry_equiv_pos_site_id
 _symmetry_equiv_pos_as_xyz
  1  'x, y, z'
loop_
 _atom_site_type_symbol
 _atom_site_label
 _atom_site_symmetry_multiplicity
 _atom_site_fract_x
 _atom_site_fract_y
 _atom_site_fract_z
 _atom_site_occupancy
  Tb  Tb0  1  0.808104  0.576292  0.876986  1
  Tb  Tb1  1  0.322739  0.430313  0.124499  1
  Tb  Tb2  1  0.183191  0.928628  0.372689  1
  Tb  Tb3  1  0.682495  0.069175  0.626836  1
  Tb  Tb4  1  0.183657  0.928008  0.628552  1
  Tb  Tb5  1  0.682261  0.069724  0.371990  1
  Tb  Tb6  1  0.810761  0.573337  0.124177  1
  Tb  Tb7  1  0.324602  0.434182  0.874249  1
  Tb  Tb8  1  0.643976  0.232501  0.999558  1
  Tb  Tb9  1  0.158923  0.762503  0.000546  1
  Tb  Tb10  1  0.351348  0.265199  0.499681  1
  Tb  Tb11  1  0.850169  0.732785  0.499903  1
  Tb  Tb12  1  0.476903  0.928108  0.846838  1
  Tb  Tb13  1  0.973687  0.066080  0.152635  1
  Tb  Tb14  1  0.475970  0.928635  0.152742  1
  Tb  Tb15  1  0.972223  0.066729  0.847873  1
  Tb  Tb16  1  0.529597  0.563762  0.652033  1
  Tb  Tb17  1  0.028080  0.433841  0.347129  1
  Nd  Nd18  1  0.524050  0.567635  0.343718  1
  Nd  Nd19  1  0.024936  0.430265  0.656784  1
  Si  Si20  1  0.019744  0.352001  0.999606  1
  Si  Si21  1  0.476006  0.856297  0.500657  1
  Si  Si22  1  0.978916  0.141654  0.499571  1
  Si  Si23  1  0.651139  0.277058  0.789718  1
  Si  Si24  1  0.146439  0.719844  0.210201  1
  Si  Si25  1  0.353162  0.217280  0.287522  1
  Si  Si26  1  0.850523  0.781670  0.712572  1
  Si  Si27  1  0.360249  0.219656  0.711148  1
  Si  Si28  1  0.856589  0.779523  0.288581  1
  Si  Si29  1  0.647464  0.271397  0.207771  1
  Si  Si30  1  0.141077  0.725422  0.792380  1
  Si  Si31  1  0.769045  0.882363  0.000642  1
  Si  Si32  1  0.257731  0.127334  0.999555  1
  Si  Si33  1  0.233945  0.626233  0.501187  1
  Si  Si34  1  0.735160  0.373270  0.499072  1
  Rh  Rh35  1  0.515134  0.661293  0.000393  1
