# generated using pymatgen
data_Sc4Ga2B4Ir7Rh3
_symmetry_space_group_name_H-M   'P 1'
_cell_length_a   9.41627112
_cell_length_b   9.37854112
_cell_length_c   3.07707400
_cell_angle_alpha   90.00000000
_cell_angle_beta   90.00000000
_cell_angle_gamma   89.98173304
_symmetry_Int_Tables_number   1
_chemical_formula_structural   Sc4Ga2B4Ir7Rh3
_chemical_formula_sum   'Sc4 Ga2 B4 Ir7 Rh3'
_cell_volume   271.73911706
_cell_formula_units_Z   1
loop_
 _symmetry_equiv_pos_site_id
 _symmetry_equiv_pos_as_xyz
  1  'x, y, z'
loop_
 _atom_site_type_symbol
 _atom_site_label
 _atom_site_symmetry_multiplicity
 _atom_site_fract_x
 _atom_site_fract_y
 _atom_site_fract_z
 _atom_site_occupancy
  Sc  Sc0  1  0.323110  0.824652  0.000000  1
  Sc  Sc1  1  0.676088  0.175671  0.000000  1
  Sc  Sc2  1  0.823200  0.675516  0.000000  1
  Sc  Sc3  1  0.176083  0.324788  0.000000  1
  Ga  Ga4  1  0.999965  0.999703  0.000000  1
  Ga  Ga5  1  0.500942  0.502061  0.000000  1
  B  B6  1  0.124786  0.623356  0.000000  1
  B  B7  1  0.875075  0.375709  0.000000  1
  B  B8  1  0.625108  0.876678  0.000000  1
  B  B9  1  0.375662  0.124818  0.000000  1
  Ir  Ir10  1  0.216896  0.070693  0.500001  1
  Ir  Ir11  1  0.783004  0.928297  0.500001  1
  Ir  Ir12  1  0.717202  0.428205  0.500001  1
  Ir  Ir13  1  0.282419  0.571025  0.500001  1
  Ir  Ir14  1  0.430572  0.284150  0.500001  1
  Ir  Ir15  1  0.999337  0.500135  0.500001  1
  Ir  Ir16  1  0.500150  0.999138  0.500001  1
  Rh  Rh17  1  0.569876  0.716059  0.500001  1
  Rh  Rh18  1  0.070113  0.783718  0.500001  1
  Rh  Rh19  1  0.930408  0.215626  0.500001  1
