# generated using pymatgen
data_SrTlBi2(Pt2O7)2
_symmetry_space_group_name_H-M   'P 1'
_cell_length_a   7.42010858
_cell_length_b   7.32312007
_cell_length_c   7.42010848
_cell_angle_alpha   60.26839865
_cell_angle_beta   60.85433928
_cell_angle_gamma   60.26839310
_symmetry_Int_Tables_number   1
_chemical_formula_structural   SrTlBi2(Pt2O7)2
_chemical_formula_sum   'Sr1 Tl1 Bi2 Pt4 O14'
_cell_volume   288.07156846
_cell_formula_units_Z   1
loop_
 _symmetry_equiv_pos_site_id
 _symmetry_equiv_pos_as_xyz
  1  'x, y, z'
loop_
 _atom_site_type_symbol
 _atom_site_label
 _atom_site_symmetry_multiplicity
 _atom_site_fract_x
 _atom_site_fract_y
 _atom_site_fract_z
 _atom_site_occupancy
  Sr  Sr0  1  0.125000  0.625000  0.125000  1
  Tl  Tl1  1  0.125000  0.125000  0.125000  1
  Bi  Bi2  1  0.125000  0.125000  0.625000  1
  Bi  Bi3  1  0.625000  0.125000  0.125000  1
  Pt  Pt4  1  0.625000  0.625000  0.125000  1
  Pt  Pt5  1  0.625000  0.125000  0.625000  1
  Pt  Pt6  1  0.125000  0.625000  0.625000  1
  Pt  Pt7  1  0.625000  0.625000  0.625000  1
  O  O8  1  0.254985  0.225085  0.254985  1
  O  O9  1  0.995015  0.024915  0.995015  1
  O  O10  1  0.542173  0.958536  0.542173  1
  O  O11  1  0.293815  0.711844  0.293815  1
  O  O12  1  0.546870  0.538430  0.956082  1
  O  O13  1  0.956082  0.538430  0.546870  1
  O  O14  1  0.544357  0.958380  0.954764  1
  O  O15  1  0.954764  0.958380  0.544357  1
  O  O16  1  0.956185  0.538156  0.956185  1
  O  O17  1  0.705643  0.291620  0.295236  1
  O  O18  1  0.293918  0.711570  0.703130  1
  O  O19  1  0.707827  0.291464  0.707827  1
  O  O20  1  0.295236  0.291620  0.705643  1
  O  O21  1  0.703130  0.711570  0.293918  1
