# generated using pymatgen
data_Ho2B4Ir4Rh
_symmetry_space_group_name_H-M   'P 1'
_cell_length_a   7.51555248
_cell_length_b   6.32902805
_cell_length_c   5.61222621
_cell_angle_alpha   77.78975491
_cell_angle_beta   55.39097643
_cell_angle_gamma   46.70294411
_symmetry_Int_Tables_number   1
_chemical_formula_structural   Ho2B4Ir4Rh
_chemical_formula_sum   'Ho2 B4 Ir4 Rh1'
_cell_volume   152.68603224
_cell_formula_units_Z   1
loop_
 _symmetry_equiv_pos_site_id
 _symmetry_equiv_pos_as_xyz
  1  'x, y, z'
loop_
 _atom_site_type_symbol
 _atom_site_label
 _atom_site_symmetry_multiplicity
 _atom_site_fract_x
 _atom_site_fract_y
 _atom_site_fract_z
 _atom_site_occupancy
  Ho  Ho0  1  0.858679  0.858337  0.141444  1
  Ho  Ho1  1  0.141312  0.141664  0.858554  1
  B  B2  1  0.481475  0.787445  0.211775  1
  B  B3  1  0.212670  0.518259  0.480742  1
  B  B4  1  0.787328  0.481735  0.519260  1
  B  B5  1  0.518524  0.212563  0.788222  1
  Ir  Ir6  1  0.500000  0.499999  0.999996  1
  Ir  Ir7  1  0.249918  0.249891  0.250193  1
  Ir  Ir8  1  0.500002  0.499999  0.500002  1
  Ir  Ir9  1  0.750083  0.750113  0.749802  1
  Rh  Rh10  1  0.000010  0.999996  0.500012  1
