# generated using pymatgen
data_Y3Er3Pa2(ReB6)4
_symmetry_space_group_name_H-M   'P 1'
_cell_length_a   3.69496300
_cell_length_b   9.15858788
_cell_length_c   11.52840307
_cell_angle_alpha   90.34073528
_cell_angle_beta   90.00000000
_cell_angle_gamma   90.00000000
_symmetry_Int_Tables_number   1
_chemical_formula_structural   Y3Er3Pa2(ReB6)4
_chemical_formula_sum   'Y3 Er3 Pa2 Re4 B24'
_cell_volume   390.12167820
_cell_formula_units_Z   1
loop_
 _symmetry_equiv_pos_site_id
 _symmetry_equiv_pos_as_xyz
  1  'x, y, z'
loop_
 _atom_site_type_symbol
 _atom_site_label
 _atom_site_symmetry_multiplicity
 _atom_site_fract_x
 _atom_site_fract_y
 _atom_site_fract_z
 _atom_site_occupancy
  Y  Y0  1  0.000000  0.823597  0.085543  1
  Y  Y1  1  0.000000  0.176383  0.914325  1
  Y  Y2  1  0.000000  0.944856  0.372722  1
  Er  Er3  1  0.000000  0.055285  0.627767  1
  Er  Er4  1  0.000000  0.443784  0.126467  1
  Er  Er5  1  0.000000  0.556217  0.873476  1
  Pa  Pa6  1  0.000000  0.321696  0.413133  1
  Pa  Pa7  1  0.000000  0.678387  0.587079  1
  Re  Re8  1  0.000000  0.634708  0.324462  1
  Re  Re9  1  0.000000  0.364651  0.675506  1
  Re  Re10  1  0.000000  0.141232  0.181512  1
  Re  Re11  1  0.000000  0.859221  0.818040  1
  B  B12  1  0.500000  0.553493  0.432905  1
  B  B13  1  0.500000  0.446385  0.567161  1
  B  B14  1  0.500000  0.053507  0.067250  1
  B  B15  1  0.500000  0.946536  0.932636  1
  B  B16  1  0.500000  0.748253  0.419573  1
  B  B17  1  0.500000  0.251281  0.580592  1
  B  B18  1  0.500000  0.248364  0.080254  1
  B  B19  1  0.500000  0.751693  0.919707  1
  B  B20  1  0.500000  0.791300  0.265370  1
  B  B21  1  0.500000  0.208276  0.734418  1
  B  B22  1  0.500000  0.292386  0.233666  1
  B  B23  1  0.500000  0.707742  0.766313  1
  B  B24  1  0.500000  0.631063  0.185193  1
  B  B25  1  0.500000  0.368825  0.814750  1
  B  B26  1  0.500000  0.132349  0.313984  1
  B  B27  1  0.500000  0.868105  0.685910  1
  B  B28  1  0.500000  0.982350  0.211950  1
  B  B29  1  0.500000  0.017825  0.787661  1
  B  B30  1  0.500000  0.482799  0.286353  1
  B  B31  1  0.500000  0.517125  0.713637  1
  B  B32  1  0.500000  0.604181  0.029118  1
  B  B33  1  0.500000  0.395814  0.970848  1
  B  B34  1  0.500000  0.109856  0.470005  1
  B  B35  1  0.500000  0.890474  0.530715  1
