# generated using pymatgen
data_Pr8Tm12Si15Ru
_symmetry_space_group_name_H-M   'P 1'
_cell_length_a   7.44689932
_cell_length_b   7.75915183
_cell_length_c   14.74140900
_cell_angle_alpha   90.00000000
_cell_angle_beta   90.00000000
_cell_angle_gamma   90.37207049
_symmetry_Int_Tables_number   1
_chemical_formula_structural   Pr8Tm12Si15Ru
_chemical_formula_sum   'Pr8 Tm12 Si15 Ru1'
_cell_volume   851.76457019
_cell_formula_units_Z   1
loop_
 _symmetry_equiv_pos_site_id
 _symmetry_equiv_pos_as_xyz
  1  'x, y, z'
loop_
 _atom_site_type_symbol
 _atom_site_label
 _atom_site_symmetry_multiplicity
 _atom_site_fract_x
 _atom_site_fract_y
 _atom_site_fract_z
 _atom_site_occupancy
  Pr  Pr0  1  0.019563  0.176731  0.401838  1
  Pr  Pr1  1  0.519329  0.324483  0.402382  1
  Pr  Pr2  1  0.475129  0.680399  0.901558  1
  Pr  Pr3  1  0.475129  0.680399  0.598442  1
  Pr  Pr4  1  0.984108  0.823718  0.598404  1
  Pr  Pr5  1  0.984108  0.823718  0.901596  1
  Pr  Pr6  1  0.519329  0.324483  0.097618  1
  Pr  Pr7  1  0.019563  0.176731  0.098162  1
  Tm  Tm8  1  0.320871  0.172435  0.625747  1
  Tm  Tm9  1  0.678236  0.821123  0.377177  1
  Tm  Tm10  1  0.642954  0.984309  0.750000  1
  Tm  Tm11  1  0.177138  0.677528  0.376333  1
  Tm  Tm12  1  0.823859  0.322922  0.876550  1
  Tm  Tm13  1  0.823859  0.322922  0.623450  1
  Tm  Tm14  1  0.845459  0.492661  0.250000  1
  Tm  Tm15  1  0.345486  0.010189  0.250000  1
  Tm  Tm16  1  0.320871  0.172435  0.874253  1
  Tm  Tm17  1  0.177138  0.677528  0.123667  1
  Tm  Tm18  1  0.678236  0.821123  0.122823  1
  Tm  Tm19  1  0.160254  0.515338  0.750000  1
  Si  Si20  1  0.470802  0.617543  0.250000  1
  Si  Si21  1  0.025804  0.113044  0.750000  1
  Si  Si22  1  0.533117  0.385175  0.750000  1
  Si  Si23  1  0.147860  0.466009  0.538792  1
  Si  Si24  1  0.971504  0.883547  0.250000  1
  Si  Si25  1  0.724386  0.120541  0.250000  1
  Si  Si26  1  0.853447  0.530156  0.040315  1
  Si  Si27  1  0.354199  0.968577  0.040195  1
  Si  Si28  1  0.147860  0.466009  0.961208  1
  Si  Si29  1  0.649999  0.035978  0.538112  1
  Si  Si30  1  0.354199  0.968577  0.459805  1
  Si  Si31  1  0.853447  0.530156  0.459685  1
  Si  Si32  1  0.773057  0.614438  0.750000  1
  Si  Si33  1  0.225624  0.379405  0.250000  1
  Si  Si34  1  0.649999  0.035978  0.961888  1
  Ru  Ru35  1  0.274080  0.883690  0.750000  1
