# generated using pymatgen
data_Tb7Co2Sn23Ru3Rh
_symmetry_space_group_name_H-M   'P 1'
_cell_length_a   9.83266313
_cell_length_b   9.84118770
_cell_length_c   10.03641734
_cell_angle_alpha   89.98181356
_cell_angle_beta   89.94196909
_cell_angle_gamma   120.04488410
_symmetry_Int_Tables_number   1
_chemical_formula_structural   Tb7Co2Sn23Ru3Rh
_chemical_formula_sum   'Tb7 Co2 Sn23 Ru3 Rh1'
_cell_volume   840.68054777
_cell_formula_units_Z   1
loop_
 _symmetry_equiv_pos_site_id
 _symmetry_equiv_pos_as_xyz
  1  'x, y, z'
loop_
 _atom_site_type_symbol
 _atom_site_label
 _atom_site_symmetry_multiplicity
 _atom_site_fract_x
 _atom_site_fract_y
 _atom_site_fract_z
 _atom_site_occupancy
  Tb  Tb0  1  0.998815  0.997660  0.001040  1
  Tb  Tb1  1  0.481449  0.520021  0.307113  1
  Tb  Tb2  1  0.519725  0.480021  0.692499  1
  Tb  Tb3  1  0.480824  0.960818  0.306371  1
  Tb  Tb4  1  0.519473  0.039756  0.693608  1
  Tb  Tb5  1  0.038924  0.519945  0.305637  1
  Tb  Tb6  1  0.959876  0.480565  0.693987  1
  Co  Co7  1  0.337654  0.168537  0.199318  1
  Co  Co8  1  0.661644  0.830428  0.801013  1
  Sn  Sn9  1  0.349574  0.003404  0.003438  1
  Sn  Sn10  1  0.650460  0.996358  0.996527  1
  Sn  Sn11  1  0.999229  0.349911  0.000772  1
  Sn  Sn12  1  0.999597  0.650830  0.999737  1
  Sn  Sn13  1  0.650576  0.653696  0.996365  1
  Sn  Sn14  1  0.351257  0.346651  0.004259  1
  Sn  Sn15  1  0.337178  0.670627  0.819132  1
  Sn  Sn16  1  0.664151  0.331899  0.180583  1
  Sn  Sn17  1  0.000281  0.000261  0.500576  1
  Sn  Sn18  1  0.779730  0.220585  0.457194  1
  Sn  Sn19  1  0.220295  0.779549  0.542647  1
  Sn  Sn20  1  0.779411  0.559364  0.457492  1
  Sn  Sn21  1  0.220975  0.441351  0.542384  1
  Sn  Sn22  1  0.437974  0.219078  0.452150  1
  Sn  Sn23  1  0.562009  0.780914  0.547926  1
  Sn  Sn24  1  0.333182  0.666608  0.118469  1
  Sn  Sn25  1  0.666290  0.332551  0.881567  1
  Sn  Sn26  1  0.120599  0.887675  0.275695  1
  Sn  Sn27  1  0.878099  0.111585  0.723206  1
  Sn  Sn28  1  0.120540  0.231964  0.273828  1
  Sn  Sn29  1  0.879175  0.767495  0.725886  1
  Sn  Sn30  1  0.764759  0.882008  0.277333  1
  Sn  Sn31  1  0.236065  0.117700  0.721038  1
  Ru  Ru32  1  0.830668  0.167236  0.199669  1
  Ru  Ru33  1  0.169308  0.832321  0.800660  1
  Ru  Ru34  1  0.830626  0.663037  0.199406  1
  Rh  Rh35  1  0.169606  0.337592  0.801477  1
