# generated using pymatgen
data_Ce3Ho(Si5Os3)2
_symmetry_space_group_name_H-M   'P 1'
_cell_length_a   8.17495546
_cell_length_b   8.17566261
_cell_length_c   5.83124955
_cell_angle_alpha   70.56086565
_cell_angle_beta   70.43051318
_cell_angle_gamma   93.69854805
_symmetry_Int_Tables_number   1
_chemical_formula_structural   Ce3Ho(Si5Os3)2
_chemical_formula_sum   'Ce3 Ho1 Si10 Os6'
_cell_volume   339.42954141
_cell_formula_units_Z   1
loop_
 _symmetry_equiv_pos_site_id
 _symmetry_equiv_pos_as_xyz
  1  'x, y, z'
loop_
 _atom_site_type_symbol
 _atom_site_label
 _atom_site_symmetry_multiplicity
 _atom_site_fract_x
 _atom_site_fract_y
 _atom_site_fract_z
 _atom_site_occupancy
  Ce  Ce0  1  0.867142  0.600333  0.758195  1
  Ce  Ce1  1  0.400065  0.132148  0.742840  1
  Ce  Ce2  1  0.131721  0.400109  0.242189  1
  Ho  Ho3  1  0.600913  0.867146  0.257574  1
  Si  Si4  1  0.063052  0.262177  0.835342  1
  Si  Si5  1  0.738047  0.936158  0.664192  1
  Si  Si6  1  0.934967  0.739419  0.164760  1
  Si  Si7  1  0.261246  0.062726  0.335877  1
  Si  Si8  1  0.206080  0.792571  0.753108  1
  Si  Si9  1  0.791597  0.204525  0.249117  1
  Si  Si10  1  0.513222  0.487662  0.750187  1
  Si  Si11  1  0.488146  0.515746  0.247406  1
  Si  Si12  1  0.774550  0.223867  0.753095  1
  Si  Si13  1  0.227247  0.773887  0.248488  1
  Os  Os14  1  0.256264  0.544230  0.633284  1
  Os  Os15  1  0.457958  0.745014  0.865382  1
  Os  Os16  1  0.745040  0.455898  0.367185  1
  Os  Os17  1  0.541501  0.255038  0.134432  1
  Os  Os18  1  0.002806  0.998111  0.748875  1
  Os  Os19  1  0.998437  0.003235  0.248474  1
