# generated using pymatgen
data_Dy16Tl3CdPt4
_symmetry_space_group_name_H-M   'P 1'
_cell_length_a   9.67263864
_cell_length_b   9.67537287
_cell_length_c   9.67537400
_cell_angle_alpha   59.99999614
_cell_angle_beta   59.99064481
_cell_angle_gamma   59.99064202
_symmetry_Int_Tables_number   1
_chemical_formula_structural   Dy16Tl3CdPt4
_chemical_formula_sum   'Dy16 Tl3 Cd1 Pt4'
_cell_volume   640.18278393
_cell_formula_units_Z   1
loop_
 _symmetry_equiv_pos_site_id
 _symmetry_equiv_pos_as_xyz
  1  'x, y, z'
loop_
 _atom_site_type_symbol
 _atom_site_label
 _atom_site_symmetry_multiplicity
 _atom_site_fract_x
 _atom_site_fract_y
 _atom_site_fract_z
 _atom_site_occupancy
  Dy  Dy0  1  0.351871  0.352440  0.352440  1
  Dy  Dy1  1  0.351871  0.352440  0.943249  1
  Dy  Dy2  1  0.351871  0.943249  0.352440  1
  Dy  Dy3  1  0.942819  0.352394  0.352394  1
  Dy  Dy4  1  0.810271  0.189463  0.189463  1
  Dy  Dy5  1  0.188275  0.811265  0.811265  1
  Dy  Dy6  1  0.188275  0.811265  0.189195  1
  Dy  Dy7  1  0.810271  0.189463  0.810805  1
  Dy  Dy8  1  0.188275  0.189195  0.811265  1
  Dy  Dy9  1  0.810271  0.810805  0.189463  1
  Dy  Dy10  1  0.938764  0.563136  0.563136  1
  Dy  Dy11  1  0.562468  0.937821  0.937821  1
  Dy  Dy12  1  0.562468  0.937821  0.561890  1
  Dy  Dy13  1  0.938764  0.563135  0.934965  1
  Dy  Dy14  1  0.562468  0.561890  0.937821  1
  Dy  Dy15  1  0.938764  0.934965  0.563135  1
  Tl  Tl16  1  0.584011  0.586581  0.586581  1
  Tl  Tl17  1  0.584011  0.586581  0.242825  1
  Tl  Tl18  1  0.584011  0.242825  0.586581  1
  Cd  Cd19  1  0.250798  0.583067  0.583067  1
  Pt  Pt20  1  0.143418  0.143519  0.143519  1
  Pt  Pt21  1  0.143418  0.143519  0.569546  1
  Pt  Pt22  1  0.143418  0.569546  0.143519  1
  Pt  Pt23  1  0.569150  0.143617  0.143617  1
