# generated using pymatgen
data_La8Cd2NiRh
_symmetry_space_group_name_H-M   'P 1'
_cell_length_a   10.09911710
_cell_length_b   10.09911705
_cell_length_c   10.15103000
_cell_angle_alpha   59.82980601
_cell_angle_beta   59.82980616
_cell_angle_gamma   59.69160961
_symmetry_Int_Tables_number   1
_chemical_formula_structural   La8Cd2NiRh
_chemical_formula_sum   'La16 Cd4 Ni2 Rh2'
_cell_volume   728.48849283
_cell_formula_units_Z   2
loop_
 _symmetry_equiv_pos_site_id
 _symmetry_equiv_pos_as_xyz
  1  'x, y, z'
loop_
 _atom_site_type_symbol
 _atom_site_label
 _atom_site_symmetry_multiplicity
 _atom_site_fract_x
 _atom_site_fract_y
 _atom_site_fract_z
 _atom_site_occupancy
  La  La0  1  0.597877  0.597877  0.594916  1
  La  La1  1  0.597877  0.597877  0.209331  1
  La  La2  1  0.599870  0.207568  0.596281  1
  La  La3  1  0.207568  0.599870  0.596281  1
  La  La4  1  0.058011  0.439733  0.442059  1
  La  La5  1  0.439733  0.058011  0.060196  1
  La  La6  1  0.439733  0.058011  0.442059  1
  La  La7  1  0.058011  0.439733  0.060196  1
  La  La8  1  0.440300  0.440300  0.059700  1
  La  La9  1  0.057509  0.057509  0.442491  1
  La  La10  1  0.188189  0.810764  0.813969  1
  La  La11  1  0.810764  0.188189  0.187078  1
  La  La12  1  0.810764  0.188189  0.813969  1
  La  La13  1  0.188189  0.810764  0.187078  1
  La  La14  1  0.813758  0.813758  0.186242  1
  La  La15  1  0.189139  0.189139  0.810861  1
  Cd  Cd16  1  0.829331  0.829331  0.829034  1
  Cd  Cd17  1  0.829331  0.829331  0.512306  1
  Cd  Cd18  1  0.829642  0.511900  0.829229  1
  Cd  Cd19  1  0.511900  0.829642  0.829229  1
  Ni  Ni20  1  0.392679  0.825698  0.390812  1
  Ni  Ni21  1  0.825698  0.392679  0.390812  1
  Rh  Rh22  1  0.392065  0.392065  0.390095  1
  Rh  Rh23  1  0.392065  0.392065  0.825777  1
