# generated using pymatgen
data_Nd8Ho2(IrRh)3
_symmetry_space_group_name_H-M   'P 1'
_cell_length_a   11.15841923
_cell_length_b   11.15753100
_cell_length_c   6.55051714
_cell_angle_alpha   90.00000000
_cell_angle_beta   90.02339957
_cell_angle_gamma   90.00000000
_symmetry_Int_Tables_number   1
_chemical_formula_structural   Nd8Ho2(IrRh)3
_chemical_formula_sum   'Nd16 Ho4 Ir6 Rh6'
_cell_volume   815.54199137
_cell_formula_units_Z   2
loop_
 _symmetry_equiv_pos_site_id
 _symmetry_equiv_pos_as_xyz
  1  'x, y, z'
loop_
 _atom_site_type_symbol
 _atom_site_label
 _atom_site_symmetry_multiplicity
 _atom_site_fract_x
 _atom_site_fract_y
 _atom_site_fract_z
 _atom_site_occupancy
  Nd  Nd0  1  0.288423  0.088350  0.381597  1
  Nd  Nd1  1  0.288423  0.911650  0.881597  1
  Nd  Nd2  1  0.710236  0.089105  0.881279  1
  Nd  Nd3  1  0.710236  0.910895  0.381279  1
  Nd  Nd4  1  0.586814  0.787924  0.882381  1
  Nd  Nd5  1  0.586814  0.212076  0.382381  1
  Nd  Nd6  1  0.411606  0.788231  0.382032  1
  Nd  Nd7  1  0.411606  0.211769  0.882032  1
  Nd  Nd8  1  0.211810  0.411648  0.617766  1
  Nd  Nd9  1  0.211810  0.588352  0.117766  1
  Nd  Nd10  1  0.787916  0.413172  0.117818  1
  Nd  Nd11  1  0.787916  0.586828  0.617818  1
  Nd  Nd12  1  0.912144  0.710881  0.119117  1
  Nd  Nd13  1  0.912144  0.289119  0.619117  1
  Nd  Nd14  1  0.089606  0.710900  0.618078  1
  Nd  Nd15  1  0.089606  0.289100  0.118078  1
  Ho  Ho16  1  0.000783  0.999897  0.500014  1
  Ho  Ho17  1  0.000783  0.000103  0.000014  1
  Ho  Ho18  1  0.500033  0.499918  0.999998  1
  Ho  Ho19  1  0.500033  0.500082  0.499998  1
  Ir  Ir20  1  0.148377  0.148975  0.749994  1
  Ir  Ir21  1  0.148377  0.851025  0.249994  1
  Ir  Ir22  1  0.650009  0.350182  0.749986  1
  Ir  Ir23  1  0.650009  0.649818  0.249986  1
  Ir  Ir24  1  0.350642  0.350475  0.250061  1
  Ir  Ir25  1  0.350642  0.649525  0.750061  1
  Rh  Rh26  1  0.851029  0.148441  0.249919  1
  Rh  Rh27  1  0.851029  0.851559  0.749919  1
  Rh  Rh28  1  0.501161  0.000095  0.118920  1
  Rh  Rh29  1  0.501161  0.999905  0.618920  1
  Rh  Rh30  1  0.999411  0.500310  0.881040  1
  Rh  Rh31  1  0.999411  0.499690  0.381040  1
