# generated using pymatgen
data_Cs12Rb5Na(GaSb4)2
_symmetry_space_group_name_H-M   'P 1'
_cell_length_a   11.38312800
_cell_length_b   11.20785249
_cell_length_c   11.79732600
_cell_angle_alpha   90.00000000
_cell_angle_beta   90.00000000
_cell_angle_gamma   120.51868442
_symmetry_Int_Tables_number   1
_chemical_formula_structural   Cs12Rb5Na(GaSb4)2
_chemical_formula_sum   'Cs12 Rb5 Na1 Ga2 Sb8'
_cell_volume   1296.59558995
_cell_formula_units_Z   1
loop_
 _symmetry_equiv_pos_site_id
 _symmetry_equiv_pos_as_xyz
  1  'x, y, z'
loop_
 _atom_site_type_symbol
 _atom_site_label
 _atom_site_symmetry_multiplicity
 _atom_site_fract_x
 _atom_site_fract_y
 _atom_site_fract_z
 _atom_site_occupancy
  Cs  Cs0  1  0.420500  0.210471  0.041977  1
  Cs  Cs1  1  0.789969  0.210471  0.041977  1
  Cs  Cs2  1  0.792773  0.585545  0.034459  1
  Cs  Cs3  1  0.792773  0.585545  0.465541  1
  Cs  Cs4  1  0.420500  0.210471  0.458023  1
  Cs  Cs5  1  0.789969  0.210471  0.458023  1
  Cs  Cs6  1  0.205252  0.789521  0.546417  1
  Cs  Cs7  1  0.584270  0.789521  0.546417  1
  Cs  Cs8  1  0.209611  0.419222  0.541563  1
  Cs  Cs9  1  0.209611  0.419222  0.958437  1
  Cs  Cs10  1  0.205252  0.789521  0.953583  1
  Cs  Cs11  1  0.584270  0.789521  0.953583  1
  Rb  Rb12  1  0.115897  0.231794  0.250000  1
  Rb  Rb13  1  0.119136  0.878065  0.250000  1
  Rb  Rb14  1  0.758930  0.878065  0.250000  1
  Rb  Rb15  1  0.237633  0.117879  0.750000  1
  Rb  Rb16  1  0.880246  0.117879  0.750000  1
  Na  Na17  1  0.878984  0.757966  0.750000  1
  Ga  Ga18  1  0.333293  0.666585  0.250000  1
  Ga  Ga19  1  0.667309  0.334619  0.750000  1
  Sb  Sb20  1  0.995604  0.991208  0.992758  1
  Sb  Sb21  1  0.056242  0.524229  0.250000  1
  Sb  Sb22  1  0.467988  0.524229  0.250000  1
  Sb  Sb23  1  0.473962  0.947923  0.250000  1
  Sb  Sb24  1  0.995604  0.991208  0.507242  1
  Sb  Sb25  1  0.527742  0.055483  0.750000  1
  Sb  Sb26  1  0.543815  0.486684  0.750000  1
  Sb  Sb27  1  0.942869  0.486684  0.750000  1
