# generated using pymatgen
data_Lu6AlOsPd
_symmetry_space_group_name_H-M   'P 1'
_cell_length_a   8.38040321
_cell_length_b   8.38040298
_cell_length_c   8.38040200
_cell_angle_alpha   112.27245058
_cell_angle_beta   111.77912462
_cell_angle_gamma   104.47509464
_symmetry_Int_Tables_number   1
_chemical_formula_structural   Lu6AlOsPd
_chemical_formula_sum   'Lu12 Al2 Os2 Pd2'
_cell_volume   450.51486341
_cell_formula_units_Z   2
loop_
 _symmetry_equiv_pos_site_id
 _symmetry_equiv_pos_as_xyz
  1  'x, y, z'
loop_
 _atom_site_type_symbol
 _atom_site_label
 _atom_site_symmetry_multiplicity
 _atom_site_fract_x
 _atom_site_fract_y
 _atom_site_fract_z
 _atom_site_occupancy
  Lu  Lu0  1  0.433410  0.240305  0.193106  1
  Lu  Lu1  1  0.566590  0.759695  0.806894  1
  Lu  Lu2  1  0.047199  0.240305  0.806894  1
  Lu  Lu3  1  0.952801  0.759695  0.193106  1
  Lu  Lu4  1  0.182611  0.275147  0.457758  1
  Lu  Lu5  1  0.817389  0.724853  0.542242  1
  Lu  Lu6  1  0.182611  0.724853  0.907463  1
  Lu  Lu7  1  0.817389  0.275147  0.092537  1
  Lu  Lu8  1  0.337856  0.649537  0.311681  1
  Lu  Lu9  1  0.662144  0.350463  0.688319  1
  Lu  Lu10  1  0.337856  0.026174  0.688319  1
  Lu  Lu11  1  0.662144  0.973826  0.311681  1
  Al  Al12  1  0.500000  0.500000  0.000000  1
  Al  Al13  1  0.000000  0.000000  0.000000  1
  Os  Os14  1  0.322636  0.000000  0.322636  1
  Os  Os15  1  0.677364  0.000000  0.677364  1
  Pd  Pd16  1  0.130715  0.630715  0.500000  1
  Pd  Pd17  1  0.869285  0.369285  0.500000  1
