# generated using pymatgen
data_PrHo5Ta2O14
_symmetry_space_group_name_H-M   'P 1'
_cell_length_a   6.49434834
_cell_length_b   6.49434816
_cell_length_c   7.51856035
_cell_angle_alpha   89.86937472
_cell_angle_beta   90.13062658
_cell_angle_gamma   108.69401362
_symmetry_Int_Tables_number   1
_chemical_formula_structural   PrHo5Ta2O14
_chemical_formula_sum   'Pr1 Ho5 Ta2 O14'
_cell_volume   300.37645357
_cell_formula_units_Z   1
loop_
 _symmetry_equiv_pos_site_id
 _symmetry_equiv_pos_as_xyz
  1  'x, y, z'
loop_
 _atom_site_type_symbol
 _atom_site_label
 _atom_site_symmetry_multiplicity
 _atom_site_fract_x
 _atom_site_fract_y
 _atom_site_fract_z
 _atom_site_occupancy
  Pr  Pr0  1  0.515473  0.515473  0.500000  1
  Ho  Ho1  1  0.459964  0.459964  0.000000  1
  Ho  Ho2  1  0.999879  0.534662  0.239402  1
  Ho  Ho3  1  0.998502  0.465955  0.746059  1
  Ho  Ho4  1  0.534662  0.999879  0.760598  1
  Ho  Ho5  1  0.465955  0.998502  0.253941  1
  Ta  Ta6  1  0.001437  0.001437  0.500000  1
  Ta  Ta7  1  0.997222  0.997222  0.000000  1
  O  O8  1  0.932687  0.067453  0.749590  1
  O  O9  1  0.067453  0.932687  0.250410  1
  O  O10  1  0.357733  0.642503  0.238556  1
  O  O11  1  0.642503  0.357733  0.761444  1
  O  O12  1  0.366218  0.632519  0.761353  1
  O  O13  1  0.632519  0.366218  0.238647  1
  O  O14  1  0.327277  0.081343  0.974608  1
  O  O15  1  0.674718  0.925991  0.473195  1
  O  O16  1  0.314085  0.059895  0.542251  1
  O  O17  1  0.692555  0.951928  0.043039  1
  O  O18  1  0.059895  0.314085  0.457749  1
  O  O19  1  0.951928  0.692555  0.956961  1
  O  O20  1  0.925991  0.674718  0.526805  1
  O  O21  1  0.081343  0.327277  0.025392  1
