# generated using pymatgen
data_Li4YbTm3Si8
_symmetry_space_group_name_H-M   'P 1'
_cell_length_a   3.76759100
_cell_length_b   7.69209978
_cell_length_c   10.13961390
_cell_angle_alpha   89.52591697
_cell_angle_beta   90.00000000
_cell_angle_gamma   90.00000000
_symmetry_Int_Tables_number   1
_chemical_formula_structural   Li4YbTm3Si8
_chemical_formula_sum   'Li4 Yb1 Tm3 Si8'
_cell_volume   293.84290640
_cell_formula_units_Z   1
loop_
 _symmetry_equiv_pos_site_id
 _symmetry_equiv_pos_as_xyz
  1  'x, y, z'
loop_
 _atom_site_type_symbol
 _atom_site_label
 _atom_site_symmetry_multiplicity
 _atom_site_fract_x
 _atom_site_fract_y
 _atom_site_fract_z
 _atom_site_occupancy
  Li  Li0  1  0.250000  0.996753  0.394239  1
  Li  Li1  1  0.750000  0.013727  0.608239  1
  Li  Li2  1  0.250000  0.485740  0.108916  1
  Li  Li3  1  0.750000  0.511642  0.895248  1
  Yb  Yb4  1  0.750000  0.362215  0.363373  1
  Tm  Tm5  1  0.250000  0.128872  0.862571  1
  Tm  Tm6  1  0.750000  0.865474  0.133371  1
  Tm  Tm7  1  0.250000  0.634075  0.635780  1
  Si  Si8  1  0.750000  0.257111  0.059905  1
  Si  Si9  1  0.250000  0.735120  0.934323  1
  Si  Si10  1  0.750000  0.772894  0.433795  1
  Si  Si11  1  0.250000  0.239544  0.572289  1
  Si  Si12  1  0.750000  0.840320  0.815885  1
  Si  Si13  1  0.250000  0.150057  0.174178  1
  Si  Si14  1  0.750000  0.344119  0.687172  1
  Si  Si15  1  0.250000  0.662336  0.320716  1
