# generated using pymatgen
data_La8Nd3Sm9Sn16
_symmetry_space_group_name_H-M   'P 1'
_cell_length_a   8.35367677
_cell_length_b   8.53628934
_cell_length_c   16.11099400
_cell_angle_alpha   90.09274679
_cell_angle_beta   89.85226922
_cell_angle_gamma   90.06320444
_symmetry_Int_Tables_number   1
_chemical_formula_structural   La8Nd3Sm9Sn16
_chemical_formula_sum   'La8 Nd3 Sm9 Sn16'
_cell_volume   1148.85932886
_cell_formula_units_Z   1
loop_
 _symmetry_equiv_pos_site_id
 _symmetry_equiv_pos_as_xyz
  1  'x, y, z'
loop_
 _atom_site_type_symbol
 _atom_site_label
 _atom_site_symmetry_multiplicity
 _atom_site_fract_x
 _atom_site_fract_y
 _atom_site_fract_z
 _atom_site_occupancy
  La  La0  1  0.510396  0.319854  0.903648  1
  La  La1  1  0.010802  0.179817  0.596923  1
  La  La2  1  0.488447  0.679394  0.401971  1
  La  La3  1  0.989270  0.821217  0.097258  1
  La  La4  1  0.488685  0.679612  0.097004  1
  La  La5  1  0.986943  0.820427  0.401634  1
  La  La6  1  0.513023  0.320127  0.597643  1
  La  La7  1  0.012295  0.179547  0.904169  1
  Nd  Nd8  1  0.357579  0.835307  0.879887  1
  Nd  Nd9  1  0.859279  0.663833  0.621605  1
  Nd  Nd10  1  0.640972  0.163897  0.377659  1
  Sm  Sm11  1  0.142919  0.336386  0.123600  1
  Sm  Sm12  1  0.643861  0.163104  0.122124  1
  Sm  Sm13  1  0.143700  0.336728  0.376325  1
  Sm  Sm14  1  0.355931  0.836558  0.622942  1
  Sm  Sm15  1  0.855541  0.663896  0.876642  1
  Sm  Sm16  1  0.191352  0.501058  0.749610  1
  Sm  Sm17  1  0.691070  0.998397  0.751060  1
  Sm  Sm18  1  0.808685  0.498707  0.248627  1
  Sm  Sm19  1  0.307979  0.001329  0.250639  1
  Sn  Sn20  1  0.305162  0.042287  0.044533  1
  Sn  Sn21  1  0.807003  0.461657  0.455243  1
  Sn  Sn22  1  0.692064  0.961356  0.543792  1
  Sn  Sn23  1  0.189864  0.537100  0.958284  1
  Sn  Sn24  1  0.700117  0.960213  0.958601  1
  Sn  Sn25  1  0.201168  0.538431  0.541007  1
  Sn  Sn26  1  0.299304  0.039299  0.458479  1
  Sn  Sn27  1  0.806474  0.460059  0.041393  1
  Sn  Sn28  1  0.555945  0.620459  0.750462  1
  Sn  Sn29  1  0.056817  0.880093  0.750465  1
  Sn  Sn30  1  0.443583  0.379539  0.248500  1
  Sn  Sn31  1  0.943840  0.121840  0.248893  1
  Sn  Sn32  1  0.318437  0.142526  0.750197  1
  Sn  Sn33  1  0.818588  0.356308  0.751227  1
  Sn  Sn34  1  0.681674  0.857054  0.248568  1
  Sn  Sn35  1  0.181231  0.642582  0.249388  1
