# generated using pymatgen
data_Th5Sb3C
_symmetry_space_group_name_H-M   'P 1'
_cell_length_a   9.28838700
_cell_length_b   9.28838716
_cell_length_c   6.48716000
_cell_angle_alpha   90.00000000
_cell_angle_beta   90.00000000
_cell_angle_gamma   120.00000299
_symmetry_Int_Tables_number   1
_chemical_formula_structural   Th5Sb3C
_chemical_formula_sum   'Th10 Sb6 C2'
_cell_volume   484.69198664
_cell_formula_units_Z   2
loop_
 _symmetry_equiv_pos_site_id
 _symmetry_equiv_pos_as_xyz
  1  'x, y, z'
loop_
 _atom_site_type_symbol
 _atom_site_label
 _atom_site_symmetry_multiplicity
 _atom_site_fract_x
 _atom_site_fract_y
 _atom_site_fract_z
 _atom_site_occupancy
  Th  Th0  1  0.666667  0.333333  0.500000  1
  Th  Th1  1  0.333333  0.666667  0.500000  1
  Th  Th2  1  0.333333  0.666667  0.000000  1
  Th  Th3  1  0.666667  0.333333  0.000000  1
  Th  Th4  1  0.774574  0.774574  0.250000  1
  Th  Th5  1  0.225426  0.000000  0.250000  1
  Th  Th6  1  0.000000  0.225426  0.250000  1
  Th  Th7  1  0.225426  0.225426  0.750000  1
  Th  Th8  1  0.774574  0.000000  0.750000  1
  Th  Th9  1  0.000000  0.774574  0.750000  1
  Sb  Sb10  1  0.398150  0.398150  0.250000  1
  Sb  Sb11  1  0.601850  0.000000  0.250000  1
  Sb  Sb12  1  0.000000  0.601850  0.250000  1
  Sb  Sb13  1  0.601850  0.601850  0.750000  1
  Sb  Sb14  1  0.398150  0.000000  0.750000  1
  Sb  Sb15  1  0.000000  0.398150  0.750000  1
  C  C16  1  0.000000  0.000000  0.500000  1
  C  C17  1  0.000000  0.000000  0.000000  1
