# generated using pymatgen
data_Lu20CoBi10Sb
_symmetry_space_group_name_H-M   'P 1'
_cell_length_a   8.00743211
_cell_length_b   9.35539000
_cell_length_c   11.81294080
_cell_angle_alpha   90.00000000
_cell_angle_beta   89.88092554
_cell_angle_gamma   90.00000000
_symmetry_Int_Tables_number   1
_chemical_formula_structural   Lu20CoBi10Sb
_chemical_formula_sum   'Lu20 Co1 Bi10 Sb1'
_cell_volume   884.93679210
_cell_formula_units_Z   1
loop_
 _symmetry_equiv_pos_site_id
 _symmetry_equiv_pos_as_xyz
  1  'x, y, z'
loop_
 _atom_site_type_symbol
 _atom_site_label
 _atom_site_symmetry_multiplicity
 _atom_site_fract_x
 _atom_site_fract_y
 _atom_site_fract_z
 _atom_site_occupancy
  Lu  Lu0  1  0.176651  0.576051  0.447769  1
  Lu  Lu1  1  0.691868  0.936501  0.064039  1
  Lu  Lu2  1  0.817064  0.025595  0.558460  1
  Lu  Lu3  1  0.310166  0.431162  0.941991  1
  Lu  Lu4  1  0.817064  0.474405  0.558460  1
  Lu  Lu5  1  0.310166  0.068838  0.941991  1
  Lu  Lu6  1  0.176651  0.923949  0.447769  1
  Lu  Lu7  1  0.691868  0.563499  0.064039  1
  Lu  Lu8  1  0.025634  0.750000  0.991390  1
  Lu  Lu9  1  0.550773  0.750000  0.507122  1
  Lu  Lu10  1  0.975160  0.250000  0.011405  1
  Lu  Lu11  1  0.485427  0.250000  0.492449  1
  Lu  Lu12  1  0.142057  0.750000  0.699216  1
  Lu  Lu13  1  0.702028  0.750000  0.774787  1
  Lu  Lu14  1  0.812389  0.250000  0.276693  1
  Lu  Lu15  1  0.314850  0.250000  0.213506  1
  Lu  Lu16  1  0.857671  0.750000  0.307782  1
  Lu  Lu17  1  0.348270  0.750000  0.216255  1
  Lu  Lu18  1  0.153650  0.250000  0.717756  1
  Lu  Lu19  1  0.645791  0.250000  0.782615  1
  Co  Co20  1  0.915839  0.750000  0.529454  1
  Bi  Bi21  1  0.934498  0.493203  0.828747  1
  Bi  Bi22  1  0.432078  0.998955  0.675107  1
  Bi  Bi23  1  0.064283  0.995340  0.175652  1
  Bi  Bi24  1  0.558598  0.500156  0.322951  1
  Bi  Bi25  1  0.064283  0.504660  0.175652  1
  Bi  Bi26  1  0.558598  0.999844  0.322951  1
  Bi  Bi27  1  0.934498  0.006797  0.828747  1
  Bi  Bi28  1  0.432078  0.501045  0.675107  1
  Bi  Bi29  1  0.408384  0.750000  0.951607  1
  Bi  Bi30  1  0.093130  0.250000  0.457767  1
  Sb  Sb31  1  0.598534  0.250000  0.040767  1
