# generated using pymatgen
data_Ce2ScGa5
_symmetry_space_group_name_H-M   'P 1'
_cell_length_a   6.16518800
_cell_length_b   9.56860600
_cell_length_c   11.43876900
_cell_angle_alpha   90.00000000
_cell_angle_beta   90.00000000
_cell_angle_gamma   90.00000000
_symmetry_Int_Tables_number   1
_chemical_formula_structural   Ce2ScGa5
_chemical_formula_sum   'Ce8 Sc4 Ga20'
_cell_volume   674.79877645
_cell_formula_units_Z   4
loop_
 _symmetry_equiv_pos_site_id
 _symmetry_equiv_pos_as_xyz
  1  'x, y, z'
loop_
 _atom_site_type_symbol
 _atom_site_label
 _atom_site_symmetry_multiplicity
 _atom_site_fract_x
 _atom_site_fract_y
 _atom_site_fract_z
 _atom_site_occupancy
  Ce  Ce0  1  0.890020  0.509836  0.352816  1
  Ce  Ce1  1  0.609980  0.990164  0.852816  1
  Ce  Ce2  1  0.109980  0.009836  0.647184  1
  Ce  Ce3  1  0.390020  0.490164  0.147184  1
  Ce  Ce4  1  0.109980  0.490164  0.647184  1
  Ce  Ce5  1  0.390020  0.009836  0.147184  1
  Ce  Ce6  1  0.890020  0.990164  0.352816  1
  Ce  Ce7  1  0.609980  0.509836  0.852816  1
  Sc  Sc8  1  0.852517  0.750000  0.075439  1
  Sc  Sc9  1  0.647483  0.750000  0.575439  1
  Sc  Sc10  1  0.147483  0.250000  0.924561  1
  Sc  Sc11  1  0.352517  0.250000  0.424561  1
  Ga  Ga12  1  0.877802  0.051209  0.088903  1
  Ga  Ga13  1  0.622198  0.448791  0.588903  1
  Ga  Ga14  1  0.122198  0.551209  0.911097  1
  Ga  Ga15  1  0.377802  0.948791  0.411097  1
  Ga  Ga16  1  0.122198  0.948791  0.911097  1
  Ga  Ga17  1  0.377802  0.551209  0.411097  1
  Ga  Ga18  1  0.877802  0.448791  0.088903  1
  Ga  Ga19  1  0.622198  0.051209  0.588903  1
  Ga  Ga20  1  0.165922  0.750000  0.250044  1
  Ga  Ga21  1  0.334078  0.750000  0.750044  1
  Ga  Ga22  1  0.834078  0.250000  0.749956  1
  Ga  Ga23  1  0.665922  0.250000  0.249956  1
  Ga  Ga24  1  0.377807  0.750000  0.001589  1
  Ga  Ga25  1  0.122193  0.750000  0.501589  1
  Ga  Ga26  1  0.622193  0.250000  0.998411  1
  Ga  Ga27  1  0.877807  0.250000  0.498411  1
  Ga  Ga28  1  0.597950  0.750000  0.296473  1
  Ga  Ga29  1  0.902050  0.750000  0.796473  1
  Ga  Ga30  1  0.402050  0.250000  0.703527  1
  Ga  Ga31  1  0.097950  0.250000  0.203527  1
