# generated using pymatgen
data_Na12Li8Si(SnP4)3
_symmetry_space_group_name_H-M   'P 1'
_cell_length_a   9.48170076
_cell_length_b   9.48170251
_cell_length_c   13.75700842
_cell_angle_alpha   89.96835263
_cell_angle_beta   89.96835424
_cell_angle_gamma   143.77229806
_symmetry_Int_Tables_number   1
_chemical_formula_structural   Na12Li8Si(SnP4)3
_chemical_formula_sum   'Na12 Li8 Si1 Sn3 P12'
_cell_volume   730.93751069
_cell_formula_units_Z   1
loop_
 _symmetry_equiv_pos_site_id
 _symmetry_equiv_pos_as_xyz
  1  'x, y, z'
loop_
 _atom_site_type_symbol
 _atom_site_label
 _atom_site_symmetry_multiplicity
 _atom_site_fract_x
 _atom_site_fract_y
 _atom_site_fract_z
 _atom_site_occupancy
  Na  Na0  1  0.097167  0.440777  0.677589  1
  Na  Na1  1  0.730702  0.727978  0.678667  1
  Na  Na2  1  0.229260  0.228393  0.816920  1
  Na  Na3  1  0.771607  0.770740  0.183080  1
  Na  Na4  1  0.940115  0.597964  0.816500  1
  Na  Na5  1  0.559223  0.902833  0.322411  1
  Na  Na6  1  0.402036  0.059885  0.183500  1
  Na  Na7  1  0.059750  0.402921  0.179902  1
  Na  Na8  1  0.900582  0.561110  0.326346  1
  Na  Na9  1  0.438890  0.099418  0.673654  1
  Na  Na10  1  0.597079  0.940251  0.820098  1
  Na  Na11  1  0.272022  0.269298  0.321333  1
  Li  Li12  1  0.916870  0.083130  0.000000  1
  Li  Li13  1  0.583309  0.416691  0.500000  1
  Li  Li14  1  0.083464  0.916536  0.000000  1
  Li  Li15  1  0.418433  0.581567  0.500000  1
  Li  Li16  1  0.756060  0.243940  0.000000  1
  Li  Li17  1  0.742971  0.257029  0.500000  1
  Li  Li18  1  0.243509  0.756491  0.000000  1
  Li  Li19  1  0.252652  0.747348  0.500000  1
  Si  Si20  1  0.090704  0.909296  0.500000  1
  Sn  Sn21  1  0.407440  0.592560  0.000000  1
  Sn  Sn22  1  0.909649  0.090351  0.500000  1
  Sn  Sn23  1  0.593094  0.406906  0.000000  1
  P  P24  1  0.912829  0.579665  0.113332  1
  P  P25  1  0.420335  0.087171  0.886668  1
  P  P26  1  0.587323  0.919752  0.611067  1
  P  P27  1  0.935971  0.617784  0.600807  1
  P  P28  1  0.086095  0.419237  0.887582  1
  P  P29  1  0.580763  0.913905  0.112418  1
  P  P30  1  0.382216  0.064029  0.399193  1
  P  P31  1  0.225899  0.208591  0.597105  1
  P  P32  1  0.736017  0.735694  0.895524  1
  P  P33  1  0.264306  0.263983  0.104476  1
  P  P34  1  0.080248  0.412677  0.388933  1
  P  P35  1  0.791409  0.774101  0.402895  1
