# generated using pymatgen
data_Tc2OsRu5
_symmetry_space_group_name_H-M   'P 1'
_cell_length_a   5.49047700
_cell_length_b   5.48570219
_cell_length_c   4.33113200
_cell_angle_alpha   90.00000000
_cell_angle_beta   90.00000000
_cell_angle_gamma   120.02880312
_symmetry_Int_Tables_number   1
_chemical_formula_structural   Tc2OsRu5
_chemical_formula_sum   'Tc2 Os1 Ru5'
_cell_volume   112.94011684
_cell_formula_units_Z   1
loop_
 _symmetry_equiv_pos_site_id
 _symmetry_equiv_pos_as_xyz
  1  'x, y, z'
loop_
 _atom_site_type_symbol
 _atom_site_label
 _atom_site_symmetry_multiplicity
 _atom_site_fract_x
 _atom_site_fract_y
 _atom_site_fract_z
 _atom_site_occupancy
  Tc  Tc0  1  0.333663  0.667327  0.750000  1
  Tc  Tc1  1  0.668851  0.337699  0.250000  1
  Os  Os2  1  0.166837  0.333675  0.250000  1
  Ru  Ru3  1  0.667248  0.829851  0.250000  1
  Ru  Ru4  1  0.162602  0.829851  0.250000  1
  Ru  Ru5  1  0.833226  0.666450  0.750000  1
  Ru  Ru6  1  0.334102  0.167573  0.750000  1
  Ru  Ru7  1  0.833471  0.167573  0.750000  1
