# generated using pymatgen
data_Pr4SmYRh18
_symmetry_space_group_name_H-M   'P 1'
_cell_length_a   5.34722500
_cell_length_b   5.34722588
_cell_length_c   17.70088000
_cell_angle_alpha   90.00000000
_cell_angle_beta   90.00000000
_cell_angle_gamma   119.99998834
_symmetry_Int_Tables_number   1
_chemical_formula_structural   Pr4SmYRh18
_chemical_formula_sum   'Pr4 Sm1 Y1 Rh18'
_cell_volume   438.31116130
_cell_formula_units_Z   1
loop_
 _symmetry_equiv_pos_site_id
 _symmetry_equiv_pos_as_xyz
  1  'x, y, z'
loop_
 _atom_site_type_symbol
 _atom_site_label
 _atom_site_symmetry_multiplicity
 _atom_site_fract_x
 _atom_site_fract_y
 _atom_site_fract_z
 _atom_site_occupancy
  Pr  Pr0  1  0.333333  0.666667  0.957249  1
  Pr  Pr1  1  0.666667  0.333333  0.042855  1
  Pr  Pr2  1  0.333333  0.666667  0.747962  1
  Pr  Pr3  1  0.666667  0.333333  0.251735  1
  Sm  Sm4  1  0.666667  0.333333  0.459084  1
  Y  Y5  1  0.333333  0.666667  0.542033  1
  Rh  Rh6  1  0.167140  0.832860  0.375189  1
  Rh  Rh7  1  0.167140  0.334280  0.375189  1
  Rh  Rh8  1  0.665720  0.832860  0.375189  1
  Rh  Rh9  1  0.832980  0.167020  0.624796  1
  Rh  Rh10  1  0.832980  0.665960  0.624796  1
  Rh  Rh11  1  0.334040  0.167020  0.624796  1
  Rh  Rh12  1  0.833667  0.166333  0.870823  1
  Rh  Rh13  1  0.833667  0.667334  0.870823  1
  Rh  Rh14  1  0.332666  0.166333  0.870823  1
  Rh  Rh15  1  0.166428  0.833572  0.128776  1
  Rh  Rh16  1  0.166428  0.332855  0.128776  1
  Rh  Rh17  1  0.667145  0.833572  0.128776  1
  Rh  Rh18  1  0.333333  0.666667  0.251656  1
  Rh  Rh19  1  0.666667  0.333333  0.748351  1
  Rh  Rh20  1  0.000000  0.000000  0.252285  1
  Rh  Rh21  1  0.000000  0.000000  0.747904  1
  Rh  Rh22  1  0.000000  0.000000  0.500206  1
  Rh  Rh23  1  0.000000  0.000000  0.999930  1
