# generated using pymatgen
data_Sc(Cu3O4)2
_symmetry_space_group_name_H-M   'P 1'
_cell_length_a   6.50769149
_cell_length_b   6.50769182
_cell_length_c   6.50769100
_cell_angle_alpha   59.99999909
_cell_angle_beta   59.99999739
_cell_angle_gamma   59.99999702
_symmetry_Int_Tables_number   1
_chemical_formula_structural   Sc(Cu3O4)2
_chemical_formula_sum   'Sc1 Cu6 O8'
_cell_volume   194.87935723
_cell_formula_units_Z   1
loop_
 _symmetry_equiv_pos_site_id
 _symmetry_equiv_pos_as_xyz
  1  'x, y, z'
loop_
 _atom_site_type_symbol
 _atom_site_label
 _atom_site_symmetry_multiplicity
 _atom_site_fract_x
 _atom_site_fract_y
 _atom_site_fract_z
 _atom_site_occupancy
  Sc  Sc0  1  0.000000  0.000000  0.000000  1
  Cu  Cu1  1  0.500000  0.000000  0.000000  1
  Cu  Cu2  1  0.500000  0.500000  0.000000  1
  Cu  Cu3  1  0.500000  0.000000  0.500000  1
  Cu  Cu4  1  0.000000  0.500000  0.000000  1
  Cu  Cu5  1  0.000000  0.000000  0.500000  1
  Cu  Cu6  1  0.000000  0.500000  0.500000  1
  O  O7  1  0.578739  0.140420  0.140420  1
  O  O8  1  0.140420  0.140420  0.140420  1
  O  O9  1  0.140420  0.578739  0.140420  1
  O  O10  1  0.140420  0.140420  0.578739  1
  O  O11  1  0.859580  0.421261  0.859580  1
  O  O12  1  0.859580  0.859580  0.421261  1
  O  O13  1  0.859580  0.859580  0.859580  1
  O  O14  1  0.421261  0.859580  0.859580  1
