# generated using pymatgen
data_YbTm3(GaRu)4
_symmetry_space_group_name_H-M   'P 1'
_cell_length_a   7.23053895
_cell_length_b   4.47188400
_cell_length_c   7.01449252
_cell_angle_alpha   90.00000000
_cell_angle_beta   89.75937932
_cell_angle_gamma   90.00000000
_symmetry_Int_Tables_number   1
_chemical_formula_structural   YbTm3(GaRu)4
_chemical_formula_sum   'Yb1 Tm3 Ga4 Ru4'
_cell_volume   226.80552289
_cell_formula_units_Z   1
loop_
 _symmetry_equiv_pos_site_id
 _symmetry_equiv_pos_as_xyz
  1  'x, y, z'
loop_
 _atom_site_type_symbol
 _atom_site_label
 _atom_site_symmetry_multiplicity
 _atom_site_fract_x
 _atom_site_fract_y
 _atom_site_fract_z
 _atom_site_occupancy
  Yb  Yb0  1  0.983203  0.250000  0.807517  1
  Tm  Tm1  1  0.019836  0.750001  0.198125  1
  Tm  Tm2  1  0.522076  0.750001  0.302266  1
  Tm  Tm3  1  0.480377  0.250000  0.696705  1
  Ga  Ga4  1  0.303162  0.250000  0.109321  1
  Ga  Ga5  1  0.801903  0.250000  0.392280  1
  Ga  Ga6  1  0.196168  0.750001  0.607545  1
  Ga  Ga7  1  0.698968  0.750001  0.892573  1
  Ru  Ru8  1  0.652229  0.250000  0.062869  1
  Ru  Ru9  1  0.155696  0.250000  0.435517  1
  Ru  Ru10  1  0.841131  0.750001  0.559471  1
  Ru  Ru11  1  0.345254  0.750001  0.935810  1
