# generated using pymatgen
data_DyY2Al3Ge2Ru
_symmetry_space_group_name_H-M   'P 1'
_cell_length_a   6.98005129
_cell_length_b   6.98005255
_cell_length_c   4.27577900
_cell_angle_alpha   90.00000000
_cell_angle_beta   90.00000000
_cell_angle_gamma   120.06972646
_symmetry_Int_Tables_number   1
_chemical_formula_structural   DyY2Al3Ge2Ru
_chemical_formula_sum   'Dy1 Y2 Al3 Ge2 Ru1'
_cell_volume   180.28418015
_cell_formula_units_Z   1
loop_
 _symmetry_equiv_pos_site_id
 _symmetry_equiv_pos_as_xyz
  1  'x, y, z'
loop_
 _atom_site_type_symbol
 _atom_site_label
 _atom_site_symmetry_multiplicity
 _atom_site_fract_x
 _atom_site_fract_y
 _atom_site_fract_z
 _atom_site_occupancy
  Dy  Dy0  1  0.584409  0.584409  0.000000  1
  Y  Y1  1  0.416255  0.000070  0.000000  1
  Y  Y2  1  0.000070  0.416254  0.000000  1
  Al  Al3  1  0.773362  0.000067  0.500001  1
  Al  Al4  1  0.226618  0.226619  0.500001  1
  Al  Al5  1  0.000067  0.773361  0.500001  1
  Ge  Ge6  1  0.666621  0.333607  0.500001  1
  Ge  Ge7  1  0.333606  0.666620  0.500001  1
  Ru  Ru8  1  0.998988  0.998988  0.000000  1
