# generated using pymatgen
data_Tb19Y(Bi2Ru)4
_symmetry_space_group_name_H-M   'P 1'
_cell_length_a   8.01140228
_cell_length_b   9.02998700
_cell_length_c   12.51233943
_cell_angle_alpha   90.00000000
_cell_angle_beta   89.96981432
_cell_angle_gamma   90.00000000
_symmetry_Int_Tables_number   1
_chemical_formula_structural   Tb19Y(Bi2Ru)4
_chemical_formula_sum   'Tb19 Y1 Bi8 Ru4'
_cell_volume   905.17827459
_cell_formula_units_Z   1
loop_
 _symmetry_equiv_pos_site_id
 _symmetry_equiv_pos_as_xyz
  1  'x, y, z'
loop_
 _atom_site_type_symbol
 _atom_site_label
 _atom_site_symmetry_multiplicity
 _atom_site_fract_x
 _atom_site_fract_y
 _atom_site_fract_z
 _atom_site_occupancy
  Tb  Tb0  1  0.156972  0.250000  0.206892  1
  Tb  Tb1  1  0.342920  0.250000  0.706974  1
  Tb  Tb2  1  0.657186  0.750000  0.292990  1
  Tb  Tb3  1  0.376089  0.750000  0.693091  1
  Tb  Tb4  1  0.623997  0.250000  0.306906  1
  Tb  Tb5  1  0.876222  0.250000  0.807024  1
  Tb  Tb6  1  0.123940  0.750000  0.193149  1
  Tb  Tb7  1  0.946077  0.750000  0.504059  1
  Tb  Tb8  1  0.053888  0.250000  0.495816  1
  Tb  Tb9  1  0.446069  0.250000  0.995861  1
  Tb  Tb10  1  0.554468  0.750000  0.004167  1
  Tb  Tb11  1  0.675982  0.041731  0.564050  1
  Tb  Tb12  1  0.324034  0.958247  0.435948  1
  Tb  Tb13  1  0.175700  0.958102  0.936016  1
  Tb  Tb14  1  0.324034  0.541753  0.435948  1
  Tb  Tb15  1  0.824103  0.041624  0.063924  1
  Tb  Tb16  1  0.675982  0.458269  0.564050  1
  Tb  Tb17  1  0.824103  0.458376  0.063924  1
  Tb  Tb18  1  0.175700  0.541898  0.936016  1
  Y  Y19  1  0.842590  0.750000  0.792075  1
  Bi  Bi20  1  0.570686  0.493201  0.827520  1
  Bi  Bi21  1  0.429559  0.507112  0.172475  1
  Bi  Bi22  1  0.070145  0.507406  0.672539  1
  Bi  Bi23  1  0.429559  0.992888  0.172475  1
  Bi  Bi24  1  0.929564  0.492877  0.327571  1
  Bi  Bi25  1  0.570686  0.006799  0.827520  1
  Bi  Bi26  1  0.929564  0.007123  0.327571  1
  Bi  Bi27  1  0.070145  0.992594  0.672539  1
  Ru  Ru28  1  0.574429  0.750000  0.511803  1
  Ru  Ru29  1  0.425573  0.250000  0.488422  1
  Ru  Ru30  1  0.074336  0.250000  0.988259  1
  Ru  Ru31  1  0.925697  0.750000  0.012426  1
