# generated using pymatgen
data_Tb2YHo(Al3Rh)6
_symmetry_space_group_name_H-M   'P 1'
_cell_length_a   7.55154153
_cell_length_b   7.55301469
_cell_length_c   9.48184900
_cell_angle_alpha   90.00000000
_cell_angle_beta   90.00000000
_cell_angle_gamma   119.30632353
_symmetry_Int_Tables_number   1
_chemical_formula_structural   Tb2YHo(Al3Rh)6
_chemical_formula_sum   'Tb2 Y1 Ho1 Al18 Rh6'
_cell_volume   471.59920260
_cell_formula_units_Z   1
loop_
 _symmetry_equiv_pos_site_id
 _symmetry_equiv_pos_as_xyz
  1  'x, y, z'
loop_
 _atom_site_type_symbol
 _atom_site_label
 _atom_site_symmetry_multiplicity
 _atom_site_fract_x
 _atom_site_fract_y
 _atom_site_fract_z
 _atom_site_occupancy
  Tb  Tb0  1  0.994295  0.671796  0.250000  1
  Tb  Tb1  1  0.005860  0.328212  0.750000  1
  Y  Y2  1  0.328290  0.005914  0.750000  1
  Ho  Ho3  1  0.671939  0.994581  0.250000  1
  Al  Al4  1  0.128073  0.128531  0.250000  1
  Al  Al5  1  0.871080  0.871208  0.750000  1
  Al  Al6  1  0.000742  0.335345  0.075422  1
  Al  Al7  1  0.998706  0.664401  0.925320  1
  Al  Al8  1  0.998706  0.664401  0.574680  1
  Al  Al9  1  0.336321  0.001203  0.424462  1
  Al  Al10  1  0.000742  0.335345  0.424578  1
  Al  Al11  1  0.664167  0.998630  0.574182  1
  Al  Al12  1  0.664167  0.998630  0.925818  1
  Al  Al13  1  0.336321  0.001203  0.075538  1
  Al  Al14  1  0.333128  0.332989  0.548543  1
  Al  Al15  1  0.666856  0.667283  0.450165  1
  Al  Al16  1  0.666856  0.667283  0.049835  1
  Al  Al17  1  0.333128  0.332989  0.951457  1
  Al  Al18  1  0.340181  0.550597  0.250000  1
  Al  Al19  1  0.660614  0.450198  0.750000  1
  Al  Al20  1  0.550040  0.339487  0.250000  1
  Al  Al21  1  0.450285  0.660359  0.750000  1
  Rh  Rh22  1  0.671778  0.327802  0.000215  1
  Rh  Rh23  1  0.328155  0.672127  0.000200  1
  Rh  Rh24  1  0.328155  0.672127  0.499800  1
  Rh  Rh25  1  0.671778  0.327802  0.499785  1
  Rh  Rh26  1  0.999819  0.999779  0.000338  1
  Rh  Rh27  1  0.999819  0.999779  0.499662  1
