# generated using pymatgen
data_RbGeAuSe3
_symmetry_space_group_name_H-M   'P 1'
_cell_length_a   12.07364400
_cell_length_b   11.33967629
_cell_length_c   12.75979800
_cell_angle_alpha   60.25490312
_cell_angle_beta   90.00000000
_cell_angle_gamma   90.00000000
_symmetry_Int_Tables_number   1
_chemical_formula_structural   RbGeAuSe3
_chemical_formula_sum   'Rb8 Ge8 Au8 Se24'
_cell_volume   1516.78229349
_cell_formula_units_Z   8
loop_
 _symmetry_equiv_pos_site_id
 _symmetry_equiv_pos_as_xyz
  1  'x, y, z'
loop_
 _atom_site_type_symbol
 _atom_site_label
 _atom_site_symmetry_multiplicity
 _atom_site_fract_x
 _atom_site_fract_y
 _atom_site_fract_z
 _atom_site_occupancy
  Rb  Rb0  1  0.733071  0.382119  0.290082  1
  Rb  Rb1  1  0.765845  0.913067  0.121131  1
  Rb  Rb2  1  0.233071  0.617881  0.209918  1
  Rb  Rb3  1  0.234155  0.086933  0.878869  1
  Rb  Rb4  1  0.265845  0.086933  0.378869  1
  Rb  Rb5  1  0.734155  0.913067  0.621131  1
  Rb  Rb6  1  0.266929  0.617881  0.709918  1
  Rb  Rb7  1  0.766929  0.382119  0.790082  1
  Ge  Ge8  1  0.001947  0.666161  0.916966  1
  Ge  Ge9  1  0.503832  0.665714  0.941669  1
  Ge  Ge10  1  0.003832  0.334286  0.558331  1
  Ge  Ge11  1  0.498053  0.666161  0.416966  1
  Ge  Ge12  1  0.501947  0.333839  0.583034  1
  Ge  Ge13  1  0.996168  0.665714  0.441669  1
  Ge  Ge14  1  0.496168  0.334286  0.058331  1
  Ge  Ge15  1  0.998053  0.333839  0.083034  1
  Au  Au16  1  0.087101  0.987824  0.645634  1
  Au  Au17  1  0.921033  0.014510  0.818082  1
  Au  Au18  1  0.421033  0.985490  0.681918  1
  Au  Au19  1  0.912899  0.012176  0.354366  1
  Au  Au20  1  0.412899  0.987824  0.145634  1
  Au  Au21  1  0.078967  0.985490  0.181918  1
  Au  Au22  1  0.587101  0.012176  0.854366  1
  Au  Au23  1  0.578967  0.014510  0.318082  1
  Se  Se24  1  0.999998  0.817903  0.997112  1
  Se  Se25  1  0.499998  0.182097  0.502888  1
  Se  Se26  1  0.851251  0.501513  0.988869  1
  Se  Se27  1  0.337833  0.794202  0.861774  1
  Se  Se28  1  0.995402  0.233043  0.297037  1
  Se  Se29  1  0.529143  0.518961  0.853913  1
  Se  Se30  1  0.648749  0.501513  0.488869  1
  Se  Se31  1  0.029143  0.481039  0.646087  1
  Se  Se32  1  0.662167  0.205798  0.138226  1
  Se  Se33  1  0.169646  0.212966  0.573414  1
  Se  Se34  1  0.837833  0.205798  0.638226  1
  Se  Se35  1  0.500002  0.817903  0.497112  1
  Se  Se36  1  0.351251  0.498487  0.511131  1
  Se  Se37  1  0.004598  0.766957  0.702963  1
  Se  Se38  1  0.470857  0.481039  0.146087  1
  Se  Se39  1  0.495402  0.766957  0.202963  1
  Se  Se40  1  0.162167  0.794202  0.361774  1
  Se  Se41  1  0.970857  0.518961  0.353913  1
  Se  Se42  1  0.148749  0.498487  0.011131  1
  Se  Se43  1  0.330354  0.212966  0.073414  1
  Se  Se44  1  0.504598  0.233043  0.797037  1
  Se  Se45  1  0.000002  0.182097  0.002888  1
  Se  Se46  1  0.669646  0.787034  0.926586  1
  Se  Se47  1  0.830354  0.787034  0.426586  1
