# generated using pymatgen
data_La12As(PBr4)3
_symmetry_space_group_name_H-M   'P 1'
_cell_length_a   10.51504675
_cell_length_b   10.51516394
_cell_length_c   10.51495354
_cell_angle_alpha   109.51796742
_cell_angle_beta   109.51784210
_cell_angle_gamma   109.51801615
_symmetry_Int_Tables_number   1
_chemical_formula_structural   La12As(PBr4)3
_chemical_formula_sum   'La12 As1 P3 Br12'
_cell_volume   893.42725397
_cell_formula_units_Z   1
loop_
 _symmetry_equiv_pos_site_id
 _symmetry_equiv_pos_as_xyz
  1  'x, y, z'
loop_
 _atom_site_type_symbol
 _atom_site_label
 _atom_site_symmetry_multiplicity
 _atom_site_fract_x
 _atom_site_fract_y
 _atom_site_fract_z
 _atom_site_occupancy
  La  La0  1  0.478439  0.492714  0.236001  1
  La  La1  1  0.750024  0.236971  0.263030  1
  La  La2  1  0.750008  0.013202  0.486836  1
  La  La3  1  0.235996  0.478444  0.492718  1
  La  La4  1  0.263025  0.750003  0.236971  1
  La  La5  1  0.021537  0.263987  0.007256  1
  La  La6  1  0.007280  0.021570  0.263999  1
  La  La7  1  0.486810  0.749991  0.013176  1
  La  La8  1  0.492729  0.236002  0.478465  1
  La  La9  1  0.013172  0.486812  0.749993  1
  La  La10  1  0.263980  0.007272  0.021564  1
  La  La11  1  0.236964  0.263027  0.749992  1
  As  As12  1  0.250001  0.250005  0.250004  1
  P  P13  1  0.500065  0.999944  0.250001  1
  P  P14  1  0.999943  0.250004  0.500066  1
  P  P15  1  0.249995  0.500060  0.999941  1
  Br  Br16  1  0.250006  0.756309  0.743690  1
  Br  Br17  1  0.511535  0.505862  0.755977  1
  Br  Br18  1  0.988464  0.744019  0.994129  1
  Br  Br19  1  0.743699  0.250009  0.756316  1
  Br  Br20  1  0.994135  0.988467  0.744021  1
  Br  Br21  1  0.250002  0.994119  0.505886  1
  Br  Br22  1  0.755983  0.511522  0.505869  1
  Br  Br23  1  0.505880  0.249994  0.994113  1
  Br  Br24  1  0.756314  0.743702  0.250009  1
  Br  Br25  1  0.744025  0.994133  0.988461  1
  Br  Br26  1  0.994113  0.505877  0.249987  1
  Br  Br27  1  0.505875  0.755977  0.511531  1
