# generated using pymatgen
data_Tb8Hf10Ta2Si15P
_symmetry_space_group_name_H-M   'P 1'
_cell_length_a   7.24488319
_cell_length_b   7.24409578
_cell_length_c   13.31945103
_cell_angle_alpha   89.93807132
_cell_angle_beta   89.98695892
_cell_angle_gamma   90.14137676
_symmetry_Int_Tables_number   1
_chemical_formula_structural   Tb8Hf10Ta2Si15P
_chemical_formula_sum   'Tb8 Hf10 Ta2 Si15 P1'
_cell_volume   699.03723478
_cell_formula_units_Z   1
loop_
 _symmetry_equiv_pos_site_id
 _symmetry_equiv_pos_as_xyz
  1  'x, y, z'
loop_
 _atom_site_type_symbol
 _atom_site_label
 _atom_site_symmetry_multiplicity
 _atom_site_fract_x
 _atom_site_fract_y
 _atom_site_fract_z
 _atom_site_occupancy
  Tb  Tb0  1  0.999262  0.344054  0.215571  1
  Tb  Tb1  1  0.003838  0.656423  0.714312  1
  Tb  Tb2  1  0.156001  0.495748  0.464867  1
  Tb  Tb3  1  0.505116  0.843648  0.034154  1
  Tb  Tb4  1  0.844154  0.503485  0.965979  1
  Tb  Tb5  1  0.496547  0.155377  0.533770  1
  Tb  Tb6  1  0.344316  0.996566  0.785648  1
  Tb  Tb7  1  0.653171  0.005860  0.285442  1
  Hf  Hf8  1  0.323650  0.676205  0.250396  1
  Hf  Hf9  1  0.675587  0.324404  0.749950  1
  Hf  Hf10  1  0.150011  0.998619  0.374937  1
  Hf  Hf11  1  0.852275  0.003695  0.876583  1
  Hf  Hf12  1  0.505885  0.649766  0.623057  1
  Hf  Hf13  1  0.350256  0.494135  0.876853  1
  Hf  Hf14  1  0.492550  0.348091  0.125924  1
  Hf  Hf15  1  0.648574  0.503996  0.376337  1
  Hf  Hf16  1  0.996854  0.147761  0.623546  1
  Hf  Hf17  1  0.001813  0.851363  0.123892  1
  Ta  Ta18  1  0.175244  0.175980  0.000721  1
  Ta  Ta19  1  0.825702  0.825056  0.499545  1
  Si  Si20  1  0.637537  0.704613  0.816468  1
  Si  Si21  1  0.201753  0.861075  0.565411  1
  Si  Si22  1  0.138816  0.797632  0.933585  1
  Si  Si23  1  0.797273  0.139898  0.067028  1
  Si  Si24  1  0.861278  0.201846  0.433326  1
  Si  Si25  1  0.295752  0.362162  0.683054  1
  Si  Si26  1  0.703993  0.636390  0.184181  1
  Si  Si27  1  0.293378  0.043803  0.180519  1
  Si  Si28  1  0.705628  0.949917  0.683699  1
  Si  Si29  1  0.453671  0.796399  0.435762  1
  Si  Si30  1  0.203408  0.546586  0.064454  1
  Si  Si31  1  0.547221  0.203660  0.936496  1
  Si  Si32  1  0.797087  0.453378  0.563947  1
  Si  Si33  1  0.050440  0.294402  0.816026  1
  Si  Si34  1  0.949327  0.706485  0.316710  1
  P  P35  1  0.362631  0.301524  0.317853  1
