# generated using pymatgen
data_Dy3YTmIr3
_symmetry_space_group_name_H-M   'P 1'
_cell_length_a   10.88618400
_cell_length_b   10.88535000
_cell_length_c   6.35969500
_cell_angle_alpha   90.00000000
_cell_angle_beta   90.00000000
_cell_angle_gamma   90.00000000
_symmetry_Int_Tables_number   1
_chemical_formula_structural   Dy3YTmIr3
_chemical_formula_sum   'Dy12 Y4 Tm4 Ir12'
_cell_volume   753.62336783
_cell_formula_units_Z   4
loop_
 _symmetry_equiv_pos_site_id
 _symmetry_equiv_pos_as_xyz
  1  'x, y, z'
loop_
 _atom_site_type_symbol
 _atom_site_label
 _atom_site_symmetry_multiplicity
 _atom_site_fract_x
 _atom_site_fract_y
 _atom_site_fract_z
 _atom_site_occupancy
  Dy  Dy0  1  0.587590  0.790598  0.877515  1
  Dy  Dy1  1  0.587590  0.209402  0.377515  1
  Dy  Dy2  1  0.412410  0.790598  0.377515  1
  Dy  Dy3  1  0.412410  0.209402  0.877515  1
  Dy  Dy4  1  0.209380  0.412378  0.622409  1
  Dy  Dy5  1  0.209380  0.587622  0.122409  1
  Dy  Dy6  1  0.790620  0.412378  0.122409  1
  Dy  Dy7  1  0.790620  0.587622  0.622409  1
  Dy  Dy8  1  0.912439  0.709251  0.122498  1
  Dy  Dy9  1  0.912439  0.290749  0.622498  1
  Dy  Dy10  1  0.087561  0.709251  0.622498  1
  Dy  Dy11  1  0.087561  0.290749  0.122498  1
  Y  Y12  1  0.290269  0.087721  0.377251  1
  Y  Y13  1  0.290269  0.912279  0.877251  1
  Y  Y14  1  0.709731  0.087721  0.877251  1
  Y  Y15  1  0.709731  0.912279  0.377251  1
  Tm  Tm16  1  0.000000  0.000000  0.500090  1
  Tm  Tm17  1  0.000000  0.000000  0.000090  1
  Tm  Tm18  1  0.500000  0.500000  0.999825  1
  Tm  Tm19  1  0.500000  0.500000  0.499825  1
  Ir  Ir20  1  0.848208  0.152621  0.250616  1
  Ir  Ir21  1  0.848208  0.847379  0.750616  1
  Ir  Ir22  1  0.151792  0.152621  0.750616  1
  Ir  Ir23  1  0.151792  0.847379  0.250616  1
  Ir  Ir24  1  0.652238  0.348203  0.749768  1
  Ir  Ir25  1  0.652238  0.651797  0.249768  1
  Ir  Ir26  1  0.347762  0.348203  0.249768  1
  Ir  Ir27  1  0.347762  0.651797  0.749768  1
  Ir  Ir28  1  0.500000  0.000000  0.122157  1
  Ir  Ir29  1  0.500000  0.000000  0.622157  1
  Ir  Ir30  1  0.000000  0.500000  0.877813  1
  Ir  Ir31  1  0.000000  0.500000  0.377813  1
