# generated using pymatgen
data_Tm5Mg2P12Ir17
_symmetry_space_group_name_H-M   'P 1'
_cell_length_a   12.64080800
_cell_length_b   12.81005550
_cell_length_c   3.96414500
_cell_angle_alpha   90.00000000
_cell_angle_beta   90.00000000
_cell_angle_gamma   119.56390699
_symmetry_Int_Tables_number   1
_chemical_formula_structural   Tm5Mg2P12Ir17
_chemical_formula_sum   'Tm5 Mg2 P12 Ir17'
_cell_volume   558.33870235
_cell_formula_units_Z   1
loop_
 _symmetry_equiv_pos_site_id
 _symmetry_equiv_pos_as_xyz
  1  'x, y, z'
loop_
 _atom_site_type_symbol
 _atom_site_label
 _atom_site_symmetry_multiplicity
 _atom_site_fract_x
 _atom_site_fract_y
 _atom_site_fract_z
 _atom_site_occupancy
  Tm  Tm0  1  0.333034  0.664123  0.500000  1
  Tm  Tm1  1  0.668910  0.335877  0.500000  1
  Tm  Tm2  1  0.002047  0.813184  0.000000  1
  Tm  Tm3  1  0.188862  0.186816  0.000000  1
  Tm  Tm4  1  0.810176  0.000000  0.000000  1
  Mg  Mg5  1  0.997793  0.444389  0.500000  1
  Mg  Mg6  1  0.553403  0.555611  0.500000  1
  P  P7  1  0.003176  0.644237  0.500000  1
  P  P8  1  0.358939  0.355763  0.500000  1
  P  P9  1  0.643361  0.000000  0.500000  1
  P  P10  1  0.513403  0.685831  0.000000  1
  P  P11  1  0.308457  0.823937  0.000000  1
  P  P12  1  0.169156  0.482108  0.000000  1
  P  P13  1  0.484519  0.176063  0.000000  1
  P  P14  1  0.687049  0.517892  0.000000  1
  P  P15  1  0.827571  0.314169  0.000000  1
  P  P16  1  0.998725  0.175357  0.500000  1
  P  P17  1  0.823368  0.824643  0.500000  1
  P  P18  1  0.178418  0.000000  0.500000  1
  Ir  Ir19  1  0.504434  0.865223  0.000000  1
  Ir  Ir20  1  0.128793  0.639889  0.000000  1
  Ir  Ir21  1  0.357720  0.493239  0.000000  1
  Ir  Ir22  1  0.488905  0.360111  0.000000  1
  Ir  Ir23  1  0.864483  0.506761  0.000000  1
  Ir  Ir24  1  0.639212  0.134777  0.000000  1
  Ir  Ir25  1  0.462199  0.000000  0.500000  1
  Ir  Ir26  1  0.996410  0.278832  0.000000  1
  Ir  Ir27  1  0.717578  0.721168  0.000000  1
  Ir  Ir28  1  0.286791  0.000000  0.000000  1
  Ir  Ir29  1  0.623560  0.807906  0.500000  1
  Ir  Ir30  1  0.200349  0.824584  0.500000  1
  Ir  Ir31  1  0.177075  0.366792  0.500000  1
  Ir  Ir32  1  0.375765  0.175416  0.500000  1
  Ir  Ir33  1  0.810282  0.633208  0.500000  1
  Ir  Ir34  1  0.815654  0.192094  0.500000  1
  Ir  Ir35  1  0.000423  0.000000  0.500000  1
