# generated using pymatgen
data_Tb5Y(IrPd)3
_symmetry_space_group_name_H-M   'P 1'
_cell_length_a   4.89639500
_cell_length_b   7.00246500
_cell_length_c   14.74659400
_cell_angle_alpha   90.00000000
_cell_angle_beta   89.99953285
_cell_angle_gamma   90.00000000
_symmetry_Int_Tables_number   1
_chemical_formula_structural   Tb5Y(IrPd)3
_chemical_formula_sum   'Tb10 Y2 Ir6 Pd6'
_cell_volume   505.61402958
_cell_formula_units_Z   2
loop_
 _symmetry_equiv_pos_site_id
 _symmetry_equiv_pos_as_xyz
  1  'x, y, z'
loop_
 _atom_site_type_symbol
 _atom_site_label
 _atom_site_symmetry_multiplicity
 _atom_site_fract_x
 _atom_site_fract_y
 _atom_site_fract_z
 _atom_site_occupancy
  Tb  Tb0  1  0.500001  0.250532  0.999671  1
  Tb  Tb1  1  0.500001  0.749467  0.999671  1
  Tb  Tb2  1  0.999937  0.249668  0.166510  1
  Tb  Tb3  1  0.999937  0.750332  0.166510  1
  Tb  Tb4  1  0.499935  0.250254  0.333327  1
  Tb  Tb5  1  0.499935  0.749745  0.333327  1
  Tb  Tb6  1  0.000002  0.249667  0.500150  1
  Tb  Tb7  1  0.000002  0.750333  0.500150  1
  Tb  Tb8  1  0.500059  0.250539  0.667003  1
  Tb  Tb9  1  0.500059  0.749460  0.667003  1
  Y  Y10  1  0.000067  0.249976  0.833347  1
  Y  Y11  1  0.000067  0.750024  0.833347  1
  Ir  Ir12  1  0.999999  0.500000  0.000152  1
  Ir  Ir13  1  0.499956  0.000000  0.166312  1
  Ir  Ir14  1  0.999951  0.500000  0.333333  1
  Ir  Ir15  1  0.499997  0.000000  0.500344  1
  Ir  Ir16  1  0.000050  0.500000  0.666505  1
  Ir  Ir17  1  0.500036  0.000000  0.833350  1
  Pd  Pd18  1  0.000002  0.000000  0.999915  1
  Pd  Pd19  1  0.499870  0.500000  0.165995  1
  Pd  Pd20  1  0.999836  0.000000  0.333318  1
  Pd  Pd21  1  0.499999  0.500000  0.500677  1
  Pd  Pd22  1  0.000174  0.000000  0.666756  1
  Pd  Pd23  1  0.500124  0.500000  0.833329  1
