# generated using pymatgen
data_V2Co(CuO2)3
_symmetry_space_group_name_H-M   'P 1'
_cell_length_a   5.28403925
_cell_length_b   5.28262649
_cell_length_c   11.65017848
_cell_angle_alpha   94.57220229
_cell_angle_beta   85.44889589
_cell_angle_gamma   60.52750296
_symmetry_Int_Tables_number   1
_chemical_formula_structural   V2Co(CuO2)3
_chemical_formula_sum   'V4 Co2 Cu6 O12'
_cell_volume   279.56774427
_cell_formula_units_Z   2
loop_
 _symmetry_equiv_pos_site_id
 _symmetry_equiv_pos_as_xyz
  1  'x, y, z'
loop_
 _atom_site_type_symbol
 _atom_site_label
 _atom_site_symmetry_multiplicity
 _atom_site_fract_x
 _atom_site_fract_y
 _atom_site_fract_z
 _atom_site_occupancy
  V  V0  1  0.250268  0.750306  0.250025  1
  V  V1  1  0.750277  0.250276  0.749990  1
  V  V2  1  0.584730  0.084560  0.250004  1
  V  V3  1  0.084758  0.584568  0.749990  1
  Co  Co4  1  0.916198  0.416254  0.249996  1
  Co  Co5  1  0.416206  0.916245  0.749996  1
  Cu  Cu6  1  0.162894  0.163108  0.499999  1
  Cu  Cu7  1  0.839360  0.839592  0.499985  1
  Cu  Cu8  1  0.497032  0.496743  0.500017  1
  Cu  Cu9  1  0.662998  0.662929  0.999982  1
  Cu  Cu10  1  0.339546  0.339370  0.000023  1
  Cu  Cu11  1  0.996785  0.997045  0.999986  1
  O  O12  1  0.230908  0.094404  0.339738  1
  O  O13  1  0.730997  0.594341  0.839633  1
  O  O14  1  0.594383  0.731012  0.160237  1
  O  O15  1  0.094321  0.231081  0.660349  1
  O  O16  1  0.530306  0.456619  0.340010  1
  O  O17  1  0.030320  0.956582  0.839915  1
  O  O18  1  0.897757  0.789527  0.339859  1
  O  O19  1  0.397832  0.289472  0.839760  1
  O  O20  1  0.289379  0.397775  0.160182  1
  O  O21  1  0.789344  0.897822  0.660288  1
  O  O22  1  0.956724  0.030180  0.159964  1
  O  O23  1  0.456676  0.530188  0.660070  1
