# generated using pymatgen
data_Ho5ErSi24OsRu7
_symmetry_space_group_name_H-M   'P 1'
_cell_length_a   10.10778408
_cell_length_b   10.10778496
_cell_length_c   8.13189500
_cell_angle_alpha   89.99664645
_cell_angle_beta   89.99664580
_cell_angle_gamma   132.56180830
_symmetry_Int_Tables_number   1
_chemical_formula_structural   Ho5ErSi24OsRu7
_chemical_formula_sum   'Ho5 Er1 Si24 Os1 Ru7'
_cell_volume   611.93434229
_cell_formula_units_Z   1
loop_
 _symmetry_equiv_pos_site_id
 _symmetry_equiv_pos_as_xyz
  1  'x, y, z'
loop_
 _atom_site_type_symbol
 _atom_site_label
 _atom_site_symmetry_multiplicity
 _atom_site_fract_x
 _atom_site_fract_y
 _atom_site_fract_z
 _atom_site_occupancy
  Ho  Ho0  1  0.000004  0.999996  0.000000  1
  Ho  Ho1  1  0.502738  0.002807  0.750177  1
  Ho  Ho2  1  0.997193  0.497262  0.249823  1
  Ho  Ho3  1  0.497298  0.997104  0.249760  1
  Ho  Ho4  1  0.002896  0.502702  0.750240  1
  Er  Er5  1  0.499962  0.500038  0.500000  1
  Si  Si6  1  0.795726  0.204274  0.500000  1
  Si  Si7  1  0.295132  0.704868  0.000000  1
  Si  Si8  1  0.204877  0.795123  0.500000  1
  Si  Si9  1  0.704974  0.295026  0.000000  1
  Si  Si10  1  0.332613  0.332726  0.833533  1
  Si  Si11  1  0.667274  0.667387  0.166467  1
  Si  Si12  1  0.166900  0.166712  0.332887  1
  Si  Si13  1  0.833288  0.833100  0.667113  1
  Si  Si14  1  0.122485  0.888260  0.728967  1
  Si  Si15  1  0.111740  0.877515  0.271033  1
  Si  Si16  1  0.611725  0.377671  0.227414  1
  Si  Si17  1  0.622329  0.388275  0.772586  1
  Si  Si18  1  0.877052  0.111110  0.270645  1
  Si  Si19  1  0.888890  0.122948  0.729355  1
  Si  Si20  1  0.388168  0.622676  0.771653  1
  Si  Si21  1  0.377324  0.611832  0.228347  1
  Si  Si22  1  0.344478  0.111063  0.505872  1
  Si  Si23  1  0.888937  0.655522  0.494128  1
  Si  Si24  1  0.387691  0.153910  0.005543  1
  Si  Si25  1  0.846090  0.612309  0.994457  1
  Si  Si26  1  0.653793  0.887638  0.493497  1
  Si  Si27  1  0.112362  0.346207  0.506503  1
  Si  Si28  1  0.612087  0.845816  0.994388  1
  Si  Si29  1  0.154184  0.387913  0.005612  1
  Os  Os30  1  0.669552  0.330448  0.500000  1
  Ru  Ru31  1  0.169705  0.830295  0.000000  1
  Ru  Ru32  1  0.330392  0.669608  0.500000  1
  Ru  Ru33  1  0.830295  0.169705  0.000000  1
  Ru  Ru34  1  0.127491  0.127739  0.627023  1
  Ru  Ru35  1  0.872261  0.872509  0.372977  1
  Ru  Ru36  1  0.373670  0.373578  0.127962  1
  Ru  Ru37  1  0.626422  0.626330  0.872038  1
