# generated using pymatgen
data_Cs3U2Br10N
_symmetry_space_group_name_H-M   'P 1'
_cell_length_a   8.10935100
_cell_length_b   8.10935100
_cell_length_c   20.22554300
_cell_angle_alpha   90.00000000
_cell_angle_beta   90.00000000
_cell_angle_gamma   90.00000000
_symmetry_Int_Tables_number   1
_chemical_formula_structural   Cs3U2Br10N
_chemical_formula_sum   'Cs6 U4 Br20 N2'
_cell_volume   1330.06353543
_cell_formula_units_Z   2
loop_
 _symmetry_equiv_pos_site_id
 _symmetry_equiv_pos_as_xyz
  1  'x, y, z'
loop_
 _atom_site_type_symbol
 _atom_site_label
 _atom_site_symmetry_multiplicity
 _atom_site_fract_x
 _atom_site_fract_y
 _atom_site_fract_z
 _atom_site_occupancy
  Cs  Cs0  1  0.500000  0.500000  0.000000  1
  Cs  Cs1  1  0.000000  0.000000  0.500000  1
  Cs  Cs2  1  0.000000  0.500000  0.250000  1
  Cs  Cs3  1  0.500000  0.000000  0.750000  1
  Cs  Cs4  1  0.500000  0.000000  0.250000  1
  Cs  Cs5  1  0.000000  0.500000  0.750000  1
  U  U6  1  0.500000  0.500000  0.400797  1
  U  U7  1  0.000000  0.000000  0.900797  1
  U  U8  1  0.500000  0.500000  0.599203  1
  U  U9  1  0.000000  0.000000  0.099203  1
  Br  Br10  1  0.781910  0.690742  0.393349  1
  Br  Br11  1  0.218090  0.309258  0.393349  1
  Br  Br12  1  0.718090  0.190742  0.893349  1
  Br  Br13  1  0.281910  0.809258  0.893349  1
  Br  Br14  1  0.690742  0.218090  0.393349  1
  Br  Br15  1  0.309258  0.781910  0.393349  1
  Br  Br16  1  0.190742  0.281910  0.893349  1
  Br  Br17  1  0.809258  0.718090  0.893349  1
  Br  Br18  1  0.218090  0.309258  0.606651  1
  Br  Br19  1  0.781910  0.690742  0.606651  1
  Br  Br20  1  0.281910  0.809258  0.106651  1
  Br  Br21  1  0.718090  0.190742  0.106651  1
  Br  Br22  1  0.309258  0.781910  0.606651  1
  Br  Br23  1  0.690742  0.218090  0.606651  1
  Br  Br24  1  0.809258  0.718090  0.106651  1
  Br  Br25  1  0.190742  0.281910  0.106651  1
  Br  Br26  1  0.500000  0.500000  0.261979  1
  Br  Br27  1  0.000000  0.000000  0.761979  1
  Br  Br28  1  0.500000  0.500000  0.738021  1
  Br  Br29  1  0.000000  0.000000  0.238021  1
  N  N30  1  0.500000  0.500000  0.500000  1
  N  N31  1  0.000000  0.000000  0.000000  1
