# generated using pymatgen
data_Nd4HoSn3Br
_symmetry_space_group_name_H-M   'P 1'
_cell_length_a   9.45754000
_cell_length_b   9.45754095
_cell_length_c   6.77923700
_cell_angle_alpha   90.00000000
_cell_angle_beta   90.00000000
_cell_angle_gamma   119.99999666
_symmetry_Int_Tables_number   1
_chemical_formula_structural   Nd4HoSn3Br
_chemical_formula_sum   'Nd8 Ho2 Sn6 Br2'
_cell_volume   525.13127086
_cell_formula_units_Z   2
loop_
 _symmetry_equiv_pos_site_id
 _symmetry_equiv_pos_as_xyz
  1  'x, y, z'
loop_
 _atom_site_type_symbol
 _atom_site_label
 _atom_site_symmetry_multiplicity
 _atom_site_fract_x
 _atom_site_fract_y
 _atom_site_fract_z
 _atom_site_occupancy
  Nd  Nd0  1  0.267730  0.267730  0.748956  1
  Nd  Nd1  1  0.000000  0.732270  0.748956  1
  Nd  Nd2  1  0.732270  0.000000  0.748956  1
  Nd  Nd3  1  0.000000  0.267730  0.251044  1
  Nd  Nd4  1  0.732270  0.732270  0.251044  1
  Nd  Nd5  1  0.267730  0.000000  0.251044  1
  Nd  Nd6  1  0.333333  0.666667  0.000000  1
  Nd  Nd7  1  0.666667  0.333333  0.000000  1
  Ho  Ho8  1  0.333333  0.666667  0.500000  1
  Ho  Ho9  1  0.666667  0.333333  0.500000  1
  Sn  Sn10  1  0.611767  0.000000  0.252561  1
  Sn  Sn11  1  0.000000  0.388233  0.747439  1
  Sn  Sn12  1  0.388233  0.000000  0.747439  1
  Sn  Sn13  1  0.611767  0.611767  0.747439  1
  Sn  Sn14  1  0.000000  0.611767  0.252561  1
  Sn  Sn15  1  0.388233  0.388233  0.252561  1
  Br  Br16  1  0.000000  0.000000  0.000000  1
  Br  Br17  1  0.000000  0.000000  0.500000  1
