# generated using pymatgen
data_ErTmCo12Si4P3
_symmetry_space_group_name_H-M   'P 1'
_cell_length_a   9.07899100
_cell_length_b   9.07899038
_cell_length_c   3.58767500
_cell_angle_alpha   90.00000000
_cell_angle_beta   90.00000000
_cell_angle_gamma   119.99999132
_symmetry_Int_Tables_number   1
_chemical_formula_structural   ErTmCo12Si4P3
_chemical_formula_sum   'Er1 Tm1 Co12 Si4 P3'
_cell_volume   256.10550022
_cell_formula_units_Z   1
loop_
 _symmetry_equiv_pos_site_id
 _symmetry_equiv_pos_as_xyz
  1  'x, y, z'
loop_
 _atom_site_type_symbol
 _atom_site_label
 _atom_site_symmetry_multiplicity
 _atom_site_fract_x
 _atom_site_fract_y
 _atom_site_fract_z
 _atom_site_occupancy
  Er  Er0  1  0.333333  0.666667  0.000000  1
  Tm  Tm1  1  0.666667  0.333333  0.500000  1
  Co  Co2  1  0.129762  0.849726  0.000000  1
  Co  Co3  1  0.380109  0.438960  0.500000  1
  Co  Co4  1  0.719964  0.870238  0.000000  1
  Co  Co5  1  0.561040  0.941149  0.500000  1
  Co  Co6  1  0.235011  0.104256  0.500000  1
  Co  Co7  1  0.869245  0.764989  0.500000  1
  Co  Co8  1  0.895744  0.130755  0.500000  1
  Co  Co9  1  0.945326  0.381234  0.000000  1
  Co  Co10  1  0.618766  0.564091  0.000000  1
  Co  Co11  1  0.435909  0.054674  0.000000  1
  Co  Co12  1  0.058851  0.619891  0.500000  1
  Co  Co13  1  0.150274  0.280036  0.000000  1
  Si  Si14  1  0.000000  0.000000  0.000000  1
  Si  Si15  1  0.713183  0.112508  0.000000  1
  Si  Si16  1  0.887492  0.600675  0.000000  1
  Si  Si17  1  0.399325  0.286817  0.000000  1
  P  P18  1  0.597998  0.707338  0.500000  1
  P  P19  1  0.292662  0.890660  0.500000  1
  P  P20  1  0.109340  0.402002  0.500000  1
