# generated using pymatgen
data_Dy3Ho3(Er2Sn3)2
_symmetry_space_group_name_H-M   'P 1'
_cell_length_a   8.93238308
_cell_length_b   8.92854378
_cell_length_c   6.50223000
_cell_angle_alpha   90.00000000
_cell_angle_beta   90.00000000
_cell_angle_gamma   119.99873509
_symmetry_Int_Tables_number   1
_chemical_formula_structural   Dy3Ho3(Er2Sn3)2
_chemical_formula_sum   'Dy3 Ho3 Er4 Sn6'
_cell_volume   449.10352871
_cell_formula_units_Z   1
loop_
 _symmetry_equiv_pos_site_id
 _symmetry_equiv_pos_as_xyz
  1  'x, y, z'
loop_
 _atom_site_type_symbol
 _atom_site_label
 _atom_site_symmetry_multiplicity
 _atom_site_fract_x
 _atom_site_fract_y
 _atom_site_fract_z
 _atom_site_occupancy
  Dy  Dy0  1  0.000035  0.761586  0.750000  1
  Dy  Dy1  1  0.000039  0.238459  0.250000  1
  Dy  Dy2  1  0.761490  0.761487  0.250000  1
  Ho  Ho3  1  0.761473  0.000038  0.750000  1
  Ho  Ho4  1  0.238488  0.238491  0.750000  1
  Ho  Ho5  1  0.238577  0.000029  0.250000  1
  Er  Er6  1  0.333339  0.666677  0.500006  1
  Er  Er7  1  0.666630  0.333298  0.999988  1
  Er  Er8  1  0.666630  0.333298  0.500012  1
  Er  Er9  1  0.333339  0.666677  0.999994  1
  Sn  Sn10  1  0.395474  0.000093  0.750000  1
  Sn  Sn11  1  0.395384  0.395291  0.250000  1
  Sn  Sn12  1  0.000085  0.604714  0.250000  1
  Sn  Sn13  1  0.000007  0.395225  0.750000  1
  Sn  Sn14  1  0.604545  0.604635  0.750000  1
  Sn  Sn15  1  0.604467  0.000002  0.250000  1
