# generated using pymatgen
data_Hf3FeMo2As3
_symmetry_space_group_name_H-M   'P 1'
_cell_length_a   6.87597500
_cell_length_b   7.00333857
_cell_length_c   3.53395700
_cell_angle_alpha   90.00000000
_cell_angle_beta   90.00000000
_cell_angle_gamma   119.40020478
_symmetry_Int_Tables_number   1
_chemical_formula_structural   Hf3FeMo2As3
_chemical_formula_sum   'Hf3 Fe1 Mo2 As3'
_cell_volume   148.26018896
_cell_formula_units_Z   1
loop_
 _symmetry_equiv_pos_site_id
 _symmetry_equiv_pos_as_xyz
  1  'x, y, z'
loop_
 _atom_site_type_symbol
 _atom_site_label
 _atom_site_symmetry_multiplicity
 _atom_site_fract_x
 _atom_site_fract_y
 _atom_site_fract_z
 _atom_site_occupancy
  Hf  Hf0  1  0.399722  0.000000  0.500000  1
  Hf  Hf1  1  0.011440  0.411295  0.500000  1
  Hf  Hf2  1  0.600143  0.588704  0.500000  1
  Fe  Fe3  1  0.742630  0.000000  0.000000  1
  Mo  Mo4  1  0.250985  0.250354  0.000000  1
  Mo  Mo5  1  0.000632  0.749647  0.000000  1
  As  As6  1  0.671939  0.324880  0.000000  1
  As  As7  1  0.347060  0.675121  0.000000  1
  As  As8  1  0.975450  0.000000  0.500000  1
