# generated using pymatgen
data_Ta4CdHg3O14
_symmetry_space_group_name_H-M   'P 1'
_cell_length_a   7.46427631
_cell_length_b   7.46427617
_cell_length_c   7.52219607
_cell_angle_alpha   60.25438265
_cell_angle_beta   60.25438612
_cell_angle_gamma   60.00000029
_symmetry_Int_Tables_number   1
_chemical_formula_structural   Ta4CdHg3O14
_chemical_formula_sum   'Ta4 Cd1 Hg3 O14'
_cell_volume   297.48445214
_cell_formula_units_Z   1
loop_
 _symmetry_equiv_pos_site_id
 _symmetry_equiv_pos_as_xyz
  1  'x, y, z'
loop_
 _atom_site_type_symbol
 _atom_site_label
 _atom_site_symmetry_multiplicity
 _atom_site_fract_x
 _atom_site_fract_y
 _atom_site_fract_z
 _atom_site_occupancy
  Ta  Ta0  1  0.625000  0.625000  0.625000  1
  Ta  Ta1  1  0.125000  0.625000  0.625000  1
  Ta  Ta2  1  0.625000  0.625000  0.125000  1
  Ta  Ta3  1  0.625000  0.125000  0.625000  1
  Cd  Cd4  1  0.125000  0.125000  0.625000  1
  Hg  Hg5  1  0.125000  0.125000  0.125000  1
  Hg  Hg6  1  0.625000  0.125000  0.125000  1
  Hg  Hg7  1  0.125000  0.625000  0.125000  1
  O  O8  1  0.562034  0.562034  0.937153  1
  O  O9  1  0.309633  0.309633  0.686898  1
  O  O10  1  0.938779  0.562034  0.937153  1
  O  O11  1  0.940367  0.556165  0.563102  1
  O  O12  1  0.562034  0.938779  0.937153  1
  O  O13  1  0.556165  0.940367  0.563102  1
  O  O14  1  0.311221  0.687966  0.312847  1
  O  O15  1  0.693835  0.309633  0.686898  1
  O  O16  1  0.250335  0.250335  0.248995  1
  O  O17  1  0.999665  0.999665  0.001005  1
  O  O18  1  0.940367  0.940367  0.563102  1
  O  O19  1  0.687966  0.311221  0.312847  1
  O  O20  1  0.309633  0.693835  0.686898  1
  O  O21  1  0.687966  0.687966  0.312847  1
