# generated using pymatgen
data_Tb11DyFe2I17
_symmetry_space_group_name_H-M   'P 1'
_cell_length_a   9.72384684
_cell_length_b   11.67626596
_cell_length_c   11.70039324
_cell_angle_alpha   93.56352765
_cell_angle_beta   104.79106333
_cell_angle_gamma   114.09996211
_symmetry_Int_Tables_number   1
_chemical_formula_structural   Tb11DyFe2I17
_chemical_formula_sum   'Tb11 Dy1 Fe2 I17'
_cell_volume   1151.43746666
_cell_formula_units_Z   1
loop_
 _symmetry_equiv_pos_site_id
 _symmetry_equiv_pos_as_xyz
  1  'x, y, z'
loop_
 _atom_site_type_symbol
 _atom_site_label
 _atom_site_symmetry_multiplicity
 _atom_site_fract_x
 _atom_site_fract_y
 _atom_site_fract_z
 _atom_site_occupancy
  Tb  Tb0  1  0.053288  0.503926  0.320035  1
  Tb  Tb1  1  0.990727  0.808278  0.588025  1
  Tb  Tb2  1  0.655808  0.241465  0.280710  1
  Tb  Tb3  1  0.009691  0.191420  0.412910  1
  Tb  Tb4  1  0.219218  0.671772  0.983468  1
  Tb  Tb5  1  0.254094  0.978324  0.888911  1
  Tb  Tb6  1  0.345728  0.758644  0.718924  1
  Tb  Tb7  1  0.947107  0.496900  0.680217  1
  Tb  Tb8  1  0.744711  0.020829  0.110845  1
  Tb  Tb9  1  0.142038  0.286971  0.153556  1
  Tb  Tb10  1  0.780327  0.328569  0.015773  1
  Dy  Dy11  1  0.857613  0.712779  0.846104  1
  Fe  Fe12  1  0.103363  0.737813  0.785872  1
  Fe  Fe13  1  0.896711  0.261935  0.214217  1
  I  I14  1  0.782517  0.528011  0.416979  1
  I  I15  1  0.642672  0.419306  0.761761  1
  I  I16  1  0.844386  0.895787  0.326997  1
  I  I17  1  0.329326  0.214146  0.369318  1
  I  I18  1  0.156587  0.104362  0.672719  1
  I  I19  1  0.585970  0.052889  0.842295  1
  I  I20  1  0.758569  0.187658  0.539234  1
  I  I21  1  0.552175  0.710696  0.954710  1
  I  I22  1  0.357360  0.581397  0.238784  1
  I  I23  1  0.217414  0.471683  0.582889  1
  I  I24  1  0.057215  0.367546  0.896764  1
  I  I25  1  0.448131  0.289241  0.045262  1
  I  I26  1  0.999220  0.999736  0.999710  1
  I  I27  1  0.241131  0.812018  0.460530  1
  I  I28  1  0.413717  0.947521  0.158003  1
  I  I29  1  0.670927  0.785865  0.631459  1
  I  I30  1  0.942259  0.632516  0.103021  1
