# generated using pymatgen
data_Cs2HgBr2(NO6)2
_symmetry_space_group_name_H-M   'P 1'
_cell_length_a   5.89779500
_cell_length_b   7.76432200
_cell_length_c   15.81241900
_cell_angle_alpha   90.00000000
_cell_angle_beta   90.00000000
_cell_angle_gamma   90.00000000
_symmetry_Int_Tables_number   1
_chemical_formula_structural   Cs2HgBr2(NO6)2
_chemical_formula_sum   'Cs4 Hg2 Br4 N4 O24'
_cell_volume   724.08829119
_cell_formula_units_Z   2
loop_
 _symmetry_equiv_pos_site_id
 _symmetry_equiv_pos_as_xyz
  1  'x, y, z'
loop_
 _atom_site_type_symbol
 _atom_site_label
 _atom_site_symmetry_multiplicity
 _atom_site_fract_x
 _atom_site_fract_y
 _atom_site_fract_z
 _atom_site_occupancy
  Cs  Cs0  1  0.000000  0.758635  0.721756  1
  Cs  Cs1  1  0.000000  0.241365  0.278244  1
  Cs  Cs2  1  0.500000  0.258635  0.778244  1
  Cs  Cs3  1  0.500000  0.741365  0.221756  1
  Hg  Hg4  1  0.000000  0.000000  0.000000  1
  Hg  Hg5  1  0.500000  0.500000  0.500000  1
  Br  Br6  1  0.000000  0.720005  0.393967  1
  Br  Br7  1  0.500000  0.779995  0.893967  1
  Br  Br8  1  0.000000  0.279995  0.606033  1
  Br  Br9  1  0.500000  0.220005  0.106033  1
  N  N10  1  0.000000  0.351492  0.921632  1
  N  N11  1  0.500000  0.148508  0.421632  1
  N  N12  1  0.500000  0.851492  0.578368  1
  N  N13  1  0.000000  0.648508  0.078368  1
  O  O14  1  0.686252  0.775729  0.559383  1
  O  O15  1  0.500000  0.006364  0.384534  1
  O  O16  1  0.226068  0.584418  0.385929  1
  O  O17  1  0.186252  0.724271  0.059383  1
  O  O18  1  0.273932  0.915582  0.885929  1
  O  O19  1  0.726068  0.915582  0.885929  1
  O  O20  1  0.000000  0.825519  0.301689  1
  O  O21  1  0.686252  0.224271  0.440617  1
  O  O22  1  0.313748  0.224271  0.440617  1
  O  O23  1  0.813748  0.275729  0.940617  1
  O  O24  1  0.500000  0.993636  0.615466  1
  O  O25  1  0.186252  0.275729  0.940617  1
  O  O26  1  0.000000  0.493636  0.884534  1
  O  O27  1  0.773932  0.415582  0.614071  1
  O  O28  1  0.273932  0.084418  0.114071  1
  O  O29  1  0.813748  0.724271  0.059383  1
  O  O30  1  0.226068  0.415582  0.614071  1
  O  O31  1  0.726068  0.084418  0.114071  1
  O  O32  1  0.000000  0.174481  0.698311  1
  O  O33  1  0.500000  0.325519  0.198311  1
  O  O34  1  0.000000  0.506364  0.115466  1
  O  O35  1  0.500000  0.674481  0.801689  1
  O  O36  1  0.773932  0.584418  0.385929  1
  O  O37  1  0.313748  0.775729  0.559383  1
