# generated using pymatgen
data_Pr5Dy12Tm3Pb16
_symmetry_space_group_name_H-M   'P 1'
_cell_length_a   8.26068348
_cell_length_b   8.37319180
_cell_length_c   15.78243300
_cell_angle_alpha   90.04633921
_cell_angle_beta   89.49373067
_cell_angle_gamma   89.61949167
_symmetry_Int_Tables_number   1
_chemical_formula_structural   Pr5Dy12Tm3Pb16
_chemical_formula_sum   'Pr5 Dy12 Tm3 Pb16'
_cell_volume   1091.57675936
_cell_formula_units_Z   1
loop_
 _symmetry_equiv_pos_site_id
 _symmetry_equiv_pos_as_xyz
  1  'x, y, z'
loop_
 _atom_site_type_symbol
 _atom_site_label
 _atom_site_symmetry_multiplicity
 _atom_site_fract_x
 _atom_site_fract_y
 _atom_site_fract_z
 _atom_site_occupancy
  Pr  Pr0  1  0.026444  0.179789  0.401835  1
  Pr  Pr1  1  0.524438  0.324349  0.404144  1
  Pr  Pr2  1  0.027986  0.176998  0.097519  1
  Pr  Pr3  1  0.473113  0.676184  0.902966  1
  Pr  Pr4  1  0.976168  0.821451  0.597097  1
  Dy  Dy5  1  0.633368  0.158926  0.623198  1
  Dy  Dy6  1  0.131006  0.341478  0.879002  1
  Dy  Dy7  1  0.371441  0.841338  0.121454  1
  Dy  Dy8  1  0.867864  0.658615  0.378292  1
  Dy  Dy9  1  0.369873  0.841699  0.376657  1
  Dy  Dy10  1  0.872882  0.658492  0.119887  1
  Dy  Dy11  1  0.625733  0.157230  0.877772  1
  Dy  Dy12  1  0.131902  0.342470  0.622708  1
  Dy  Dy13  1  0.468307  0.676241  0.600525  1
  Dy  Dy14  1  0.964139  0.824919  0.897863  1
  Dy  Dy15  1  0.535526  0.325361  0.100193  1
  Dy  Dy16  1  0.796652  0.496175  0.751014  1
  Tm  Tm17  1  0.296110  0.004314  0.750266  1
  Tm  Tm18  1  0.204312  0.504451  0.249483  1
  Tm  Tm19  1  0.703710  0.994606  0.248124  1
  Pb  Pb20  1  0.705750  0.961254  0.455926  1
  Pb  Pb21  1  0.216895  0.532000  0.045762  1
  Pb  Pb22  1  0.283346  0.030539  0.954219  1
  Pb  Pb23  1  0.787195  0.464796  0.545118  1
  Pb  Pb24  1  0.297116  0.038612  0.543809  1
  Pb  Pb25  1  0.790952  0.457419  0.958206  1
  Pb  Pb26  1  0.709874  0.961100  0.041272  1
  Pb  Pb27  1  0.208609  0.545994  0.459200  1
  Pb  Pb28  1  0.433634  0.373177  0.749988  1
  Pb  Pb29  1  0.935377  0.127991  0.750937  1
  Pb  Pb30  1  0.566368  0.627577  0.248942  1
  Pb  Pb31  1  0.065196  0.870591  0.249859  1
  Pb  Pb32  1  0.658421  0.847344  0.747701  1
  Pb  Pb33  1  0.159691  0.652516  0.751976  1
  Pb  Pb34  1  0.344045  0.153338  0.247563  1
  Pb  Pb35  1  0.836554  0.350661  0.249519  1
