# generated using pymatgen
data_KTb2TmSe5
_symmetry_space_group_name_H-M   'P 1'
_cell_length_a   4.09659100
_cell_length_b   12.49970100
_cell_length_c   21.80659700
_cell_angle_alpha   90.00000000
_cell_angle_beta   90.00000000
_cell_angle_gamma   90.00000000
_symmetry_Int_Tables_number   1
_chemical_formula_structural   KTb2TmSe5
_chemical_formula_sum   'K4 Tb8 Tm4 Se20'
_cell_volume   1116.63215216
_cell_formula_units_Z   4
loop_
 _symmetry_equiv_pos_site_id
 _symmetry_equiv_pos_as_xyz
  1  'x, y, z'
loop_
 _atom_site_type_symbol
 _atom_site_label
 _atom_site_symmetry_multiplicity
 _atom_site_fract_x
 _atom_site_fract_y
 _atom_site_fract_z
 _atom_site_occupancy
  K  K0  1  0.250000  0.823015  0.107566  1
  K  K1  1  0.750000  0.176985  0.892434  1
  K  K2  1  0.750000  0.323015  0.392434  1
  K  K3  1  0.250000  0.676985  0.607566  1
  Tb  Tb4  1  0.750000  0.819214  0.836670  1
  Tb  Tb5  1  0.250000  0.180786  0.163330  1
  Tb  Tb6  1  0.250000  0.319214  0.663330  1
  Tb  Tb7  1  0.750000  0.680786  0.336670  1
  Tb  Tb8  1  0.250000  0.979342  0.703569  1
  Tb  Tb9  1  0.750000  0.020658  0.296431  1
  Tb  Tb10  1  0.750000  0.479342  0.796431  1
  Tb  Tb11  1  0.250000  0.520658  0.203569  1
  Tm  Tm12  1  0.750000  0.387379  0.049907  1
  Tm  Tm13  1  0.250000  0.612621  0.950093  1
  Tm  Tm14  1  0.250000  0.887379  0.450093  1
  Tm  Tm15  1  0.750000  0.112621  0.549907  1
  Se  Se16  1  0.250000  0.956216  0.571796  1
  Se  Se17  1  0.750000  0.043784  0.428204  1
  Se  Se18  1  0.750000  0.456216  0.928204  1
  Se  Se19  1  0.250000  0.543784  0.071796  1
  Se  Se20  1  0.750000  0.765469  0.963882  1
  Se  Se21  1  0.250000  0.234531  0.036118  1
  Se  Se22  1  0.250000  0.265469  0.536118  1
  Se  Se23  1  0.750000  0.734531  0.463882  1
  Se  Se24  1  0.250000  0.976512  0.836178  1
  Se  Se25  1  0.750000  0.023488  0.163822  1
  Se  Se26  1  0.750000  0.476512  0.663822  1
  Se  Se27  1  0.250000  0.523488  0.336178  1
  Se  Se28  1  0.750000  0.147300  0.681104  1
  Se  Se29  1  0.250000  0.852700  0.318896  1
  Se  Se30  1  0.250000  0.647300  0.818896  1
  Se  Se31  1  0.750000  0.352700  0.181104  1
  Se  Se32  1  0.750000  0.674664  0.204925  1
  Se  Se33  1  0.250000  0.325336  0.795075  1
  Se  Se34  1  0.250000  0.174664  0.295075  1
  Se  Se35  1  0.750000  0.825336  0.704925  1
