# generated using pymatgen
data_ErTm2Al3Ga2Ag
_symmetry_space_group_name_H-M   'P 1'
_cell_length_a   6.94148452
_cell_length_b   6.93331528
_cell_length_c   4.34544000
_cell_angle_alpha   90.00000000
_cell_angle_beta   90.00000000
_cell_angle_gamma   119.96109166
_symmetry_Int_Tables_number   1
_chemical_formula_structural   ErTm2Al3Ga2Ag
_chemical_formula_sum   'Er1 Tm2 Al3 Ga2 Ag1'
_cell_volume   181.18733494
_cell_formula_units_Z   1
loop_
 _symmetry_equiv_pos_site_id
 _symmetry_equiv_pos_as_xyz
  1  'x, y, z'
loop_
 _atom_site_type_symbol
 _atom_site_label
 _atom_site_symmetry_multiplicity
 _atom_site_fract_x
 _atom_site_fract_y
 _atom_site_fract_z
 _atom_site_occupancy
  Er  Er0  1  0.000000  0.576914  0.500000  1
  Tm  Tm1  1  0.423078  0.422837  0.500000  1
  Tm  Tm2  1  0.576922  0.999759  0.500000  1
  Al  Al3  1  0.755884  0.755636  0.000000  1
  Al  Al4  1  0.244116  0.999752  0.000000  1
  Al  Al5  1  0.000000  0.244160  0.000000  1
  Ga  Ga6  1  0.665394  0.332405  0.000000  1
  Ga  Ga7  1  0.334606  0.667012  0.000000  1
  Ag  Ag8  1  0.000000  0.001523  0.500000  1
