# generated using pymatgen
data_Tm2UCo7(NiP3)2
_symmetry_space_group_name_H-M   'P 1'
_cell_length_a   3.70028200
_cell_length_b   10.46509800
_cell_length_c   12.06750900
_cell_angle_alpha   90.00000000
_cell_angle_beta   90.00000000
_cell_angle_gamma   90.00000000
_symmetry_Int_Tables_number   1
_chemical_formula_structural   Tm2UCo7(NiP3)2
_chemical_formula_sum   'Tm4 U2 Co14 Ni4 P12'
_cell_volume   467.29997103
_cell_formula_units_Z   2
loop_
 _symmetry_equiv_pos_site_id
 _symmetry_equiv_pos_as_xyz
  1  'x, y, z'
loop_
 _atom_site_type_symbol
 _atom_site_label
 _atom_site_symmetry_multiplicity
 _atom_site_fract_x
 _atom_site_fract_y
 _atom_site_fract_z
 _atom_site_occupancy
  Tm  Tm0  1  0.251788  0.684821  0.794640  1
  Tm  Tm1  1  0.251788  0.315179  0.794640  1
  Tm  Tm2  1  0.751788  0.815179  0.205360  1
  Tm  Tm3  1  0.751788  0.184821  0.205360  1
  U  U4  1  0.751658  0.000000  0.476505  1
  U  U5  1  0.251658  0.500000  0.523495  1
  Co  Co6  1  0.751952  0.000000  0.016158  1
  Co  Co7  1  0.251952  0.500000  0.983842  1
  Co  Co8  1  0.251830  0.199973  0.567327  1
  Co  Co9  1  0.251830  0.800027  0.567327  1
  Co  Co10  1  0.751830  0.300027  0.432673  1
  Co  Co11  1  0.751830  0.699973  0.432673  1
  Co  Co12  1  0.251944  0.622804  0.290423  1
  Co  Co13  1  0.251944  0.377196  0.290423  1
  Co  Co14  1  0.751944  0.877196  0.709577  1
  Co  Co15  1  0.751944  0.122804  0.709577  1
  Co  Co16  1  0.252023  0.165583  0.005541  1
  Co  Co17  1  0.252023  0.834417  0.005541  1
  Co  Co18  1  0.752023  0.334417  0.994459  1
  Co  Co19  1  0.752023  0.665583  0.994459  1
  Ni  Ni20  1  0.252896  0.000000  0.841400  1
  Ni  Ni21  1  0.752896  0.500000  0.158600  1
  Ni  Ni22  1  0.249828  0.000000  0.302005  1
  Ni  Ni23  1  0.749828  0.500000  0.697995  1
  P  P24  1  0.251765  0.191354  0.383138  1
  P  P25  1  0.251765  0.808646  0.383138  1
  P  P26  1  0.751765  0.308646  0.616862  1
  P  P27  1  0.751765  0.691354  0.616862  1
  P  P28  1  0.251792  0.000000  0.120781  1
  P  P29  1  0.751792  0.500000  0.879219  1
  P  P30  1  0.252034  0.653897  0.105500  1
  P  P31  1  0.252034  0.346103  0.105500  1
  P  P32  1  0.752034  0.846103  0.894500  1
  P  P33  1  0.752034  0.153897  0.894500  1
  P  P34  1  0.251908  0.000000  0.656580  1
  P  P35  1  0.751908  0.500000  0.343420  1
