# generated using pymatgen
data_Tb2YAl12RuRh3
_symmetry_space_group_name_H-M   'P 1'
_cell_length_a   8.85076400
_cell_length_b   8.84874930
_cell_length_c   9.51351700
_cell_angle_alpha   90.00000000
_cell_angle_beta   90.00000000
_cell_angle_gamma   120.00753195
_symmetry_Int_Tables_number   1
_chemical_formula_structural   Tb2YAl12RuRh3
_chemical_formula_sum   'Tb4 Y2 Al24 Ru2 Rh6'
_cell_volume   645.21048337
_cell_formula_units_Z   2
loop_
 _symmetry_equiv_pos_site_id
 _symmetry_equiv_pos_as_xyz
  1  'x, y, z'
loop_
 _atom_site_type_symbol
 _atom_site_label
 _atom_site_symmetry_multiplicity
 _atom_site_fract_x
 _atom_site_fract_y
 _atom_site_fract_z
 _atom_site_occupancy
  Tb  Tb0  1  0.808717  0.617433  0.250000  1
  Tb  Tb1  1  0.617759  0.808841  0.750000  1
  Tb  Tb2  1  0.191080  0.808841  0.750000  1
  Tb  Tb3  1  0.191102  0.382206  0.750000  1
  Y  Y4  1  0.382816  0.191424  0.250000  1
  Y  Y5  1  0.808609  0.191424  0.250000  1
  Al  Al6  1  0.438154  0.876309  0.250000  1
  Al  Al7  1  0.123758  0.561835  0.250000  1
  Al  Al8  1  0.438077  0.561835  0.250000  1
  Al  Al9  1  0.561972  0.123945  0.750000  1
  Al  Al10  1  0.876083  0.438075  0.750000  1
  Al  Al11  1  0.561993  0.438075  0.750000  1
  Al  Al12  1  0.163117  0.836880  0.424203  1
  Al  Al13  1  0.163121  0.326243  0.424236  1
  Al  Al14  1  0.673762  0.836880  0.424203  1
  Al  Al15  1  0.836892  0.163130  0.575853  1
  Al  Al16  1  0.836867  0.673732  0.575877  1
  Al  Al17  1  0.326241  0.163130  0.575853  1
  Al  Al18  1  0.836892  0.163130  0.924147  1
  Al  Al19  1  0.836867  0.673732  0.924123  1
  Al  Al20  1  0.326241  0.163130  0.924147  1
  Al  Al21  1  0.163117  0.836880  0.075797  1
  Al  Al22  1  0.163121  0.326243  0.075764  1
  Al  Al23  1  0.673762  0.836880  0.075797  1
  Al  Al24  1  0.333311  0.666623  0.529754  1
  Al  Al25  1  0.666635  0.333270  0.470158  1
  Al  Al26  1  0.666635  0.333270  0.029842  1
  Al  Al27  1  0.333311  0.666623  0.970246  1
  Al  Al28  1  0.999930  0.999860  0.250000  1
  Al  Al29  1  0.999995  0.999991  0.750000  1
  Ru  Ru30  1  0.000050  0.000100  0.499546  1
  Ru  Ru31  1  0.000050  0.000100  0.000454  1
  Rh  Rh32  1  0.499997  0.999994  0.499949  1
  Rh  Rh33  1  0.000050  0.499985  0.499942  1
  Rh  Rh34  1  0.499935  0.499985  0.499942  1
  Rh  Rh35  1  0.499997  0.999994  0.000051  1
  Rh  Rh36  1  0.000050  0.499985  0.000058  1
  Rh  Rh37  1  0.499935  0.499985  0.000058  1
