# generated using pymatgen
data_Ce4Tm4B24Mo3Os
_symmetry_space_group_name_H-M   'P 1'
_cell_length_a   3.71528200
_cell_length_b   9.21615009
_cell_length_c   11.62130537
_cell_angle_alpha   89.94428371
_cell_angle_beta   90.00000000
_cell_angle_gamma   90.00000000
_symmetry_Int_Tables_number   1
_chemical_formula_structural   Ce4Tm4B24Mo3Os
_chemical_formula_sum   'Ce4 Tm4 B24 Mo3 Os1'
_cell_volume   397.92024038
_cell_formula_units_Z   1
loop_
 _symmetry_equiv_pos_site_id
 _symmetry_equiv_pos_as_xyz
  1  'x, y, z'
loop_
 _atom_site_type_symbol
 _atom_site_label
 _atom_site_symmetry_multiplicity
 _atom_site_fract_x
 _atom_site_fract_y
 _atom_site_fract_z
 _atom_site_occupancy
  Ce  Ce0  1  0.000000  0.321549  0.413721  1
  Ce  Ce1  1  0.000000  0.676587  0.584143  1
  Ce  Ce2  1  0.000000  0.821945  0.087447  1
  Ce  Ce3  1  0.000000  0.179659  0.915073  1
  Tm  Tm4  1  0.000000  0.944375  0.373006  1
  Tm  Tm5  1  0.000000  0.056004  0.627850  1
  Tm  Tm6  1  0.000000  0.445254  0.127350  1
  Tm  Tm7  1  0.000000  0.555900  0.871971  1
  B  B8  1  0.500000  0.553557  0.432742  1
  B  B9  1  0.500000  0.446487  0.567544  1
  B  B10  1  0.500000  0.053252  0.066443  1
  B  B11  1  0.500000  0.944334  0.931011  1
  B  B12  1  0.500000  0.750906  0.419579  1
  B  B13  1  0.500000  0.248707  0.581235  1
  B  B14  1  0.500000  0.251497  0.080457  1
  B  B15  1  0.500000  0.750282  0.917607  1
  B  B16  1  0.500000  0.794069  0.265226  1
  B  B17  1  0.500000  0.205595  0.735519  1
  B  B18  1  0.500000  0.293554  0.234667  1
  B  B19  1  0.500000  0.708500  0.765882  1
  B  B20  1  0.500000  0.631774  0.184068  1
  B  B21  1  0.500000  0.368901  0.816388  1
  B  B22  1  0.500000  0.130587  0.315353  1
  B  B23  1  0.500000  0.868979  0.685547  1
  B  B24  1  0.500000  0.981032  0.213205  1
  B  B25  1  0.500000  0.015375  0.787062  1
  B  B26  1  0.500000  0.481532  0.286098  1
  B  B27  1  0.500000  0.518870  0.713736  1
  B  B28  1  0.500000  0.604132  0.027431  1
  B  B29  1  0.500000  0.398071  0.971416  1
  B  B30  1  0.500000  0.102337  0.472140  1
  B  B31  1  0.500000  0.897383  0.529532  1
  Mo  Mo32  1  0.000000  0.639728  0.320318  1
  Mo  Mo33  1  0.000000  0.360244  0.680798  1
  Mo  Mo34  1  0.000000  0.138653  0.178505  1
  Os  Os35  1  0.000000  0.860385  0.819932  1
