# generated using pymatgen
data_La2Y10Tc3Pd
_symmetry_space_group_name_H-M   'P 1'
_cell_length_a   6.47605043
_cell_length_b   7.41000954
_cell_length_c   9.39903300
_cell_angle_alpha   90.00000000
_cell_angle_beta   90.00000000
_cell_angle_gamma   89.76262165
_symmetry_Int_Tables_number   1
_chemical_formula_structural   La2Y10Tc3Pd
_chemical_formula_sum   'La2 Y10 Tc3 Pd1'
_cell_volume   451.03312300
_cell_formula_units_Z   1
loop_
 _symmetry_equiv_pos_site_id
 _symmetry_equiv_pos_as_xyz
  1  'x, y, z'
loop_
 _atom_site_type_symbol
 _atom_site_label
 _atom_site_symmetry_multiplicity
 _atom_site_fract_x
 _atom_site_fract_y
 _atom_site_fract_z
 _atom_site_occupancy
  La  La0  1  0.623662  0.057197  0.250000  1
  La  La1  1  0.366546  0.948161  0.750000  1
  Y  Y2  1  0.125212  0.459840  0.750000  1
  Y  Y3  1  0.869704  0.535978  0.250000  1
  Y  Y4  1  0.161162  0.186973  0.057987  1
  Y  Y5  1  0.833019  0.821372  0.930842  1
  Y  Y6  1  0.667323  0.325579  0.932342  1
  Y  Y7  1  0.833019  0.821372  0.569158  1
  Y  Y8  1  0.338051  0.667103  0.061743  1
  Y  Y9  1  0.161162  0.186973  0.442013  1
  Y  Y10  1  0.338051  0.667103  0.438257  1
  Y  Y11  1  0.667323  0.325579  0.567658  1
  Tc  Tc12  1  0.463132  0.374447  0.250000  1
  Tc  Tc13  1  0.529412  0.623755  0.750000  1
  Tc  Tc14  1  0.969973  0.114086  0.750000  1
  Pd  Pd15  1  0.053249  0.884481  0.250000  1
