# generated using pymatgen
data_Pr3Nd2Ga2Sn
_symmetry_space_group_name_H-M   'P 1'
_cell_length_a   9.17500895
_cell_length_b   9.17500866
_cell_length_c   9.15527278
_cell_angle_alpha   126.95768946
_cell_angle_beta   126.95769795
_cell_angle_gamma   78.47100302
_symmetry_Int_Tables_number   1
_chemical_formula_structural   Pr3Nd2Ga2Sn
_chemical_formula_sum   'Pr6 Nd4 Ga4 Sn2'
_cell_volume   476.09014550
_cell_formula_units_Z   2
loop_
 _symmetry_equiv_pos_site_id
 _symmetry_equiv_pos_as_xyz
  1  'x, y, z'
loop_
 _atom_site_type_symbol
 _atom_site_label
 _atom_site_symmetry_multiplicity
 _atom_site_fract_x
 _atom_site_fract_y
 _atom_site_fract_z
 _atom_site_occupancy
  Pr  Pr0  1  0.523386  0.023386  0.839124  1
  Pr  Pr1  1  0.184261  0.684261  0.160876  1
  Pr  Pr2  1  0.024394  0.184514  0.500000  1
  Pr  Pr3  1  0.684514  0.524394  0.500000  1
  Pr  Pr4  1  0.474766  0.974766  0.158226  1
  Pr  Pr5  1  0.816542  0.316542  0.841774  1
  Nd  Nd6  1  0.500230  0.500230  0.000000  1
  Nd  Nd7  1  0.000230  0.000230  0.000000  1
  Nd  Nd8  1  0.975545  0.814237  0.500000  1
  Nd  Nd9  1  0.314237  0.475545  0.500000  1
  Ga  Ga10  1  0.880106  0.380106  0.257885  1
  Ga  Ga11  1  0.122220  0.622220  0.742115  1
  Ga  Ga12  1  0.378029  0.122836  0.500000  1
  Ga  Ga13  1  0.622836  0.878029  0.500000  1
  Sn  Sn14  1  0.249352  0.249352  0.000000  1
  Sn  Sn15  1  0.749352  0.749352  0.000000  1
