# generated using pymatgen
data_Ti3Mn7NbSi
_symmetry_space_group_name_H-M   'P 1'
_cell_length_a   4.76788100
_cell_length_b   4.76787946
_cell_length_c   7.82412100
_cell_angle_alpha   90.00000000
_cell_angle_beta   90.00000000
_cell_angle_gamma   120.00001763
_symmetry_Int_Tables_number   1
_chemical_formula_structural   Ti3Mn7NbSi
_chemical_formula_sum   'Ti3 Mn7 Nb1 Si1'
_cell_volume   154.03406874
_cell_formula_units_Z   1
loop_
 _symmetry_equiv_pos_site_id
 _symmetry_equiv_pos_as_xyz
  1  'x, y, z'
loop_
 _atom_site_type_symbol
 _atom_site_label
 _atom_site_symmetry_multiplicity
 _atom_site_fract_x
 _atom_site_fract_y
 _atom_site_fract_z
 _atom_site_occupancy
  Ti  Ti0  1  0.333333  0.666667  0.442178  1
  Ti  Ti1  1  0.666667  0.333333  0.930223  1
  Ti  Ti2  1  0.666667  0.333333  0.560855  1
  Mn  Mn3  1  0.171848  0.343695  0.746950  1
  Mn  Mn4  1  0.827829  0.172171  0.252762  1
  Mn  Mn5  1  0.344341  0.172171  0.252762  1
  Mn  Mn6  1  0.656305  0.828152  0.746950  1
  Mn  Mn7  1  0.000000  0.000000  0.499140  1
  Mn  Mn8  1  0.827829  0.655659  0.252762  1
  Mn  Mn9  1  0.171848  0.828152  0.746950  1
  Nb  Nb10  1  0.333333  0.666667  0.069412  1
  Si  Si11  1  0.000000  0.000000  0.999056  1
