# generated using pymatgen
data_La4ZnNi3Hg2
_symmetry_space_group_name_H-M   'P 1'
_cell_length_a   3.84383700
_cell_length_b   7.58749098
_cell_length_c   16.00344381
_cell_angle_alpha   90.76635359
_cell_angle_beta   90.00000000
_cell_angle_gamma   90.00000000
_symmetry_Int_Tables_number   1
_chemical_formula_structural   La4ZnNi3Hg2
_chemical_formula_sum   'La8 Zn2 Ni6 Hg4'
_cell_volume   466.69994670
_cell_formula_units_Z   2
loop_
 _symmetry_equiv_pos_site_id
 _symmetry_equiv_pos_as_xyz
  1  'x, y, z'
loop_
 _atom_site_type_symbol
 _atom_site_label
 _atom_site_symmetry_multiplicity
 _atom_site_fract_x
 _atom_site_fract_y
 _atom_site_fract_z
 _atom_site_occupancy
  La  La0  1  0.000000  0.590785  0.231909  1
  La  La1  1  0.000000  0.409215  0.768091  1
  La  La2  1  0.000000  0.098226  0.286928  1
  La  La3  1  0.000000  0.901774  0.713072  1
  La  La4  1  0.000000  0.778111  0.953859  1
  La  La5  1  0.000000  0.221889  0.046141  1
  La  La6  1  0.000000  0.245868  0.535838  1
  La  La7  1  0.000000  0.754132  0.464162  1
  Zn  Zn8  1  0.500000  0.549418  0.076599  1
  Zn  Zn9  1  0.500000  0.450582  0.923401  1
  Ni  Ni10  1  0.500000  0.048274  0.426398  1
  Ni  Ni11  1  0.500000  0.951726  0.573602  1
  Ni  Ni12  1  0.500000  0.299847  0.178533  1
  Ni  Ni13  1  0.500000  0.700153  0.821467  1
  Ni  Ni14  1  0.500000  0.805383  0.318801  1
  Ni  Ni15  1  0.500000  0.194617  0.681199  1
  Hg  Hg16  1  0.500000  0.413089  0.378748  1
  Hg  Hg17  1  0.500000  0.586911  0.621252  1
  Hg  Hg18  1  0.500000  0.906764  0.135583  1
  Hg  Hg19  1  0.500000  0.093236  0.864417  1
