# generated using pymatgen
data_V12Si3Ni
_symmetry_space_group_name_H-M   'P 1'
_cell_length_a   4.70738000
_cell_length_b   4.68673000
_cell_length_c   9.41726500
_cell_angle_alpha   90.00000000
_cell_angle_beta   90.00000000
_cell_angle_gamma   90.00000000
_symmetry_Int_Tables_number   1
_chemical_formula_structural   V12Si3Ni
_chemical_formula_sum   'V12 Si3 Ni1'
_cell_volume   207.76576345
_cell_formula_units_Z   1
loop_
 _symmetry_equiv_pos_site_id
 _symmetry_equiv_pos_as_xyz
  1  'x, y, z'
loop_
 _atom_site_type_symbol
 _atom_site_label
 _atom_site_symmetry_multiplicity
 _atom_site_fract_x
 _atom_site_fract_y
 _atom_site_fract_z
 _atom_site_occupancy
  V  V0  1  0.000000  0.500000  0.119078  1
  V  V1  1  0.000000  0.500000  0.630417  1
  V  V2  1  0.500000  0.248982  0.749894  1
  V  V3  1  0.500000  0.248982  0.250106  1
  V  V4  1  0.746581  0.000000  0.000000  1
  V  V5  1  0.753145  0.000000  0.500000  1
  V  V6  1  0.000000  0.500000  0.880922  1
  V  V7  1  0.000000  0.500000  0.369583  1
  V  V8  1  0.500000  0.751018  0.749894  1
  V  V9  1  0.500000  0.751018  0.250106  1
  V  V10  1  0.253419  0.000000  0.000000  1
  V  V11  1  0.246855  0.000000  0.500000  1
  Si  Si12  1  0.500000  0.500000  0.500000  1
  Si  Si13  1  0.000000  0.000000  0.748876  1
  Si  Si14  1  0.000000  0.000000  0.251124  1
  Ni  Ni15  1  0.500000  0.500000  0.000000  1
