# generated using pymatgen
data_Nd2Sc3Sn3Pb
_symmetry_space_group_name_H-M   'P 1'
_cell_length_a   7.95869100
_cell_length_b   8.06638100
_cell_length_c   15.23841000
_cell_angle_alpha   90.00000000
_cell_angle_beta   90.00000000
_cell_angle_gamma   90.00000000
_symmetry_Int_Tables_number   1
_chemical_formula_structural   Nd2Sc3Sn3Pb
_chemical_formula_sum   'Nd8 Sc12 Sn12 Pb4'
_cell_volume   978.27291358
_cell_formula_units_Z   4
loop_
 _symmetry_equiv_pos_site_id
 _symmetry_equiv_pos_as_xyz
  1  'x, y, z'
loop_
 _atom_site_type_symbol
 _atom_site_label
 _atom_site_symmetry_multiplicity
 _atom_site_fract_x
 _atom_site_fract_y
 _atom_site_fract_z
 _atom_site_occupancy
  Nd  Nd0  1  0.482473  0.675843  0.597648  1
  Nd  Nd1  1  0.982473  0.824157  0.902352  1
  Nd  Nd2  1  0.517527  0.324157  0.097648  1
  Nd  Nd3  1  0.017527  0.175843  0.402352  1
  Nd  Nd4  1  0.523729  0.322628  0.402497  1
  Nd  Nd5  1  0.023729  0.177372  0.097503  1
  Nd  Nd6  1  0.476271  0.677372  0.902497  1
  Nd  Nd7  1  0.976271  0.822628  0.597503  1
  Sc  Sc8  1  0.637483  0.162191  0.625274  1
  Sc  Sc9  1  0.137483  0.337809  0.874726  1
  Sc  Sc10  1  0.362517  0.837809  0.125274  1
  Sc  Sc11  1  0.862517  0.662191  0.374726  1
  Sc  Sc12  1  0.366718  0.839096  0.373438  1
  Sc  Sc13  1  0.866718  0.660904  0.126562  1
  Sc  Sc14  1  0.633282  0.160904  0.873438  1
  Sc  Sc15  1  0.133282  0.339096  0.626562  1
  Sc  Sc16  1  0.803103  0.492620  0.748222  1
  Sc  Sc17  1  0.303103  0.007380  0.751778  1
  Sc  Sc18  1  0.196897  0.507380  0.248222  1
  Sc  Sc19  1  0.696897  0.992620  0.251778  1
  Sn  Sn20  1  0.693900  0.954774  0.456422  1
  Sn  Sn21  1  0.193900  0.545226  0.043578  1
  Sn  Sn22  1  0.306100  0.045226  0.956422  1
  Sn  Sn23  1  0.806100  0.454774  0.543578  1
  Sn  Sn24  1  0.438713  0.366970  0.749771  1
  Sn  Sn25  1  0.938713  0.133030  0.750229  1
  Sn  Sn26  1  0.561287  0.633030  0.249771  1
  Sn  Sn27  1  0.061287  0.866970  0.250229  1
  Sn  Sn28  1  0.669733  0.859880  0.750444  1
  Sn  Sn29  1  0.169733  0.640120  0.749556  1
  Sn  Sn30  1  0.330267  0.140120  0.250444  1
  Sn  Sn31  1  0.830267  0.359880  0.249556  1
  Pb  Pb32  1  0.304031  0.044663  0.543851  1
  Pb  Pb33  1  0.804031  0.455337  0.956149  1
  Pb  Pb34  1  0.695969  0.955337  0.043851  1
  Pb  Pb35  1  0.195969  0.544663  0.456149  1
