# generated using pymatgen
data_U6Pa2AlSe17
_symmetry_space_group_name_H-M   'P 1'
_cell_length_a   8.19950040
_cell_length_b   8.19950004
_cell_length_c   10.94804900
_cell_angle_alpha   80.23766482
_cell_angle_beta   80.23765816
_cell_angle_gamma   65.15117731
_symmetry_Int_Tables_number   1
_chemical_formula_structural   U6Pa2AlSe17
_chemical_formula_sum   'U6 Pa2 Al1 Se17'
_cell_volume   654.25172079
_cell_formula_units_Z   1
loop_
 _symmetry_equiv_pos_site_id
 _symmetry_equiv_pos_as_xyz
  1  'x, y, z'
loop_
 _atom_site_type_symbol
 _atom_site_label
 _atom_site_symmetry_multiplicity
 _atom_site_fract_x
 _atom_site_fract_y
 _atom_site_fract_z
 _atom_site_occupancy
  U  U0  1  0.179738  0.694201  0.699914  1
  U  U1  1  0.694201  0.179738  0.699914  1
  U  U2  1  0.202315  0.202315  0.543841  1
  U  U3  1  0.797019  0.797019  0.458555  1
  U  U4  1  0.679430  0.679430  0.982102  1
  U  U5  1  0.321771  0.321771  0.014753  1
  Pa  Pa6  1  0.818194  0.306992  0.301412  1
  Pa  Pa7  1  0.306992  0.818194  0.301412  1
  Al  Al8  1  0.999777  0.999777  0.999270  1
  Se  Se9  1  0.820293  0.433750  0.535514  1
  Se  Se10  1  0.433750  0.820293  0.535514  1
  Se  Se11  1  0.182200  0.566057  0.460809  1
  Se  Se12  1  0.566057  0.182200  0.460809  1
  Se  Se13  1  0.945550  0.321421  0.033092  1
  Se  Se14  1  0.321421  0.945550  0.033092  1
  Se  Se15  1  0.053067  0.677921  0.971228  1
  Se  Se16  1  0.677921  0.053067  0.971228  1
  Se  Se17  1  0.214139  0.214139  0.277455  1
  Se  Se18  1  0.784303  0.784303  0.720400  1
  Se  Se19  1  0.055041  0.055041  0.772084  1
  Se  Se20  1  0.945113  0.945113  0.228178  1
  Se  Se21  1  0.298331  0.298331  0.755131  1
  Se  Se22  1  0.701134  0.701134  0.245394  1
  Se  Se23  1  0.520798  0.520798  0.828991  1
  Se  Se24  1  0.480407  0.480407  0.173061  1
  Se  Se25  1  0.001040  0.001040  0.496848  1
