# generated using pymatgen
data_LaYb(SiPt)4
_symmetry_space_group_name_H-M   'P 1'
_cell_length_a   4.27361600
_cell_length_b   4.27361600
_cell_length_c   9.88938300
_cell_angle_alpha   90.00000000
_cell_angle_beta   90.00000000
_cell_angle_gamma   90.00000000
_symmetry_Int_Tables_number   1
_chemical_formula_structural   LaYb(SiPt)4
_chemical_formula_sum   'La1 Yb1 Si4 Pt4'
_cell_volume   180.61765109
_cell_formula_units_Z   1
loop_
 _symmetry_equiv_pos_site_id
 _symmetry_equiv_pos_as_xyz
  1  'x, y, z'
loop_
 _atom_site_type_symbol
 _atom_site_label
 _atom_site_symmetry_multiplicity
 _atom_site_fract_x
 _atom_site_fract_y
 _atom_site_fract_z
 _atom_site_occupancy
  La  La0  1  0.500000  0.000000  0.743007  1
  Yb  Yb1  1  0.000000  0.500000  0.253054  1
  Si  Si2  1  0.000000  0.000000  0.495790  1
  Si  Si3  1  0.500000  0.500000  0.495790  1
  Si  Si4  1  0.000000  0.500000  0.873428  1
  Si  Si5  1  0.500000  0.000000  0.132548  1
  Pt  Pt6  1  0.000000  0.000000  0.004128  1
  Pt  Pt7  1  0.500000  0.500000  0.004128  1
  Pt  Pt8  1  0.000000  0.500000  0.622719  1
  Pt  Pt9  1  0.500000  0.000000  0.375408  1
