# generated using pymatgen
data_Ho3Sc5Re3B24Ru
_symmetry_space_group_name_H-M   'P 1'
_cell_length_a   3.55863600
_cell_length_b   8.96802010
_cell_length_c   11.33024724
_cell_angle_alpha   90.06016423
_cell_angle_beta   90.00000000
_cell_angle_gamma   90.00000000
_symmetry_Int_Tables_number   1
_chemical_formula_structural   Ho3Sc5Re3B24Ru
_chemical_formula_sum   'Ho3 Sc5 Re3 B24 Ru1'
_cell_volume   361.59239528
_cell_formula_units_Z   1
loop_
 _symmetry_equiv_pos_site_id
 _symmetry_equiv_pos_as_xyz
  1  'x, y, z'
loop_
 _atom_site_type_symbol
 _atom_site_label
 _atom_site_symmetry_multiplicity
 _atom_site_fract_x
 _atom_site_fract_y
 _atom_site_fract_z
 _atom_site_occupancy
  Ho  Ho0  1  0.000000  0.320283  0.414547  1
  Ho  Ho1  1  0.000000  0.679204  0.587328  1
  Ho  Ho2  1  0.000000  0.822294  0.084133  1
  Sc  Sc3  1  0.000000  0.178005  0.912538  1
  Sc  Sc4  1  0.000000  0.943709  0.370266  1
  Sc  Sc5  1  0.000000  0.055894  0.629637  1
  Sc  Sc6  1  0.000000  0.442850  0.127776  1
  Sc  Sc7  1  0.000000  0.555589  0.871795  1
  Re  Re8  1  0.000000  0.359277  0.682600  1
  Re  Re9  1  0.000000  0.140083  0.179843  1
  Re  Re10  1  0.000000  0.862523  0.819731  1
  B  B11  1  0.500000  0.554653  0.432753  1
  B  B12  1  0.500000  0.445808  0.567391  1
  B  B13  1  0.500000  0.054714  0.065102  1
  B  B14  1  0.500000  0.948283  0.933114  1
  B  B15  1  0.500000  0.753004  0.418318  1
  B  B16  1  0.500000  0.245242  0.581864  1
  B  B17  1  0.500000  0.253462  0.078587  1
  B  B18  1  0.500000  0.746892  0.918990  1
  B  B19  1  0.500000  0.793485  0.264671  1
  B  B20  1  0.500000  0.204878  0.737138  1
  B  B21  1  0.500000  0.294806  0.234599  1
  B  B22  1  0.500000  0.705856  0.765463  1
  B  B23  1  0.500000  0.628731  0.182962  1
  B  B24  1  0.500000  0.369857  0.818708  1
  B  B25  1  0.500000  0.128889  0.316834  1
  B  B26  1  0.500000  0.871889  0.683320  1
  B  B27  1  0.500000  0.980549  0.212863  1
  B  B28  1  0.500000  0.021218  0.787497  1
  B  B29  1  0.500000  0.481483  0.286197  1
  B  B30  1  0.500000  0.519242  0.714795  1
  B  B31  1  0.500000  0.596967  0.026847  1
  B  B32  1  0.500000  0.401705  0.973382  1
  B  B33  1  0.500000  0.095844  0.473572  1
  B  B34  1  0.500000  0.902911  0.526330  1
  Ru  Ru35  1  0.000000  0.639919  0.318509  1
