# generated using pymatgen
data_Zr4In2Co3Ni
_symmetry_space_group_name_H-M   'P 1'
_cell_length_a   7.29005028
_cell_length_b   7.29005028
_cell_length_c   3.30328200
_cell_angle_alpha   90.00000000
_cell_angle_beta   90.00000000
_cell_angle_gamma   90.37137534
_symmetry_Int_Tables_number   1
_chemical_formula_structural   Zr4In2Co3Ni
_chemical_formula_sum   'Zr4 In2 Co3 Ni1'
_cell_volume   175.54868303
_cell_formula_units_Z   1
loop_
 _symmetry_equiv_pos_site_id
 _symmetry_equiv_pos_as_xyz
  1  'x, y, z'
loop_
 _atom_site_type_symbol
 _atom_site_label
 _atom_site_symmetry_multiplicity
 _atom_site_fract_x
 _atom_site_fract_y
 _atom_site_fract_z
 _atom_site_occupancy
  Zr  Zr0  1  0.675972  0.164196  0.500000  1
  Zr  Zr1  1  0.161761  0.338239  0.500000  1
  Zr  Zr2  1  0.830042  0.669958  0.500000  1
  Zr  Zr3  1  0.335804  0.824028  0.500000  1
  In  In4  1  0.004872  0.999015  0.000000  1
  In  In5  1  0.500985  0.495128  0.000000  1
  Co  Co6  1  0.123974  0.627610  0.000000  1
  Co  Co7  1  0.621311  0.878689  0.000000  1
  Co  Co8  1  0.872390  0.376026  0.000000  1
  Ni  Ni9  1  0.372889  0.127111  0.000000  1
