# generated using pymatgen
data_Gd3Dy2Pb3Br
_symmetry_space_group_name_H-M   'P 1'
_cell_length_a   9.46241800
_cell_length_b   9.46241891
_cell_length_c   6.79452900
_cell_angle_alpha   90.00000000
_cell_angle_beta   90.00000000
_cell_angle_gamma   119.99998982
_symmetry_Int_Tables_number   1
_chemical_formula_structural   Gd3Dy2Pb3Br
_chemical_formula_sum   'Gd6 Dy4 Pb6 Br2'
_cell_volume   526.85891445
_cell_formula_units_Z   2
loop_
 _symmetry_equiv_pos_site_id
 _symmetry_equiv_pos_as_xyz
  1  'x, y, z'
loop_
 _atom_site_type_symbol
 _atom_site_label
 _atom_site_symmetry_multiplicity
 _atom_site_fract_x
 _atom_site_fract_y
 _atom_site_fract_z
 _atom_site_occupancy
  Gd  Gd0  1  0.267583  0.000000  0.250000  1
  Gd  Gd1  1  0.732417  0.000000  0.750000  1
  Gd  Gd2  1  0.000000  0.267583  0.250000  1
  Gd  Gd3  1  0.000000  0.732417  0.750000  1
  Gd  Gd4  1  0.732417  0.732417  0.250000  1
  Gd  Gd5  1  0.267583  0.267583  0.750000  1
  Dy  Dy6  1  0.333333  0.666667  0.000000  1
  Dy  Dy7  1  0.666667  0.333333  0.000000  1
  Dy  Dy8  1  0.666667  0.333333  0.500000  1
  Dy  Dy9  1  0.333333  0.666667  0.500000  1
  Pb  Pb10  1  0.610627  0.000000  0.250000  1
  Pb  Pb11  1  0.389373  0.000000  0.750000  1
  Pb  Pb12  1  0.000000  0.610627  0.250000  1
  Pb  Pb13  1  0.000000  0.389373  0.750000  1
  Pb  Pb14  1  0.389373  0.389373  0.250000  1
  Pb  Pb15  1  0.610627  0.610627  0.750000  1
  Br  Br16  1  0.000000  0.000000  0.000000  1
  Br  Br17  1  0.000000  0.000000  0.500000  1
