# generated using pymatgen
data_Y16Lu4Rh11Au
_symmetry_space_group_name_H-M   'P 1'
_cell_length_a   10.95217218
_cell_length_b   10.95217193
_cell_length_c   6.35166600
_cell_angle_alpha   89.98955279
_cell_angle_beta   89.98955279
_cell_angle_gamma   89.77998354
_symmetry_Int_Tables_number   1
_chemical_formula_structural   Y16Lu4Rh11Au
_chemical_formula_sum   'Y16 Lu4 Rh11 Au1'
_cell_volume   761.87715623
_cell_formula_units_Z   1
loop_
 _symmetry_equiv_pos_site_id
 _symmetry_equiv_pos_as_xyz
  1  'x, y, z'
loop_
 _atom_site_type_symbol
 _atom_site_label
 _atom_site_symmetry_multiplicity
 _atom_site_fract_x
 _atom_site_fract_y
 _atom_site_fract_z
 _atom_site_occupancy
  Y  Y0  1  0.289068  0.087989  0.378427  1
  Y  Y1  1  0.291234  0.911564  0.877260  1
  Y  Y2  1  0.705960  0.084684  0.868065  1
  Y  Y3  1  0.707692  0.906081  0.380846  1
  Y  Y4  1  0.587638  0.789247  0.880625  1
  Y  Y5  1  0.580826  0.211415  0.379768  1
  Y  Y6  1  0.411239  0.789713  0.378902  1
  Y  Y7  1  0.410717  0.210234  0.879503  1
  Y  Y8  1  0.210753  0.412362  0.619375  1
  Y  Y9  1  0.210287  0.588761  0.121098  1
  Y  Y10  1  0.788585  0.419174  0.120232  1
  Y  Y11  1  0.789766  0.589283  0.620497  1
  Y  Y12  1  0.912011  0.710932  0.121573  1
  Y  Y13  1  0.915316  0.294040  0.631935  1
  Y  Y14  1  0.088436  0.708766  0.622740  1
  Y  Y15  1  0.093919  0.292308  0.119154  1
  Lu  Lu16  1  0.003719  0.996064  0.501834  1
  Lu  Lu17  1  0.003936  0.996281  0.998166  1
  Lu  Lu18  1  0.499295  0.500008  0.999095  1
  Lu  Lu19  1  0.499992  0.500705  0.500905  1
  Rh  Rh20  1  0.849672  0.850858  0.749600  1
  Rh  Rh21  1  0.149142  0.150328  0.750400  1
  Rh  Rh22  1  0.151702  0.848298  0.250000  1
  Rh  Rh23  1  0.651745  0.348255  0.750000  1
  Rh  Rh24  1  0.650472  0.650119  0.249439  1
  Rh  Rh25  1  0.349881  0.349528  0.250561  1
  Rh  Rh26  1  0.349232  0.650768  0.750000  1
  Rh  Rh27  1  0.500396  0.999941  0.127125  1
  Rh  Rh28  1  0.499820  0.000258  0.624048  1
  Rh  Rh29  1  0.999742  0.500180  0.875952  1
  Rh  Rh30  1  0.000059  0.499604  0.372875  1
  Au  Au31  1  0.847746  0.152254  0.250000  1
