# generated using pymatgen
data_HoTm2Zn3Si2Au
_symmetry_space_group_name_H-M   'P 1'
_cell_length_a   6.82353100
_cell_length_b   6.83734191
_cell_length_c   4.26030600
_cell_angle_alpha   90.00000000
_cell_angle_beta   90.00000000
_cell_angle_gamma   119.93320876
_symmetry_Int_Tables_number   1
_chemical_formula_structural   HoTm2Zn3Si2Au
_chemical_formula_sum   'Ho1 Tm2 Zn3 Si2 Au1'
_cell_volume   172.25022322
_cell_formula_units_Z   1
loop_
 _symmetry_equiv_pos_site_id
 _symmetry_equiv_pos_as_xyz
  1  'x, y, z'
loop_
 _atom_site_type_symbol
 _atom_site_label
 _atom_site_symmetry_multiplicity
 _atom_site_fract_x
 _atom_site_fract_y
 _atom_site_fract_z
 _atom_site_occupancy
  Ho  Ho0  1  0.575100  0.000000  0.000000  1
  Tm  Tm1  1  0.999549  0.575141  0.000000  1
  Tm  Tm2  1  0.424408  0.424859  0.000000  1
  Zn  Zn3  1  0.248019  0.000000  0.500000  1
  Zn  Zn4  1  0.000033  0.248875  0.500000  1
  Zn  Zn5  1  0.751159  0.751125  0.500000  1
  Si  Si6  1  0.332266  0.665076  0.500000  1
  Si  Si7  1  0.667190  0.334924  0.500000  1
  Au  Au8  1  0.002277  0.000000  0.000000  1
