# generated using pymatgen
data_Dy4TcMoRu6
_symmetry_space_group_name_H-M   'P 1'
_cell_length_a   5.54437952
_cell_length_b   5.15811576
_cell_length_c   9.07181100
_cell_angle_alpha   90.00000000
_cell_angle_beta   90.00000000
_cell_angle_gamma   122.54260678
_symmetry_Int_Tables_number   1
_chemical_formula_structural   Dy4TcMoRu6
_chemical_formula_sum   'Dy4 Tc1 Mo1 Ru6'
_cell_volume   218.70630678
_cell_formula_units_Z   1
loop_
 _symmetry_equiv_pos_site_id
 _symmetry_equiv_pos_as_xyz
  1  'x, y, z'
loop_
 _atom_site_type_symbol
 _atom_site_label
 _atom_site_symmetry_multiplicity
 _atom_site_fract_x
 _atom_site_fract_y
 _atom_site_fract_z
 _atom_site_occupancy
  Dy  Dy0  1  0.670496  0.341646  0.563887  1
  Dy  Dy1  1  0.332423  0.664804  0.432430  1
  Dy  Dy2  1  0.332423  0.664804  0.067570  1
  Dy  Dy3  1  0.670496  0.341646  0.936113  1
  Tc  Tc4  1  0.828668  0.658906  0.250000  1
  Mo  Mo5  1  0.163866  0.329780  0.750000  1
  Ru  Ru6  1  0.003598  0.004778  0.499484  1
  Ru  Ru7  1  0.003598  0.004778  0.000516  1
  Ru  Ru8  1  0.168578  0.820454  0.750000  1
  Ru  Ru9  1  0.653334  0.820297  0.750000  1
  Ru  Ru10  1  0.833104  0.174594  0.250000  1
  Ru  Ru11  1  0.339417  0.173512  0.250000  1
