# generated using pymatgen
data_DyTm2Co8ReP6
_symmetry_space_group_name_H-M   'P 1'
_cell_length_a   3.70190300
_cell_length_b   10.47295500
_cell_length_c   12.16304000
_cell_angle_alpha   90.00000000
_cell_angle_beta   90.00000000
_cell_angle_gamma   90.00000000
_symmetry_Int_Tables_number   1
_chemical_formula_structural   DyTm2Co8ReP6
_chemical_formula_sum   'Dy2 Tm4 Co16 Re2 P12'
_cell_volume   471.55940095
_cell_formula_units_Z   2
loop_
 _symmetry_equiv_pos_site_id
 _symmetry_equiv_pos_as_xyz
  1  'x, y, z'
loop_
 _atom_site_type_symbol
 _atom_site_label
 _atom_site_symmetry_multiplicity
 _atom_site_fract_x
 _atom_site_fract_y
 _atom_site_fract_z
 _atom_site_occupancy
  Dy  Dy0  1  0.000000  0.500000  0.525454  1
  Dy  Dy1  1  0.500000  0.000000  0.474546  1
  Tm  Tm2  1  0.500000  0.818539  0.205577  1
  Tm  Tm3  1  0.500000  0.181461  0.205577  1
  Tm  Tm4  1  0.000000  0.681461  0.794423  1
  Tm  Tm5  1  0.000000  0.318539  0.794423  1
  Co  Co6  1  0.500000  0.500000  0.702726  1
  Co  Co7  1  0.000000  0.000000  0.297274  1
  Co  Co8  1  0.000000  0.500000  0.987754  1
  Co  Co9  1  0.500000  0.000000  0.012246  1
  Co  Co10  1  0.500000  0.332356  0.989319  1
  Co  Co11  1  0.500000  0.667644  0.989319  1
  Co  Co12  1  0.000000  0.167644  0.010681  1
  Co  Co13  1  0.000000  0.832356  0.010681  1
  Co  Co14  1  0.500000  0.296588  0.430869  1
  Co  Co15  1  0.500000  0.703412  0.430869  1
  Co  Co16  1  0.000000  0.203412  0.569131  1
  Co  Co17  1  0.000000  0.796588  0.569131  1
  Co  Co18  1  0.500000  0.878521  0.708675  1
  Co  Co19  1  0.500000  0.121479  0.708675  1
  Co  Co20  1  0.000000  0.621479  0.291325  1
  Co  Co21  1  0.000000  0.378521  0.291325  1
  Re  Re22  1  0.500000  0.500000  0.156203  1
  Re  Re23  1  0.000000  0.000000  0.843797  1
  P  P24  1  0.500000  0.500000  0.879488  1
  P  P25  1  0.000000  0.000000  0.120512  1
  P  P26  1  0.500000  0.500000  0.349662  1
  P  P27  1  0.000000  0.000000  0.650338  1
  P  P28  1  0.500000  0.311889  0.617039  1
  P  P29  1  0.500000  0.688111  0.617039  1
  P  P30  1  0.000000  0.188111  0.382961  1
  P  P31  1  0.000000  0.811889  0.382961  1
  P  P32  1  0.500000  0.845185  0.891755  1
  P  P33  1  0.500000  0.154815  0.891755  1
  P  P34  1  0.000000  0.654815  0.108245  1
  P  P35  1  0.000000  0.345185  0.108245  1
