# generated using pymatgen
data_YbTh3(Ga3Rh)6
_symmetry_space_group_name_H-M   'P 1'
_cell_length_a   7.66736894
_cell_length_b   7.68090651
_cell_length_c   9.53731500
_cell_angle_alpha   90.00000000
_cell_angle_beta   90.00000000
_cell_angle_gamma   119.67184718
_symmetry_Int_Tables_number   1
_chemical_formula_structural   YbTh3(Ga3Rh)6
_chemical_formula_sum   'Yb1 Th3 Ga18 Rh6'
_cell_volume   488.02514296
_cell_formula_units_Z   1
loop_
 _symmetry_equiv_pos_site_id
 _symmetry_equiv_pos_as_xyz
  1  'x, y, z'
loop_
 _atom_site_type_symbol
 _atom_site_label
 _atom_site_symmetry_multiplicity
 _atom_site_fract_x
 _atom_site_fract_y
 _atom_site_fract_z
 _atom_site_occupancy
  Yb  Yb0  1  0.330499  0.003355  0.750000  1
  Th  Th1  1  0.997731  0.669732  0.250000  1
  Th  Th2  1  0.002199  0.330943  0.750000  1
  Th  Th3  1  0.667994  0.996352  0.250000  1
  Ga  Ga4  1  0.132468  0.130601  0.250000  1
  Ga  Ga5  1  0.874323  0.872124  0.750000  1
  Ga  Ga6  1  0.005318  0.334471  0.078242  1
  Ga  Ga7  1  0.003136  0.672914  0.917009  1
  Ga  Ga8  1  0.003136  0.672914  0.582991  1
  Ga  Ga9  1  0.334403  0.004538  0.428965  1
  Ga  Ga10  1  0.005318  0.334471  0.421758  1
  Ga  Ga11  1  0.657905  0.995535  0.583241  1
  Ga  Ga12  1  0.657905  0.995535  0.916759  1
  Ga  Ga13  1  0.334403  0.004538  0.071035  1
  Ga  Ga14  1  0.336527  0.330315  0.565650  1
  Ga  Ga15  1  0.663146  0.662993  0.441399  1
  Ga  Ga16  1  0.663146  0.662993  0.058601  1
  Ga  Ga17  1  0.336527  0.330315  0.934350  1
  Ga  Ga18  1  0.338657  0.541135  0.250000  1
  Ga  Ga19  1  0.658326  0.452110  0.750000  1
  Ga  Ga20  1  0.540848  0.336740  0.250000  1
  Ga  Ga21  1  0.454882  0.662840  0.750000  1
  Rh  Rh22  1  0.675973  0.331290  0.001491  1
  Rh  Rh23  1  0.328024  0.669852  0.001702  1
  Rh  Rh24  1  0.328024  0.669852  0.498298  1
  Rh  Rh25  1  0.675973  0.331290  0.498509  1
  Rh  Rh26  1  0.996605  0.000124  0.001412  1
  Rh  Rh27  1  0.996605  0.000124  0.498588  1
