# generated using pymatgen
data_YTa4(NbCl9)2
_symmetry_space_group_name_H-M   'P 1'
_cell_length_a   10.15884885
_cell_length_b   10.15618404
_cell_length_c   10.15634344
_cell_angle_alpha   55.96924313
_cell_angle_beta   55.97130754
_cell_angle_gamma   55.97762544
_symmetry_Int_Tables_number   1
_chemical_formula_structural   YTa4(NbCl9)2
_chemical_formula_sum   'Y1 Ta4 Nb2 Cl18'
_cell_volume   671.82396244
_cell_formula_units_Z   1
loop_
 _symmetry_equiv_pos_site_id
 _symmetry_equiv_pos_as_xyz
  1  'x, y, z'
loop_
 _atom_site_type_symbol
 _atom_site_label
 _atom_site_symmetry_multiplicity
 _atom_site_fract_x
 _atom_site_fract_y
 _atom_site_fract_z
 _atom_site_occupancy
  Y  Y0  1  0.999387  0.000198  0.000412  1
  Ta  Ta1  1  0.409127  0.301433  0.648707  1
  Ta  Ta2  1  0.351262  0.591159  0.698327  1
  Ta  Ta3  1  0.699306  0.350718  0.591071  1
  Ta  Ta4  1  0.301236  0.649428  0.408250  1
  Nb  Nb5  1  0.649952  0.408624  0.300081  1
  Nb  Nb6  1  0.591819  0.699555  0.349927  1
  Cl  Cl7  1  0.566692  0.160068  0.444632  1
  Cl  Cl8  1  0.223987  0.370925  0.907779  1
  Cl  Cl9  1  0.909122  0.222943  0.372965  1
  Cl  Cl10  1  0.368202  0.908426  0.224018  1
  Cl  Cl11  1  0.777372  0.630027  0.089579  1
  Cl  Cl12  1  0.092378  0.775767  0.629108  1
  Cl  Cl13  1  0.702975  0.958617  0.160292  1
  Cl  Cl14  1  0.955164  0.161686  0.702173  1
  Cl  Cl15  1  0.162331  0.701392  0.955142  1
  Cl  Cl16  1  0.297929  0.045210  0.837991  1
  Cl  Cl17  1  0.044244  0.837394  0.298988  1
  Cl  Cl18  1  0.840334  0.296682  0.041503  1
  Cl  Cl19  1  0.558034  0.431519  0.838148  1
  Cl  Cl20  1  0.161971  0.441895  0.568518  1
  Cl  Cl21  1  0.439042  0.570448  0.161923  1
  Cl  Cl22  1  0.429468  0.838099  0.560990  1
  Cl  Cl23  1  0.839760  0.555445  0.433363  1
  Cl  Cl24  1  0.628906  0.092339  0.776113  1
