# generated using pymatgen
data_Gd7S8
_symmetry_space_group_name_H-M   'P 1'
_cell_length_a   7.91933600
_cell_length_b   7.91933487
_cell_length_c   7.91933600
_cell_angle_alpha   119.99999638
_cell_angle_beta   90.00000000
_cell_angle_gamma   119.99999638
_symmetry_Int_Tables_number   1
_chemical_formula_structural   Gd7S8
_chemical_formula_sum   'Gd7 S8'
_cell_volume   351.19740329
_cell_formula_units_Z   1
loop_
 _symmetry_equiv_pos_site_id
 _symmetry_equiv_pos_as_xyz
  1  'x, y, z'
loop_
 _atom_site_type_symbol
 _atom_site_label
 _atom_site_symmetry_multiplicity
 _atom_site_fract_x
 _atom_site_fract_y
 _atom_site_fract_z
 _atom_site_occupancy
  Gd  Gd0  1  0.250055  0.000000  0.250055  1
  Gd  Gd1  1  0.250055  0.500111  0.250055  1
  Gd  Gd2  1  0.749945  0.000000  0.250056  1
  Gd  Gd3  1  0.250001  0.500001  0.750002  1
  Gd  Gd4  1  0.250056  0.000000  0.749945  1
  Gd  Gd5  1  0.749945  0.000000  0.749945  1
  Gd  Gd6  1  0.749945  0.499888  0.749945  1
  S  S7  1  0.000000  0.000000  0.000000  1
  S  S8  1  0.500000  0.000000  0.500000  1
  S  S9  1  0.000657  0.001317  0.500659  1
  S  S10  1  0.000657  0.500001  0.500659  1
  S  S11  1  0.499344  0.500001  0.500659  1
  S  S12  1  0.000659  0.500001  0.999343  1
  S  S13  1  0.499342  0.500001  0.999343  1
  S  S14  1  0.499342  0.998682  0.999343  1
