# generated using pymatgen
data_Ho2Er10GaCo5
_symmetry_space_group_name_H-M   'P 1'
_cell_length_a   8.14706276
_cell_length_b   8.14706249
_cell_length_c   8.14706400
_cell_angle_alpha   110.81413929
_cell_angle_beta   110.78312905
_cell_angle_gamma   106.84781500
_symmetry_Int_Tables_number   1
_chemical_formula_structural   Ho2Er10GaCo5
_chemical_formula_sum   'Ho2 Er10 Ga1 Co5'
_cell_volume   415.62520896
_cell_formula_units_Z   1
loop_
 _symmetry_equiv_pos_site_id
 _symmetry_equiv_pos_as_xyz
  1  'x, y, z'
loop_
 _atom_site_type_symbol
 _atom_site_label
 _atom_site_symmetry_multiplicity
 _atom_site_fract_x
 _atom_site_fract_y
 _atom_site_fract_z
 _atom_site_occupancy
  Ho  Ho0  1  0.288561  0.185698  0.474259  1
  Ho  Ho1  1  0.711439  0.814302  0.525741  1
  Er  Er2  1  0.288561  0.814302  0.102863  1
  Er  Er3  1  0.711439  0.185698  0.897137  1
  Er  Er4  1  0.618646  0.315938  0.302708  1
  Er  Er5  1  0.381354  0.684062  0.697292  1
  Er  Er6  1  0.013231  0.315938  0.697292  1
  Er  Er7  1  0.986769  0.684062  0.302708  1
  Er  Er8  1  0.215918  0.407403  0.191484  1
  Er  Er9  1  0.784082  0.592597  0.808516  1
  Er  Er10  1  0.215918  0.024434  0.808516  1
  Er  Er11  1  0.784082  0.975566  0.191484  1
  Ga  Ga12  1  0.500000  0.500000  0.000000  1
  Co  Co13  1  0.000000  0.375783  0.375783  1
  Co  Co14  1  0.000000  0.624217  0.624217  1
  Co  Co15  1  0.386266  0.886266  0.500000  1
  Co  Co16  1  0.613734  0.113734  0.500000  1
  Co  Co17  1  0.000000  0.000000  0.000000  1
