# generated using pymatgen
data_Er8Si15GeMo12
_symmetry_space_group_name_H-M   'P 1'
_cell_length_a   6.75089547
_cell_length_b   6.93536788
_cell_length_c   12.91899165
_cell_angle_alpha   90.07156564
_cell_angle_beta   89.98077286
_cell_angle_gamma   89.99428565
_symmetry_Int_Tables_number   1
_chemical_formula_structural   Er8Si15GeMo12
_chemical_formula_sum   'Er8 Si15 Ge1 Mo12'
_cell_volume   604.86595120
_cell_formula_units_Z   1
loop_
 _symmetry_equiv_pos_site_id
 _symmetry_equiv_pos_as_xyz
  1  'x, y, z'
loop_
 _atom_site_type_symbol
 _atom_site_label
 _atom_site_symmetry_multiplicity
 _atom_site_fract_x
 _atom_site_fract_y
 _atom_site_fract_z
 _atom_site_occupancy
  Er  Er0  1  0.496923  0.332861  0.094008  1
  Er  Er1  1  0.995802  0.167838  0.405559  1
  Er  Er2  1  0.507406  0.669493  0.595024  1
  Er  Er3  1  0.002600  0.832746  0.906292  1
  Er  Er4  1  0.502781  0.667064  0.906067  1
  Er  Er5  1  0.003434  0.832438  0.594425  1
  Er  Er6  1  0.497188  0.331168  0.404466  1
  Er  Er7  1  0.997165  0.167753  0.094221  1
  Si  Si8  1  0.804517  0.629247  0.750607  1
  Si  Si9  1  0.302779  0.868580  0.750893  1
  Si  Si10  1  0.196575  0.371263  0.249684  1
  Si  Si11  1  0.697079  0.129932  0.249387  1
  Si  Si12  1  0.535396  0.366480  0.750520  1
  Si  Si13  1  0.035803  0.133087  0.750150  1
  Si  Si14  1  0.463526  0.633632  0.249853  1
  Si  Si15  1  0.963058  0.868231  0.248700  1
  Si  Si16  1  0.661490  0.041579  0.546321  1
  Si  Si17  1  0.159123  0.458961  0.953406  1
  Si  Si18  1  0.339920  0.959186  0.047188  1
  Si  Si19  1  0.835801  0.542261  0.452236  1
  Si  Si20  1  0.339332  0.958519  0.453447  1
  Si  Si21  1  0.840690  0.540649  0.047141  1
  Si  Si22  1  0.658906  0.040471  0.952962  1
  Ge  Ge23  1  0.167277  0.459420  0.546227  1
  Mo  Mo24  1  0.667673  0.997378  0.750054  1
  Mo  Mo25  1  0.167145  0.501029  0.751108  1
  Mo  Mo26  1  0.332353  0.003104  0.249999  1
  Mo  Mo27  1  0.832604  0.498201  0.250399  1
  Mo  Mo28  1  0.829078  0.333274  0.626029  1
  Mo  Mo29  1  0.330362  0.165648  0.875703  1
  Mo  Mo30  1  0.168846  0.665936  0.123685  1
  Mo  Mo31  1  0.668546  0.835619  0.374896  1
  Mo  Mo32  1  0.165789  0.670095  0.371960  1
  Mo  Mo33  1  0.667816  0.833557  0.124957  1
  Mo  Mo34  1  0.830806  0.333360  0.875850  1
  Mo  Mo35  1  0.334415  0.159942  0.626578  1
