# generated using pymatgen
data_Al12Co5CuRu6
_symmetry_space_group_name_H-M   'P 1'
_cell_length_a   4.16285000
_cell_length_b   5.89972000
_cell_length_c   12.49286300
_cell_angle_alpha   90.00000000
_cell_angle_beta   89.99986697
_cell_angle_gamma   90.00000000
_symmetry_Int_Tables_number   1
_chemical_formula_structural   Al12Co5CuRu6
_chemical_formula_sum   'Al12 Co5 Cu1 Ru6'
_cell_volume   306.82033531
_cell_formula_units_Z   1
loop_
 _symmetry_equiv_pos_site_id
 _symmetry_equiv_pos_as_xyz
  1  'x, y, z'
loop_
 _atom_site_type_symbol
 _atom_site_label
 _atom_site_symmetry_multiplicity
 _atom_site_fract_x
 _atom_site_fract_y
 _atom_site_fract_z
 _atom_site_occupancy
  Al  Al0  1  0.500000  0.236751  0.000000  1
  Al  Al1  1  0.500000  0.763250  0.000000  1
  Al  Al2  1  0.000002  0.243114  0.171395  1
  Al  Al3  1  0.000002  0.756887  0.171395  1
  Al  Al4  1  0.500003  0.249930  0.333312  1
  Al  Al5  1  0.500003  0.750069  0.333312  1
  Al  Al6  1  0.000000  0.251464  0.500000  1
  Al  Al7  1  0.000000  0.748538  0.500000  1
  Al  Al8  1  0.499997  0.249930  0.666687  1
  Al  Al9  1  0.499997  0.750069  0.666687  1
  Al  Al10  1  0.999998  0.243114  0.828605  1
  Al  Al11  1  0.999998  0.756887  0.828605  1
  Co  Co12  1  0.500005  0.000000  0.166403  1
  Co  Co13  1  0.000003  0.500000  0.332525  1
  Co  Co14  1  0.500000  0.000000  0.500000  1
  Co  Co15  1  0.999997  0.500000  0.667476  1
  Co  Co16  1  0.499995  0.000000  0.833596  1
  Cu  Cu17  1  0.000000  0.500000  0.000000  1
  Ru  Ru18  1  0.000000  0.000000  0.000000  1
  Ru  Ru19  1  0.500006  0.500000  0.161955  1
  Ru  Ru20  1  0.000004  0.000000  0.335824  1
  Ru  Ru21  1  0.500000  0.500000  0.500000  1
  Ru  Ru22  1  0.999996  0.000000  0.664176  1
  Ru  Ru23  1  0.499994  0.500000  0.838045  1
