# generated using pymatgen
data_Y4FeOs6W
_symmetry_space_group_name_H-M   'P 1'
_cell_length_a   5.27332807
_cell_length_b   5.27332810
_cell_length_c   8.90067100
_cell_angle_alpha   90.00000000
_cell_angle_beta   90.00000000
_cell_angle_gamma   117.62997106
_symmetry_Int_Tables_number   1
_chemical_formula_structural   Y4FeOs6W
_chemical_formula_sum   'Y4 Fe1 Os6 W1'
_cell_volume   219.28402378
_cell_formula_units_Z   1
loop_
 _symmetry_equiv_pos_site_id
 _symmetry_equiv_pos_as_xyz
  1  'x, y, z'
loop_
 _atom_site_type_symbol
 _atom_site_label
 _atom_site_symmetry_multiplicity
 _atom_site_fract_x
 _atom_site_fract_y
 _atom_site_fract_z
 _atom_site_occupancy
  Y  Y0  1  0.327789  0.672211  0.439939  1
  Y  Y1  1  0.666939  0.333061  0.566740  1
  Y  Y2  1  0.666939  0.333061  0.933260  1
  Y  Y3  1  0.327789  0.672211  0.060061  1
  Fe  Fe4  1  0.170587  0.829413  0.750000  1
  Os  Os5  1  0.994517  0.005483  0.504408  1
  Os  Os6  1  0.994517  0.005483  0.995592  1
  Os  Os7  1  0.824520  0.648887  0.250000  1
  Os  Os8  1  0.351113  0.175480  0.250000  1
  Os  Os9  1  0.177865  0.342044  0.750000  1
  Os  Os10  1  0.657956  0.822135  0.750000  1
  W  W11  1  0.839470  0.160530  0.250000  1
