# generated using pymatgen
data_LaTbHo6(CdNi)2
_symmetry_space_group_name_H-M   'P 1'
_cell_length_a   9.55964704
_cell_length_b   9.55964718
_cell_length_c   9.55358300
_cell_angle_alpha   60.02097159
_cell_angle_beta   60.02097110
_cell_angle_gamma   60.11547642
_symmetry_Int_Tables_number   1
_chemical_formula_structural   LaTbHo6(CdNi)2
_chemical_formula_sum   'La2 Tb2 Ho12 Cd4 Ni4'
_cell_volume   618.08815023
_cell_formula_units_Z   2
loop_
 _symmetry_equiv_pos_site_id
 _symmetry_equiv_pos_as_xyz
  1  'x, y, z'
loop_
 _atom_site_type_symbol
 _atom_site_label
 _atom_site_symmetry_multiplicity
 _atom_site_fract_x
 _atom_site_fract_y
 _atom_site_fract_z
 _atom_site_occupancy
  La  La0  1  0.346219  0.346219  0.351227  1
  La  La1  1  0.346219  0.346219  0.956336  1
  Tb  Tb2  1  0.565939  0.565939  0.934061  1
  Tb  Tb3  1  0.935731  0.935731  0.564269  1
  Ho  Ho4  1  0.349494  0.948459  0.351024  1
  Ho  Ho5  1  0.948459  0.349494  0.351024  1
  Ho  Ho6  1  0.814887  0.187838  0.185809  1
  Ho  Ho7  1  0.187838  0.814887  0.811464  1
  Ho  Ho8  1  0.187838  0.814887  0.185809  1
  Ho  Ho9  1  0.814887  0.187838  0.811464  1
  Ho  Ho10  1  0.186805  0.186805  0.813195  1
  Ho  Ho11  1  0.812465  0.812465  0.187535  1
  Ho  Ho12  1  0.935617  0.565124  0.565067  1
  Ho  Ho13  1  0.565124  0.935617  0.934193  1
  Ho  Ho14  1  0.565124  0.935617  0.565067  1
  Ho  Ho15  1  0.935617  0.565124  0.934193  1
  Cd  Cd16  1  0.583253  0.583253  0.577547  1
  Cd  Cd17  1  0.583253  0.583253  0.255946  1
  Cd  Cd18  1  0.584519  0.254565  0.580457  1
  Cd  Cd19  1  0.254565  0.584519  0.580457  1
  Ni  Ni20  1  0.140437  0.140437  0.145315  1
  Ni  Ni21  1  0.140437  0.140437  0.573810  1
  Ni  Ni22  1  0.138420  0.576852  0.142365  1
  Ni  Ni23  1  0.576852  0.138420  0.142365  1
