# generated using pymatgen
data_DyY4Er3(P3Ir4)4
_symmetry_space_group_name_H-M   'P 1'
_cell_length_a   12.97248700
_cell_length_b   12.97248786
_cell_length_c   4.00703300
_cell_angle_alpha   90.00000000
_cell_angle_beta   90.00000000
_cell_angle_gamma   120.00000035
_symmetry_Int_Tables_number   1
_chemical_formula_structural   DyY4Er3(P3Ir4)4
_chemical_formula_sum   'Dy1 Y4 Er3 P12 Ir16'
_cell_volume   583.98281397
_cell_formula_units_Z   1
loop_
 _symmetry_equiv_pos_site_id
 _symmetry_equiv_pos_as_xyz
  1  'x, y, z'
loop_
 _atom_site_type_symbol
 _atom_site_label
 _atom_site_symmetry_multiplicity
 _atom_site_fract_x
 _atom_site_fract_y
 _atom_site_fract_z
 _atom_site_occupancy
  Dy  Dy0  1  0.666667  0.333333  0.500000  1
  Y  Y1  1  0.333333  0.666667  0.500000  1
  Y  Y2  1  0.999992  0.814718  0.000000  1
  Y  Y3  1  0.185282  0.185275  0.000000  1
  Y  Y4  1  0.814725  0.000008  0.000000  1
  Er  Er5  1  0.999992  0.446413  0.500000  1
  Er  Er6  1  0.553587  0.553578  0.500000  1
  Er  Er7  1  0.446422  0.000008  0.500000  1
  P  P8  1  0.000009  0.652580  0.500000  1
  P  P9  1  0.347420  0.347429  0.500000  1
  P  P10  1  0.652571  0.999991  0.500000  1
  P  P11  1  0.516863  0.688456  0.000000  1
  P  P12  1  0.311544  0.828407  0.000000  1
  P  P13  1  0.171593  0.483137  0.000000  1
  P  P14  1  0.483258  0.171716  0.000000  1
  P  P15  1  0.688458  0.516742  0.000000  1
  P  P16  1  0.828284  0.311542  0.000000  1
  P  P17  1  0.999992  0.176611  0.500000  1
  P  P18  1  0.823389  0.823381  0.500000  1
  P  P19  1  0.176619  0.000008  0.500000  1
  Ir  Ir20  1  0.509519  0.865894  0.000000  1
  Ir  Ir21  1  0.134106  0.643626  0.000000  1
  Ir  Ir22  1  0.356374  0.490481  0.000000  1
  Ir  Ir23  1  0.490689  0.356358  0.000000  1
  Ir  Ir24  1  0.865670  0.509311  0.000000  1
  Ir  Ir25  1  0.643642  0.134330  0.000000  1
  Ir  Ir26  1  0.999986  0.274968  0.000000  1
  Ir  Ir27  1  0.725032  0.725018  0.000000  1
  Ir  Ir28  1  0.274982  0.000014  0.000000  1
  Ir  Ir29  1  0.630306  0.809082  0.500000  1
  Ir  Ir30  1  0.190918  0.821224  0.500000  1
  Ir  Ir31  1  0.178776  0.369694  0.500000  1
  Ir  Ir32  1  0.369762  0.178809  0.500000  1
  Ir  Ir33  1  0.809049  0.630238  0.500000  1
  Ir  Ir34  1  0.821191  0.190951  0.500000  1
  Ir  Ir35  1  0.000000  0.000000  0.500000  1
