# generated using pymatgen
data_La8Zn8IrPd3PtRh3
_symmetry_space_group_name_H-M   'P 1'
_cell_length_a   4.08678300
_cell_length_b   7.54184643
_cell_length_c   16.83832100
_cell_angle_alpha   90.01928131
_cell_angle_beta   90.00000000
_cell_angle_gamma   90.00000000
_symmetry_Int_Tables_number   1
_chemical_formula_structural   La8Zn8IrPd3PtRh3
_chemical_formula_sum   'La8 Zn8 Ir1 Pd3 Pt1 Rh3'
_cell_volume   518.98884433
_cell_formula_units_Z   1
loop_
 _symmetry_equiv_pos_site_id
 _symmetry_equiv_pos_as_xyz
  1  'x, y, z'
loop_
 _atom_site_type_symbol
 _atom_site_label
 _atom_site_symmetry_multiplicity
 _atom_site_fract_x
 _atom_site_fract_y
 _atom_site_fract_z
 _atom_site_occupancy
  La  La0  1  0.750000  0.331506  0.439401  1
  La  La1  1  0.250000  0.040441  0.716566  1
  La  La2  1  0.250000  0.554560  0.779582  1
  La  La3  1  0.250000  0.678014  0.557617  1
  La  La4  1  0.750000  0.827304  0.064366  1
  La  La5  1  0.250000  0.174330  0.946795  1
  La  La6  1  0.750000  0.455772  0.213049  1
  La  La7  1  0.750000  0.943720  0.284198  1
  Zn  Zn8  1  0.250000  0.123362  0.149400  1
  Zn  Zn9  1  0.250000  0.996327  0.438550  1
  Zn  Zn10  1  0.750000  0.873580  0.849013  1
  Zn  Zn11  1  0.750000  0.999050  0.558963  1
  Zn  Zn12  1  0.250000  0.498631  0.061375  1
  Zn  Zn13  1  0.750000  0.377665  0.650132  1
  Zn  Zn14  1  0.750000  0.500604  0.940848  1
  Zn  Zn15  1  0.250000  0.627049  0.350187  1
  Ir  Ir16  1  0.250000  0.750124  0.183854  1
  Pd  Pd17  1  0.750000  0.252521  0.814191  1
  Pd  Pd18  1  0.250000  0.739994  0.933499  1
  Pd  Pd19  1  0.250000  0.239692  0.566950  1
  Pt  Pt20  1  0.250000  0.247223  0.315208  1
  Rh  Rh21  1  0.750000  0.758147  0.434868  1
  Rh  Rh22  1  0.750000  0.260476  0.065201  1
  Rh  Rh23  1  0.750000  0.749906  0.686189  1
