# generated using pymatgen
data_SrLa5TbRuI12
_symmetry_space_group_name_H-M   'P 1'
_cell_length_a   10.24539232
_cell_length_b   10.11362593
_cell_length_c   10.13002886
_cell_angle_alpha   106.45358153
_cell_angle_beta   105.98987409
_cell_angle_gamma   106.63514101
_symmetry_Int_Tables_number   1
_chemical_formula_structural   SrLa5TbRuI12
_chemical_formula_sum   'Sr1 La5 Tb1 Ru1 I12'
_cell_volume   888.96920739
_cell_formula_units_Z   1
loop_
 _symmetry_equiv_pos_site_id
 _symmetry_equiv_pos_as_xyz
  1  'x, y, z'
loop_
 _atom_site_type_symbol
 _atom_site_label
 _atom_site_symmetry_multiplicity
 _atom_site_fract_x
 _atom_site_fract_y
 _atom_site_fract_z
 _atom_site_occupancy
  Sr  Sr0  1  0.500398  0.498896  0.499502  1
  La  La1  1  0.907393  0.704992  0.979542  1
  La  La2  1  0.980094  0.904889  0.705839  1
  La  La3  1  0.686239  0.978551  0.899477  1
  La  La4  1  0.098282  0.296604  0.022015  1
  La  La5  1  0.020641  0.095174  0.294429  1
  Tb  Tb6  1  0.299453  0.022389  0.097877  1
  Ru  Ru7  1  0.001035  0.001154  0.000510  1
  I  I8  1  0.628350  0.853500  0.545208  1
  I  I9  1  0.547999  0.625219  0.854324  1
  I  I10  1  0.851218  0.543635  0.624258  1
  I  I11  1  0.371828  0.140249  0.442411  1
  I  I12  1  0.452075  0.362971  0.144471  1
  I  I13  1  0.149734  0.456632  0.375799  1
  I  I14  1  0.673759  0.073187  0.224937  1
  I  I15  1  0.230681  0.689555  0.076100  1
  I  I16  1  0.075371  0.226906  0.677479  1
  I  I17  1  0.321984  0.928963  0.786526  1
  I  I18  1  0.778231  0.323508  0.926839  1
  I  I19  1  0.925234  0.773025  0.322456  1
