# generated using pymatgen
data_Pr8Sc12Si15Se
_symmetry_space_group_name_H-M   'P 1'
_cell_length_a   7.26253186
_cell_length_b   7.57948025
_cell_length_c   14.16553700
_cell_angle_alpha   90.00000000
_cell_angle_beta   90.00000000
_cell_angle_gamma   90.66528204
_symmetry_Int_Tables_number   1
_chemical_formula_structural   Pr8Sc12Si15Se
_chemical_formula_sum   'Pr8 Sc12 Si15 Se1'
_cell_volume   779.70665652
_cell_formula_units_Z   1
loop_
 _symmetry_equiv_pos_site_id
 _symmetry_equiv_pos_as_xyz
  1  'x, y, z'
loop_
 _atom_site_type_symbol
 _atom_site_label
 _atom_site_symmetry_multiplicity
 _atom_site_fract_x
 _atom_site_fract_y
 _atom_site_fract_z
 _atom_site_occupancy
  Pr  Pr0  1  0.012104  0.173446  0.402347  1
  Pr  Pr1  1  0.511557  0.326377  0.401961  1
  Pr  Pr2  1  0.495821  0.665149  0.906337  1
  Pr  Pr3  1  0.495821  0.665149  0.593663  1
  Pr  Pr4  1  0.990729  0.829847  0.600049  1
  Pr  Pr5  1  0.990729  0.829847  0.899951  1
  Pr  Pr6  1  0.511557  0.326377  0.098039  1
  Pr  Pr7  1  0.012104  0.173446  0.097653  1
  Sc  Sc8  1  0.325553  0.175505  0.626769  1
  Sc  Sc9  1  0.670790  0.824861  0.374254  1
  Sc  Sc10  1  0.665160  0.001332  0.750000  1
  Sc  Sc11  1  0.170309  0.676174  0.374995  1
  Sc  Sc12  1  0.824541  0.328341  0.876384  1
  Sc  Sc13  1  0.824541  0.328341  0.623616  1
  Sc  Sc14  1  0.840436  0.501994  0.250000  1
  Sc  Sc15  1  0.341197  0.997565  0.250000  1
  Sc  Sc16  1  0.325553  0.175505  0.873231  1
  Sc  Sc17  1  0.170309  0.676174  0.125005  1
  Sc  Sc18  1  0.670790  0.824861  0.125746  1
  Sc  Sc19  1  0.156289  0.490271  0.750000  1
  Si  Si20  1  0.465078  0.624518  0.250000  1
  Si  Si21  1  0.014491  0.147139  0.750000  1
  Si  Si22  1  0.530438  0.372807  0.750000  1
  Si  Si23  1  0.151927  0.465343  0.541104  1
  Si  Si24  1  0.967544  0.874708  0.250000  1
  Si  Si25  1  0.710908  0.116389  0.250000  1
  Si  Si26  1  0.847970  0.538665  0.040392  1
  Si  Si27  1  0.348319  0.963617  0.038383  1
  Si  Si28  1  0.151927  0.465343  0.958896  1
  Si  Si29  1  0.649418  0.035216  0.541373  1
  Si  Si30  1  0.348319  0.963617  0.461617  1
  Si  Si31  1  0.847970  0.538665  0.459608  1
  Si  Si32  1  0.790797  0.620249  0.750000  1
  Si  Si33  1  0.211444  0.384441  0.250000  1
  Si  Si34  1  0.649418  0.035216  0.958627  1
  Se  Se35  1  0.308140  0.863504  0.750000  1
