# generated using pymatgen
data_Tb4AlGa3PdRh3
_symmetry_space_group_name_H-M   'P 1'
_cell_length_a   4.33130600
_cell_length_b   6.91140022
_cell_length_c   7.82445251
_cell_angle_alpha   90.48880572
_cell_angle_beta   90.00000000
_cell_angle_gamma   90.00000000
_symmetry_Int_Tables_number   1
_chemical_formula_structural   Tb4AlGa3PdRh3
_chemical_formula_sum   'Tb4 Al1 Ga3 Pd1 Rh3'
_cell_volume   234.21950772
_cell_formula_units_Z   1
loop_
 _symmetry_equiv_pos_site_id
 _symmetry_equiv_pos_as_xyz
  1  'x, y, z'
loop_
 _atom_site_type_symbol
 _atom_site_label
 _atom_site_symmetry_multiplicity
 _atom_site_fract_x
 _atom_site_fract_y
 _atom_site_fract_z
 _atom_site_occupancy
  Tb  Tb0  1  0.250000  0.474200  0.190920  1
  Tb  Tb1  1  0.750000  0.528081  0.814944  1
  Tb  Tb2  1  0.250000  0.974952  0.309231  1
  Tb  Tb3  1  0.750000  0.031745  0.685636  1
  Al  Al4  1  0.750000  0.149195  0.068228  1
  Ga  Ga5  1  0.250000  0.851896  0.932564  1
  Ga  Ga6  1  0.250000  0.339274  0.570707  1
  Ga  Ga7  1  0.750000  0.652919  0.427869  1
  Pd  Pd8  1  0.250000  0.726052  0.608590  1
  Rh  Rh9  1  0.750000  0.770923  0.108754  1
  Rh  Rh10  1  0.250000  0.233403  0.894114  1
  Rh  Rh11  1  0.750000  0.267359  0.388441  1
