# generated using pymatgen
data_Ac4Al5Br2
_symmetry_space_group_name_H-M   'P 1'
_cell_length_a   12.23172566
_cell_length_b   12.23172467
_cell_length_c   4.47096800
_cell_angle_alpha   90.00000000
_cell_angle_beta   90.00000000
_cell_angle_gamma   93.15906772
_symmetry_Int_Tables_number   1
_chemical_formula_structural   Ac4Al5Br2
_chemical_formula_sum   'Ac8 Al10 Br4'
_cell_volume   667.90782199
_cell_formula_units_Z   2
loop_
 _symmetry_equiv_pos_site_id
 _symmetry_equiv_pos_as_xyz
  1  'x, y, z'
loop_
 _atom_site_type_symbol
 _atom_site_label
 _atom_site_symmetry_multiplicity
 _atom_site_fract_x
 _atom_site_fract_y
 _atom_site_fract_z
 _atom_site_occupancy
  Ac  Ac0  1  0.733955  0.733955  0.000000  1
  Ac  Ac1  1  0.039669  0.676202  0.500000  1
  Ac  Ac2  1  0.364615  0.635385  0.000000  1
  Ac  Ac3  1  0.960331  0.323798  0.500000  1
  Ac  Ac4  1  0.266045  0.266045  0.000000  1
  Ac  Ac5  1  0.635385  0.364615  0.000000  1
  Ac  Ac6  1  0.676202  0.039669  0.500000  1
  Ac  Ac7  1  0.323798  0.960331  0.500000  1
  Al  Al8  1  0.579461  0.579461  0.500000  1
  Al  Al9  1  0.420539  0.420539  0.500000  1
  Al  Al10  1  0.215524  0.478263  0.500000  1
  Al  Al11  1  0.784476  0.521737  0.500000  1
  Al  Al12  1  0.527782  0.897667  0.000000  1
  Al  Al13  1  0.521737  0.784476  0.500000  1
  Al  Al14  1  0.472218  0.102333  0.000000  1
  Al  Al15  1  0.102333  0.472218  0.000000  1
  Al  Al16  1  0.478263  0.215524  0.500000  1
  Al  Al17  1  0.897667  0.527782  0.000000  1
  Br  Br18  1  0.878304  0.878304  0.500000  1
  Br  Br19  1  0.171825  0.828175  0.000000  1
  Br  Br20  1  0.121696  0.121696  0.500000  1
  Br  Br21  1  0.828175  0.171825  0.000000  1
