# generated using pymatgen
data_Er8Zr11Si16Pd
_symmetry_space_group_name_H-M   'P 1'
_cell_length_a   7.31272307
_cell_length_b   7.31272356
_cell_length_c   13.32784747
_cell_angle_alpha   90.23902806
_cell_angle_beta   89.76097135
_cell_angle_gamma   89.99234034
_symmetry_Int_Tables_number   1
_chemical_formula_structural   Er8Zr11Si16Pd
_chemical_formula_sum   'Er8 Zr11 Si16 Pd1'
_cell_volume   712.70652228
_cell_formula_units_Z   1
loop_
 _symmetry_equiv_pos_site_id
 _symmetry_equiv_pos_as_xyz
  1  'x, y, z'
loop_
 _atom_site_type_symbol
 _atom_site_label
 _atom_site_symmetry_multiplicity
 _atom_site_fract_x
 _atom_site_fract_y
 _atom_site_fract_z
 _atom_site_occupancy
  Er  Er0  1  0.348049  0.004510  0.463224  1
  Er  Er1  1  0.493309  0.849365  0.715978  1
  Er  Er2  1  0.503762  0.150691  0.209372  1
  Er  Er3  1  0.849365  0.493309  0.284022  1
  Er  Er4  1  0.150691  0.503762  0.790628  1
  Er  Er5  1  0.649080  0.001853  0.965881  1
  Er  Er6  1  0.004510  0.348049  0.536776  1
  Er  Er7  1  0.001853  0.649080  0.034119  1
  Zr  Zr8  1  0.179593  0.820681  0.247880  1
  Zr  Zr9  1  0.820681  0.179593  0.752120  1
  Zr  Zr10  1  0.676457  0.676457  0.500000  1
  Zr  Zr11  1  0.141406  0.004078  0.876405  1
  Zr  Zr12  1  0.496557  0.642160  0.119790  1
  Zr  Zr13  1  0.501321  0.357694  0.626726  1
  Zr  Zr14  1  0.642160  0.496557  0.880210  1
  Zr  Zr15  1  0.357694  0.501321  0.373274  1
  Zr  Zr16  1  0.857243  0.996736  0.373599  1
  Zr  Zr17  1  0.004078  0.141406  0.123595  1
  Zr  Zr18  1  0.996736  0.857243  0.626401  1
  Si  Si19  1  0.203974  0.146055  0.684984  1
  Si  Si20  1  0.363949  0.720806  0.928057  1
  Si  Si21  1  0.642555  0.292536  0.432144  1
  Si  Si22  1  0.720806  0.363949  0.071943  1
  Si  Si23  1  0.292536  0.642555  0.567856  1
  Si  Si24  1  0.795718  0.853947  0.181036  1
  Si  Si25  1  0.146055  0.203974  0.315016  1
  Si  Si26  1  0.853947  0.795718  0.818964  1
  Si  Si27  1  0.291996  0.940570  0.061396  1
  Si  Si28  1  0.553723  0.795058  0.311440  1
  Si  Si29  1  0.440214  0.207982  0.815724  1
  Si  Si30  1  0.795058  0.553723  0.688560  1
  Si  Si31  1  0.207982  0.440214  0.184276  1
  Si  Si32  1  0.702928  0.053481  0.563449  1
  Si  Si33  1  0.940570  0.291996  0.938604  1
  Si  Si34  1  0.053481  0.702928  0.436551  1
  Pd  Pd35  1  0.319964  0.319964  0.000000  1
