# generated using pymatgen
data_Tb4Ho6Tm2InCo5
_symmetry_space_group_name_H-M   'P 1'
_cell_length_a   8.25137342
_cell_length_b   8.24407694
_cell_length_c   8.25137448
_cell_angle_alpha   110.64760009
_cell_angle_beta   110.81787789
_cell_angle_gamma   107.01083853
_symmetry_Int_Tables_number   1
_chemical_formula_structural   Tb4Ho6Tm2InCo5
_chemical_formula_sum   'Tb4 Ho6 Tm2 In1 Co5'
_cell_volume   431.30257744
_cell_formula_units_Z   1
loop_
 _symmetry_equiv_pos_site_id
 _symmetry_equiv_pos_as_xyz
  1  'x, y, z'
loop_
 _atom_site_type_symbol
 _atom_site_label
 _atom_site_symmetry_multiplicity
 _atom_site_fract_x
 _atom_site_fract_y
 _atom_site_fract_z
 _atom_site_occupancy
  Tb  Tb0  1  0.812330  0.707710  0.521576  1
  Tb  Tb1  1  0.187670  0.292290  0.478424  1
  Tb  Tb2  1  0.186136  0.707710  0.895380  1
  Tb  Tb3  1  0.813864  0.292290  0.104620  1
  Ho  Ho4  1  0.685284  0.991392  0.306109  1
  Ho  Ho5  1  0.314716  0.008608  0.693891  1
  Ho  Ho6  1  0.598962  0.789738  0.807898  1
  Ho  Ho7  1  0.401038  0.210262  0.192102  1
  Ho  Ho8  1  0.981839  0.789738  0.190776  1
  Ho  Ho9  1  0.018161  0.210262  0.809224  1
  Tm  Tm10  1  0.684874  0.377927  0.693055  1
  Tm  Tm11  1  0.315126  0.622073  0.306945  1
  In  In12  1  0.500000  0.500000  0.000000  1
  Co  Co13  1  0.621442  0.000000  0.621442  1
  Co  Co14  1  0.378558  0.000000  0.378558  1
  Co  Co15  1  0.113106  0.612526  0.499420  1
  Co  Co16  1  0.886894  0.387474  0.500580  1
  Co  Co17  1  0.000000  0.000000  0.000000  1
