# generated using pymatgen
data_La2B3Os2Ru2C
_symmetry_space_group_name_H-M   'P 1'
_cell_length_a   6.85437488
_cell_length_b   6.06474396
_cell_length_c   5.62649184
_cell_angle_alpha   71.67593722
_cell_angle_beta   56.47446407
_cell_angle_gamma   51.19088923
_symmetry_Int_Tables_number   1
_chemical_formula_structural   La2B3Os2Ru2C
_chemical_formula_sum   'La2 B3 Os2 Ru2 C1'
_cell_volume   151.75645837
_cell_formula_units_Z   1
loop_
 _symmetry_equiv_pos_site_id
 _symmetry_equiv_pos_as_xyz
  1  'x, y, z'
loop_
 _atom_site_type_symbol
 _atom_site_label
 _atom_site_symmetry_multiplicity
 _atom_site_fract_x
 _atom_site_fract_y
 _atom_site_fract_z
 _atom_site_occupancy
  La  La0  1  0.999841  0.000159  0.999841  1
  La  La1  1  0.250096  0.249904  0.250096  1
  B  B2  1  0.682661  0.317339  0.682661  1
  B  B3  1  0.573698  0.926302  0.573698  1
  B  B4  1  0.928102  0.571898  0.928102  1
  Os  Os5  1  0.605426  0.616183  0.897353  1
  Os  Os6  1  0.897353  0.881038  0.605426  1
  Ru  Ru7  1  0.626421  0.640460  0.368665  1
  Ru  Ru8  1  0.368665  0.364454  0.626421  1
  C  C9  1  0.317736  0.682264  0.317736  1
