# generated using pymatgen
data_Eu2CoNiP4
_symmetry_space_group_name_H-M   'P 1'
_cell_length_a   7.96942539
_cell_length_b   7.96942560
_cell_length_c   4.15635400
_cell_angle_alpha   90.00000000
_cell_angle_beta   90.00000000
_cell_angle_gamma   149.88734134
_symmetry_Int_Tables_number   1
_chemical_formula_structural   Eu2CoNiP4
_chemical_formula_sum   'Eu2 Co1 Ni1 P4'
_cell_volume   132.43789739
_cell_formula_units_Z   1
loop_
 _symmetry_equiv_pos_site_id
 _symmetry_equiv_pos_as_xyz
  1  'x, y, z'
loop_
 _atom_site_type_symbol
 _atom_site_label
 _atom_site_symmetry_multiplicity
 _atom_site_fract_x
 _atom_site_fract_y
 _atom_site_fract_z
 _atom_site_occupancy
  Eu  Eu0  1  0.893687  0.106313  0.750000  1
  Eu  Eu1  1  0.104890  0.895110  0.250000  1
  Co  Co2  1  0.686089  0.313911  0.750000  1
  Ni  Ni3  1  0.315219  0.684781  0.250000  1
  P  P4  1  0.541170  0.458830  0.750000  1
  P  P5  1  0.462162  0.537838  0.250000  1
  P  P6  1  0.249519  0.750481  0.750000  1
  P  P7  1  0.747263  0.252737  0.250000  1
