# generated using pymatgen
data_YLu7(Si4W3)4
_symmetry_space_group_name_H-M   'P 1'
_cell_length_a   6.70797182
_cell_length_b   6.89316131
_cell_length_c   12.82732453
_cell_angle_alpha   89.96399993
_cell_angle_beta   90.00107276
_cell_angle_gamma   89.96002495
_symmetry_Int_Tables_number   1
_chemical_formula_structural   YLu7(Si4W3)4
_chemical_formula_sum   'Y1 Lu7 Si16 W12'
_cell_volume   593.12408847
_cell_formula_units_Z   1
loop_
 _symmetry_equiv_pos_site_id
 _symmetry_equiv_pos_as_xyz
  1  'x, y, z'
loop_
 _atom_site_type_symbol
 _atom_site_label
 _atom_site_symmetry_multiplicity
 _atom_site_fract_x
 _atom_site_fract_y
 _atom_site_fract_z
 _atom_site_occupancy
  Y  Y0  1  0.995986  0.831999  0.592479  1
  Lu  Lu1  1  0.494749  0.668219  0.592934  1
  Lu  Lu2  1  0.994879  0.831568  0.906975  1
  Lu  Lu3  1  0.505280  0.331389  0.093052  1
  Lu  Lu4  1  0.005402  0.168902  0.406511  1
  Lu  Lu5  1  0.505352  0.331880  0.406849  1
  Lu  Lu6  1  0.005173  0.168528  0.092999  1
  Lu  Lu7  1  0.494939  0.668532  0.907296  1
  Si  Si8  1  0.662664  0.960318  0.452794  1
  Si  Si9  1  0.163389  0.540031  0.046560  1
  Si  Si10  1  0.336714  0.039988  0.953724  1
  Si  Si11  1  0.835970  0.457981  0.546229  1
  Si  Si12  1  0.338779  0.041317  0.546124  1
  Si  Si13  1  0.836643  0.460045  0.953683  1
  Si  Si14  1  0.663283  0.959893  0.046694  1
  Si  Si15  1  0.163574  0.539328  0.452717  1
  Si  Si16  1  0.464729  0.373515  0.750464  1
  Si  Si17  1  0.964491  0.128101  0.750603  1
  Si  Si18  1  0.534769  0.626530  0.249628  1
  Si  Si19  1  0.034905  0.873196  0.250026  1
  Si  Si20  1  0.696051  0.863358  0.750699  1
  Si  Si21  1  0.198370  0.635660  0.750943  1
  Si  Si22  1  0.302914  0.136914  0.249877  1
  Si  Si23  1  0.802579  0.362862  0.249697  1
  W  W24  1  0.667379  0.164415  0.625508  1
  W  W25  1  0.168895  0.336563  0.875289  1
  W  W26  1  0.330732  0.836665  0.124852  1
  W  W27  1  0.830333  0.662382  0.374381  1
  W  W28  1  0.331577  0.836517  0.374571  1
  W  W29  1  0.831156  0.663173  0.124891  1
  W  W30  1  0.668939  0.163419  0.875541  1
  W  W31  1  0.169223  0.336811  0.624814  1
  W  W32  1  0.832459  0.501583  0.750489  1
  W  W33  1  0.333313  0.998523  0.750414  1
  W  W34  1  0.167154  0.497605  0.249793  1
  W  W35  1  0.667258  0.002293  0.249899  1
