# generated using pymatgen
data_Er9LuZn3Bi2Au
_symmetry_space_group_name_H-M   'P 1'
_cell_length_a   8.58937611
_cell_length_b   8.58937663
_cell_length_c   8.58925806
_cell_angle_alpha   124.09864734
_cell_angle_beta   124.09156170
_cell_angle_gamma   83.04319894
_symmetry_Int_Tables_number   1
_chemical_formula_structural   Er9LuZn3Bi2Au
_chemical_formula_sum   'Er9 Lu1 Zn3 Bi2 Au1'
_cell_volume   416.97651137
_cell_formula_units_Z   1
loop_
 _symmetry_equiv_pos_site_id
 _symmetry_equiv_pos_as_xyz
  1  'x, y, z'
loop_
 _atom_site_type_symbol
 _atom_site_label
 _atom_site_symmetry_multiplicity
 _atom_site_fract_x
 _atom_site_fract_y
 _atom_site_fract_z
 _atom_site_occupancy
  Er  Er0  1  0.000475  0.000338  0.000813  1
  Er  Er1  1  0.510007  0.011716  0.805520  1
  Er  Er2  1  0.204885  0.705822  0.194499  1
  Er  Er3  1  0.011970  0.205434  0.500417  1
  Er  Er4  1  0.705468  0.511156  0.499659  1
  Er  Er5  1  0.488675  0.989611  0.194499  1
  Er  Er6  1  0.793807  0.295516  0.805520  1
  Er  Er7  1  0.988504  0.794191  0.499659  1
  Er  Er8  1  0.294983  0.488447  0.500417  1
  Lu  Lu9  1  0.499630  0.499416  0.999046  1
  Zn  Zn10  1  0.138091  0.639467  0.777557  1
  Zn  Zn11  1  0.860149  0.362179  0.222329  1
  Zn  Zn12  1  0.639736  0.859854  0.499589  1
  Bi  Bi13  1  0.249721  0.250952  0.000010  1
  Bi  Bi14  1  0.749059  0.750289  0.000010  1
  Au  Au15  1  0.364843  0.135612  0.500455  1
