# generated using pymatgen
data_TbY7Re2(TcC4)2
_symmetry_space_group_name_H-M   'P 1'
_cell_length_a   5.11993300
_cell_length_b   6.59504215
_cell_length_c   9.90407222
_cell_angle_alpha   90.02457489
_cell_angle_beta   90.00000000
_cell_angle_gamma   90.00000000
_symmetry_Int_Tables_number   1
_chemical_formula_structural   TbY7Re2(TcC4)2
_chemical_formula_sum   'Tb1 Y7 Re2 Tc2 C8'
_cell_volume   334.42259488
_cell_formula_units_Z   1
loop_
 _symmetry_equiv_pos_site_id
 _symmetry_equiv_pos_as_xyz
  1  'x, y, z'
loop_
 _atom_site_type_symbol
 _atom_site_label
 _atom_site_symmetry_multiplicity
 _atom_site_fract_x
 _atom_site_fract_y
 _atom_site_fract_z
 _atom_site_occupancy
  Tb  Tb0  1  0.250000  0.532427  0.215052  1
  Y  Y1  1  0.750000  0.822468  0.056308  1
  Y  Y2  1  0.250000  0.677736  0.556240  1
  Y  Y3  1  0.750000  0.320983  0.442646  1
  Y  Y4  1  0.250000  0.179048  0.942374  1
  Y  Y5  1  0.750000  0.466472  0.783766  1
  Y  Y6  1  0.250000  0.033327  0.283727  1
  Y  Y7  1  0.750000  0.966927  0.715682  1
  Re  Re8  1  0.750000  0.780076  0.365381  1
  Re  Re9  1  0.250000  0.720245  0.864797  1
  Tc  Tc10  1  0.750000  0.279490  0.134732  1
  Tc  Tc11  1  0.250000  0.220519  0.634698  1
  C  C12  1  0.750000  0.178584  0.952905  1
  C  C13  1  0.250000  0.821405  0.047809  1
  C  C14  1  0.750000  0.678952  0.548246  1
  C  C15  1  0.250000  0.321191  0.453080  1
  C  C16  1  0.750000  0.045950  0.259797  1
  C  C17  1  0.250000  0.454052  0.759609  1
  C  C18  1  0.750000  0.548067  0.241793  1
  C  C19  1  0.250000  0.952079  0.741357  1
