# generated using pymatgen
data_Tb16Cd4Ni3Ir
_symmetry_space_group_name_H-M   'P 1'
_cell_length_a   9.63023103
_cell_length_b   9.63023136
_cell_length_c   9.63023075
_cell_angle_alpha   59.77939175
_cell_angle_beta   59.77939332
_cell_angle_gamma   59.77938995
_symmetry_Int_Tables_number   1
_chemical_formula_structural   Tb16Cd4Ni3Ir
_chemical_formula_sum   'Tb16 Cd4 Ni3 Ir1'
_cell_volume   628.36853939
_cell_formula_units_Z   1
loop_
 _symmetry_equiv_pos_site_id
 _symmetry_equiv_pos_as_xyz
  1  'x, y, z'
loop_
 _atom_site_type_symbol
 _atom_site_label
 _atom_site_symmetry_multiplicity
 _atom_site_fract_x
 _atom_site_fract_y
 _atom_site_fract_z
 _atom_site_occupancy
  Tb  Tb0  1  0.347062  0.347062  0.347062  1
  Tb  Tb1  1  0.351217  0.351217  0.952890  1
  Tb  Tb2  1  0.351217  0.952890  0.351217  1
  Tb  Tb3  1  0.952890  0.351217  0.351217  1
  Tb  Tb4  1  0.807770  0.189703  0.189703  1
  Tb  Tb5  1  0.186898  0.811242  0.811242  1
  Tb  Tb6  1  0.189703  0.807770  0.189703  1
  Tb  Tb7  1  0.811242  0.186898  0.811242  1
  Tb  Tb8  1  0.189703  0.189703  0.807770  1
  Tb  Tb9  1  0.811242  0.811242  0.186898  1
  Tb  Tb10  1  0.936189  0.565560  0.565560  1
  Tb  Tb11  1  0.560248  0.937363  0.937363  1
  Tb  Tb12  1  0.565560  0.936189  0.565560  1
  Tb  Tb13  1  0.937363  0.560248  0.937363  1
  Tb  Tb14  1  0.565560  0.565560  0.936189  1
  Tb  Tb15  1  0.937363  0.937363  0.560248  1
  Cd  Cd16  1  0.580371  0.580371  0.580371  1
  Cd  Cd17  1  0.580451  0.580451  0.256445  1
  Cd  Cd18  1  0.580451  0.256445  0.580451  1
  Cd  Cd19  1  0.256445  0.580451  0.580451  1
  Ni  Ni20  1  0.142007  0.142007  0.574137  1
  Ni  Ni21  1  0.142007  0.574137  0.142007  1
  Ni  Ni22  1  0.574137  0.142007  0.142007  1
  Ir  Ir23  1  0.142902  0.142902  0.142902  1
