# generated using pymatgen
data_TmMgIr4
_symmetry_space_group_name_H-M   'P 1'
_cell_length_a   5.26817800
_cell_length_b   5.26817715
_cell_length_c   8.57289800
_cell_angle_alpha   90.00000000
_cell_angle_beta   90.00000000
_cell_angle_gamma   120.00000533
_symmetry_Int_Tables_number   1
_chemical_formula_structural   TmMgIr4
_chemical_formula_sum   'Tm2 Mg2 Ir8'
_cell_volume   206.05306348
_cell_formula_units_Z   2
loop_
 _symmetry_equiv_pos_site_id
 _symmetry_equiv_pos_as_xyz
  1  'x, y, z'
loop_
 _atom_site_type_symbol
 _atom_site_label
 _atom_site_symmetry_multiplicity
 _atom_site_fract_x
 _atom_site_fract_y
 _atom_site_fract_z
 _atom_site_occupancy
  Tm  Tm0  1  0.333333  0.666667  0.069103  1
  Tm  Tm1  1  0.666667  0.333333  0.569103  1
  Mg  Mg2  1  0.666667  0.333333  0.934432  1
  Mg  Mg3  1  0.333333  0.666667  0.434432  1
  Ir  Ir4  1  0.000000  0.000000  0.996724  1
  Ir  Ir5  1  0.000000  0.000000  0.496724  1
  Ir  Ir6  1  0.829023  0.658046  0.249914  1
  Ir  Ir7  1  0.170977  0.829023  0.749914  1
  Ir  Ir8  1  0.658046  0.829023  0.749914  1
  Ir  Ir9  1  0.341954  0.170977  0.249914  1
  Ir  Ir10  1  0.829023  0.170977  0.249914  1
  Ir  Ir11  1  0.170977  0.341954  0.749914  1
