# generated using pymatgen
data_Ho4Al24Pt8Au
_symmetry_space_group_name_H-M   'P 1'
_cell_length_a   7.54762055
_cell_length_b   7.56644088
_cell_length_c   13.15646516
_cell_angle_alpha   84.55810068
_cell_angle_beta   79.01745155
_cell_angle_gamma   59.89546856
_symmetry_Int_Tables_number   1
_chemical_formula_structural   Ho4Al24Pt8Au
_chemical_formula_sum   'Ho4 Al24 Pt8 Au1'
_cell_volume   638.09486032
_cell_formula_units_Z   1
loop_
 _symmetry_equiv_pos_site_id
 _symmetry_equiv_pos_as_xyz
  1  'x, y, z'
loop_
 _atom_site_type_symbol
 _atom_site_label
 _atom_site_symmetry_multiplicity
 _atom_site_fract_x
 _atom_site_fract_y
 _atom_site_fract_z
 _atom_site_occupancy
  Ho  Ho0  1  0.392797  0.169219  0.808834  1
  Ho  Ho1  1  0.606022  0.831746  0.192383  1
  Ho  Ho2  1  0.734113  0.499003  0.808668  1
  Ho  Ho3  1  0.266624  0.501154  0.191725  1
  Al  Al4  1  0.683048  0.834072  0.945232  1
  Al  Al5  1  0.315875  0.166133  0.056219  1
  Al  Al6  1  0.146826  0.839005  0.560034  1
  Al  Al7  1  0.854305  0.167326  0.436379  1
  Al  Al8  1  0.488339  0.159476  0.557461  1
  Al  Al9  1  0.520161  0.833621  0.439807  1
  Al  Al10  1  0.217947  0.165364  0.328200  1
  Al  Al11  1  0.777276  0.838933  0.673959  1
  Al  Al12  1  0.440112  0.506921  0.674133  1
  Al  Al13  1  0.563141  0.493555  0.327898  1
  Al  Al14  1  0.108612  0.154531  0.672804  1
  Al  Al15  1  0.890644  0.839926  0.329236  1
  Al  Al16  1  0.353519  0.498811  0.945022  1
  Al  Al17  1  0.646834  0.500879  0.056216  1
  Al  Al18  1  0.015450  0.167892  0.953351  1
  Al  Al19  1  0.983953  0.832195  0.048035  1
  Al  Al20  1  0.188077  0.499668  0.436479  1
  Al  Al21  1  0.806810  0.500005  0.557370  1
  Al  Al22  1  0.733898  0.164001  0.183297  1
  Al  Al23  1  0.266924  0.835392  0.816903  1
  Al  Al24  1  0.060457  0.633355  0.818072  1
  Al  Al25  1  0.938585  0.368897  0.184655  1
  Al  Al26  1  0.854095  0.042190  0.816324  1
  Al  Al27  1  0.144852  0.958097  0.183832  1
  Pt  Pt28  1  0.879590  0.508739  0.360993  1
  Pt  Pt29  1  0.657344  0.171465  0.999382  1
  Pt  Pt30  1  0.342899  0.828404  0.999795  1
  Pt  Pt31  1  0.537393  0.166806  0.361100  1
  Pt  Pt32  1  0.462646  0.833194  0.638318  1
  Pt  Pt33  1  0.778940  0.175283  0.636913  1
  Pt  Pt34  1  0.221434  0.824653  0.362424  1
  Pt  Pt35  1  0.000029  0.499911  0.000192  1
  Au  Au36  1  0.120429  0.490179  0.638348  1
