# generated using pymatgen
data_YbU7NiS17
_symmetry_space_group_name_H-M   'P 1'
_cell_length_a   7.74618504
_cell_length_b   7.77752569
_cell_length_c   10.32532200
_cell_angle_alpha   80.90544205
_cell_angle_beta   80.54200432
_cell_angle_gamma   64.92384146
_symmetry_Int_Tables_number   1
_chemical_formula_structural   YbU7NiS17
_chemical_formula_sum   'Yb1 U7 Ni1 S17'
_cell_volume   553.04126357
_cell_formula_units_Z   1
loop_
 _symmetry_equiv_pos_site_id
 _symmetry_equiv_pos_as_xyz
  1  'x, y, z'
loop_
 _atom_site_type_symbol
 _atom_site_label
 _atom_site_symmetry_multiplicity
 _atom_site_fract_x
 _atom_site_fract_y
 _atom_site_fract_z
 _atom_site_occupancy
  Yb  Yb0  1  0.811588  0.308883  0.295205  1
  U  U1  1  0.299818  0.821822  0.294574  1
  U  U2  1  0.181660  0.697314  0.701561  1
  U  U3  1  0.699381  0.180313  0.704907  1
  U  U4  1  0.201858  0.201358  0.543832  1
  U  U5  1  0.800286  0.794341  0.453576  1
  U  U6  1  0.682724  0.677436  0.985092  1
  U  U7  1  0.313460  0.321650  0.017224  1
  Ni  Ni8  1  0.002981  0.999553  0.001614  1
  S  S9  1  0.825566  0.431529  0.544233  1
  S  S10  1  0.434795  0.816658  0.534749  1
  S  S11  1  0.183816  0.563336  0.463131  1
  S  S12  1  0.570704  0.169633  0.474379  1
  S  S13  1  0.945982  0.325347  0.019354  1
  S  S14  1  0.324658  0.949946  0.025880  1
  S  S15  1  0.051166  0.679833  0.970830  1
  S  S16  1  0.675054  0.058806  0.971138  1
  S  S17  1  0.226467  0.204143  0.279817  1
  S  S18  1  0.785854  0.787325  0.721689  1
  S  S19  1  0.057307  0.049540  0.778919  1
  S  S20  1  0.952192  0.937162  0.224542  1
  S  S21  1  0.299860  0.301536  0.755746  1
  S  S22  1  0.688355  0.713616  0.242344  1
  S  S23  1  0.518639  0.523053  0.828917  1
  S  S24  1  0.460270  0.496261  0.159284  1
  S  S25  1  0.005557  0.989605  0.507463  1
