# generated using pymatgen
data_LaTb2Dy(WO6)2
_symmetry_space_group_name_H-M   'P 1'
_cell_length_a   5.48451300
_cell_length_b   7.82167417
_cell_length_c   11.62851803
_cell_angle_alpha   75.73751533
_cell_angle_beta   90.00000000
_cell_angle_gamma   90.00000000
_symmetry_Int_Tables_number   1
_chemical_formula_structural   LaTb2Dy(WO6)2
_chemical_formula_sum   'La2 Tb4 Dy2 W4 O24'
_cell_volume   483.46537125
_cell_formula_units_Z   2
loop_
 _symmetry_equiv_pos_site_id
 _symmetry_equiv_pos_as_xyz
  1  'x, y, z'
loop_
 _atom_site_type_symbol
 _atom_site_label
 _atom_site_symmetry_multiplicity
 _atom_site_fract_x
 _atom_site_fract_y
 _atom_site_fract_z
 _atom_site_occupancy
  La  La0  1  0.685947  0.499587  0.750261  1
  La  La1  1  0.314053  0.499587  0.250261  1
  Tb  Tb2  1  0.741072  0.000316  0.750040  1
  Tb  Tb3  1  0.258928  0.000316  0.250040  1
  Tb  Tb4  1  0.188001  0.798731  0.575948  1
  Tb  Tb5  1  0.811999  0.798731  0.075948  1
  Dy  Dy6  1  0.187821  0.201763  0.923648  1
  Dy  Dy7  1  0.812179  0.201763  0.423648  1
  W  W8  1  0.251829  0.728530  0.883899  1
  W  W9  1  0.748171  0.728530  0.383899  1
  W  W10  1  0.251919  0.271033  0.616021  1
  W  W11  1  0.748081  0.271033  0.116021  1
  O  O12  1  0.041955  0.941794  0.895941  1
  O  O13  1  0.529010  0.846395  0.930512  1
  O  O14  1  0.958045  0.941794  0.395941  1
  O  O15  1  0.453628  0.794726  0.728330  1
  O  O16  1  0.470990  0.846395  0.430512  1
  O  O17  1  0.986901  0.721051  0.769795  1
  O  O18  1  0.546372  0.794726  0.228330  1
  O  O19  1  0.856665  0.643034  0.543680  1
  O  O20  1  0.346263  0.495109  0.887372  1
  O  O21  1  0.013099  0.721051  0.269795  1
  O  O22  1  0.346744  0.504146  0.612546  1
  O  O23  1  0.857915  0.356438  0.956286  1
  O  O24  1  0.143335  0.643034  0.043680  1
  O  O25  1  0.653737  0.495109  0.387372  1
  O  O26  1  0.987496  0.279019  0.730707  1
  O  O27  1  0.653256  0.504146  0.112546  1
  O  O28  1  0.142085  0.356438  0.456286  1
  O  O29  1  0.452795  0.204915  0.772127  1
  O  O30  1  0.012504  0.279019  0.230707  1
  O  O31  1  0.529765  0.154006  0.569039  1
  O  O32  1  0.547205  0.204915  0.272127  1
  O  O33  1  0.040681  0.059407  0.603849  1
  O  O34  1  0.470235  0.154006  0.069039  1
  O  O35  1  0.959319  0.059407  0.103849  1
