# generated using pymatgen
data_Th8Fe3Si12Pd
_symmetry_space_group_name_H-M   'P 1'
_cell_length_a   8.15717800
_cell_length_b   8.15717804
_cell_length_c   8.37035300
_cell_angle_alpha   90.00000000
_cell_angle_beta   90.00000000
_cell_angle_gamma   119.99999171
_symmetry_Int_Tables_number   1
_chemical_formula_structural   Th8Fe3Si12Pd
_chemical_formula_sum   'Th8 Fe3 Si12 Pd1'
_cell_volume   482.34115903
_cell_formula_units_Z   1
loop_
 _symmetry_equiv_pos_site_id
 _symmetry_equiv_pos_as_xyz
  1  'x, y, z'
loop_
 _atom_site_type_symbol
 _atom_site_label
 _atom_site_symmetry_multiplicity
 _atom_site_fract_x
 _atom_site_fract_y
 _atom_site_fract_z
 _atom_site_occupancy
  Th  Th0  1  0.496420  0.503580  0.755069  1
  Th  Th1  1  0.496712  0.503288  0.244884  1
  Th  Th2  1  0.007158  0.503580  0.755069  1
  Th  Th3  1  0.006576  0.503288  0.244884  1
  Th  Th4  1  0.496420  0.992842  0.755069  1
  Th  Th5  1  0.496712  0.993424  0.244884  1
  Th  Th6  1  0.000000  0.000000  0.750964  1
  Th  Th7  1  0.000000  0.000000  0.249070  1
  Fe  Fe8  1  0.666667  0.333333  0.999989  1
  Fe  Fe9  1  0.333333  0.666667  0.000114  1
  Fe  Fe10  1  0.333333  0.666667  0.499886  1
  Si  Si11  1  0.829273  0.170727  0.999757  1
  Si  Si12  1  0.170204  0.829796  0.000223  1
  Si  Si13  1  0.341455  0.170727  0.999757  1
  Si  Si14  1  0.171829  0.828171  0.499752  1
  Si  Si15  1  0.659591  0.829796  0.000223  1
  Si  Si16  1  0.836126  0.163874  0.500186  1
  Si  Si17  1  0.829273  0.658545  0.999757  1
  Si  Si18  1  0.656341  0.828171  0.499752  1
  Si  Si19  1  0.170204  0.340409  0.000223  1
  Si  Si20  1  0.327750  0.163874  0.500186  1
  Si  Si21  1  0.171829  0.343659  0.499752  1
  Si  Si22  1  0.836126  0.672250  0.500186  1
  Pd  Pd23  1  0.666667  0.333333  0.500367  1
