# generated using pymatgen
data_TbHoFe2(Co4P3)2
_symmetry_space_group_name_H-M   'P 1'
_cell_length_a   3.65872700
_cell_length_b   10.25561800
_cell_length_c   11.76481300
_cell_angle_alpha   90.00000000
_cell_angle_beta   90.00000000
_cell_angle_gamma   90.00000000
_symmetry_Int_Tables_number   1
_chemical_formula_structural   TbHoFe2(Co4P3)2
_chemical_formula_sum   'Tb2 Ho2 Fe4 Co16 P12'
_cell_volume   441.44527201
_cell_formula_units_Z   2
loop_
 _symmetry_equiv_pos_site_id
 _symmetry_equiv_pos_as_xyz
  1  'x, y, z'
loop_
 _atom_site_type_symbol
 _atom_site_label
 _atom_site_symmetry_multiplicity
 _atom_site_fract_x
 _atom_site_fract_y
 _atom_site_fract_z
 _atom_site_occupancy
  Tb  Tb0  1  0.750000  0.418620  0.296909  1
  Tb  Tb1  1  0.750000  0.081380  0.796909  1
  Ho  Ho2  1  0.250000  0.581310  0.703088  1
  Ho  Ho3  1  0.250000  0.918690  0.203088  1
  Fe  Fe4  1  0.250000  0.709703  0.987448  1
  Fe  Fe5  1  0.250000  0.790297  0.487448  1
  Fe  Fe6  1  0.750000  0.290275  0.012668  1
  Fe  Fe7  1  0.750000  0.209725  0.512668  1
  Co  Co8  1  0.250000  0.406017  0.487938  1
  Co  Co9  1  0.250000  0.093983  0.987938  1
  Co  Co10  1  0.750000  0.594327  0.513156  1
  Co  Co11  1  0.750000  0.905673  0.013156  1
  Co  Co12  1  0.250000  0.221173  0.176417  1
  Co  Co13  1  0.250000  0.278827  0.676417  1
  Co  Co14  1  0.750000  0.778224  0.823566  1
  Co  Co15  1  0.750000  0.721776  0.323566  1
  Co  Co16  1  0.250000  0.881500  0.698103  1
  Co  Co17  1  0.250000  0.618500  0.198103  1
  Co  Co18  1  0.750000  0.117307  0.301458  1
  Co  Co19  1  0.750000  0.382693  0.801458  1
  Co  Co20  1  0.250000  0.467022  0.932636  1
  Co  Co21  1  0.250000  0.032978  0.432636  1
  Co  Co22  1  0.750000  0.533775  0.066678  1
  Co  Co23  1  0.750000  0.966225  0.566678  1
  P  P24  1  0.250000  0.419114  0.112617  1
  P  P25  1  0.250000  0.080886  0.612617  1
  P  P26  1  0.750000  0.580930  0.886474  1
  P  P27  1  0.750000  0.919070  0.386474  1
  P  P28  1  0.250000  0.270200  0.868415  1
  P  P29  1  0.250000  0.229800  0.368415  1
  P  P30  1  0.750000  0.730628  0.132056  1
  P  P31  1  0.750000  0.769372  0.632056  1
  P  P32  1  0.250000  0.602732  0.392618  1
  P  P33  1  0.250000  0.897268  0.892618  1
  P  P34  1  0.750000  0.397998  0.607755  1
  P  P35  1  0.750000  0.102002  0.107755  1
