# generated using pymatgen
data_Ca2Ac(HgPd)3
_symmetry_space_group_name_H-M   'P 1'
_cell_length_a   7.73367500
_cell_length_b   7.78459372
_cell_length_c   4.05962700
_cell_angle_alpha   90.00000000
_cell_angle_beta   90.00000000
_cell_angle_gamma   120.21803919
_symmetry_Int_Tables_number   1
_chemical_formula_structural   Ca2Ac(HgPd)3
_chemical_formula_sum   'Ca2 Ac1 Hg3 Pd3'
_cell_volume   211.19335154
_cell_formula_units_Z   1
loop_
 _symmetry_equiv_pos_site_id
 _symmetry_equiv_pos_as_xyz
  1  'x, y, z'
loop_
 _atom_site_type_symbol
 _atom_site_label
 _atom_site_symmetry_multiplicity
 _atom_site_fract_x
 _atom_site_fract_y
 _atom_site_fract_z
 _atom_site_occupancy
  Ca  Ca0  1  0.398458  0.398645  0.500000  1
  Ca  Ca1  1  0.601542  0.000188  0.500000  1
  Ac  Ac2  1  0.000000  0.600002  0.500000  1
  Hg  Hg3  1  0.724201  0.739301  0.000000  1
  Hg  Hg4  1  0.275799  0.015101  0.000000  1
  Hg  Hg5  1  0.000000  0.247249  0.000000  1
  Pd  Pd6  1  0.675091  0.339920  0.000000  1
  Pd  Pd7  1  0.324909  0.664830  0.000000  1
  Pd  Pd8  1  0.000000  0.994763  0.500000  1
