# generated using pymatgen
data_La3Ce7PrO20
_symmetry_space_group_name_H-M   'P 1'
_cell_length_a   6.78613408
_cell_length_b   6.81822587
_cell_length_c   10.38986200
_cell_angle_alpha   96.36254639
_cell_angle_beta   89.99767305
_cell_angle_gamma   99.82532570
_symmetry_Int_Tables_number   1
_chemical_formula_structural   La3Ce7PrO20
_chemical_formula_sum   'La3 Ce7 Pr1 O20'
_cell_volume   470.67649676
_cell_formula_units_Z   1
loop_
 _symmetry_equiv_pos_site_id
 _symmetry_equiv_pos_as_xyz
  1  'x, y, z'
loop_
 _atom_site_type_symbol
 _atom_site_label
 _atom_site_symmetry_multiplicity
 _atom_site_fract_x
 _atom_site_fract_y
 _atom_site_fract_z
 _atom_site_occupancy
  La  La0  1  0.997746  0.001635  0.999844  1
  La  La1  1  0.178732  0.103256  0.364884  1
  La  La2  1  0.819077  0.895786  0.636039  1
  Ce  Ce3  1  0.879980  0.446134  0.827160  1
  Ce  Ce4  1  0.272165  0.640128  0.526569  1
  Ce  Ce5  1  0.729873  0.358961  0.474713  1
  Ce  Ce6  1  0.357581  0.146892  0.724212  1
  Ce  Ce7  1  0.643687  0.855293  0.275482  1
  Ce  Ce8  1  0.469816  0.734009  0.917033  1
  Ce  Ce9  1  0.526750  0.263986  0.081025  1
  Pr  Pr10  1  0.122765  0.554933  0.172823  1
  O  O11  1  0.140811  0.651725  0.949472  1
  O  O12  1  0.853253  0.340231  0.030561  1
  O  O13  1  0.041724  0.173459  0.794769  1
  O  O14  1  0.952409  0.842246  0.206201  1
  O  O15  1  0.042931  0.437257  0.380892  1
  O  O16  1  0.956784  0.559856  0.632470  1
  O  O17  1  0.163654  0.938434  0.567604  1
  O  O18  1  0.833311  0.059811  0.437113  1
  O  O19  1  0.351039  0.036107  0.923429  1
  O  O20  1  0.643669  0.964481  0.072507  1
  O  O21  1  0.213380  0.225248  0.152060  1
  O  O22  1  0.788022  0.762285  0.847823  1
  O  O23  1  0.322988  0.795691  0.338946  1
  O  O24  1  0.683021  0.209512  0.668043  1
  O  O25  1  0.366488  0.338928  0.548007  1
  O  O26  1  0.637203  0.658629  0.454865  1
  O  O27  1  0.451795  0.811985  0.701109  1
  O  O28  1  0.554335  0.192146  0.298104  1
  O  O29  1  0.476863  0.591212  0.123187  1
  O  O30  1  0.528150  0.409743  0.873057  1
