# generated using pymatgen
data_Zr4In2Cu3Ni
_symmetry_space_group_name_H-M   'P 1'
_cell_length_a   7.24176739
_cell_length_b   7.24176664
_cell_length_c   6.87961553
_cell_angle_alpha   90.11789675
_cell_angle_beta   90.11789285
_cell_angle_gamma   90.43899467
_symmetry_Int_Tables_number   1
_chemical_formula_structural   Zr4In2Cu3Ni
_chemical_formula_sum   'Zr8 In4 Cu6 Ni2'
_cell_volume   360.77685101
_cell_formula_units_Z   2
loop_
 _symmetry_equiv_pos_site_id
 _symmetry_equiv_pos_as_xyz
  1  'x, y, z'
loop_
 _atom_site_type_symbol
 _atom_site_label
 _atom_site_symmetry_multiplicity
 _atom_site_fract_x
 _atom_site_fract_y
 _atom_site_fract_z
 _atom_site_occupancy
  Zr  Zr0  1  0.156193  0.156193  0.005465  1
  Zr  Zr1  1  0.843807  0.843807  0.994535  1
  Zr  Zr2  1  0.651594  0.348406  0.500000  1
  Zr  Zr3  1  0.348406  0.651594  0.500000  1
  Zr  Zr4  1  0.684706  0.315294  0.000000  1
  Zr  Zr5  1  0.315294  0.684706  0.000000  1
  Zr  Zr6  1  0.805815  0.805815  0.504817  1
  Zr  Zr7  1  0.194185  0.194185  0.495183  1
  In  In8  1  0.501356  0.002284  0.248410  1
  In  In9  1  0.498644  0.997716  0.751590  1
  In  In10  1  0.002284  0.501356  0.248410  1
  In  In11  1  0.997716  0.498644  0.751590  1
  Cu  Cu12  1  0.624621  0.624621  0.207950  1
  Cu  Cu13  1  0.878091  0.123964  0.707753  1
  Cu  Cu14  1  0.876036  0.121909  0.292247  1
  Cu  Cu15  1  0.375379  0.375379  0.792050  1
  Cu  Cu16  1  0.121909  0.876036  0.292247  1
  Cu  Cu17  1  0.123964  0.878091  0.707753  1
  Ni  Ni18  1  0.377928  0.377928  0.214903  1
  Ni  Ni19  1  0.622072  0.622072  0.785097  1
