# generated using pymatgen
data_Ho4Cd2Ni2Hg
_symmetry_space_group_name_H-M   'P 1'
_cell_length_a   3.62265100
_cell_length_b   7.37508961
_cell_length_c   8.03106500
_cell_angle_alpha   72.43140899
_cell_angle_beta   90.00000000
_cell_angle_gamma   90.00000000
_symmetry_Int_Tables_number   1
_chemical_formula_structural   Ho4Cd2Ni2Hg
_chemical_formula_sum   'Ho4 Cd2 Ni2 Hg1'
_cell_volume   204.56068594
_cell_formula_units_Z   1
loop_
 _symmetry_equiv_pos_site_id
 _symmetry_equiv_pos_as_xyz
  1  'x, y, z'
loop_
 _atom_site_type_symbol
 _atom_site_label
 _atom_site_symmetry_multiplicity
 _atom_site_fract_x
 _atom_site_fract_y
 _atom_site_fract_z
 _atom_site_occupancy
  Ho  Ho0  1  0.500000  0.916917  0.221446  1
  Ho  Ho1  1  0.500000  0.083083  0.778554  1
  Ho  Ho2  1  0.500000  0.392305  0.316990  1
  Ho  Ho3  1  0.500000  0.607695  0.683010  1
  Cd  Cd4  1  0.000000  0.702019  0.007538  1
  Cd  Cd5  1  0.000000  0.297981  0.992462  1
  Ni  Ni6  1  0.000000  0.654853  0.388834  1
  Ni  Ni7  1  0.000000  0.345147  0.611166  1
  Hg  Hg8  1  0.000000  0.000000  0.500000  1
