# generated using pymatgen
data_Pr2RhPbAu
_symmetry_space_group_name_H-M   'P 1'
_cell_length_a   8.20760903
_cell_length_b   8.20760837
_cell_length_c   3.79183000
_cell_angle_alpha   90.00000000
_cell_angle_beta   90.00000000
_cell_angle_gamma   89.47911723
_symmetry_Int_Tables_number   1
_chemical_formula_structural   Pr2RhPbAu
_chemical_formula_sum   'Pr4 Rh2 Pb2 Au2'
_cell_volume   255.42546794
_cell_formula_units_Z   2
loop_
 _symmetry_equiv_pos_site_id
 _symmetry_equiv_pos_as_xyz
  1  'x, y, z'
loop_
 _atom_site_type_symbol
 _atom_site_label
 _atom_site_symmetry_multiplicity
 _atom_site_fract_x
 _atom_site_fract_y
 _atom_site_fract_z
 _atom_site_occupancy
  Pr  Pr0  1  0.660596  0.160596  0.500000  1
  Pr  Pr1  1  0.339404  0.839404  0.500000  1
  Pr  Pr2  1  0.185907  0.314093  0.500000  1
  Pr  Pr3  1  0.814093  0.685907  0.500000  1
  Rh  Rh4  1  0.627953  0.872047  0.000000  1
  Rh  Rh5  1  0.372047  0.127953  0.000000  1
  Pb  Pb6  1  0.000000  0.000000  0.000000  1
  Pb  Pb7  1  0.500000  0.500000  0.000000  1
  Au  Au8  1  0.124805  0.624805  0.000000  1
  Au  Au9  1  0.875195  0.375195  0.000000  1
