# generated using pymatgen
data_Hf6Sc2Ti3V9Si16
_symmetry_space_group_name_H-M   'P 1'
_cell_length_a   6.64776618
_cell_length_b   6.65238762
_cell_length_c   12.28456205
_cell_angle_alpha   89.99439566
_cell_angle_beta   90.00873000
_cell_angle_gamma   89.96283578
_symmetry_Int_Tables_number   1
_chemical_formula_structural   Hf6Sc2Ti3V9Si16
_chemical_formula_sum   'Hf6 Sc2 Ti3 V9 Si16'
_cell_volume   543.26642079
_cell_formula_units_Z   1
loop_
 _symmetry_equiv_pos_site_id
 _symmetry_equiv_pos_as_xyz
  1  'x, y, z'
loop_
 _atom_site_type_symbol
 _atom_site_label
 _atom_site_symmetry_multiplicity
 _atom_site_fract_x
 _atom_site_fract_y
 _atom_site_fract_z
 _atom_site_occupancy
  Hf  Hf0  1  0.002711  0.660589  0.029873  1
  Hf  Hf1  1  0.837778  0.503018  0.280219  1
  Hf  Hf2  1  0.161361  0.498495  0.779101  1
  Hf  Hf3  1  0.502728  0.837574  0.719273  1
  Hf  Hf4  1  0.498741  0.161664  0.220258  1
  Hf  Hf5  1  0.996449  0.340341  0.529762  1
  Sc  Sc6  1  0.662659  0.000495  0.970787  1
  Sc  Sc7  1  0.338057  0.998901  0.470700  1
  Ti  Ti8  1  0.331297  0.334005  0.000055  1
  Ti  Ti9  1  0.166809  0.832567  0.250556  1
  Ti  Ti10  1  0.832762  0.167030  0.748911  1
  V  V11  1  0.668390  0.664673  0.500093  1
  V  V12  1  0.004665  0.159656  0.127569  1
  V  V13  1  0.341834  0.505440  0.377098  1
  V  V14  1  0.657916  0.496233  0.875826  1
  V  V15  1  0.505659  0.342193  0.622801  1
  V  V16  1  0.495621  0.657679  0.124189  1
  V  V17  1  0.995484  0.840165  0.627310  1
  V  V18  1  0.157839  0.004599  0.872708  1
  V  V19  1  0.842034  0.995651  0.372765  1
  Si  Si20  1  0.293202  0.959081  0.062572  1
  Si  Si21  1  0.541606  0.792647  0.315647  1
  Si  Si22  1  0.459967  0.206188  0.813762  1
  Si  Si23  1  0.791684  0.542333  0.685311  1
  Si  Si24  1  0.207134  0.458968  0.186933  1
  Si  Si25  1  0.706854  0.037215  0.561655  1
  Si  Si26  1  0.957524  0.291290  0.936803  1
  Si  Si27  1  0.039075  0.708915  0.437492  1
  Si  Si28  1  0.706031  0.371613  0.071843  1
  Si  Si29  1  0.128910  0.206432  0.322330  1
  Si  Si30  1  0.871154  0.793581  0.822330  1
  Si  Si31  1  0.207040  0.127837  0.678199  1
  Si  Si32  1  0.792640  0.872238  0.178238  1
  Si  Si33  1  0.296253  0.628615  0.571094  1
  Si  Si34  1  0.373006  0.707293  0.927665  1
  Si  Si35  1  0.627126  0.294787  0.428272  1
