# generated using pymatgen
data_Zr18Co2Re6MoW
_symmetry_space_group_name_H-M   'P 1'
_cell_length_a   8.71447800
_cell_length_b   8.71447772
_cell_length_c   8.52816400
_cell_angle_alpha   90.00000000
_cell_angle_beta   90.00000000
_cell_angle_gamma   120.00000108
_symmetry_Int_Tables_number   1
_chemical_formula_structural   Zr18Co2Re6MoW
_chemical_formula_sum   'Zr18 Co2 Re6 Mo1 W1'
_cell_volume   560.87865401
_cell_formula_units_Z   1
loop_
 _symmetry_equiv_pos_site_id
 _symmetry_equiv_pos_as_xyz
  1  'x, y, z'
loop_
 _atom_site_type_symbol
 _atom_site_label
 _atom_site_symmetry_multiplicity
 _atom_site_fract_x
 _atom_site_fract_y
 _atom_site_fract_z
 _atom_site_occupancy
  Zr  Zr0  1  0.541762  0.083524  0.249801  1
  Zr  Zr1  1  0.458238  0.916476  0.750199  1
  Zr  Zr2  1  0.916476  0.458238  0.249801  1
  Zr  Zr3  1  0.541762  0.458238  0.249801  1
  Zr  Zr4  1  0.458238  0.541762  0.750199  1
  Zr  Zr5  1  0.083524  0.541762  0.750199  1
  Zr  Zr6  1  0.199484  0.398968  0.058554  1
  Zr  Zr7  1  0.799843  0.599686  0.558449  1
  Zr  Zr8  1  0.601032  0.800516  0.058554  1
  Zr  Zr9  1  0.199484  0.800516  0.058554  1
  Zr  Zr10  1  0.799843  0.200157  0.558449  1
  Zr  Zr11  1  0.400314  0.200157  0.558449  1
  Zr  Zr12  1  0.800516  0.601032  0.941446  1
  Zr  Zr13  1  0.800516  0.199484  0.941446  1
  Zr  Zr14  1  0.398968  0.199484  0.941446  1
  Zr  Zr15  1  0.599686  0.799843  0.441551  1
  Zr  Zr16  1  0.200157  0.799843  0.441551  1
  Zr  Zr17  1  0.200157  0.400314  0.441551  1
  Co  Co18  1  0.333333  0.666667  0.249754  1
  Co  Co19  1  0.666667  0.333333  0.750246  1
  Re  Re20  1  0.890827  0.781653  0.250146  1
  Re  Re21  1  0.109173  0.218347  0.749854  1
  Re  Re22  1  0.218347  0.109173  0.250146  1
  Re  Re23  1  0.890827  0.109173  0.250146  1
  Re  Re24  1  0.109173  0.890827  0.749854  1
  Re  Re25  1  0.781653  0.890827  0.749854  1
  Mo  Mo26  1  0.000000  0.000000  0.500000  1
  W  W27  1  0.000000  0.000000  0.000000  1
