# generated using pymatgen
data_Lu4Al18Cu2RuRh3
_symmetry_space_group_name_H-M   'P 1'
_cell_length_a   7.54058920
_cell_length_b   7.54063550
_cell_length_c   9.33950493
_cell_angle_alpha   90.05194623
_cell_angle_beta   90.05219504
_cell_angle_gamma   119.83430690
_symmetry_Int_Tables_number   1
_chemical_formula_structural   Lu4Al18Cu2RuRh3
_chemical_formula_sum   'Lu4 Al18 Cu2 Ru1 Rh3'
_cell_volume   460.66975292
_cell_formula_units_Z   1
loop_
 _symmetry_equiv_pos_site_id
 _symmetry_equiv_pos_as_xyz
  1  'x, y, z'
loop_
 _atom_site_type_symbol
 _atom_site_label
 _atom_site_symmetry_multiplicity
 _atom_site_fract_x
 _atom_site_fract_y
 _atom_site_fract_z
 _atom_site_occupancy
  Lu  Lu0  1  0.994468  0.672498  0.249344  1
  Lu  Lu1  1  0.004680  0.327000  0.750690  1
  Lu  Lu2  1  0.673017  0.995318  0.249274  1
  Lu  Lu3  1  0.327494  0.005535  0.750622  1
  Al  Al4  1  0.126873  0.127520  0.249586  1
  Al  Al5  1  0.872327  0.872965  0.750384  1
  Al  Al6  1  0.997928  0.337884  0.075955  1
  Al  Al7  1  0.000293  0.660362  0.923874  1
  Al  Al8  1  0.001296  0.662938  0.577117  1
  Al  Al9  1  0.337134  0.998794  0.422852  1
  Al  Al10  1  0.998807  0.337720  0.423299  1
  Al  Al11  1  0.662352  0.001291  0.576677  1
  Al  Al12  1  0.662067  0.002097  0.924032  1
  Al  Al13  1  0.339604  0.999727  0.076121  1
  Al  Al14  1  0.333793  0.334228  0.554047  1
  Al  Al15  1  0.666063  0.666504  0.445865  1
  Al  Al16  1  0.666399  0.664139  0.051715  1
  Al  Al17  1  0.335720  0.333460  0.948327  1
  Al  Al18  1  0.338012  0.550524  0.249766  1
  Al  Al19  1  0.661244  0.448973  0.751170  1
  Al  Al20  1  0.551055  0.338808  0.248835  1
  Al  Al21  1  0.449514  0.662045  0.750217  1
  Cu  Cu22  1  0.998810  0.999729  0.999816  1
  Cu  Cu23  1  0.000803  0.999892  0.500416  1
  Ru  Ru24  1  0.672139  0.327880  0.999998  1
  Rh  Rh25  1  0.328471  0.671573  0.999982  1
  Rh  Rh26  1  0.327981  0.672124  0.500004  1
  Rh  Rh27  1  0.671656  0.328472  0.500015  1
