# generated using pymatgen
data_Dy14Lu2In3AgRh4
_symmetry_space_group_name_H-M   'P 1'
_cell_length_a   9.59516937
_cell_length_b   9.61719323
_cell_length_c   9.59566653
_cell_angle_alpha   59.93822252
_cell_angle_beta   59.98120284
_cell_angle_gamma   59.92235023
_symmetry_Int_Tables_number   1
_chemical_formula_structural   Dy14Lu2In3AgRh4
_chemical_formula_sum   'Dy14 Lu2 In3 Ag1 Rh4'
_cell_volume   625.37582154
_cell_formula_units_Z   1
loop_
 _symmetry_equiv_pos_site_id
 _symmetry_equiv_pos_as_xyz
  1  'x, y, z'
loop_
 _atom_site_type_symbol
 _atom_site_label
 _atom_site_symmetry_multiplicity
 _atom_site_fract_x
 _atom_site_fract_y
 _atom_site_fract_z
 _atom_site_occupancy
  Dy  Dy0  1  0.314049  0.687658  0.311203  1
  Dy  Dy1  1  0.936228  0.938102  0.557343  1
  Dy  Dy2  1  0.148851  0.149149  0.551440  1
  Dy  Dy3  1  0.567796  0.938006  0.556124  1
  Dy  Dy4  1  0.149807  0.151011  0.149843  1
  Dy  Dy5  1  0.311415  0.309936  0.689549  1
  Dy  Dy6  1  0.937069  0.567129  0.556871  1
  Dy  Dy7  1  0.564200  0.563034  0.936563  1
  Dy  Dy8  1  0.564447  0.936062  0.935610  1
  Dy  Dy9  1  0.935369  0.563754  0.936718  1
  Dy  Dy10  1  0.148122  0.552095  0.148549  1
  Dy  Dy11  1  0.311792  0.689548  0.689656  1
  Dy  Dy12  1  0.689265  0.312023  0.688000  1
  Dy  Dy13  1  0.552140  0.148359  0.149122  1
  Lu  Lu14  1  0.688340  0.313588  0.311467  1
  Lu  Lu15  1  0.687622  0.686677  0.312867  1
  In  In16  1  0.244905  0.917101  0.921745  1
  In  In17  1  0.916528  0.245163  0.922146  1
  In  In18  1  0.916831  0.917065  0.921421  1
  Ag  Ag19  1  0.916242  0.915944  0.251259  1
  Rh  Rh20  1  0.358422  0.356643  0.358124  1
  Rh  Rh21  1  0.925055  0.358823  0.357320  1
  Rh  Rh22  1  0.356559  0.357199  0.928795  1
  Rh  Rh23  1  0.358946  0.925930  0.358263  1
