# generated using pymatgen
data_Tm12Mn2In2Os
_symmetry_space_group_name_H-M   'P 1'
_cell_length_a   8.27754819
_cell_length_b   8.27754936
_cell_length_c   8.27754940
_cell_angle_alpha   108.71195074
_cell_angle_beta   108.71193897
_cell_angle_gamma   111.00068202
_symmetry_Int_Tables_number   1
_chemical_formula_structural   Tm12Mn2In2Os
_chemical_formula_sum   'Tm12 Mn2 In2 Os1'
_cell_volume   436.36562563
_cell_formula_units_Z   1
loop_
 _symmetry_equiv_pos_site_id
 _symmetry_equiv_pos_as_xyz
  1  'x, y, z'
loop_
 _atom_site_type_symbol
 _atom_site_label
 _atom_site_symmetry_multiplicity
 _atom_site_fract_x
 _atom_site_fract_y
 _atom_site_fract_z
 _atom_site_occupancy
  Tm  Tm0  1  0.191929  0.429548  0.237618  1
  Tm  Tm1  1  0.808071  0.570452  0.762382  1
  Tm  Tm2  1  0.191929  0.954312  0.762382  1
  Tm  Tm3  1  0.954312  0.191929  0.762382  1
  Tm  Tm4  1  0.808071  0.045688  0.237618  1
  Tm  Tm5  1  0.045688  0.808071  0.237618  1
  Tm  Tm6  1  0.429548  0.191929  0.237618  1
  Tm  Tm7  1  0.570452  0.808071  0.762382  1
  Tm  Tm8  1  0.308108  0.308108  0.616215  1
  Tm  Tm9  1  0.691892  0.691892  0.383785  1
  Tm  Tm10  1  0.691892  0.308108  0.000000  1
  Tm  Tm11  1  0.308108  0.691892  0.000000  1
  Mn  Mn12  1  0.385431  0.385431  0.000000  1
  Mn  Mn13  1  0.614569  0.614569  0.000000  1
  In  In14  1  0.000000  0.500000  0.500000  1
  In  In15  1  0.500000  0.000000  0.500000  1
  Os  Os16  1  0.000000  0.000000  0.000000  1
