# generated using pymatgen
data_Y6Lu4Si5As
_symmetry_space_group_name_H-M   'P 1'
_cell_length_a   8.38417800
_cell_length_b   8.39420275
_cell_length_c   6.21731100
_cell_angle_alpha   90.00000000
_cell_angle_beta   90.00000000
_cell_angle_gamma   119.96049460
_symmetry_Int_Tables_number   1
_chemical_formula_structural   Y6Lu4Si5As
_chemical_formula_sum   'Y6 Lu4 Si5 As1'
_cell_volume   379.09313181
_cell_formula_units_Z   1
loop_
 _symmetry_equiv_pos_site_id
 _symmetry_equiv_pos_as_xyz
  1  'x, y, z'
loop_
 _atom_site_type_symbol
 _atom_site_label
 _atom_site_symmetry_multiplicity
 _atom_site_fract_x
 _atom_site_fract_y
 _atom_site_fract_z
 _atom_site_occupancy
  Y  Y0  1  0.996534  0.751788  0.750000  1
  Y  Y1  1  0.000398  0.245877  0.250000  1
  Y  Y2  1  0.754520  0.754123  0.250000  1
  Y  Y3  1  0.756146  0.000000  0.750000  1
  Y  Y4  1  0.244746  0.248212  0.750000  1
  Y  Y5  1  0.245259  0.000000  0.250000  1
  Lu  Lu6  1  0.332929  0.664066  0.498316  1
  Lu  Lu7  1  0.668864  0.335934  0.001684  1
  Lu  Lu8  1  0.668864  0.335934  0.498316  1
  Lu  Lu9  1  0.332929  0.664066  0.001684  1
  Si  Si10  1  0.395420  0.394320  0.250000  1
  Si  Si11  1  0.001100  0.605680  0.250000  1
  Si  Si12  1  0.999636  0.395300  0.750000  1
  Si  Si13  1  0.604336  0.604700  0.750000  1
  Si  Si14  1  0.605925  0.000000  0.250000  1
  As  As15  1  0.392394  0.000000  0.750000  1
