# generated using pymatgen
data_HoTh7(MnSi3)4
_symmetry_space_group_name_H-M   'P 1'
_cell_length_a   8.25249824
_cell_length_b   8.21905207
_cell_length_c   8.23927000
_cell_angle_alpha   90.00000000
_cell_angle_beta   90.00000000
_cell_angle_gamma   119.86609675
_symmetry_Int_Tables_number   1
_chemical_formula_structural   HoTh7(MnSi3)4
_chemical_formula_sum   'Ho1 Th7 Mn4 Si12'
_cell_volume   484.63073301
_cell_formula_units_Z   1
loop_
 _symmetry_equiv_pos_site_id
 _symmetry_equiv_pos_as_xyz
  1  'x, y, z'
loop_
 _atom_site_type_symbol
 _atom_site_label
 _atom_site_symmetry_multiplicity
 _atom_site_fract_x
 _atom_site_fract_y
 _atom_site_fract_z
 _atom_site_occupancy
  Ho  Ho0  1  0.001238  0.500619  0.750000  1
  Th  Th1  1  0.000017  0.000005  0.250000  1
  Th  Th2  1  0.999980  0.999992  0.750000  1
  Th  Th3  1  0.500410  0.499575  0.250000  1
  Th  Th4  1  0.500412  0.000839  0.250000  1
  Th  Th5  1  0.999204  0.499599  0.250000  1
  Th  Th6  1  0.499415  0.500508  0.750000  1
  Th  Th7  1  0.499416  0.998902  0.750000  1
  Mn  Mn8  1  0.336503  0.668251  0.502391  1
  Mn  Mn9  1  0.663477  0.331738  0.505950  1
  Mn  Mn10  1  0.663477  0.331738  0.994050  1
  Mn  Mn11  1  0.336503  0.668251  0.997609  1
  Si  Si12  1  0.167962  0.828613  0.501684  1
  Si  Si13  1  0.167962  0.339350  0.501684  1
  Si  Si14  1  0.664772  0.832386  0.498260  1
  Si  Si15  1  0.831982  0.171412  0.502989  1
  Si  Si16  1  0.831981  0.660570  0.502990  1
  Si  Si17  1  0.335313  0.167657  0.499465  1
  Si  Si18  1  0.831982  0.171412  0.997011  1
  Si  Si19  1  0.831981  0.660570  0.997010  1
  Si  Si20  1  0.335313  0.167657  0.000535  1
  Si  Si21  1  0.167962  0.828613  0.998316  1
  Si  Si22  1  0.167962  0.339350  0.998316  1
  Si  Si23  1  0.664772  0.832386  0.001740  1
