# generated using pymatgen
data_Ba3RuCl2O5
_symmetry_space_group_name_H-M   'P 1'
_cell_length_a   7.78789550
_cell_length_b   7.78786973
_cell_length_c   11.52169500
_cell_angle_alpha   90.00000000
_cell_angle_beta   90.00000000
_cell_angle_gamma   135.96287757
_symmetry_Int_Tables_number   1
_chemical_formula_structural   Ba3RuCl2O5
_chemical_formula_sum   'Ba6 Ru2 Cl4 O10'
_cell_volume   485.75539573
_cell_formula_units_Z   2
loop_
 _symmetry_equiv_pos_site_id
 _symmetry_equiv_pos_as_xyz
  1  'x, y, z'
loop_
 _atom_site_type_symbol
 _atom_site_label
 _atom_site_symmetry_multiplicity
 _atom_site_fract_x
 _atom_site_fract_y
 _atom_site_fract_z
 _atom_site_occupancy
  Ba  Ba0  1  0.344499  0.655498  0.952903  1
  Ba  Ba1  1  0.655501  0.344502  0.452903  1
  Ba  Ba2  1  0.344499  0.655498  0.547097  1
  Ba  Ba3  1  0.097969  0.902034  0.750000  1
  Ba  Ba4  1  0.655501  0.344502  0.047097  1
  Ba  Ba5  1  0.902031  0.097966  0.250000  1
  Ru  Ru6  1  0.237859  0.762136  0.250000  1
  Ru  Ru7  1  0.762141  0.237864  0.750000  1
  Cl  Cl8  1  0.500181  0.499819  0.750000  1
  Cl  Cl9  1  0.000000  0.000000  0.000000  1
  Cl  Cl10  1  0.000000  0.000000  0.500000  1
  Cl  Cl11  1  0.499819  0.500181  0.250000  1
  O  O12  1  0.502195  0.940865  0.137451  1
  O  O13  1  0.880221  0.119781  0.750000  1
  O  O14  1  0.940864  0.502195  0.637452  1
  O  O15  1  0.497805  0.059135  0.862549  1
  O  O16  1  0.119779  0.880219  0.250000  1
  O  O17  1  0.497805  0.059135  0.637451  1
  O  O18  1  0.940864  0.502195  0.862548  1
  O  O19  1  0.059136  0.497805  0.137452  1
  O  O20  1  0.502195  0.940865  0.362549  1
  O  O21  1  0.059136  0.497805  0.362548  1
