# generated using pymatgen
data_Nd4Pt2RhAu
_symmetry_space_group_name_H-M   'P 1'
_cell_length_a   4.64931600
_cell_length_b   5.76564883
_cell_length_c   7.36079264
_cell_angle_alpha   90.60827928
_cell_angle_beta   90.00000000
_cell_angle_gamma   90.00000000
_symmetry_Int_Tables_number   1
_chemical_formula_structural   Nd4Pt2RhAu
_chemical_formula_sum   'Nd4 Pt2 Rh1 Au1'
_cell_volume   197.30466826
_cell_formula_units_Z   1
loop_
 _symmetry_equiv_pos_site_id
 _symmetry_equiv_pos_as_xyz
  1  'x, y, z'
loop_
 _atom_site_type_symbol
 _atom_site_label
 _atom_site_symmetry_multiplicity
 _atom_site_fract_x
 _atom_site_fract_y
 _atom_site_fract_z
 _atom_site_occupancy
  Nd  Nd0  1  0.250000  0.357469  0.688473  1
  Nd  Nd1  1  0.250000  0.141041  0.176411  1
  Nd  Nd2  1  0.750000  0.634653  0.306516  1
  Nd  Nd3  1  0.750000  0.858138  0.830405  1
  Pt  Pt4  1  0.750000  0.149550  0.457930  1
  Pt  Pt5  1  0.750000  0.347404  0.954256  1
  Rh  Rh6  1  0.250000  0.661667  0.044600  1
  Au  Au7  1  0.250000  0.850078  0.541407  1
