# generated using pymatgen
data_PrNd5(Se3N)2
_symmetry_space_group_name_H-M   'P 1'
_cell_length_a   4.13923900
_cell_length_b   12.92501031
_cell_length_c   13.54841662
_cell_angle_alpha   90.09897088
_cell_angle_beta   90.00000000
_cell_angle_gamma   90.00000000
_symmetry_Int_Tables_number   1
_chemical_formula_structural   PrNd5(Se3N)2
_chemical_formula_sum   'Pr2 Nd10 Se12 N4'
_cell_volume   724.83523464
_cell_formula_units_Z   2
loop_
 _symmetry_equiv_pos_site_id
 _symmetry_equiv_pos_as_xyz
  1  'x, y, z'
loop_
 _atom_site_type_symbol
 _atom_site_label
 _atom_site_symmetry_multiplicity
 _atom_site_fract_x
 _atom_site_fract_y
 _atom_site_fract_z
 _atom_site_occupancy
  Pr  Pr0  1  0.250000  0.711211  0.862456  1
  Pr  Pr1  1  0.750000  0.288789  0.137544  1
  Nd  Nd2  1  0.750000  0.791258  0.362902  1
  Nd  Nd3  1  0.250000  0.208742  0.637098  1
  Nd  Nd4  1  0.250000  0.568482  0.632202  1
  Nd  Nd5  1  0.750000  0.431518  0.367798  1
  Nd  Nd6  1  0.750000  0.929085  0.132454  1
  Nd  Nd7  1  0.250000  0.070915  0.867546  1
  Nd  Nd8  1  0.250000  0.539810  0.152114  1
  Nd  Nd9  1  0.750000  0.460190  0.847886  1
  Nd  Nd10  1  0.750000  0.959497  0.652243  1
  Nd  Nd11  1  0.250000  0.040503  0.347757  1
  Se  Se12  1  0.250000  0.773890  0.190995  1
  Se  Se13  1  0.750000  0.226110  0.809005  1
  Se  Se14  1  0.750000  0.725339  0.688774  1
  Se  Se15  1  0.250000  0.274661  0.311226  1
  Se  Se16  1  0.250000  0.091110  0.108465  1
  Se  Se17  1  0.750000  0.908890  0.891535  1
  Se  Se18  1  0.750000  0.407022  0.607979  1
  Se  Se19  1  0.250000  0.592978  0.392021  1
  Se  Se20  1  0.250000  0.869649  0.496800  1
  Se  Se21  1  0.750000  0.130351  0.503200  1
  Se  Se22  1  0.750000  0.631634  0.997770  1
  Se  Se23  1  0.250000  0.368366  0.002230  1
  N  N24  1  0.250000  0.541559  0.797146  1
  N  N25  1  0.750000  0.458441  0.202854  1
  N  N26  1  0.750000  0.958237  0.297237  1
  N  N27  1  0.250000  0.041763  0.702763  1
