# generated using pymatgen
data_Er5FeAsO12
_symmetry_space_group_name_H-M   'P 1'
_cell_length_a   6.77950220
_cell_length_b   6.77950211
_cell_length_c   7.14659400
_cell_angle_alpha   74.52253085
_cell_angle_beta   74.52253982
_cell_angle_gamma   50.98966197
_symmetry_Int_Tables_number   1
_chemical_formula_structural   Er5FeAsO12
_chemical_formula_sum   'Er5 Fe1 As1 O12'
_cell_volume   243.82160359
_cell_formula_units_Z   1
loop_
 _symmetry_equiv_pos_site_id
 _symmetry_equiv_pos_as_xyz
  1  'x, y, z'
loop_
 _atom_site_type_symbol
 _atom_site_label
 _atom_site_symmetry_multiplicity
 _atom_site_fract_x
 _atom_site_fract_y
 _atom_site_fract_z
 _atom_site_occupancy
  Er  Er0  1  0.303548  0.303106  0.360022  1
  Er  Er1  1  0.696894  0.696452  0.639978  1
  Er  Er2  1  0.307603  0.305574  0.832021  1
  Er  Er3  1  0.694426  0.692397  0.167979  1
  Er  Er4  1  0.008616  0.991384  0.500000  1
  Fe  Fe5  1  0.754382  0.245618  0.000000  1
  As  As6  1  0.240290  0.759710  0.000000  1
  O  O7  1  0.898048  0.422016  0.920977  1
  O  O8  1  0.417804  0.899086  0.920918  1
  O  O9  1  0.100914  0.582196  0.079082  1
  O  O10  1  0.577984  0.101952  0.079023  1
  O  O11  1  0.096873  0.592260  0.577827  1
  O  O12  1  0.601097  0.094609  0.577063  1
  O  O13  1  0.905391  0.398903  0.422937  1
  O  O14  1  0.407740  0.903127  0.422173  1
  O  O15  1  0.014742  0.986813  0.818445  1
  O  O16  1  0.013187  0.985258  0.181555  1
  O  O17  1  0.480236  0.519779  0.816617  1
  O  O18  1  0.480221  0.519764  0.183383  1
