# generated using pymatgen
data_K5TaO5
_symmetry_space_group_name_H-M   'P 1'
_cell_length_a   6.79063527
_cell_length_b   6.79063601
_cell_length_c   11.12624386
_cell_angle_alpha   80.46515746
_cell_angle_beta   80.46515736
_cell_angle_gamma   118.05898842
_symmetry_Int_Tables_number   1
_chemical_formula_structural   K5TaO5
_chemical_formula_sum   'K10 Ta2 O10'
_cell_volume   428.65994488
_cell_formula_units_Z   2
loop_
 _symmetry_equiv_pos_site_id
 _symmetry_equiv_pos_as_xyz
  1  'x, y, z'
loop_
 _atom_site_type_symbol
 _atom_site_label
 _atom_site_symmetry_multiplicity
 _atom_site_fract_x
 _atom_site_fract_y
 _atom_site_fract_z
 _atom_site_occupancy
  K  K0  1  0.639794  0.946905  0.590997  1
  K  K1  1  0.571159  0.794204  0.951524  1
  K  K2  1  0.679392  0.320608  0.750000  1
  K  K3  1  0.946905  0.639794  0.090997  1
  K  K4  1  0.794204  0.571159  0.451524  1
  K  K5  1  0.205796  0.428841  0.548476  1
  K  K6  1  0.053095  0.360206  0.909003  1
  K  K7  1  0.320608  0.679392  0.250000  1
  K  K8  1  0.428841  0.205796  0.048476  1
  K  K9  1  0.360206  0.053095  0.409003  1
  Ta  Ta10  1  0.098325  0.901675  0.750000  1
  Ta  Ta11  1  0.901675  0.098325  0.250000  1
  O  O12  1  0.280823  0.919560  0.869745  1
  O  O13  1  0.382304  0.179361  0.619660  1
  O  O14  1  0.919560  0.280823  0.369745  1
  O  O15  1  0.179361  0.382304  0.119660  1
  O  O16  1  0.931941  0.068059  0.750000  1
  O  O17  1  0.068059  0.931941  0.250000  1
  O  O18  1  0.820639  0.617696  0.880340  1
  O  O19  1  0.080440  0.719177  0.630255  1
  O  O20  1  0.617696  0.820639  0.380340  1
  O  O21  1  0.719177  0.080440  0.130255  1
