# generated using pymatgen
data_Lu4Hg4Pt2Pb
_symmetry_space_group_name_H-M   'P 1'
_cell_length_a   3.56005300
_cell_length_b   7.87180000
_cell_length_c   18.35372600
_cell_angle_alpha   90.00000000
_cell_angle_beta   90.00000000
_cell_angle_gamma   90.00000000
_symmetry_Int_Tables_number   1
_chemical_formula_structural   Lu4Hg4Pt2Pb
_chemical_formula_sum   'Lu8 Hg8 Pt4 Pb2'
_cell_volume   514.34528004
_cell_formula_units_Z   2
loop_
 _symmetry_equiv_pos_site_id
 _symmetry_equiv_pos_as_xyz
  1  'x, y, z'
loop_
 _atom_site_type_symbol
 _atom_site_label
 _atom_site_symmetry_multiplicity
 _atom_site_fract_x
 _atom_site_fract_y
 _atom_site_fract_z
 _atom_site_occupancy
  Lu  Lu0  1  0.000000  0.137325  0.416465  1
  Lu  Lu1  1  0.000000  0.862675  0.583535  1
  Lu  Lu2  1  0.000000  0.362675  0.916465  1
  Lu  Lu3  1  0.000000  0.637325  0.083535  1
  Lu  Lu4  1  0.000000  0.266949  0.217843  1
  Lu  Lu5  1  0.000000  0.733051  0.782157  1
  Lu  Lu6  1  0.000000  0.233051  0.717843  1
  Lu  Lu7  1  0.000000  0.766949  0.282157  1
  Hg  Hg8  1  0.500000  0.438993  0.345640  1
  Hg  Hg9  1  0.500000  0.561007  0.654360  1
  Hg  Hg10  1  0.500000  0.061007  0.845640  1
  Hg  Hg11  1  0.500000  0.938993  0.154360  1
  Hg  Hg12  1  0.500000  0.319568  0.063342  1
  Hg  Hg13  1  0.500000  0.680432  0.936658  1
  Hg  Hg14  1  0.500000  0.180432  0.563342  1
  Hg  Hg15  1  0.500000  0.819568  0.436658  1
  Pt  Pt16  1  0.500000  0.057122  0.305233  1
  Pt  Pt17  1  0.500000  0.942878  0.694767  1
  Pt  Pt18  1  0.500000  0.442878  0.805233  1
  Pt  Pt19  1  0.500000  0.557122  0.194767  1
  Pb  Pb20  1  0.000000  0.000000  0.000000  1
  Pb  Pb21  1  0.000000  0.500000  0.500000  1
