# generated using pymatgen
data_TbDy14Lu5Sn16
_symmetry_space_group_name_H-M   'P 1'
_cell_length_a   7.97651118
_cell_length_b   8.12810052
_cell_length_c   15.39358002
_cell_angle_alpha   90.03010491
_cell_angle_beta   89.95497868
_cell_angle_gamma   90.05611451
_symmetry_Int_Tables_number   1
_chemical_formula_structural   TbDy14Lu5Sn16
_chemical_formula_sum   'Tb1 Dy14 Lu5 Sn16'
_cell_volume   998.02466683
_cell_formula_units_Z   1
loop_
 _symmetry_equiv_pos_site_id
 _symmetry_equiv_pos_as_xyz
  1  'x, y, z'
loop_
 _atom_site_type_symbol
 _atom_site_label
 _atom_site_symmetry_multiplicity
 _atom_site_fract_x
 _atom_site_fract_y
 _atom_site_fract_z
 _atom_site_occupancy
  Tb  Tb0  1  0.018928  0.178468  0.903062  1
  Dy  Dy1  1  0.865245  0.662439  0.623224  1
  Dy  Dy2  1  0.634429  0.162142  0.377537  1
  Dy  Dy3  1  0.135571  0.337577  0.121026  1
  Dy  Dy4  1  0.634384  0.162925  0.122785  1
  Dy  Dy5  1  0.134112  0.337308  0.377586  1
  Dy  Dy6  1  0.365955  0.837575  0.622942  1
  Dy  Dy7  1  0.866057  0.662202  0.878052  1
  Dy  Dy8  1  0.518913  0.320190  0.903509  1
  Dy  Dy9  1  0.019948  0.178954  0.597437  1
  Dy  Dy10  1  0.480862  0.679669  0.403676  1
  Dy  Dy11  1  0.980055  0.820390  0.096527  1
  Dy  Dy12  1  0.481318  0.680386  0.095108  1
  Dy  Dy13  1  0.980888  0.820645  0.403301  1
  Dy  Dy14  1  0.519286  0.320849  0.597403  1
  Lu  Lu15  1  0.364562  0.838486  0.876009  1
  Lu  Lu16  1  0.197363  0.503597  0.750746  1
  Lu  Lu17  1  0.696299  0.996272  0.750479  1
  Lu  Lu18  1  0.803691  0.496630  0.250074  1
  Lu  Lu19  1  0.303392  0.002968  0.249471  1
  Sn  Sn20  1  0.295276  0.035122  0.040575  1
  Sn  Sn21  1  0.794096  0.463579  0.457755  1
  Sn  Sn22  1  0.706450  0.963583  0.542801  1
  Sn  Sn23  1  0.207995  0.540029  0.956713  1
  Sn  Sn24  1  0.700999  0.962228  0.957271  1
  Sn  Sn25  1  0.205702  0.536277  0.543057  1
  Sn  Sn26  1  0.293926  0.036248  0.457365  1
  Sn  Sn27  1  0.794072  0.463439  0.042765  1
  Sn  Sn28  1  0.561366  0.619003  0.750975  1
  Sn  Sn29  1  0.062517  0.881734  0.750934  1
  Sn  Sn30  1  0.437971  0.382840  0.250047  1
  Sn  Sn31  1  0.938424  0.117624  0.249390  1
  Sn  Sn32  1  0.329124  0.149464  0.750542  1
  Sn  Sn33  1  0.828425  0.349934  0.750328  1
  Sn  Sn34  1  0.671173  0.849580  0.249832  1
  Sn  Sn35  1  0.171224  0.649646  0.249690  1
