# generated using pymatgen
data_La8SiPtI12
_symmetry_space_group_name_H-M   'P 1'
_cell_length_a   4.45868500
_cell_length_b   14.66438649
_cell_length_c   15.42903850
_cell_angle_alpha   89.46337288
_cell_angle_beta   90.00000000
_cell_angle_gamma   90.00000000
_symmetry_Int_Tables_number   1
_chemical_formula_structural   La8SiPtI12
_chemical_formula_sum   'La8 Si1 Pt1 I12'
_cell_volume   1008.76615682
_cell_formula_units_Z   1
loop_
 _symmetry_equiv_pos_site_id
 _symmetry_equiv_pos_as_xyz
  1  'x, y, z'
loop_
 _atom_site_type_symbol
 _atom_site_label
 _atom_site_symmetry_multiplicity
 _atom_site_fract_x
 _atom_site_fract_y
 _atom_site_fract_z
 _atom_site_occupancy
  La  La0  1  0.500000  0.114228  0.346696  1
  La  La1  1  0.500000  0.885772  0.653304  1
  La  La2  1  0.500000  0.615909  0.155627  1
  La  La3  1  0.500000  0.384091  0.844373  1
  La  La4  1  0.000000  0.113532  0.575933  1
  La  La5  1  0.000000  0.886468  0.424067  1
  La  La6  1  0.000000  0.614250  0.923596  1
  La  La7  1  0.000000  0.385750  0.076404  1
  Si  Si8  1  0.500000  0.500000  0.000000  1
  Pt  Pt9  1  0.500000  0.000000  0.500000  1
  I  I10  1  0.500000  0.242935  0.163025  1
  I  I11  1  0.500000  0.757065  0.836975  1
  I  I12  1  0.500000  0.742758  0.337278  1
  I  I13  1  0.500000  0.257242  0.662722  1
  I  I14  1  0.000000  0.260882  0.412983  1
  I  I15  1  0.000000  0.739118  0.587017  1
  I  I16  1  0.000000  0.759226  0.086018  1
  I  I17  1  0.000000  0.240774  0.913982  1
  I  I18  1  0.000000  0.998815  0.237992  1
  I  I19  1  0.000000  0.001185  0.762008  1
  I  I20  1  0.000000  0.498399  0.260239  1
  I  I21  1  0.000000  0.501601  0.739761  1
