# generated using pymatgen
data_Nd3ScCd2Pt3
_symmetry_space_group_name_H-M   'P 1'
_cell_length_a   7.67681791
_cell_length_b   7.49582726
_cell_length_c   4.21018000
_cell_angle_alpha   90.00000000
_cell_angle_beta   90.00000000
_cell_angle_gamma   119.22312016
_symmetry_Int_Tables_number   1
_chemical_formula_structural   Nd3ScCd2Pt3
_chemical_formula_sum   'Nd3 Sc1 Cd2 Pt3'
_cell_volume   211.43601344
_cell_formula_units_Z   1
loop_
 _symmetry_equiv_pos_site_id
 _symmetry_equiv_pos_as_xyz
  1  'x, y, z'
loop_
 _atom_site_type_symbol
 _atom_site_label
 _atom_site_symmetry_multiplicity
 _atom_site_fract_x
 _atom_site_fract_y
 _atom_site_fract_z
 _atom_site_occupancy
  Nd  Nd0  1  0.000000  0.609056  0.500000  1
  Nd  Nd1  1  0.576781  0.988483  0.500000  1
  Nd  Nd2  1  0.423219  0.411702  0.500000  1
  Sc  Sc3  1  0.000000  0.239197  0.000000  1
  Cd  Cd4  1  0.249287  0.001389  0.000000  1
  Cd  Cd5  1  0.750713  0.752102  0.000000  1
  Pt  Pt6  1  0.000000  0.025925  0.500000  1
  Pt  Pt7  1  0.685310  0.328726  0.000000  1
  Pt  Pt8  1  0.314690  0.643418  0.000000  1
