# generated using pymatgen
data_RbMgAlAs2
_symmetry_space_group_name_H-M   'P 1'
_cell_length_a   8.03641229
_cell_length_b   8.03641239
_cell_length_c   8.03641387
_cell_angle_alpha   149.10255962
_cell_angle_beta   149.10255919
_cell_angle_gamma   44.26037075
_symmetry_Int_Tables_number   1
_chemical_formula_structural   RbMgAlAs2
_chemical_formula_sum   'Rb1 Mg1 Al1 As2'
_cell_volume   136.45899769
_cell_formula_units_Z   1
loop_
 _symmetry_equiv_pos_site_id
 _symmetry_equiv_pos_as_xyz
  1  'x, y, z'
loop_
 _atom_site_type_symbol
 _atom_site_label
 _atom_site_symmetry_multiplicity
 _atom_site_fract_x
 _atom_site_fract_y
 _atom_site_fract_z
 _atom_site_occupancy
  Rb  Rb0  1  0.000000  0.000000  0.000000  1
  Mg  Mg1  1  0.750000  0.250000  0.500000  1
  Al  Al2  1  0.250000  0.750000  0.500000  1
  As  As3  1  0.350891  0.350891  0.000000  1
  As  As4  1  0.649109  0.649109  0.000000  1
