# generated using pymatgen
data_Sr4Al18(IrPd)3
_symmetry_space_group_name_H-M   'P 1'
_cell_length_a   7.66289325
_cell_length_b   7.66289463
_cell_length_c   9.81848570
_cell_angle_alpha   90.00234379
_cell_angle_beta   90.00234157
_cell_angle_gamma   119.00322872
_symmetry_Int_Tables_number   1
_chemical_formula_structural   Sr4Al18(IrPd)3
_chemical_formula_sum   'Sr4 Al18 Ir3 Pd3'
_cell_volume   504.23830199
_cell_formula_units_Z   1
loop_
 _symmetry_equiv_pos_site_id
 _symmetry_equiv_pos_as_xyz
  1  'x, y, z'
loop_
 _atom_site_type_symbol
 _atom_site_label
 _atom_site_symmetry_multiplicity
 _atom_site_fract_x
 _atom_site_fract_y
 _atom_site_fract_z
 _atom_site_occupancy
  Sr  Sr0  1  0.995076  0.672766  0.250081  1
  Sr  Sr1  1  0.003788  0.326130  0.750510  1
  Sr  Sr2  1  0.673870  0.996212  0.249490  1
  Sr  Sr3  1  0.327234  0.004924  0.749919  1
  Al  Al4  1  0.139656  0.138634  0.249981  1
  Al  Al5  1  0.861366  0.860344  0.750019  1
  Al  Al6  1  0.010886  0.340471  0.071613  1
  Al  Al7  1  0.998295  0.664629  0.929035  1
  Al  Al8  1  0.996341  0.659538  0.569237  1
  Al  Al9  1  0.340462  0.003659  0.430763  1
  Al  Al10  1  0.004438  0.340506  0.430020  1
  Al  Al11  1  0.659494  0.995562  0.569980  1
  Al  Al12  1  0.659529  0.989114  0.928387  1
  Al  Al13  1  0.335371  0.001705  0.070965  1
  Al  Al14  1  0.338626  0.338866  0.543231  1
  Al  Al15  1  0.661134  0.661374  0.456769  1
  Al  Al16  1  0.660086  0.662699  0.047935  1
  Al  Al17  1  0.337301  0.339914  0.952065  1
  Al  Al18  1  0.338041  0.545914  0.250154  1
  Al  Al19  1  0.662005  0.457012  0.746660  1
  Al  Al20  1  0.542988  0.337995  0.253340  1
  Al  Al21  1  0.454086  0.661959  0.749846  1
  Ir  Ir22  1  0.329327  0.670673  0.000000  1
  Ir  Ir23  1  0.329711  0.670289  0.500000  1
  Ir  Ir24  1  0.670281  0.329719  0.500000  1
  Pd  Pd25  1  0.671072  0.328928  0.000000  1
  Pd  Pd26  1  0.999687  0.000313  0.000000  1
  Pd  Pd27  1  0.999850  0.000150  0.500000  1
