# generated using pymatgen
data_CeNd3(NiSn)4
_symmetry_space_group_name_H-M   'P 1'
_cell_length_a   4.59223700
_cell_length_b   7.47370867
_cell_length_c   7.64669089
_cell_angle_alpha   89.92136368
_cell_angle_beta   90.00000000
_cell_angle_gamma   90.00000000
_symmetry_Int_Tables_number   1
_chemical_formula_structural   CeNd3(NiSn)4
_chemical_formula_sum   'Ce1 Nd3 Ni4 Sn4'
_cell_volume   262.44214821
_cell_formula_units_Z   1
loop_
 _symmetry_equiv_pos_site_id
 _symmetry_equiv_pos_as_xyz
  1  'x, y, z'
loop_
 _atom_site_type_symbol
 _atom_site_label
 _atom_site_symmetry_multiplicity
 _atom_site_fract_x
 _atom_site_fract_y
 _atom_site_fract_z
 _atom_site_occupancy
  Ce  Ce0  1  0.250000  0.020174  0.300154  1
  Nd  Nd1  1  0.250000  0.520816  0.197565  1
  Nd  Nd2  1  0.750000  0.980601  0.698061  1
  Nd  Nd3  1  0.750000  0.480681  0.801370  1
  Ni  Ni4  1  0.250000  0.304280  0.579345  1
  Ni  Ni5  1  0.250000  0.809487  0.918572  1
  Ni  Ni6  1  0.750000  0.693711  0.417486  1
  Ni  Ni7  1  0.750000  0.187683  0.087647  1
  Sn  Sn8  1  0.250000  0.185789  0.909945  1
  Sn  Sn9  1  0.250000  0.686359  0.589594  1
  Sn  Sn10  1  0.750000  0.816566  0.090123  1
  Sn  Sn11  1  0.750000  0.313854  0.410139  1
