# generated using pymatgen
data_Tb16MgHg3RuPt3
_symmetry_space_group_name_H-M   'P 1'
_cell_length_a   9.70550376
_cell_length_b   9.70310622
_cell_length_c   9.70310700
_cell_angle_alpha   59.99999392
_cell_angle_beta   60.00816526
_cell_angle_gamma   60.00816935
_symmetry_Int_Tables_number   1
_chemical_formula_structural   Tb16MgHg3RuPt3
_chemical_formula_sum   'Tb16 Mg1 Hg3 Ru1 Pt3'
_cell_volume   646.21684198
_cell_formula_units_Z   1
loop_
 _symmetry_equiv_pos_site_id
 _symmetry_equiv_pos_as_xyz
  1  'x, y, z'
loop_
 _atom_site_type_symbol
 _atom_site_label
 _atom_site_symmetry_multiplicity
 _atom_site_fract_x
 _atom_site_fract_y
 _atom_site_fract_z
 _atom_site_occupancy
  Tb  Tb0  1  0.602900  0.596783  0.596783  1
  Tb  Tb1  1  0.602900  0.596783  0.203534  1
  Tb  Tb2  1  0.602900  0.203534  0.596783  1
  Tb  Tb3  1  0.183944  0.605352  0.605352  1
  Tb  Tb4  1  0.053990  0.440506  0.440506  1
  Tb  Tb5  1  0.438381  0.061167  0.061167  1
  Tb  Tb6  1  0.438381  0.061167  0.439285  1
  Tb  Tb7  1  0.053990  0.440506  0.064998  1
  Tb  Tb8  1  0.438381  0.439285  0.061167  1
  Tb  Tb9  1  0.053990  0.064998  0.440506  1
  Tb  Tb10  1  0.185235  0.815151  0.815151  1
  Tb  Tb11  1  0.817277  0.185766  0.185766  1
  Tb  Tb12  1  0.817277  0.185766  0.811193  1
  Tb  Tb13  1  0.185235  0.815151  0.184462  1
  Tb  Tb14  1  0.817277  0.811193  0.185766  1
  Tb  Tb15  1  0.185235  0.184462  0.815151  1
  Mg  Mg16  1  0.537326  0.820891  0.820891  1
  Hg  Hg17  1  0.832594  0.837883  0.837883  1
  Hg  Hg18  1  0.832594  0.837883  0.491639  1
  Hg  Hg19  1  0.832594  0.491639  0.837883  1
  Ru  Ru20  1  0.825039  0.391653  0.391653  1
  Pt  Pt21  1  0.387520  0.395105  0.395105  1
  Pt  Pt22  1  0.387520  0.395105  0.822269  1
  Pt  Pt23  1  0.387520  0.822269  0.395105  1
