# generated using pymatgen
data_Tb16Lu4(Ir3Pt)3
_symmetry_space_group_name_H-M   'P 1'
_cell_length_a   10.96883205
_cell_length_b   10.96883205
_cell_length_c   6.34168510
_cell_angle_alpha   90.01433689
_cell_angle_beta   90.01433689
_cell_angle_gamma   90.18286373
_symmetry_Int_Tables_number   1
_chemical_formula_structural   Tb16Lu4(Ir3Pt)3
_chemical_formula_sum   'Tb16 Lu4 Ir9 Pt3'
_cell_volume   762.99766286
_cell_formula_units_Z   1
loop_
 _symmetry_equiv_pos_site_id
 _symmetry_equiv_pos_as_xyz
  1  'x, y, z'
loop_
 _atom_site_type_symbol
 _atom_site_label
 _atom_site_symmetry_multiplicity
 _atom_site_fract_x
 _atom_site_fract_y
 _atom_site_fract_z
 _atom_site_occupancy
  Tb  Tb0  1  0.292387  0.086435  0.373647  1
  Tb  Tb1  1  0.291596  0.909472  0.878191  1
  Tb  Tb2  1  0.706901  0.089306  0.875309  1
  Tb  Tb3  1  0.706224  0.910772  0.374592  1
  Tb  Tb4  1  0.584518  0.789264  0.879544  1
  Tb  Tb5  1  0.584939  0.211046  0.379383  1
  Tb  Tb6  1  0.412017  0.789507  0.378973  1
  Tb  Tb7  1  0.414960  0.210872  0.879136  1
  Tb  Tb8  1  0.210736  0.415482  0.620456  1
  Tb  Tb9  1  0.210493  0.587983  0.121027  1
  Tb  Tb10  1  0.788954  0.415061  0.120617  1
  Tb  Tb11  1  0.789128  0.585040  0.620864  1
  Tb  Tb12  1  0.913565  0.707613  0.126353  1
  Tb  Tb13  1  0.910694  0.293099  0.624691  1
  Tb  Tb14  1  0.090528  0.708404  0.621809  1
  Tb  Tb15  1  0.089228  0.293776  0.125408  1
  Lu  Lu16  1  0.001423  0.998298  0.499229  1
  Lu  Lu17  1  0.001702  0.998577  0.000771  1
  Lu  Lu18  1  0.499855  0.500072  0.000324  1
  Lu  Lu19  1  0.499928  0.500145  0.499676  1
  Ir  Ir20  1  0.149084  0.850916  0.250000  1
  Ir  Ir21  1  0.651395  0.348605  0.750000  1
  Ir  Ir22  1  0.651658  0.651385  0.249862  1
  Ir  Ir23  1  0.348615  0.348342  0.250138  1
  Ir  Ir24  1  0.349355  0.650645  0.750000  1
  Ir  Ir25  1  0.500538  0.000086  0.122970  1
  Ir  Ir26  1  0.500401  0.000285  0.624000  1
  Ir  Ir27  1  0.999715  0.499599  0.876000  1
  Ir  Ir28  1  0.999914  0.499462  0.377030  1
  Pt  Pt29  1  0.850236  0.149764  0.250000  1
  Pt  Pt30  1  0.849458  0.850145  0.749777  1
  Pt  Pt31  1  0.149855  0.150542  0.750223  1
