# generated using pymatgen
data_Lu2HfTcF14
_symmetry_space_group_name_H-M   'P 1'
_cell_length_a   5.52819751
_cell_length_b   8.80861946
_cell_length_c   11.90656334
_cell_angle_alpha   62.71051959
_cell_angle_beta   89.96949314
_cell_angle_gamma   89.92283137
_symmetry_Int_Tables_number   1
_chemical_formula_structural   Lu2HfTcF14
_chemical_formula_sum   'Lu4 Hf2 Tc2 F28'
_cell_volume   515.26816122
_cell_formula_units_Z   2
loop_
 _symmetry_equiv_pos_site_id
 _symmetry_equiv_pos_as_xyz
  1  'x, y, z'
loop_
 _atom_site_type_symbol
 _atom_site_label
 _atom_site_symmetry_multiplicity
 _atom_site_fract_x
 _atom_site_fract_y
 _atom_site_fract_z
 _atom_site_occupancy
  Lu  Lu0  1  0.257319  0.817507  0.262306  1
  Lu  Lu1  1  0.742681  0.182493  0.737694  1
  Lu  Lu2  1  0.757068  0.184664  0.234625  1
  Lu  Lu3  1  0.242932  0.815336  0.765375  1
  Hf  Hf4  1  0.257228  0.274793  0.456582  1
  Hf  Hf5  1  0.742772  0.725207  0.543418  1
  Tc  Tc6  1  0.758760  0.727048  0.042946  1
  Tc  Tc7  1  0.241240  0.272952  0.957054  1
  F  F8  1  0.951922  0.708875  0.412560  1
  F  F9  1  0.048078  0.291125  0.587440  1
  F  F10  1  0.447439  0.292128  0.083840  1
  F  F11  1  0.552561  0.707872  0.916160  1
  F  F12  1  0.473715  0.731003  0.139679  1
  F  F13  1  0.526285  0.268997  0.860321  1
  F  F14  1  0.969233  0.270211  0.355742  1
  F  F15  1  0.030767  0.729789  0.644258  1
  F  F16  1  0.959235  0.746330  0.172802  1
  F  F17  1  0.040765  0.253670  0.827198  1
  F  F18  1  0.458973  0.253201  0.323150  1
  F  F19  1  0.541027  0.746799  0.676850  1
  F  F20  1  0.772685  0.476895  0.140634  1
  F  F21  1  0.227315  0.523105  0.859366  1
  F  F22  1  0.278510  0.529258  0.356372  1
  F  F23  1  0.721490  0.470742  0.643628  1
  F  F24  1  0.943600  0.276469  0.048393  1
  F  F25  1  0.056400  0.723531  0.951607  1
  F  F26  1  0.436387  0.726104  0.450410  1
  F  F27  1  0.563613  0.273896  0.549590  1
  F  F28  1  0.739410  0.979718  0.441914  1
  F  F29  1  0.260590  0.020282  0.558086  1
  F  F30  1  0.241298  0.023871  0.054668  1
  F  F31  1  0.758702  0.976129  0.945332  1
  F  F32  1  0.579342  0.971035  0.232845  1
  F  F33  1  0.420658  0.028965  0.767155  1
  F  F34  1  0.079176  0.028805  0.267977  1
  F  F35  1  0.920824  0.971195  0.732023  1
