# generated using pymatgen
data_DyCu2HgPt2
_symmetry_space_group_name_H-M   'P 1'
_cell_length_a   5.11783115
_cell_length_b   5.23109387
_cell_length_c   5.23109239
_cell_angle_alpha   63.68906349
_cell_angle_beta   60.71369035
_cell_angle_gamma   60.71369117
_symmetry_Int_Tables_number   1
_chemical_formula_structural   DyCu2HgPt2
_chemical_formula_sum   'Dy1 Cu2 Hg1 Pt2'
_cell_volume   102.63395354
_cell_formula_units_Z   1
loop_
 _symmetry_equiv_pos_site_id
 _symmetry_equiv_pos_as_xyz
  1  'x, y, z'
loop_
 _atom_site_type_symbol
 _atom_site_label
 _atom_site_symmetry_multiplicity
 _atom_site_fract_x
 _atom_site_fract_y
 _atom_site_fract_z
 _atom_site_occupancy
  Dy  Dy0  1  0.994860  0.005140  0.005140  1
  Cu  Cu1  1  0.127563  0.621327  0.621327  1
  Cu  Cu2  1  0.629782  0.621327  0.621327  1
  Hg  Hg3  1  0.243989  0.256011  0.256011  1
  Pt  Pt4  1  0.626902  0.623891  0.122304  1
  Pt  Pt5  1  0.626902  0.122304  0.623891  1
