# generated using pymatgen
data_CeYTh2(Al3Rh)6
_symmetry_space_group_name_H-M   'P 1'
_cell_length_a   7.64451349
_cell_length_b   7.64341186
_cell_length_c   9.51316800
_cell_angle_alpha   90.00000000
_cell_angle_beta   90.00000000
_cell_angle_gamma   119.39499578
_symmetry_Int_Tables_number   1
_chemical_formula_structural   CeYTh2(Al3Rh)6
_chemical_formula_sum   'Ce1 Y1 Th2 Al18 Rh6'
_cell_volume   484.29323432
_cell_formula_units_Z   1
loop_
 _symmetry_equiv_pos_site_id
 _symmetry_equiv_pos_as_xyz
  1  'x, y, z'
loop_
 _atom_site_type_symbol
 _atom_site_label
 _atom_site_symmetry_multiplicity
 _atom_site_fract_x
 _atom_site_fract_y
 _atom_site_fract_z
 _atom_site_occupancy
  Ce  Ce0  1  0.995852  0.671877  0.250000  1
  Y  Y1  1  0.327481  0.005273  0.750000  1
  Th  Th2  1  0.004411  0.328634  0.750000  1
  Th  Th3  1  0.671232  0.994484  0.250000  1
  Al  Al4  1  0.134405  0.130910  0.250000  1
  Al  Al5  1  0.870664  0.868953  0.750000  1
  Al  Al6  1  0.005514  0.338750  0.077172  1
  Al  Al7  1  0.000113  0.669236  0.924916  1
  Al  Al8  1  0.000113  0.669236  0.575084  1
  Al  Al9  1  0.332961  0.001822  0.428331  1
  Al  Al10  1  0.005514  0.338750  0.422828  1
  Al  Al11  1  0.659245  0.994977  0.578490  1
  Al  Al12  1  0.659245  0.994977  0.921510  1
  Al  Al13  1  0.332961  0.001822  0.071669  1
  Al  Al14  1  0.336051  0.332803  0.550485  1
  Al  Al15  1  0.665367  0.663442  0.454324  1
  Al  Al16  1  0.665367  0.663442  0.045676  1
  Al  Al17  1  0.336051  0.332803  0.949515  1
  Al  Al18  1  0.341267  0.545709  0.250000  1
  Al  Al19  1  0.656779  0.449438  0.750000  1
  Al  Al20  1  0.548181  0.341913  0.250000  1
  Al  Al21  1  0.452231  0.660032  0.750000  1
  Rh  Rh22  1  0.672880  0.327282  0.999846  1
  Rh  Rh23  1  0.328101  0.671666  0.000190  1
  Rh  Rh24  1  0.328101  0.671666  0.499810  1
  Rh  Rh25  1  0.672880  0.327282  0.500154  1
  Rh  Rh26  1  0.998515  0.001410  0.000130  1
  Rh  Rh27  1  0.998515  0.001410  0.499870  1
