# generated using pymatgen
data_Dy5Cr3Co16(Si2P)4
_symmetry_space_group_name_H-M   'P 1'
_cell_length_a   12.18997383
_cell_length_b   12.20609310
_cell_length_c   3.72969400
_cell_angle_alpha   90.00000000
_cell_angle_beta   90.00000000
_cell_angle_gamma   120.04397044
_symmetry_Int_Tables_number   1
_chemical_formula_structural   Dy5Cr3Co16(Si2P)4
_chemical_formula_sum   'Dy5 Cr3 Co16 Si8 P4'
_cell_volume   480.38638375
_cell_formula_units_Z   1
loop_
 _symmetry_equiv_pos_site_id
 _symmetry_equiv_pos_as_xyz
  1  'x, y, z'
loop_
 _atom_site_type_symbol
 _atom_site_label
 _atom_site_symmetry_multiplicity
 _atom_site_fract_x
 _atom_site_fract_y
 _atom_site_fract_z
 _atom_site_occupancy
  Dy  Dy0  1  0.666802  0.333731  0.000000  1
  Dy  Dy1  1  0.330502  0.663766  0.000000  1
  Dy  Dy2  1  0.183895  0.182789  0.500000  1
  Dy  Dy3  1  0.816906  0.000836  0.500000  1
  Dy  Dy4  1  0.999961  0.814806  0.500000  1
  Cr  Cr5  1  0.562250  0.563322  0.000000  1
  Cr  Cr6  1  0.436760  0.999816  0.000000  1
  Cr  Cr7  1  0.002193  0.438569  0.000000  1
  Co  Co8  1  0.825822  0.197889  0.000000  1
  Co  Co9  1  0.802912  0.626991  0.000000  1
  Co  Co10  1  0.372213  0.175800  0.000000  1
  Co  Co11  1  0.196660  0.822563  0.000000  1
  Co  Co12  1  0.626971  0.803686  0.000000  1
  Co  Co13  1  0.176126  0.375907  0.000000  1
  Co  Co14  1  0.643126  0.122732  0.500000  1
  Co  Co15  1  0.877795  0.520293  0.500000  1
  Co  Co16  1  0.478107  0.357740  0.500000  1
  Co  Co17  1  0.123442  0.638137  0.500000  1
  Co  Co18  1  0.520715  0.878072  0.500000  1
  Co  Co19  1  0.353654  0.479825  0.500000  1
  Co  Co20  1  0.722212  0.722632  0.500000  1
  Co  Co21  1  0.276953  0.998994  0.500000  1
  Co  Co22  1  0.004202  0.281742  0.500000  1
  Co  Co23  1  0.999867  0.000231  0.000000  1
  Si  Si24  1  0.365181  0.365824  0.000000  1
  Si  Si25  1  0.634230  0.000652  0.000000  1
  Si  Si26  1  0.999783  0.632983  0.000000  1
  Si  Si27  1  0.836548  0.314024  0.500000  1
  Si  Si28  1  0.685867  0.522641  0.500000  1
  Si  Si29  1  0.477210  0.164192  0.500000  1
  Si  Si30  1  0.313731  0.835437  0.500000  1
  Si  Si31  1  0.521931  0.686791  0.500000  1
  P  P32  1  0.165091  0.477632  0.500000  1
  P  P33  1  0.818215  0.818294  0.000000  1
  P  P34  1  0.181111  0.998805  0.000000  1
  P  P35  1  0.001055  0.181851  0.000000  1
