# generated using pymatgen
data_La2ErHf(NiP)4
_symmetry_space_group_name_H-M   'P 1'
_cell_length_a   3.92501100
_cell_length_b   3.92501018
_cell_length_c   15.61832500
_cell_angle_alpha   90.00000000
_cell_angle_beta   90.00000000
_cell_angle_gamma   120.00001534
_symmetry_Int_Tables_number   1
_chemical_formula_structural   La2ErHf(NiP)4
_chemical_formula_sum   'La2 Er1 Hf1 Ni4 P4'
_cell_volume   208.37551488
_cell_formula_units_Z   1
loop_
 _symmetry_equiv_pos_site_id
 _symmetry_equiv_pos_as_xyz
  1  'x, y, z'
loop_
 _atom_site_type_symbol
 _atom_site_label
 _atom_site_symmetry_multiplicity
 _atom_site_fract_x
 _atom_site_fract_y
 _atom_site_fract_z
 _atom_site_occupancy
  La  La0  1  0.000000  0.000000  0.492883  1
  La  La1  1  0.000000  0.000000  0.007117  1
  Er  Er2  1  0.000000  0.000000  0.750000  1
  Hf  Hf3  1  0.000000  0.000000  0.250000  1
  Ni  Ni4  1  0.333333  0.666667  0.340542  1
  Ni  Ni5  1  0.666667  0.333333  0.631762  1
  Ni  Ni6  1  0.666667  0.333333  0.868238  1
  Ni  Ni7  1  0.333333  0.666667  0.159458  1
  P  P8  1  0.333333  0.666667  0.872293  1
  P  P9  1  0.666667  0.333333  0.134528  1
  P  P10  1  0.666667  0.333333  0.365472  1
  P  P11  1  0.333333  0.666667  0.627707  1
