# generated using pymatgen
data_Sr6InHg12Pb5
_symmetry_space_group_name_H-M   'P 1'
_cell_length_a   5.39480600
_cell_length_b   7.90006400
_cell_length_c   16.36024200
_cell_angle_alpha   90.00000000
_cell_angle_beta   89.99966185
_cell_angle_gamma   90.00000000
_symmetry_Int_Tables_number   1
_chemical_formula_structural   Sr6InHg12Pb5
_chemical_formula_sum   'Sr6 In1 Hg12 Pb5'
_cell_volume   697.26226911
_cell_formula_units_Z   1
loop_
 _symmetry_equiv_pos_site_id
 _symmetry_equiv_pos_as_xyz
  1  'x, y, z'
loop_
 _atom_site_type_symbol
 _atom_site_label
 _atom_site_symmetry_multiplicity
 _atom_site_fract_x
 _atom_site_fract_y
 _atom_site_fract_z
 _atom_site_occupancy
  Sr  Sr0  1  0.000006  0.500000  0.998796  1
  Sr  Sr1  1  0.499912  0.000000  0.166315  1
  Sr  Sr2  1  0.999908  0.500000  0.333328  1
  Sr  Sr3  1  0.500011  0.000000  0.500358  1
  Sr  Sr4  1  0.000098  0.500000  0.667874  1
  Sr  Sr5  1  0.500102  0.000000  0.833328  1
  In  In6  1  0.499978  0.500000  0.833340  1
  Hg  Hg7  1  0.500007  0.251509  0.997983  1
  Hg  Hg8  1  0.500007  0.748490  0.997983  1
  Hg  Hg9  1  0.999893  0.251258  0.166737  1
  Hg  Hg10  1  0.999893  0.748743  0.166737  1
  Hg  Hg11  1  0.499927  0.249850  0.333334  1
  Hg  Hg12  1  0.499927  0.750151  0.333334  1
  Hg  Hg13  1  0.000003  0.251273  0.499926  1
  Hg  Hg14  1  0.000003  0.748728  0.499926  1
  Hg  Hg15  1  0.500098  0.251521  0.668679  1
  Hg  Hg16  1  0.500098  0.748480  0.668679  1
  Hg  Hg17  1  0.000099  0.255335  0.833336  1
  Hg  Hg18  1  0.000099  0.744666  0.833336  1
  Pb  Pb19  1  0.000012  0.000000  0.999264  1
  Pb  Pb20  1  0.499881  0.500000  0.165993  1
  Pb  Pb21  1  0.999973  0.000000  0.333334  1
  Pb  Pb22  1  0.500019  0.500000  0.500679  1
  Pb  Pb23  1  0.000047  0.000000  0.667399  1
