# generated using pymatgen
data_Tb5YAl6Cr4O24
_symmetry_space_group_name_H-M   'P 1'
_cell_length_a   10.64815022
_cell_length_b   10.64743857
_cell_length_c   10.64777908
_cell_angle_alpha   109.47686384
_cell_angle_beta   109.47945732
_cell_angle_gamma   109.45749069
_symmetry_Int_Tables_number   1
_chemical_formula_structural   Tb5YAl6Cr4O24
_chemical_formula_sum   'Tb10 Y2 Al12 Cr8 O48'
_cell_volume   929.29935410
_cell_formula_units_Z   2
loop_
 _symmetry_equiv_pos_site_id
 _symmetry_equiv_pos_as_xyz
  1  'x, y, z'
loop_
 _atom_site_type_symbol
 _atom_site_label
 _atom_site_symmetry_multiplicity
 _atom_site_fract_x
 _atom_site_fract_y
 _atom_site_fract_z
 _atom_site_occupancy
  Tb  Tb0  1  0.249994  0.374985  0.124988  1
  Tb  Tb1  1  0.374990  0.749999  0.124984  1
  Tb  Tb2  1  0.375005  0.125006  0.250011  1
  Tb  Tb3  1  0.874874  0.624875  0.249746  1
  Tb  Tb4  1  0.125012  0.249997  0.375010  1
  Tb  Tb5  1  0.750000  0.125015  0.375010  1
  Tb  Tb6  1  0.874976  0.750005  0.625103  1
  Tb  Tb7  1  0.250129  0.875101  0.625103  1
  Tb  Tb8  1  0.624998  0.874998  0.749996  1
  Tb  Tb9  1  0.125001  0.375002  0.750003  1
  Y  Y10  1  0.625025  0.250128  0.875028  1
  Y  Y11  1  0.750001  0.624901  0.875031  1
  Al  Al12  1  0.874832  0.250010  0.124840  1
  Al  Al13  1  0.750008  0.874828  0.124839  1
  Al  Al14  1  0.624992  0.374949  0.249898  1
  Al  Al15  1  0.124907  0.874948  0.249903  1
  Al  Al16  1  0.250009  0.625019  0.375029  1
  Al  Al17  1  0.625023  0.750010  0.375032  1
  Al  Al18  1  0.375229  0.250086  0.625191  1
  Al  Al19  1  0.749964  0.375105  0.625194  1
  Al  Al20  1  0.874949  0.125032  0.750026  1
  Al  Al21  1  0.375074  0.624990  0.750027  1
  Al  Al22  1  0.250093  0.125039  0.875008  1
  Al  Al23  1  0.124918  0.749966  0.875004  1
  Cr  Cr24  1  0.999934  0.999871  0.999940  1
  Cr  Cr25  1  0.500007  0.000076  0.999927  1
  Cr  Cr26  1  0.999778  0.499985  0.999889  1
  Cr  Cr27  1  0.500120  0.499926  0.999898  1
  Cr  Cr28  1  0.000037  0.000008  0.500016  1
  Cr  Cr29  1  0.500064  0.500025  0.500146  1
  Cr  Cr30  1  0.500076  0.000123  0.500160  1
  Cr  Cr31  1  0.999984  0.500006  0.500019  1
  O  O32  1  0.315604  0.900805  0.022836  1
  O  O33  1  0.207234  0.122031  0.022838  1
  O  O34  1  0.707298  0.684086  0.084614  1
  O  O35  1  0.877321  0.400530  0.084618  1
  O  O36  1  0.622017  0.414657  0.099064  1
  O  O37  1  0.977051  0.684406  0.099070  1
  O  O38  1  0.599257  0.914789  0.122015  1
  O  O39  1  0.022756  0.207223  0.122015  1
  O  O40  1  0.477179  0.599200  0.184378  1
  O  O41  1  0.207199  0.585174  0.184374  1
  O  O42  1  0.585186  0.184337  0.207262  1
  O  O43  1  0.122070  0.022917  0.207259  1
  O  O44  1  0.477203  0.377979  0.292785  1
  O  O45  1  0.315584  0.914807  0.292783  1
  O  O46  1  0.914765  0.292738  0.315544  1
  O  O47  1  0.900776  0.022800  0.315541  1
  O  O48  1  0.585196  0.900824  0.377960  1
  O  O49  1  0.292768  0.477137  0.377960  1
  O  O50  1  0.085278  0.877966  0.400826  1
  O  O51  1  0.815544  0.522858  0.400822  1
  O  O52  1  0.099134  0.621983  0.414707  1
  O  O53  1  0.815575  0.792724  0.414711  1
  O  O54  1  0.599206  0.184422  0.477147  1
  O  O55  1  0.377943  0.292725  0.477146  1
  O  O56  1  0.400824  0.815617  0.522856  1
  O  O57  1  0.622034  0.707240  0.522859  1
  O  O58  1  0.900753  0.377981  0.585244  1
  O  O59  1  0.184488  0.207264  0.585241  1
  O  O60  1  0.914789  0.122039  0.599193  1
  O  O61  1  0.184404  0.477155  0.599194  1
  O  O62  1  0.415376  0.099492  0.622722  1
  O  O63  1  0.707348  0.523231  0.622724  1
  O  O64  1  0.085216  0.707292  0.684408  1
  O  O65  1  0.099194  0.977126  0.684413  1
  O  O66  1  0.684454  0.085422  0.707395  1
  O  O67  1  0.522942  0.621971  0.707396  1
  O  O68  1  0.414809  0.815590  0.792730  1
  O  O69  1  0.877922  0.977139  0.792729  1
  O  O70  1  0.523313  0.400653  0.815878  1
  O  O71  1  0.792561  0.415226  0.815882  1
  O  O72  1  0.400952  0.085361  0.877991  1
  O  O73  1  0.977037  0.792626  0.877988  1
  O  O74  1  0.377937  0.585166  0.900823  1
  O  O75  1  0.022883  0.315654  0.900822  1
  O  O76  1  0.292751  0.315664  0.914820  1
  O  O77  1  0.122064  0.599156  0.914819  1
  O  O78  1  0.684138  0.099438  0.976798  1
  O  O79  1  0.792655  0.877356  0.976792  1
