# generated using pymatgen
data_LaPrBi2(Pt2O7)2
_symmetry_space_group_name_H-M   'P 1'
_cell_length_a   7.48239769
_cell_length_b   7.46984983
_cell_length_c   7.46985004
_cell_angle_alpha   59.87208832
_cell_angle_beta   59.83027731
_cell_angle_gamma   59.83028670
_symmetry_Int_Tables_number   1
_chemical_formula_structural   LaPrBi2(Pt2O7)2
_chemical_formula_sum   'La1 Pr1 Bi2 Pt4 O14'
_cell_volume   294.17871854
_cell_formula_units_Z   1
loop_
 _symmetry_equiv_pos_site_id
 _symmetry_equiv_pos_as_xyz
  1  'x, y, z'
loop_
 _atom_site_type_symbol
 _atom_site_label
 _atom_site_symmetry_multiplicity
 _atom_site_fract_x
 _atom_site_fract_y
 _atom_site_fract_z
 _atom_site_occupancy
  La  La0  1  0.625000  0.125000  0.125000  1
  Pr  Pr1  1  0.125000  0.125000  0.125000  1
  Bi  Bi2  1  0.125000  0.125000  0.625000  1
  Bi  Bi3  1  0.125000  0.625000  0.125000  1
  Pt  Pt4  1  0.625000  0.625000  0.125000  1
  Pt  Pt5  1  0.625000  0.125000  0.625000  1
  Pt  Pt6  1  0.125000  0.625000  0.625000  1
  Pt  Pt7  1  0.625000  0.625000  0.625000  1
  O  O8  1  0.248553  0.251149  0.251149  1
  O  O9  1  0.001447  0.998851  0.998851  1
  O  O10  1  0.541267  0.957968  0.543275  1
  O  O11  1  0.291364  0.709167  0.291451  1
  O  O12  1  0.541267  0.543275  0.957968  1
  O  O13  1  0.957313  0.542946  0.542946  1
  O  O14  1  0.539105  0.959249  0.959249  1
  O  O15  1  0.958636  0.958549  0.540833  1
  O  O16  1  0.958636  0.540833  0.958549  1
  O  O17  1  0.710895  0.290751  0.290751  1
  O  O18  1  0.292687  0.707054  0.707054  1
  O  O19  1  0.708733  0.292032  0.706725  1
  O  O20  1  0.291364  0.291451  0.709167  1
  O  O21  1  0.708733  0.706725  0.292032  1
