# generated using pymatgen
data_Y5Tm5(SnSb)3
_symmetry_space_group_name_H-M   'P 1'
_cell_length_a   6.36392400
_cell_length_b   8.94627965
_cell_length_c   8.93211584
_cell_angle_alpha   120.05247162
_cell_angle_beta   90.00023658
_cell_angle_gamma   89.99953614
_symmetry_Int_Tables_number   1
_chemical_formula_structural   Y5Tm5(SnSb)3
_chemical_formula_sum   'Y5 Tm5 Sn3 Sb3'
_cell_volume   440.17215029
_cell_formula_units_Z   1
loop_
 _symmetry_equiv_pos_site_id
 _symmetry_equiv_pos_as_xyz
  1  'x, y, z'
loop_
 _atom_site_type_symbol
 _atom_site_label
 _atom_site_symmetry_multiplicity
 _atom_site_fract_x
 _atom_site_fract_y
 _atom_site_fract_z
 _atom_site_occupancy
  Y  Y0  1  0.749997  0.758656  0.758619  1
  Y  Y1  1  0.749997  0.000037  0.241381  1
  Y  Y2  1  0.249991  0.756825  0.000000  1
  Y  Y3  1  0.250003  0.242628  0.242125  1
  Y  Y4  1  0.250003  0.000503  0.757875  1
  Tm  Tm5  1  0.501690  0.333239  0.666468  1
  Tm  Tm6  1  0.501690  0.666770  0.333532  1
  Tm  Tm7  1  0.998309  0.666772  0.333532  1
  Tm  Tm8  1  0.998309  0.333240  0.666468  1
  Tm  Tm9  1  0.749999  0.242024  0.000000  1
  Sn  Sn10  1  0.750006  0.605229  0.000000  1
  Sn  Sn11  1  0.750007  0.393357  0.392446  1
  Sn  Sn12  1  0.750007  0.000909  0.607554  1
  Sb  Sb13  1  0.249996  0.392465  0.000000  1
  Sb  Sb14  1  0.249999  0.607354  0.607364  1
  Sb  Sb15  1  0.249999  0.999989  0.392636  1
