# generated using pymatgen
data_TmLu7Tc3B24Os
_symmetry_space_group_name_H-M   'P 1'
_cell_length_a   3.61298400
_cell_length_b   9.05246361
_cell_length_c   11.41400100
_cell_angle_alpha   89.95046665
_cell_angle_beta   90.00000000
_cell_angle_gamma   90.00000000
_symmetry_Int_Tables_number   1
_chemical_formula_structural   TmLu7Tc3B24Os
_chemical_formula_sum   'Tm1 Lu7 Tc3 B24 Os1'
_cell_volume   373.31081348
_cell_formula_units_Z   1
loop_
 _symmetry_equiv_pos_site_id
 _symmetry_equiv_pos_as_xyz
  1  'x, y, z'
loop_
 _atom_site_type_symbol
 _atom_site_label
 _atom_site_symmetry_multiplicity
 _atom_site_fract_x
 _atom_site_fract_y
 _atom_site_fract_z
 _atom_site_occupancy
  Tm  Tm0  1  0.000000  0.323383  0.413723  1
  Lu  Lu1  1  0.000000  0.675585  0.584204  1
  Lu  Lu2  1  0.000000  0.822448  0.087513  1
  Lu  Lu3  1  0.000000  0.178436  0.914478  1
  Lu  Lu4  1  0.000000  0.942885  0.370489  1
  Lu  Lu5  1  0.000000  0.057723  0.629495  1
  Lu  Lu6  1  0.000000  0.443395  0.129638  1
  Lu  Lu7  1  0.000000  0.556588  0.870098  1
  Tc  Tc8  1  0.000000  0.638881  0.320391  1
  Tc  Tc9  1  0.000000  0.361384  0.680345  1
  Tc  Tc10  1  0.000000  0.138063  0.178277  1
  B  B11  1  0.500000  0.553084  0.433587  1
  B  B12  1  0.500000  0.447097  0.566485  1
  B  B13  1  0.500000  0.052764  0.066073  1
  B  B14  1  0.500000  0.946440  0.933545  1
  B  B15  1  0.500000  0.749947  0.419813  1
  B  B16  1  0.500000  0.249820  0.580566  1
  B  B17  1  0.500000  0.250461  0.080202  1
  B  B18  1  0.500000  0.750116  0.919442  1
  B  B19  1  0.500000  0.793042  0.265153  1
  B  B20  1  0.500000  0.207034  0.735542  1
  B  B21  1  0.500000  0.292873  0.234875  1
  B  B22  1  0.500000  0.707753  0.764850  1
  B  B23  1  0.500000  0.630969  0.184543  1
  B  B24  1  0.500000  0.369014  0.816072  1
  B  B25  1  0.500000  0.130288  0.315012  1
  B  B26  1  0.500000  0.869058  0.684604  1
  B  B27  1  0.500000  0.980665  0.211988  1
  B  B28  1  0.500000  0.018127  0.787922  1
  B  B29  1  0.500000  0.481168  0.287666  1
  B  B30  1  0.500000  0.518990  0.712146  1
  B  B31  1  0.500000  0.601404  0.027900  1
  B  B32  1  0.500000  0.399796  0.972003  1
  B  B33  1  0.500000  0.100760  0.472062  1
  B  B34  1  0.500000  0.899042  0.528400  1
  Os  Os35  1  0.000000  0.861518  0.820897  1
