# generated using pymatgen
data_Tb4Co(Si2Pt)5
_symmetry_space_group_name_H-M   'P 1'
_cell_length_a   8.12940305
_cell_length_b   8.12940346
_cell_length_c   5.94710858
_cell_angle_alpha   68.66214592
_cell_angle_beta   68.66214779
_cell_angle_gamma   89.17236862
_symmetry_Int_Tables_number   1
_chemical_formula_structural   Tb4Co(Si2Pt)5
_chemical_formula_sum   'Tb4 Co1 Si10 Pt5'
_cell_volume   337.82517992
_cell_formula_units_Z   1
loop_
 _symmetry_equiv_pos_site_id
 _symmetry_equiv_pos_as_xyz
  1  'x, y, z'
loop_
 _atom_site_type_symbol
 _atom_site_label
 _atom_site_symmetry_multiplicity
 _atom_site_fract_x
 _atom_site_fract_y
 _atom_site_fract_z
 _atom_site_occupancy
  Tb  Tb0  1  0.860988  0.598709  0.769789  1
  Tb  Tb1  1  0.401291  0.139012  0.730211  1
  Tb  Tb2  1  0.139168  0.401401  0.226790  1
  Tb  Tb3  1  0.598599  0.860832  0.273210  1
  Co  Co4  1  0.000769  0.999231  0.750000  1
  Si  Si5  1  0.778036  0.221964  0.750000  1
  Si  Si6  1  0.225768  0.774232  0.250000  1
  Si  Si7  1  0.500921  0.499079  0.750000  1
  Si  Si8  1  0.498968  0.501032  0.250000  1
  Si  Si9  1  0.220169  0.779831  0.750000  1
  Si  Si10  1  0.775441  0.224559  0.250000  1
  Si  Si11  1  0.044273  0.252857  0.835536  1
  Si  Si12  1  0.253237  0.043932  0.364936  1
  Si  Si13  1  0.956068  0.746763  0.135064  1
  Si  Si14  1  0.747143  0.955727  0.664464  1
  Pt  Pt15  1  0.524480  0.247912  0.113921  1
  Pt  Pt16  1  0.999402  0.000598  0.250000  1
  Pt  Pt17  1  0.247747  0.524556  0.615438  1
  Pt  Pt18  1  0.475444  0.752253  0.884562  1
  Pt  Pt19  1  0.752088  0.475520  0.386079  1
