# generated using pymatgen
data_K3Ta2Au3Se8
_symmetry_space_group_name_H-M   'P 1'
_cell_length_a   13.14243919
_cell_length_b   13.14243808
_cell_length_c   14.92305161
_cell_angle_alpha   61.56212193
_cell_angle_beta   61.56212419
_cell_angle_gamma   26.57307354
_symmetry_Int_Tables_number   1
_chemical_formula_structural   K3Ta2Au3Se8
_chemical_formula_sum   'K6 Ta4 Au6 Se16'
_cell_volume   1005.58637704
_cell_formula_units_Z   2
loop_
 _symmetry_equiv_pos_site_id
 _symmetry_equiv_pos_as_xyz
  1  'x, y, z'
loop_
 _atom_site_type_symbol
 _atom_site_label
 _atom_site_symmetry_multiplicity
 _atom_site_fract_x
 _atom_site_fract_y
 _atom_site_fract_z
 _atom_site_occupancy
  K  K0  1  0.225612  0.380050  0.607939  1
  K  K1  1  0.774388  0.619950  0.392061  1
  K  K2  1  0.380050  0.225612  0.107939  1
  K  K3  1  0.000000  0.000000  0.500000  1
  K  K4  1  0.619950  0.774388  0.892061  1
  K  K5  1  0.000000  0.000000  0.000000  1
  Ta  Ta6  1  0.180526  0.569007  0.279902  1
  Ta  Ta7  1  0.569007  0.180526  0.779902  1
  Ta  Ta8  1  0.430993  0.819474  0.220098  1
  Ta  Ta9  1  0.819474  0.430993  0.720098  1
  Au  Au10  1  0.297010  0.702990  0.250000  1
  Au  Au11  1  0.064201  0.676432  0.788217  1
  Au  Au12  1  0.702990  0.297010  0.750000  1
  Au  Au13  1  0.676432  0.064201  0.288217  1
  Au  Au14  1  0.323568  0.935799  0.711783  1
  Au  Au15  1  0.935799  0.323568  0.211783  1
  Se  Se16  1  0.730778  0.694310  0.101139  1
  Se  Se17  1  0.577966  0.507921  0.348462  1
  Se  Se18  1  0.176334  0.014626  0.113358  1
  Se  Se19  1  0.422034  0.492079  0.651538  1
  Se  Se20  1  0.014626  0.176334  0.613358  1
  Se  Se21  1  0.075989  0.241276  0.819582  1
  Se  Se22  1  0.694310  0.730778  0.601139  1
  Se  Se23  1  0.492079  0.422034  0.151538  1
  Se  Se24  1  0.507921  0.577966  0.848462  1
  Se  Se25  1  0.305690  0.269222  0.398861  1
  Se  Se26  1  0.758724  0.924011  0.680418  1
  Se  Se27  1  0.823666  0.985374  0.886642  1
  Se  Se28  1  0.269222  0.305690  0.898861  1
  Se  Se29  1  0.985374  0.823666  0.386642  1
  Se  Se30  1  0.924011  0.758724  0.180418  1
  Se  Se31  1  0.241276  0.075989  0.319582  1
