# generated using pymatgen
data_LiTh4Co13B6
_symmetry_space_group_name_H-M   'P 1'
_cell_length_a   5.07183400
_cell_length_b   5.07183492
_cell_length_c   13.18987200
_cell_angle_alpha   90.00000000
_cell_angle_beta   90.00000000
_cell_angle_gamma   120.00002006
_symmetry_Int_Tables_number   1
_chemical_formula_structural   LiTh4Co13B6
_chemical_formula_sum   'Li1 Th4 Co13 B6'
_cell_volume   293.83347107
_cell_formula_units_Z   1
loop_
 _symmetry_equiv_pos_site_id
 _symmetry_equiv_pos_as_xyz
  1  'x, y, z'
loop_
 _atom_site_type_symbol
 _atom_site_label
 _atom_site_symmetry_multiplicity
 _atom_site_fract_x
 _atom_site_fract_y
 _atom_site_fract_z
 _atom_site_occupancy
  Li  Li0  1  0.666667  0.333333  0.000000  1
  Th  Th1  1  0.000000  0.000000  0.255419  1
  Th  Th2  1  0.000000  0.000000  0.500000  1
  Th  Th3  1  0.000000  0.000000  0.000000  1
  Th  Th4  1  0.000000  0.000000  0.744581  1
  Co  Co5  1  0.496806  0.503194  0.157049  1
  Co  Co6  1  0.500161  0.499839  0.383356  1
  Co  Co7  1  0.006388  0.503194  0.842951  1
  Co  Co8  1  0.496806  0.993612  0.157049  1
  Co  Co9  1  0.496806  0.993612  0.842951  1
  Co  Co10  1  0.500161  0.499839  0.616644  1
  Co  Co11  1  0.500161  0.000321  0.383356  1
  Co  Co12  1  0.006388  0.503194  0.157049  1
  Co  Co13  1  0.999679  0.499839  0.383356  1
  Co  Co14  1  0.496806  0.503194  0.842951  1
  Co  Co15  1  0.500161  0.000321  0.616644  1
  Co  Co16  1  0.999679  0.499839  0.616644  1
  Co  Co17  1  0.333333  0.666667  0.000000  1
  B  B18  1  0.333333  0.666667  0.267887  1
  B  B19  1  0.666667  0.333333  0.500000  1
  B  B20  1  0.333333  0.666667  0.732113  1
  B  B21  1  0.666667  0.333333  0.266108  1
  B  B22  1  0.666667  0.333333  0.733892  1
  B  B23  1  0.333333  0.666667  0.500000  1
