# generated using pymatgen
data_Pr4ScCo7O20
_symmetry_space_group_name_H-M   'P 1'
_cell_length_a   5.77778800
_cell_length_b   7.59387181
_cell_length_c   8.62078699
_cell_angle_alpha   89.81712827
_cell_angle_beta   90.00000000
_cell_angle_gamma   90.00000000
_symmetry_Int_Tables_number   1
_chemical_formula_structural   Pr4ScCo7O20
_chemical_formula_sum   'Pr4 Sc1 Co7 O20'
_cell_volume   378.24183868
_cell_formula_units_Z   1
loop_
 _symmetry_equiv_pos_site_id
 _symmetry_equiv_pos_as_xyz
  1  'x, y, z'
loop_
 _atom_site_type_symbol
 _atom_site_label
 _atom_site_symmetry_multiplicity
 _atom_site_fract_x
 _atom_site_fract_y
 _atom_site_fract_z
 _atom_site_occupancy
  Pr  Pr0  1  0.000000  0.354871  0.668409  1
  Pr  Pr1  1  0.000000  0.642098  0.326758  1
  Pr  Pr2  1  0.000000  0.857895  0.825175  1
  Pr  Pr3  1  0.000000  0.138679  0.173107  1
  Sc  Sc4  1  0.500000  0.113194  0.857431  1
  Co  Co5  1  0.500000  0.907447  0.154748  1
  Co  Co6  1  0.500000  0.591895  0.650124  1
  Co  Co7  1  0.500000  0.408547  0.348760  1
  Co  Co8  1  0.257345  0.505329  0.000401  1
  Co  Co9  1  0.742918  0.998691  0.498273  1
  Co  Co10  1  0.742655  0.505329  0.000401  1
  Co  Co11  1  0.257082  0.998691  0.498273  1
  O  O12  1  0.253150  0.900551  0.296377  1
  O  O13  1  0.241563  0.094601  0.699435  1
  O  O14  1  0.748878  0.405061  0.205499  1
  O  O15  1  0.749119  0.596569  0.793656  1
  O  O16  1  0.758437  0.094601  0.699435  1
  O  O17  1  0.746850  0.900551  0.296377  1
  O  O18  1  0.250881  0.596569  0.793656  1
  O  O19  1  0.251122  0.405061  0.205499  1
  O  O20  1  0.500000  0.357597  0.939114  1
  O  O21  1  0.500000  0.651412  0.061719  1
  O  O22  1  0.500000  0.850280  0.565981  1
  O  O23  1  0.500000  0.150153  0.436418  1
  O  O24  1  0.273546  0.987551  0.006928  1
  O  O25  1  0.715462  0.499774  0.499510  1
  O  O26  1  0.726454  0.987551  0.006928  1
  O  O27  1  0.284538  0.499774  0.499510  1
  O  O28  1  0.000000  0.152050  0.445489  1
  O  O29  1  0.000000  0.843917  0.546753  1
  O  O30  1  0.000000  0.654409  0.049987  1
  O  O31  1  0.000000  0.349306  0.949869  1
