# generated using pymatgen
data_Ga8Ir4RuRh3
_symmetry_space_group_name_H-M   'P 1'
_cell_length_a   6.12959500
_cell_length_b   4.30373000
_cell_length_c   8.64166100
_cell_angle_alpha   90.00000000
_cell_angle_beta   89.99962741
_cell_angle_gamma   90.00000000
_symmetry_Int_Tables_number   1
_chemical_formula_structural   Ga8Ir4RuRh3
_chemical_formula_sum   'Ga8 Ir4 Ru1 Rh3'
_cell_volume   227.96807050
_cell_formula_units_Z   1
loop_
 _symmetry_equiv_pos_site_id
 _symmetry_equiv_pos_as_xyz
  1  'x, y, z'
loop_
 _atom_site_type_symbol
 _atom_site_label
 _atom_site_symmetry_multiplicity
 _atom_site_fract_x
 _atom_site_fract_y
 _atom_site_fract_z
 _atom_site_occupancy
  Ga  Ga0  1  0.998743  0.749999  0.122471  1
  Ga  Ga1  1  0.501303  0.749999  0.122499  1
  Ga  Ga2  1  0.000025  0.250000  0.374982  1
  Ga  Ga3  1  0.500022  0.250000  0.375013  1
  Ga  Ga4  1  0.501256  0.749999  0.627488  1
  Ga  Ga5  1  0.998692  0.749999  0.627515  1
  Ga  Ga6  1  0.502184  0.250000  0.874983  1
  Ga  Ga7  1  0.997760  0.250000  0.875009  1
  Ir  Ir8  1  0.750026  0.250000  0.128083  1
  Ir  Ir9  1  0.250032  0.749999  0.375018  1
  Ir  Ir10  1  0.749973  0.250000  0.621857  1
  Ir  Ir11  1  0.249963  0.749999  0.875033  1
  Ru  Ru12  1  0.749974  0.749999  0.874975  1
  Rh  Rh13  1  0.250047  0.250000  0.127049  1
  Rh  Rh14  1  0.750051  0.749999  0.374974  1
  Rh  Rh15  1  0.249950  0.250000  0.623048  1
