# generated using pymatgen
data_Dy11Y5MgCo4Hg3
_symmetry_space_group_name_H-M   'P 1'
_cell_length_a   9.51514570
_cell_length_b   9.49120263
_cell_length_c   9.49120419
_cell_angle_alpha   60.02166948
_cell_angle_beta   60.09658918
_cell_angle_gamma   60.09658725
_symmetry_Int_Tables_number   1
_chemical_formula_structural   Dy11Y5MgCo4Hg3
_chemical_formula_sum   'Dy11 Y5 Mg1 Co4 Hg3'
_cell_volume   607.08120230
_cell_formula_units_Z   1
loop_
 _symmetry_equiv_pos_site_id
 _symmetry_equiv_pos_as_xyz
  1  'x, y, z'
loop_
 _atom_site_type_symbol
 _atom_site_label
 _atom_site_symmetry_multiplicity
 _atom_site_fract_x
 _atom_site_fract_y
 _atom_site_fract_z
 _atom_site_occupancy
  Dy  Dy0  1  0.346218  0.344407  0.344407  1
  Dy  Dy1  1  0.347814  0.346092  0.961991  1
  Dy  Dy2  1  0.347814  0.961991  0.346092  1
  Dy  Dy3  1  0.952291  0.349728  0.349728  1
  Dy  Dy4  1  0.808739  0.189808  0.189808  1
  Dy  Dy5  1  0.184224  0.813258  0.813258  1
  Dy  Dy6  1  0.185657  0.812043  0.187829  1
  Dy  Dy7  1  0.809487  0.188667  0.810643  1
  Dy  Dy8  1  0.185657  0.187829  0.812043  1
  Dy  Dy9  1  0.809487  0.810643  0.188667  1
  Dy  Dy10  1  0.939102  0.561146  0.561146  1
  Y  Y11  1  0.560519  0.938745  0.938745  1
  Y  Y12  1  0.561005  0.939584  0.562191  1
  Y  Y13  1  0.937765  0.561130  0.939516  1
  Y  Y14  1  0.561005  0.562191  0.939584  1
  Y  Y15  1  0.937765  0.939516  0.561130  1
  Mg  Mg16  1  0.284773  0.571413  0.571413  1
  Co  Co17  1  0.138810  0.142388  0.142388  1
  Co  Co18  1  0.139426  0.143171  0.577264  1
  Co  Co19  1  0.139426  0.577264  0.143171  1
  Co  Co20  1  0.577085  0.141890  0.141890  1
  Hg  Hg21  1  0.581763  0.585062  0.585062  1
  Hg  Hg22  1  0.582084  0.585620  0.246417  1
  Hg  Hg23  1  0.582084  0.246417  0.585620  1
