# generated using pymatgen
data_TbCe2Ho(AlIr)4
_symmetry_space_group_name_H-M   'P 1'
_cell_length_a   6.85713491
_cell_length_b   4.31483900
_cell_length_c   7.94453106
_cell_angle_alpha   90.00000000
_cell_angle_beta   90.05911581
_cell_angle_gamma   90.00000000
_symmetry_Int_Tables_number   1
_chemical_formula_structural   TbCe2Ho(AlIr)4
_chemical_formula_sum   'Tb1 Ce2 Ho1 Al4 Ir4'
_cell_volume   235.05815644
_cell_formula_units_Z   1
loop_
 _symmetry_equiv_pos_site_id
 _symmetry_equiv_pos_as_xyz
  1  'x, y, z'
loop_
 _atom_site_type_symbol
 _atom_site_label
 _atom_site_symmetry_multiplicity
 _atom_site_fract_x
 _atom_site_fract_y
 _atom_site_fract_z
 _atom_site_occupancy
  Tb  Tb0  1  0.964699  0.250000  0.184609  1
  Ce  Ce1  1  0.034230  0.750000  0.821351  1
  Ce  Ce2  1  0.533685  0.750000  0.678183  1
  Ho  Ho3  1  0.464370  0.250000  0.315700  1
  Al  Al4  1  0.863420  0.250000  0.557701  1
  Al  Al5  1  0.363858  0.250000  0.942520  1
  Al  Al6  1  0.138252  0.750000  0.434263  1
  Al  Al7  1  0.637420  0.750000  0.066064  1
  Ir  Ir8  1  0.737519  0.250000  0.876543  1
  Ir  Ir9  1  0.237869  0.250000  0.622681  1
  Ir  Ir10  1  0.263296  0.750000  0.114950  1
  Ir  Ir11  1  0.761381  0.750000  0.385435  1
