# generated using pymatgen
data_Dy4InHgPd4
_symmetry_space_group_name_H-M   'P 1'
_cell_length_a   7.74122200
_cell_length_b   7.74122200
_cell_length_c   3.71608800
_cell_angle_alpha   90.00000000
_cell_angle_beta   90.00000000
_cell_angle_gamma   90.00000000
_symmetry_Int_Tables_number   1
_chemical_formula_structural   Dy4InHgPd4
_chemical_formula_sum   'Dy4 In1 Hg1 Pd4'
_cell_volume   222.69221462
_cell_formula_units_Z   1
loop_
 _symmetry_equiv_pos_site_id
 _symmetry_equiv_pos_as_xyz
  1  'x, y, z'
loop_
 _atom_site_type_symbol
 _atom_site_label
 _atom_site_symmetry_multiplicity
 _atom_site_fract_x
 _atom_site_fract_y
 _atom_site_fract_z
 _atom_site_occupancy
  Dy  Dy0  1  0.326748  0.827093  0.500000  1
  Dy  Dy1  1  0.827093  0.673252  0.500000  1
  Dy  Dy2  1  0.172907  0.326748  0.500000  1
  Dy  Dy3  1  0.673252  0.172907  0.500000  1
  In  In4  1  0.500000  0.500000  0.000000  1
  Hg  Hg5  1  0.000000  0.000000  0.000000  1
  Pd  Pd6  1  0.373087  0.128830  0.000000  1
  Pd  Pd7  1  0.871170  0.373087  0.000000  1
  Pd  Pd8  1  0.128830  0.626913  0.000000  1
  Pd  Pd9  1  0.626913  0.871170  0.000000  1
