# generated using pymatgen
data_Y13Er3Cd4Pd3Pt
_symmetry_space_group_name_H-M   'P 1'
_cell_length_a   9.71836852
_cell_length_b   9.71569070
_cell_length_c   9.71569100
_cell_angle_alpha   60.00000238
_cell_angle_beta   60.00911683
_cell_angle_gamma   60.00911841
_symmetry_Int_Tables_number   1
_chemical_formula_structural   Y13Er3Cd4Pd3Pt
_chemical_formula_sum   'Y13 Er3 Cd4 Pd3 Pt1'
_cell_volume   648.76227121
_cell_formula_units_Z   1
loop_
 _symmetry_equiv_pos_site_id
 _symmetry_equiv_pos_as_xyz
  1  'x, y, z'
loop_
 _atom_site_type_symbol
 _atom_site_label
 _atom_site_symmetry_multiplicity
 _atom_site_fract_x
 _atom_site_fract_y
 _atom_site_fract_z
 _atom_site_occupancy
  Y  Y0  1  0.937413  0.354196  0.354196  1
  Y  Y1  1  0.809258  0.189384  0.189384  1
  Y  Y2  1  0.189672  0.810447  0.810447  1
  Y  Y3  1  0.189672  0.810447  0.189435  1
  Y  Y4  1  0.809258  0.189384  0.811975  1
  Y  Y5  1  0.189672  0.189435  0.810447  1
  Y  Y6  1  0.809258  0.811975  0.189384  1
  Y  Y7  1  0.934383  0.565714  0.565714  1
  Y  Y8  1  0.565546  0.934956  0.934956  1
  Y  Y9  1  0.565546  0.934956  0.564541  1
  Y  Y10  1  0.934383  0.565714  0.934187  1
  Y  Y11  1  0.565546  0.564541  0.934956  1
  Y  Y12  1  0.934383  0.934187  0.565714  1
  Er  Er13  1  0.354945  0.352425  0.352425  1
  Er  Er14  1  0.354945  0.352425  0.940204  1
  Er  Er15  1  0.354945  0.940204  0.352425  1
  Cd  Cd16  1  0.581834  0.582382  0.582382  1
  Cd  Cd17  1  0.581834  0.582382  0.253403  1
  Cd  Cd18  1  0.581834  0.253403  0.582382  1
  Cd  Cd19  1  0.253884  0.582039  0.582039  1
  Pd  Pd20  1  0.145459  0.144644  0.144644  1
  Pd  Pd21  1  0.145459  0.144644  0.565253  1
  Pd  Pd22  1  0.145459  0.565253  0.144644  1
  Pt  Pt23  1  0.565411  0.144863  0.144863  1
