# generated using pymatgen
data_Ho8Nb11Si16Pt
_symmetry_space_group_name_H-M   'P 1'
_cell_length_a   7.05554031
_cell_length_b   7.05554011
_cell_length_c   12.98257393
_cell_angle_alpha   90.25440765
_cell_angle_beta   89.74559311
_cell_angle_gamma   89.67860595
_symmetry_Int_Tables_number   1
_chemical_formula_structural   Ho8Nb11Si16Pt
_chemical_formula_sum   'Ho8 Nb11 Si16 Pt1'
_cell_volume   646.25795704
_cell_formula_units_Z   1
loop_
 _symmetry_equiv_pos_site_id
 _symmetry_equiv_pos_as_xyz
  1  'x, y, z'
loop_
 _atom_site_type_symbol
 _atom_site_label
 _atom_site_symmetry_multiplicity
 _atom_site_fract_x
 _atom_site_fract_y
 _atom_site_fract_z
 _atom_site_occupancy
  Ho  Ho0  1  0.342004  0.001986  0.467209  1
  Ho  Ho1  1  0.495659  0.842629  0.718205  1
  Ho  Ho2  1  0.501768  0.157378  0.215859  1
  Ho  Ho3  1  0.842629  0.495659  0.281795  1
  Ho  Ho4  1  0.157378  0.501768  0.784141  1
  Ho  Ho5  1  0.655612  0.001065  0.967740  1
  Ho  Ho6  1  0.001986  0.342004  0.532791  1
  Ho  Ho7  1  0.001065  0.655612  0.032260  1
  Nb  Nb8  1  0.174569  0.826429  0.247720  1
  Nb  Nb9  1  0.826429  0.174569  0.752280  1
  Nb  Nb10  1  0.671110  0.671110  0.500000  1
  Nb  Nb11  1  0.150187  0.005372  0.875448  1
  Nb  Nb12  1  0.495590  0.655469  0.122494  1
  Nb  Nb13  1  0.504100  0.349151  0.624519  1
  Nb  Nb14  1  0.655469  0.495590  0.877506  1
  Nb  Nb15  1  0.349151  0.504100  0.375481  1
  Nb  Nb16  1  0.848725  0.992261  0.373474  1
  Nb  Nb17  1  0.005372  0.150187  0.124552  1
  Nb  Nb18  1  0.992261  0.848725  0.626526  1
  Si  Si19  1  0.202593  0.136252  0.683181  1
  Si  Si20  1  0.370139  0.711603  0.930667  1
  Si  Si21  1  0.635437  0.293943  0.431878  1
  Si  Si22  1  0.711603  0.370139  0.069333  1
  Si  Si23  1  0.293943  0.635437  0.568122  1
  Si  Si24  1  0.796405  0.864971  0.182053  1
  Si  Si25  1  0.136252  0.202593  0.316819  1
  Si  Si26  1  0.864971  0.796405  0.817947  1
  Si  Si27  1  0.289331  0.948519  0.061580  1
  Si  Si28  1  0.546039  0.793216  0.312593  1
  Si  Si29  1  0.449945  0.209046  0.814258  1
  Si  Si30  1  0.793216  0.546039  0.687407  1
  Si  Si31  1  0.209046  0.449945  0.185742  1
  Si  Si32  1  0.705496  0.046547  0.563844  1
  Si  Si33  1  0.948519  0.289331  0.938420  1
  Si  Si34  1  0.046547  0.705496  0.436156  1
  Pt  Pt35  1  0.329453  0.329453  0.000000  1
