# generated using pymatgen
data_Ac5CeRu2
_symmetry_space_group_name_H-M   'P 1'
_cell_length_a   6.87332355
_cell_length_b   7.72966447
_cell_length_c   10.48417500
_cell_angle_alpha   90.00000000
_cell_angle_beta   90.00000000
_cell_angle_gamma   85.66505813
_symmetry_Int_Tables_number   1
_chemical_formula_structural   Ac5CeRu2
_chemical_formula_sum   'Ac10 Ce2 Ru4'
_cell_volume   555.41485554
_cell_formula_units_Z   2
loop_
 _symmetry_equiv_pos_site_id
 _symmetry_equiv_pos_as_xyz
  1  'x, y, z'
loop_
 _atom_site_type_symbol
 _atom_site_label
 _atom_site_symmetry_multiplicity
 _atom_site_fract_x
 _atom_site_fract_y
 _atom_site_fract_z
 _atom_site_occupancy
  Ac  Ac0  1  0.680245  0.167101  0.067032  1
  Ac  Ac1  1  0.346831  0.547722  0.250000  1
  Ac  Ac2  1  0.834758  0.673795  0.073033  1
  Ac  Ac3  1  0.165242  0.326205  0.926967  1
  Ac  Ac4  1  0.319755  0.832899  0.932968  1
  Ac  Ac5  1  0.653169  0.452278  0.750000  1
  Ac  Ac6  1  0.319755  0.832899  0.567032  1
  Ac  Ac7  1  0.165242  0.326205  0.573033  1
  Ac  Ac8  1  0.834758  0.673795  0.426967  1
  Ac  Ac9  1  0.680245  0.167101  0.432968  1
  Ce  Ce10  1  0.822799  0.933328  0.750000  1
  Ce  Ce11  1  0.177201  0.066672  0.250000  1
  Ru  Ru12  1  0.985677  0.336754  0.250000  1
  Ru  Ru13  1  0.507442  0.099510  0.750000  1
  Ru  Ru14  1  0.492558  0.900490  0.250000  1
  Ru  Ru15  1  0.014323  0.663246  0.750000  1
