# generated using pymatgen
data_HfInPPt8
_symmetry_space_group_name_H-M   'P 1'
_cell_length_a   4.02552600
_cell_length_b   4.02552600
_cell_length_c   11.05926900
_cell_angle_alpha   90.00000000
_cell_angle_beta   90.00000000
_cell_angle_gamma   90.00000000
_symmetry_Int_Tables_number   1
_chemical_formula_structural   HfInPPt8
_chemical_formula_sum   'Hf1 In1 P1 Pt8'
_cell_volume   179.21390117
_cell_formula_units_Z   1
loop_
 _symmetry_equiv_pos_site_id
 _symmetry_equiv_pos_as_xyz
  1  'x, y, z'
loop_
 _atom_site_type_symbol
 _atom_site_label
 _atom_site_symmetry_multiplicity
 _atom_site_fract_x
 _atom_site_fract_y
 _atom_site_fract_z
 _atom_site_occupancy
  Hf  Hf0  1  0.500000  0.500000  0.817551  1
  In  In1  1  0.500000  0.500000  0.185341  1
  P  P2  1  0.000000  0.000000  0.499018  1
  Pt  Pt3  1  0.500000  0.000000  0.994119  1
  Pt  Pt4  1  0.000000  0.500000  0.994119  1
  Pt  Pt5  1  0.500000  0.000000  0.633520  1
  Pt  Pt6  1  0.000000  0.500000  0.633520  1
  Pt  Pt7  1  0.500000  0.000000  0.372664  1
  Pt  Pt8  1  0.000000  0.500000  0.372664  1
  Pt  Pt9  1  0.000000  0.000000  0.815571  1
  Pt  Pt10  1  0.000000  0.000000  0.181912  1
