# generated using pymatgen
data_Ho9Tm5(LuBi2)6
_symmetry_space_group_name_H-M   'P 1'
_cell_length_a   8.17857167
_cell_length_b   9.42983325
_cell_length_c   11.94521783
_cell_angle_alpha   89.99793182
_cell_angle_beta   89.95769491
_cell_angle_gamma   90.00372950
_symmetry_Int_Tables_number   1
_chemical_formula_structural   Ho9Tm5(LuBi2)6
_chemical_formula_sum   'Ho9 Tm5 Lu6 Bi12'
_cell_volume   921.24561030
_cell_formula_units_Z   1
loop_
 _symmetry_equiv_pos_site_id
 _symmetry_equiv_pos_as_xyz
  1  'x, y, z'
loop_
 _atom_site_type_symbol
 _atom_site_label
 _atom_site_symmetry_multiplicity
 _atom_site_fract_x
 _atom_site_fract_y
 _atom_site_fract_z
 _atom_site_occupancy
  Ho  Ho0  1  0.525014  0.249989  0.988523  1
  Ho  Ho1  1  0.354709  0.249992  0.283355  1
  Ho  Ho2  1  0.645062  0.750453  0.716907  1
  Ho  Ho3  1  0.144803  0.750306  0.782873  1
  Ho  Ho4  1  0.855479  0.250064  0.216951  1
  Ho  Ho5  1  0.187391  0.249924  0.781538  1
  Ho  Ho6  1  0.812875  0.750152  0.218227  1
  Ho  Ho7  1  0.312849  0.750182  0.282057  1
  Ho  Ho8  1  0.687316  0.250000  0.718046  1
  Tm  Tm9  1  0.807489  0.565765  0.940620  1
  Tm  Tm10  1  0.693504  0.065616  0.440644  1
  Tm  Tm11  1  0.192255  0.434524  0.059491  1
  Tm  Tm12  1  0.692893  0.434170  0.440763  1
  Tm  Tm13  1  0.307031  0.565613  0.559420  1
  Lu  Lu14  1  0.024593  0.250164  0.510978  1
  Lu  Lu15  1  0.976009  0.750064  0.489053  1
  Lu  Lu16  1  0.475610  0.750170  0.010848  1
  Lu  Lu17  1  0.193046  0.066402  0.059759  1
  Lu  Lu18  1  0.806707  0.933356  0.940289  1
  Lu  Lu19  1  0.306601  0.933289  0.559553  1
  Bi  Bi20  1  0.404848  0.248654  0.542940  1
  Bi  Bi21  1  0.594849  0.750208  0.457539  1
  Bi  Bi22  1  0.095248  0.751612  0.042892  1
  Bi  Bi23  1  0.906590  0.248398  0.957086  1
  Bi  Bi24  1  0.066247  0.003866  0.327382  1
  Bi  Bi25  1  0.933570  0.996290  0.672539  1
  Bi  Bi26  1  0.432708  0.995231  0.826592  1
  Bi  Bi27  1  0.933395  0.504003  0.672560  1
  Bi  Bi28  1  0.565954  0.003224  0.173397  1
  Bi  Bi29  1  0.066471  0.496395  0.327356  1
  Bi  Bi30  1  0.566317  0.496952  0.173296  1
  Bi  Bi31  1  0.432569  0.504974  0.826523  1
