# generated using pymatgen
data_SrNd5DyFeI12
_symmetry_space_group_name_H-M   'P 1'
_cell_length_a   9.97332516
_cell_length_b   9.97544143
_cell_length_c   10.06419450
_cell_angle_alpha   106.03199564
_cell_angle_beta   106.54289362
_cell_angle_gamma   106.24840987
_symmetry_Int_Tables_number   1
_chemical_formula_structural   SrNd5DyFeI12
_chemical_formula_sum   'Sr1 Nd5 Dy1 Fe1 I12'
_cell_volume   849.81830883
_cell_formula_units_Z   1
loop_
 _symmetry_equiv_pos_site_id
 _symmetry_equiv_pos_as_xyz
  1  'x, y, z'
loop_
 _atom_site_type_symbol
 _atom_site_label
 _atom_site_symmetry_multiplicity
 _atom_site_fract_x
 _atom_site_fract_y
 _atom_site_fract_z
 _atom_site_occupancy
  Sr  Sr0  1  0.499285  0.499757  0.500339  1
  Nd  Nd1  1  0.712347  0.980367  0.909635  1
  Nd  Nd2  1  0.979504  0.903396  0.696261  1
  Nd  Nd3  1  0.091680  0.287354  0.019614  1
  Nd  Nd4  1  0.288209  0.020551  0.093438  1
  Nd  Nd5  1  0.908474  0.713090  0.980463  1
  Dy  Dy6  1  0.020842  0.094560  0.294967  1
  Fe  Fe7  1  0.000649  0.000315  0.000273  1
  I  I8  1  0.073588  0.225388  0.676370  1
  I  I9  1  0.362760  0.139309  0.449042  1
  I  I10  1  0.628508  0.859755  0.550832  1
  I  I11  1  0.225962  0.680173  0.075057  1
  I  I12  1  0.774135  0.319851  0.925683  1
  I  I13  1  0.688301  0.075328  0.228909  1
  I  I14  1  0.548796  0.629086  0.857813  1
  I  I15  1  0.859244  0.548795  0.631344  1
  I  I16  1  0.928012  0.782734  0.320597  1
  I  I17  1  0.322138  0.927103  0.777836  1
  I  I18  1  0.451504  0.370891  0.143062  1
  I  I19  1  0.136061  0.442196  0.368463  1
