# generated using pymatgen
data_La8Nd2Si5Ag
_symmetry_space_group_name_H-M   'P 1'
_cell_length_a   7.80989645
_cell_length_b   7.80989672
_cell_length_c   9.09609400
_cell_angle_alpha   115.42311485
_cell_angle_beta   115.42311579
_cell_angle_gamma   89.99999776
_symmetry_Int_Tables_number   1
_chemical_formula_structural   La8Nd2Si5Ag
_chemical_formula_sum   'La8 Nd2 Si5 Ag1'
_cell_volume   440.85839054
_cell_formula_units_Z   1
loop_
 _symmetry_equiv_pos_site_id
 _symmetry_equiv_pos_as_xyz
  1  'x, y, z'
loop_
 _atom_site_type_symbol
 _atom_site_label
 _atom_site_symmetry_multiplicity
 _atom_site_fract_x
 _atom_site_fract_y
 _atom_site_fract_z
 _atom_site_occupancy
  La  La0  1  0.965443  0.821079  0.287429  1
  La  La1  1  0.321986  0.466351  0.287429  1
  La  La2  1  0.821079  0.321986  0.287429  1
  La  La3  1  0.466351  0.965443  0.287429  1
  La  La4  1  0.033649  0.178014  0.712571  1
  La  La5  1  0.678921  0.534557  0.712571  1
  La  La6  1  0.178014  0.678921  0.712571  1
  La  La7  1  0.534557  0.033649  0.712571  1
  Nd  Nd8  1  0.483183  0.483183  0.966367  1
  Nd  Nd9  1  0.016817  0.016817  0.033633  1
  Si  Si10  1  0.250000  0.250000  0.500000  1
  Si  Si11  1  0.613730  0.886270  0.000000  1
  Si  Si12  1  0.386270  0.113730  0.000000  1
  Si  Si13  1  0.886270  0.386270  0.000000  1
  Si  Si14  1  0.113730  0.613730  0.000000  1
  Ag  Ag15  1  0.750000  0.750000  0.500000  1
