# generated using pymatgen
data_PrDy4CoSbO12
_symmetry_space_group_name_H-M   'P 1'
_cell_length_a   6.91973623
_cell_length_b   6.91973762
_cell_length_c   7.36002135
_cell_angle_alpha   74.58465213
_cell_angle_beta   74.58465459
_cell_angle_gamma   50.29309920
_symmetry_Int_Tables_number   1
_chemical_formula_structural   PrDy4CoSbO12
_chemical_formula_sum   'Pr1 Dy4 Co1 Sb1 O12'
_cell_volume   259.17065615
_cell_formula_units_Z   1
loop_
 _symmetry_equiv_pos_site_id
 _symmetry_equiv_pos_as_xyz
  1  'x, y, z'
loop_
 _atom_site_type_symbol
 _atom_site_label
 _atom_site_symmetry_multiplicity
 _atom_site_fract_x
 _atom_site_fract_y
 _atom_site_fract_z
 _atom_site_occupancy
  Pr  Pr0  1  0.998960  0.001040  0.500000  1
  Dy  Dy1  1  0.316222  0.289461  0.359322  1
  Dy  Dy2  1  0.710539  0.683778  0.640678  1
  Dy  Dy3  1  0.703267  0.690489  0.163962  1
  Dy  Dy4  1  0.309511  0.296733  0.836038  1
  Co  Co5  1  0.742053  0.257947  0.000000  1
  Sb  Sb6  1  0.233948  0.766052  0.000000  1
  O  O7  1  0.103962  0.580501  0.581067  1
  O  O8  1  0.976000  0.021314  0.176865  1
  O  O9  1  0.419499  0.896038  0.418933  1
  O  O10  1  0.499108  0.500996  0.182172  1
  O  O11  1  0.099447  0.571999  0.079161  1
  O  O12  1  0.913436  0.408107  0.418688  1
  O  O13  1  0.978686  0.024000  0.823135  1
  O  O14  1  0.591893  0.086563  0.581312  1
  O  O15  1  0.499004  0.500892  0.817828  1
  O  O16  1  0.580642  0.104177  0.077881  1
  O  O17  1  0.428001  0.900553  0.920839  1
  O  O18  1  0.895823  0.419358  0.922119  1
