# generated using pymatgen
data_PrNd3(ZnSn)4
_symmetry_space_group_name_H-M   'P 1'
_cell_length_a   4.59744900
_cell_length_b   4.59745007
_cell_length_c   16.44676400
_cell_angle_alpha   90.00000000
_cell_angle_beta   90.00000000
_cell_angle_gamma   120.00001386
_symmetry_Int_Tables_number   1
_chemical_formula_structural   PrNd3(ZnSn)4
_chemical_formula_sum   'Pr1 Nd3 Zn4 Sn4'
_cell_volume   301.05439629
_cell_formula_units_Z   1
loop_
 _symmetry_equiv_pos_site_id
 _symmetry_equiv_pos_as_xyz
  1  'x, y, z'
loop_
 _atom_site_type_symbol
 _atom_site_label
 _atom_site_symmetry_multiplicity
 _atom_site_fract_x
 _atom_site_fract_y
 _atom_site_fract_z
 _atom_site_occupancy
  Pr  Pr0  1  0.000000  0.000000  0.500000  1
  Nd  Nd1  1  0.000000  0.000000  0.000000  1
  Nd  Nd2  1  0.000000  0.000000  0.249885  1
  Nd  Nd3  1  0.000000  0.000000  0.750115  1
  Zn  Zn4  1  0.333333  0.666667  0.343285  1
  Zn  Zn5  1  0.666667  0.333333  0.656715  1
  Zn  Zn6  1  0.666667  0.333333  0.843332  1
  Zn  Zn7  1  0.333333  0.666667  0.156668  1
  Sn  Sn8  1  0.333333  0.666667  0.885020  1
  Sn  Sn9  1  0.666667  0.333333  0.114980  1
  Sn  Sn10  1  0.666667  0.333333  0.384643  1
  Sn  Sn11  1  0.333333  0.666667  0.615357  1
