# generated using pymatgen
data_Nd3U2P12Ru19
_symmetry_space_group_name_H-M   'P 1'
_cell_length_a   12.64319730
_cell_length_b   12.61278847
_cell_length_c   3.97271900
_cell_angle_alpha   90.00000000
_cell_angle_beta   90.00000000
_cell_angle_gamma   119.94062264
_symmetry_Int_Tables_number   1
_chemical_formula_structural   Nd3U2P12Ru19
_chemical_formula_sum   'Nd3 U2 P12 Ru19'
_cell_volume   548.96675549
_cell_formula_units_Z   1
loop_
 _symmetry_equiv_pos_site_id
 _symmetry_equiv_pos_as_xyz
  1  'x, y, z'
loop_
 _atom_site_type_symbol
 _atom_site_label
 _atom_site_symmetry_multiplicity
 _atom_site_fract_x
 _atom_site_fract_y
 _atom_site_fract_z
 _atom_site_occupancy
  Nd  Nd0  1  0.810716  0.810196  0.500000  1
  Nd  Nd1  1  0.189749  0.999252  0.500000  1
  Nd  Nd2  1  0.331434  0.663794  0.000000  1
  U  U3  1  0.001362  0.179436  0.500000  1
  U  U4  1  0.667409  0.334855  0.000000  1
  P  P5  1  0.999758  0.816209  0.000000  1
  P  P6  1  0.189118  0.184394  0.000000  1
  P  P7  1  0.811650  0.998637  0.000000  1
  P  P8  1  0.695475  0.172502  0.500000  1
  P  P9  1  0.828431  0.523367  0.500000  1
  P  P10  1  0.477114  0.305892  0.500000  1
  P  P11  1  0.170742  0.693828  0.500000  1
  P  P12  1  0.522809  0.829754  0.500000  1
  P  P13  1  0.306360  0.476699  0.500000  1
  P  P14  1  0.002316  0.373538  0.000000  1
  P  P15  1  0.623620  0.627952  0.000000  1
  P  P16  1  0.373154  0.997297  0.000000  1
  Ru  Ru17  1  0.995723  0.551182  0.000000  1
  Ru  Ru18  1  0.443848  0.445317  0.000000  1
  Ru  Ru19  1  0.560022  0.009460  0.000000  1
  Ru  Ru20  1  0.998253  0.715097  0.500000  1
  Ru  Ru21  1  0.283391  0.283957  0.500000  1
  Ru  Ru22  1  0.718541  0.004324  0.500000  1
  Ru  Ru23  1  0.813479  0.186844  0.000000  1
  Ru  Ru24  1  0.812406  0.616690  0.000000  1
  Ru  Ru25  1  0.383999  0.197606  0.000000  1
  Ru  Ru26  1  0.182165  0.802679  0.000000  1
  Ru  Ru27  1  0.619792  0.818968  0.000000  1
  Ru  Ru28  1  0.186462  0.368279  0.000000  1
  Ru  Ru29  1  0.868548  0.365190  0.500000  1
  Ru  Ru30  1  0.631710  0.502182  0.500000  1
  Ru  Ru31  1  0.499873  0.133604  0.500000  1
  Ru  Ru32  1  0.369107  0.880298  0.500000  1
  Ru  Ru33  1  0.510248  0.633933  0.500000  1
  Ru  Ru34  1  0.121756  0.486559  0.500000  1
  Ru  Ru35  1  0.999460  0.010229  0.000000  1
