# generated using pymatgen
data_BaInSn5Ir4
_symmetry_space_group_name_H-M   'P 1'
_cell_length_a   7.00109941
_cell_length_b   7.09971394
_cell_length_c   7.07251587
_cell_angle_alpha   119.62581249
_cell_angle_beta   119.16031652
_cell_angle_gamma   90.87857673
_symmetry_Int_Tables_number   1
_chemical_formula_structural   BaInSn5Ir4
_chemical_formula_sum   'Ba1 In1 Sn5 Ir4'
_cell_volume   251.19986377
_cell_formula_units_Z   1
loop_
 _symmetry_equiv_pos_site_id
 _symmetry_equiv_pos_as_xyz
  1  'x, y, z'
loop_
 _atom_site_type_symbol
 _atom_site_label
 _atom_site_symmetry_multiplicity
 _atom_site_fract_x
 _atom_site_fract_y
 _atom_site_fract_z
 _atom_site_occupancy
  Ba  Ba0  1  0.000981  0.000534  0.000000  1
  In  In1  1  0.476029  0.118854  0.000000  1
  Sn  Sn2  1  0.126026  0.471100  0.000000  1
  Sn  Sn3  1  0.876548  0.877860  0.351444  1
  Sn  Sn4  1  0.499820  0.002032  0.501953  1
  Sn  Sn5  1  0.997866  0.500078  0.498047  1
  Sn  Sn6  1  0.525103  0.526415  0.648555  1
  Ir  Ir7  1  0.752502  0.414949  0.000000  1
  Ir  Ir8  1  0.409555  0.745575  0.000000  1
  Ir  Ir9  1  0.593499  0.597015  0.351429  1
  Ir  Ir10  1  0.242069  0.245584  0.648570  1
