# generated using pymatgen
data_Ho3NiSn3PdPt
_symmetry_space_group_name_H-M   'P 1'
_cell_length_a   7.56786700
_cell_length_b   7.56786755
_cell_length_c   3.83075400
_cell_angle_alpha   90.00000000
_cell_angle_beta   90.00000000
_cell_angle_gamma   119.99999322
_symmetry_Int_Tables_number   1
_chemical_formula_structural   Ho3NiSn3PdPt
_chemical_formula_sum   'Ho3 Ni1 Sn3 Pd1 Pt1'
_cell_volume   190.00364779
_cell_formula_units_Z   1
loop_
 _symmetry_equiv_pos_site_id
 _symmetry_equiv_pos_as_xyz
  1  'x, y, z'
loop_
 _atom_site_type_symbol
 _atom_site_label
 _atom_site_symmetry_multiplicity
 _atom_site_fract_x
 _atom_site_fract_y
 _atom_site_fract_z
 _atom_site_occupancy
  Ho  Ho0  1  0.402341  0.404767  0.500000  1
  Ho  Ho1  1  0.595233  0.997574  0.500000  1
  Ho  Ho2  1  0.002426  0.597659  0.500000  1
  Ni  Ni3  1  0.000000  0.000000  0.500000  1
  Sn  Sn4  1  0.750396  0.748462  0.000000  1
  Sn  Sn5  1  0.251538  0.001934  0.000000  1
  Sn  Sn6  1  0.998066  0.249604  0.000000  1
  Pd  Pd7  1  0.666667  0.333333  0.000000  1
  Pt  Pt8  1  0.333333  0.666667  0.000000  1
