# generated using pymatgen
data_Pr4AlSn7Pt4
_symmetry_space_group_name_H-M   'P 1'
_cell_length_a   10.25692572
_cell_length_b   10.30529968
_cell_length_c   10.30529900
_cell_angle_alpha   154.10672798
_cell_angle_beta   124.82684338
_cell_angle_gamma   61.95053252
_symmetry_Int_Tables_number   1
_chemical_formula_structural   Pr4AlSn7Pt4
_chemical_formula_sum   'Pr4 Al1 Sn7 Pt4'
_cell_volume   387.58986202
_cell_formula_units_Z   1
loop_
 _symmetry_equiv_pos_site_id
 _symmetry_equiv_pos_as_xyz
  1  'x, y, z'
loop_
 _atom_site_type_symbol
 _atom_site_label
 _atom_site_symmetry_multiplicity
 _atom_site_fract_x
 _atom_site_fract_y
 _atom_site_fract_z
 _atom_site_occupancy
  Pr  Pr0  1  0.768151  0.998942  0.769208  1
  Pr  Pr1  1  0.226421  0.999340  0.227081  1
  Pr  Pr2  1  0.209063  0.206141  0.002923  1
  Pr  Pr3  1  0.798463  0.796516  0.001947  1
  Al  Al4  1  0.467962  0.800716  0.667246  1
  Sn  Sn5  1  0.418520  0.416441  0.002079  1
  Sn  Sn6  1  0.576126  0.579755  0.996371  1
  Sn  Sn7  1  0.915515  0.421396  0.494120  1
  Sn  Sn8  1  0.077440  0.578750  0.498689  1
  Sn  Sn9  1  0.857744  0.199801  0.657943  1
  Sn  Sn10  1  0.157247  0.802780  0.354466  1
  Sn  Sn11  1  0.541821  0.200193  0.341628  1
  Pt  Pt12  1  0.098426  0.353436  0.744993  1
  Pt  Pt13  1  0.898035  0.647407  0.250625  1
  Pt  Pt14  1  0.593304  0.347245  0.246059  1
  Pt  Pt15  1  0.395760  0.651140  0.744620  1
