# generated using pymatgen
data_K6Rb6CdHgSe8
_symmetry_space_group_name_H-M   'P 1'
_cell_length_a   10.59264600
_cell_length_b   10.59264641
_cell_length_c   8.36908000
_cell_angle_alpha   90.00000000
_cell_angle_beta   90.00000000
_cell_angle_gamma   119.99999873
_symmetry_Int_Tables_number   1
_chemical_formula_structural   K6Rb6CdHgSe8
_chemical_formula_sum   'K6 Rb6 Cd1 Hg1 Se8'
_cell_volume   813.23730148
_cell_formula_units_Z   1
loop_
 _symmetry_equiv_pos_site_id
 _symmetry_equiv_pos_as_xyz
  1  'x, y, z'
loop_
 _atom_site_type_symbol
 _atom_site_label
 _atom_site_symmetry_multiplicity
 _atom_site_fract_x
 _atom_site_fract_y
 _atom_site_fract_z
 _atom_site_occupancy
  K  K0  1  0.148730  0.297459  0.208932  1
  K  K1  1  0.148730  0.851270  0.208932  1
  K  K2  1  0.702541  0.851270  0.208932  1
  K  K3  1  0.851457  0.702914  0.708507  1
  K  K4  1  0.851457  0.148543  0.708507  1
  K  K5  1  0.297086  0.148543  0.708507  1
  Rb  Rb6  1  0.527629  0.055258  0.378178  1
  Rb  Rb7  1  0.527629  0.472371  0.378178  1
  Rb  Rb8  1  0.944742  0.472371  0.378178  1
  Rb  Rb9  1  0.472996  0.945992  0.879419  1
  Rb  Rb10  1  0.472996  0.527004  0.879419  1
  Rb  Rb11  1  0.054008  0.527004  0.879419  1
  Cd  Cd12  1  0.333333  0.666667  0.500939  1
  Hg  Hg13  1  0.666667  0.333333  0.002744  1
  Se  Se14  1  0.333333  0.666667  0.171848  1
  Se  Se15  1  0.666667  0.333333  0.667302  1
  Se  Se16  1  0.811988  0.623975  0.095672  1
  Se  Se17  1  0.811988  0.188012  0.095672  1
  Se  Se18  1  0.376025  0.188012  0.095672  1
  Se  Se19  1  0.189840  0.379681  0.594958  1
  Se  Se20  1  0.189840  0.810160  0.594958  1
  Se  Se21  1  0.620319  0.810160  0.594958  1
