# generated using pymatgen
data_Sc4ReSi8Tc5
_symmetry_space_group_name_H-M   'P 1'
_cell_length_a   6.64131400
_cell_length_b   6.64176953
_cell_length_c   12.35277600
_cell_angle_alpha   89.95417880
_cell_angle_beta   90.00000000
_cell_angle_gamma   90.00000000
_symmetry_Int_Tables_number   1
_chemical_formula_structural   Sc4ReSi8Tc5
_chemical_formula_sum   'Sc8 Re2 Si16 Tc10'
_cell_volume   544.88172537
_cell_formula_units_Z   2
loop_
 _symmetry_equiv_pos_site_id
 _symmetry_equiv_pos_as_xyz
  1  'x, y, z'
loop_
 _atom_site_type_symbol
 _atom_site_label
 _atom_site_symmetry_multiplicity
 _atom_site_fract_x
 _atom_site_fract_y
 _atom_site_fract_z
 _atom_site_occupancy
  Sc  Sc0  1  0.006202  0.658098  0.031168  1
  Sc  Sc1  1  0.993715  0.341151  0.531533  1
  Sc  Sc2  1  0.341352  0.994289  0.468672  1
  Sc  Sc3  1  0.158309  0.493264  0.781362  1
  Sc  Sc4  1  0.841352  0.505711  0.281328  1
  Sc  Sc5  1  0.493715  0.158849  0.218467  1
  Sc  Sc6  1  0.506202  0.841902  0.718832  1
  Sc  Sc7  1  0.658309  0.006736  0.968638  1
  Re  Re8  1  0.332271  0.332044  0.999789  1
  Re  Re9  1  0.832271  0.167956  0.750211  1
  Si  Si10  1  0.027070  0.719806  0.436381  1
  Si  Si11  1  0.621201  0.305585  0.432099  1
  Si  Si12  1  0.379344  0.694732  0.931850  1
  Si  Si13  1  0.194814  0.120838  0.681799  1
  Si  Si14  1  0.305637  0.620984  0.567801  1
  Si  Si15  1  0.694814  0.379162  0.068201  1
  Si  Si16  1  0.805637  0.879016  0.182199  1
  Si  Si17  1  0.121201  0.194415  0.317901  1
  Si  Si18  1  0.972344  0.279891  0.936320  1
  Si  Si19  1  0.719523  0.026924  0.563441  1
  Si  Si20  1  0.219523  0.473076  0.186559  1
  Si  Si21  1  0.779590  0.527831  0.686133  1
  Si  Si22  1  0.472344  0.220109  0.813680  1
  Si  Si23  1  0.527070  0.780194  0.313619  1
  Si  Si24  1  0.279590  0.972169  0.063867  1
  Si  Si25  1  0.879344  0.805268  0.818150  1
  Tc  Tc26  1  0.668141  0.667953  0.500205  1
  Tc  Tc27  1  0.168141  0.832047  0.249795  1
  Tc  Tc28  1  0.019563  0.817422  0.630684  1
  Tc  Tc29  1  0.980161  0.182777  0.131035  1
  Tc  Tc30  1  0.817708  0.019630  0.369121  1
  Tc  Tc31  1  0.317708  0.480370  0.380879  1
  Tc  Tc32  1  0.683054  0.519831  0.880845  1
  Tc  Tc33  1  0.480161  0.317223  0.618965  1
  Tc  Tc34  1  0.519563  0.682578  0.119316  1
  Tc  Tc35  1  0.183054  0.980169  0.869155  1
