# generated using pymatgen
data_YHo2Al12Os3Pt
_symmetry_space_group_name_H-M   'P 1'
_cell_length_a   8.79570100
_cell_length_b   8.83947387
_cell_length_c   9.55747118
_cell_angle_alpha   89.83800781
_cell_angle_beta   90.00000000
_cell_angle_gamma   119.83632093
_symmetry_Int_Tables_number   1
_chemical_formula_structural   YHo2Al12Os3Pt
_chemical_formula_sum   'Y2 Ho4 Al24 Os6 Pt2'
_cell_volume   644.58787884
_cell_formula_units_Z   2
loop_
 _symmetry_equiv_pos_site_id
 _symmetry_equiv_pos_as_xyz
  1  'x, y, z'
loop_
 _atom_site_type_symbol
 _atom_site_label
 _atom_site_symmetry_multiplicity
 _atom_site_fract_x
 _atom_site_fract_y
 _atom_site_fract_z
 _atom_site_occupancy
  Y  Y0  1  0.192490  0.384980  0.252674  1
  Y  Y1  1  0.807510  0.615020  0.747326  1
  Ho  Ho2  1  0.612476  0.809345  0.253083  1
  Ho  Ho3  1  0.387524  0.190655  0.746917  1
  Ho  Ho4  1  0.196869  0.809345  0.253083  1
  Ho  Ho5  1  0.803131  0.190655  0.746917  1
  Al  Al6  1  0.335812  0.671623  0.026157  1
  Al  Al7  1  0.664188  0.328377  0.973843  1
  Al  Al8  1  0.666610  0.333217  0.522626  1
  Al  Al9  1  0.333390  0.666783  0.477374  1
  Al  Al10  1  0.163527  0.327054  0.575406  1
  Al  Al11  1  0.836473  0.672946  0.424594  1
  Al  Al12  1  0.672049  0.835466  0.575825  1
  Al  Al13  1  0.838313  0.676628  0.079327  1
  Al  Al14  1  0.327951  0.164534  0.424175  1
  Al  Al15  1  0.161687  0.323372  0.920673  1
  Al  Al16  1  0.163416  0.835466  0.575825  1
  Al  Al17  1  0.325821  0.158317  0.077847  1
  Al  Al18  1  0.836584  0.164534  0.424175  1
  Al  Al19  1  0.674179  0.841683  0.922153  1
  Al  Al20  1  0.832496  0.158317  0.077847  1
  Al  Al21  1  0.167504  0.841683  0.922153  1
  Al  Al22  1  0.561693  0.123387  0.248952  1
  Al  Al23  1  0.438307  0.876613  0.751048  1
  Al  Al24  1  0.875107  0.438107  0.251883  1
  Al  Al25  1  0.124893  0.561893  0.748117  1
  Al  Al26  1  0.562998  0.438107  0.251883  1
  Al  Al27  1  0.437002  0.561893  0.748117  1
  Al  Al28  1  0.000843  0.001687  0.250309  1
  Al  Al29  1  0.999157  0.998313  0.749691  1
  Os  Os30  1  0.500000  0.000000  0.000000  1
  Os  Os31  1  0.500000  0.000000  0.500000  1
  Os  Os32  1  0.000000  0.500000  0.500000  1
  Os  Os33  1  0.500000  0.500000  0.500000  1
  Os  Os34  1  0.000000  0.000000  0.000000  1
  Os  Os35  1  0.000000  0.000000  0.500000  1
  Pt  Pt36  1  0.000000  0.500000  0.000000  1
  Pt  Pt37  1  0.500000  0.500000  0.000000  1
