# generated using pymatgen
data_ErTm(B4Mo)2
_symmetry_space_group_name_H-M   'P 1'
_cell_length_a   3.60116700
_cell_length_b   6.00214187
_cell_length_c   11.59544153
_cell_angle_alpha   90.02792423
_cell_angle_beta   90.00000000
_cell_angle_gamma   90.00000000
_symmetry_Int_Tables_number   1
_chemical_formula_structural   ErTm(B4Mo)2
_chemical_formula_sum   'Er2 Tm2 B16 Mo4'
_cell_volume   250.63213687
_cell_formula_units_Z   2
loop_
 _symmetry_equiv_pos_site_id
 _symmetry_equiv_pos_as_xyz
  1  'x, y, z'
loop_
 _atom_site_type_symbol
 _atom_site_label
 _atom_site_symmetry_multiplicity
 _atom_site_fract_x
 _atom_site_fract_y
 _atom_site_fract_z
 _atom_site_occupancy
  Er  Er0  1  0.000000  0.127419  0.149583  1
  Er  Er1  1  0.000000  0.872581  0.850417  1
  Tm  Tm2  1  0.000000  0.627249  0.350629  1
  Tm  Tm3  1  0.000000  0.372751  0.649371  1
  B  B4  1  0.500000  0.787525  0.186945  1
  B  B5  1  0.500000  0.212475  0.813055  1
  B  B6  1  0.500000  0.288263  0.313784  1
  B  B7  1  0.500000  0.711737  0.686216  1
  B  B8  1  0.500000  0.867335  0.031926  1
  B  B9  1  0.500000  0.132665  0.968074  1
  B  B10  1  0.500000  0.367585  0.468249  1
  B  B11  1  0.500000  0.632415  0.531751  1
  B  B12  1  0.500000  0.885271  0.452108  1
  B  B13  1  0.500000  0.114729  0.547892  1
  B  B14  1  0.500000  0.385666  0.047905  1
  B  B15  1  0.500000  0.614334  0.952095  1
  B  B16  1  0.500000  0.976290  0.306149  1
  B  B17  1  0.500000  0.023710  0.693851  1
  B  B18  1  0.500000  0.476944  0.194465  1
  B  B19  1  0.500000  0.523056  0.805535  1
  Mo  Mo20  1  0.000000  0.630270  0.084190  1
  Mo  Mo21  1  0.000000  0.369730  0.915810  1
  Mo  Mo22  1  0.000000  0.130432  0.416062  1
  Mo  Mo23  1  0.000000  0.869568  0.583938  1
