# generated using pymatgen
data_Tb3Dy(B4Os)4
_symmetry_space_group_name_H-M   'P 1'
_cell_length_a   3.57579300
_cell_length_b   5.98066002
_cell_length_c   11.57198803
_cell_angle_alpha   89.99187303
_cell_angle_beta   90.00000000
_cell_angle_gamma   90.00000000
_symmetry_Int_Tables_number   1
_chemical_formula_structural   Tb3Dy(B4Os)4
_chemical_formula_sum   'Tb3 Dy1 B16 Os4'
_cell_volume   247.47393036
_cell_formula_units_Z   1
loop_
 _symmetry_equiv_pos_site_id
 _symmetry_equiv_pos_as_xyz
  1  'x, y, z'
loop_
 _atom_site_type_symbol
 _atom_site_label
 _atom_site_symmetry_multiplicity
 _atom_site_fract_x
 _atom_site_fract_y
 _atom_site_fract_z
 _atom_site_occupancy
  Tb  Tb0  1  0.000000  0.627959  0.349776  1
  Tb  Tb1  1  0.000000  0.372044  0.650241  1
  Tb  Tb2  1  0.000000  0.127948  0.150207  1
  Dy  Dy3  1  0.000000  0.872046  0.849782  1
  B  B4  1  0.500000  0.788426  0.185784  1
  B  B5  1  0.500000  0.211391  0.814213  1
  B  B6  1  0.500000  0.288421  0.314208  1
  B  B7  1  0.500000  0.711613  0.685864  1
  B  B8  1  0.500000  0.863531  0.030085  1
  B  B9  1  0.500000  0.136376  0.969786  1
  B  B10  1  0.500000  0.363491  0.469830  1
  B  B11  1  0.500000  0.636516  0.530174  1
  B  B12  1  0.500000  0.887727  0.453508  1
  B  B13  1  0.500000  0.112254  0.546502  1
  B  B14  1  0.500000  0.387735  0.046481  1
  B  B15  1  0.500000  0.612472  0.953425  1
  B  B16  1  0.500000  0.974857  0.308756  1
  B  B17  1  0.500000  0.025085  0.691344  1
  B  B18  1  0.500000  0.474860  0.191246  1
  B  B19  1  0.500000  0.525276  0.808750  1
  Os  Os20  1  0.000000  0.640927  0.093108  1
  Os  Os21  1  0.000000  0.359035  0.906791  1
  Os  Os22  1  0.000000  0.140868  0.406839  1
  Os  Os23  1  0.000000  0.859143  0.593299  1
