# generated using pymatgen
data_ErTm7ReOsBr8
_symmetry_space_group_name_H-M   'P 1'
_cell_length_a   8.87422254
_cell_length_b   8.88138144
_cell_length_c   6.49289777
_cell_angle_alpha   89.50205933
_cell_angle_beta   89.43854925
_cell_angle_gamma   89.24233908
_symmetry_Int_Tables_number   1
_chemical_formula_structural   ErTm7ReOsBr8
_chemical_formula_sum   'Er1 Tm7 Re1 Os1 Br8'
_cell_volume   511.65197987
_cell_formula_units_Z   1
loop_
 _symmetry_equiv_pos_site_id
 _symmetry_equiv_pos_as_xyz
  1  'x, y, z'
loop_
 _atom_site_type_symbol
 _atom_site_label
 _atom_site_symmetry_multiplicity
 _atom_site_fract_x
 _atom_site_fract_y
 _atom_site_fract_z
 _atom_site_occupancy
  Er  Er0  1  0.902835  0.752431  0.009040  1
  Tm  Tm1  1  0.247565  0.901856  0.012458  1
  Tm  Tm2  1  0.751845  0.098915  0.989019  1
  Tm  Tm3  1  0.098689  0.752903  0.487212  1
  Tm  Tm4  1  0.901222  0.248264  0.510925  1
  Tm  Tm5  1  0.753410  0.903593  0.507671  1
  Tm  Tm6  1  0.246706  0.097059  0.490226  1
  Tm  Tm7  1  0.096552  0.246486  0.992379  1
  Re  Re8  1  0.994507  0.005466  0.250053  1
  Os  Os9  1  0.005906  0.994715  0.749695  1
  Br  Br10  1  0.421673  0.816307  0.409972  1
  Br  Br11  1  0.579031  0.183719  0.591087  1
  Br  Br12  1  0.184704  0.578322  0.089828  1
  Br  Br13  1  0.815564  0.420103  0.909328  1
  Br  Br14  1  0.416724  0.191077  0.092723  1
  Br  Br15  1  0.583541  0.809516  0.906312  1
  Br  Br16  1  0.808724  0.583218  0.408866  1
  Br  Br17  1  0.190803  0.416049  0.593206  1
