# generated using pymatgen
data_Tb6DyHo(InRh)2
_symmetry_space_group_name_H-M   'P 1'
_cell_length_a   9.69567416
_cell_length_b   9.70473363
_cell_length_c   9.70050715
_cell_angle_alpha   59.98558231
_cell_angle_beta   59.99053842
_cell_angle_gamma   59.96908852
_symmetry_Int_Tables_number   1
_chemical_formula_structural   Tb6DyHo(InRh)2
_chemical_formula_sum   'Tb12 Dy2 Ho2 In4 Rh4'
_cell_volume   645.15066453
_cell_formula_units_Z   2
loop_
 _symmetry_equiv_pos_site_id
 _symmetry_equiv_pos_as_xyz
  1  'x, y, z'
loop_
 _atom_site_type_symbol
 _atom_site_label
 _atom_site_symmetry_multiplicity
 _atom_site_fract_x
 _atom_site_fract_y
 _atom_site_fract_z
 _atom_site_occupancy
  Tb  Tb0  1  0.311611  0.688941  0.310506  1
  Tb  Tb1  1  0.937061  0.938884  0.561748  1
  Tb  Tb2  1  0.148851  0.150605  0.549938  1
  Tb  Tb3  1  0.561810  0.938566  0.561057  1
  Tb  Tb4  1  0.149631  0.151642  0.150331  1
  Tb  Tb5  1  0.311801  0.310286  0.689248  1
  Tb  Tb6  1  0.937061  0.562307  0.561748  1
  Tb  Tb7  1  0.561813  0.561576  0.938057  1
  Tb  Tb8  1  0.561813  0.938554  0.938057  1
  Tb  Tb9  1  0.937131  0.562241  0.938387  1
  Tb  Tb10  1  0.149631  0.548394  0.150331  1
  Tb  Tb11  1  0.311801  0.688666  0.689248  1
  Dy  Dy12  1  0.689309  0.311030  0.688631  1
  Dy  Dy13  1  0.550196  0.150342  0.149120  1
  Ho  Ho14  1  0.689672  0.310726  0.311217  1
  Ho  Ho15  1  0.689672  0.688386  0.311217  1
  In  In16  1  0.917168  0.917289  0.248252  1
  In  In17  1  0.248119  0.917205  0.917472  1
  In  In18  1  0.917091  0.248333  0.917484  1
  In  In19  1  0.917091  0.917093  0.917484  1
  Rh  Rh20  1  0.358747  0.356962  0.357436  1
  Rh  Rh21  1  0.925683  0.358048  0.358222  1
  Rh  Rh22  1  0.358484  0.357071  0.927374  1
  Rh  Rh23  1  0.358747  0.926856  0.357436  1
