# generated using pymatgen
data_Tm11Lu5(ScBi3)4
_symmetry_space_group_name_H-M   'P 1'
_cell_length_a   8.04339459
_cell_length_b   9.31093543
_cell_length_c   11.80218134
_cell_angle_alpha   90.00370259
_cell_angle_beta   89.97261737
_cell_angle_gamma   89.96549982
_symmetry_Int_Tables_number   1
_chemical_formula_structural   Tm11Lu5(ScBi3)4
_chemical_formula_sum   'Tm11 Lu5 Sc4 Bi12'
_cell_volume   883.88312770
_cell_formula_units_Z   1
loop_
 _symmetry_equiv_pos_site_id
 _symmetry_equiv_pos_as_xyz
  1  'x, y, z'
loop_
 _atom_site_type_symbol
 _atom_site_label
 _atom_site_symmetry_multiplicity
 _atom_site_fract_x
 _atom_site_fract_y
 _atom_site_fract_z
 _atom_site_occupancy
  Tm  Tm0  1  0.355234  0.250127  0.283162  1
  Tm  Tm1  1  0.644911  0.749529  0.716942  1
  Tm  Tm2  1  0.145005  0.749597  0.783049  1
  Tm  Tm3  1  0.854742  0.250164  0.217085  1
  Tm  Tm4  1  0.186245  0.250108  0.781521  1
  Tm  Tm5  1  0.813761  0.749857  0.218471  1
  Tm  Tm6  1  0.313746  0.749907  0.281510  1
  Tm  Tm7  1  0.686240  0.250000  0.718349  1
  Tm  Tm8  1  0.195400  0.066759  0.058635  1
  Tm  Tm9  1  0.804621  0.933313  0.941407  1
  Tm  Tm10  1  0.304504  0.933304  0.558633  1
  Lu  Lu11  1  0.804242  0.567137  0.941354  1
  Lu  Lu12  1  0.695601  0.067561  0.441358  1
  Lu  Lu13  1  0.195764  0.432858  0.058637  1
  Lu  Lu14  1  0.695914  0.432556  0.441347  1
  Lu  Lu15  1  0.304268  0.567203  0.558657  1
  Sc  Sc16  1  0.023346  0.249726  0.511835  1
  Sc  Sc17  1  0.976015  0.750082  0.488124  1
  Sc  Sc18  1  0.476119  0.749954  0.011975  1
  Sc  Sc19  1  0.523794  0.249998  0.988085  1
  Bi  Bi20  1  0.401110  0.250839  0.542941  1
  Bi  Bi21  1  0.599356  0.749811  0.456851  1
  Bi  Bi22  1  0.099106  0.748915  0.042960  1
  Bi  Bi23  1  0.900860  0.251128  0.956996  1
  Bi  Bi24  1  0.065930  0.003696  0.329602  1
  Bi  Bi25  1  0.933960  0.996175  0.670418  1
  Bi  Bi26  1  0.433949  0.996196  0.829410  1
  Bi  Bi27  1  0.934038  0.503768  0.670479  1
  Bi  Bi28  1  0.566218  0.003721  0.170593  1
  Bi  Bi29  1  0.065912  0.496126  0.329550  1
  Bi  Bi30  1  0.565946  0.496111  0.170555  1
  Bi  Bi31  1  0.434141  0.503772  0.829509  1
