# generated using pymatgen
data_DyY2Ho3MnBi2
_symmetry_space_group_name_H-M   'P 1'
_cell_length_a   4.28052900
_cell_length_b   8.27940507
_cell_length_c   8.29313979
_cell_angle_alpha   119.94522156
_cell_angle_beta   90.00000000
_cell_angle_gamma   90.00000000
_symmetry_Int_Tables_number   1
_chemical_formula_structural   DyY2Ho3MnBi2
_chemical_formula_sum   'Dy1 Y2 Ho3 Mn1 Bi2'
_cell_volume   254.67461074
_cell_formula_units_Z   1
loop_
 _symmetry_equiv_pos_site_id
 _symmetry_equiv_pos_as_xyz
  1  'x, y, z'
loop_
 _atom_site_type_symbol
 _atom_site_label
 _atom_site_symmetry_multiplicity
 _atom_site_fract_x
 _atom_site_fract_y
 _atom_site_fract_z
 _atom_site_occupancy
  Dy  Dy0  1  0.000000  0.606700  0.000000  1
  Y  Y1  1  0.000000  0.393651  0.393735  1
  Y  Y2  1  0.000000  0.999915  0.606265  1
  Ho  Ho3  1  0.500000  0.767569  0.767838  1
  Ho  Ho4  1  0.500000  0.999731  0.232162  1
  Ho  Ho5  1  0.500000  0.232612  0.000000  1
  Mn  Mn6  1  0.000000  0.999770  0.000000  1
  Bi  Bi7  1  0.500000  0.666732  0.333411  1
  Bi  Bi8  1  0.500000  0.333320  0.666589  1
