# generated using pymatgen
data_Lu8Ga12CoPd3
_symmetry_space_group_name_H-M   'P 1'
_cell_length_a   8.77001000
_cell_length_b   8.77001048
_cell_length_c   6.89499600
_cell_angle_alpha   90.00000000
_cell_angle_beta   90.00000000
_cell_angle_gamma   119.99999821
_symmetry_Int_Tables_number   1
_chemical_formula_structural   Lu8Ga12CoPd3
_chemical_formula_sum   'Lu8 Ga12 Co1 Pd3'
_cell_volume   459.26659589
_cell_formula_units_Z   1
loop_
 _symmetry_equiv_pos_site_id
 _symmetry_equiv_pos_as_xyz
  1  'x, y, z'
loop_
 _atom_site_type_symbol
 _atom_site_label
 _atom_site_symmetry_multiplicity
 _atom_site_fract_x
 _atom_site_fract_y
 _atom_site_fract_z
 _atom_site_occupancy
  Lu  Lu0  1  0.000000  0.000000  0.247316  1
  Lu  Lu1  1  0.000000  0.000000  0.742266  1
  Lu  Lu2  1  0.525707  0.051416  0.255859  1
  Lu  Lu3  1  0.525707  0.474293  0.255859  1
  Lu  Lu4  1  0.948584  0.474293  0.255859  1
  Lu  Lu5  1  0.480495  0.960990  0.750497  1
  Lu  Lu6  1  0.480495  0.519505  0.750497  1
  Lu  Lu7  1  0.039010  0.519505  0.750497  1
  Ga  Ga8  1  0.167410  0.334819  0.048724  1
  Ga  Ga9  1  0.166025  0.833975  0.454734  1
  Ga  Ga10  1  0.667949  0.833975  0.454734  1
  Ga  Ga11  1  0.665181  0.832590  0.048724  1
  Ga  Ga12  1  0.167410  0.832590  0.048724  1
  Ga  Ga13  1  0.834162  0.668324  0.954369  1
  Ga  Ga14  1  0.834162  0.165838  0.954369  1
  Ga  Ga15  1  0.331676  0.165838  0.954369  1
  Ga  Ga16  1  0.166025  0.332051  0.454734  1
  Ga  Ga17  1  0.345463  0.172732  0.546707  1
  Ga  Ga18  1  0.827268  0.654537  0.546707  1
  Ga  Ga19  1  0.827268  0.172732  0.546707  1
  Co  Co20  1  0.666667  0.333333  0.516734  1
  Pd  Pd21  1  0.333333  0.666667  0.031820  1
  Pd  Pd22  1  0.333333  0.666667  0.469622  1
  Pd  Pd23  1  0.666667  0.333333  0.959570  1
