# generated using pymatgen
data_Tb4Nd3Tm13Sn16
_symmetry_space_group_name_H-M   'P 1'
_cell_length_a   8.00253007
_cell_length_b   8.07893102
_cell_length_c   15.72411300
_cell_angle_alpha   90.00160279
_cell_angle_beta   89.99247515
_cell_angle_gamma   89.95955453
_symmetry_Int_Tables_number   1
_chemical_formula_structural   Tb4Nd3Tm13Sn16
_chemical_formula_sum   'Tb4 Nd3 Tm13 Sn16'
_cell_volume   1016.59333612
_cell_formula_units_Z   1
loop_
 _symmetry_equiv_pos_site_id
 _symmetry_equiv_pos_as_xyz
  1  'x, y, z'
loop_
 _atom_site_type_symbol
 _atom_site_label
 _atom_site_symmetry_multiplicity
 _atom_site_fract_x
 _atom_site_fract_y
 _atom_site_fract_z
 _atom_site_occupancy
  Tb  Tb0  1  0.507093  0.677328  0.097174  1
  Tb  Tb1  1  0.493650  0.321309  0.596217  1
  Tb  Tb2  1  0.994122  0.177341  0.903822  1
  Tb  Tb3  1  0.991755  0.176263  0.594975  1
  Nd  Nd4  1  0.493294  0.324286  0.904214  1
  Nd  Nd5  1  0.505655  0.676640  0.405958  1
  Nd  Nd6  1  0.005693  0.824254  0.094351  1
  Tm  Tm7  1  0.679347  0.002339  0.250882  1
  Tm  Tm8  1  0.178782  0.497245  0.250359  1
  Tm  Tm9  1  0.821207  0.502923  0.749088  1
  Tm  Tm10  1  0.321009  0.997870  0.749387  1
  Tm  Tm11  1  0.651091  0.836097  0.623937  1
  Tm  Tm12  1  0.151577  0.664485  0.874277  1
  Tm  Tm13  1  0.848610  0.334580  0.375367  1
  Tm  Tm14  1  0.348286  0.164955  0.125116  1
  Tm  Tm15  1  0.349593  0.164256  0.376233  1
  Tm  Tm16  1  0.848532  0.335289  0.125159  1
  Tm  Tm17  1  0.151132  0.665894  0.624594  1
  Tm  Tm18  1  0.651566  0.834822  0.874824  1
  Tm  Tm19  1  0.008188  0.822999  0.403954  1
  Sn  Sn20  1  0.817093  0.647927  0.251726  1
  Sn  Sn21  1  0.315125  0.853151  0.250151  1
  Sn  Sn22  1  0.685852  0.146915  0.748360  1
  Sn  Sn23  1  0.181931  0.351134  0.748672  1
  Sn  Sn24  1  0.544778  0.378034  0.250282  1
  Sn  Sn25  1  0.045220  0.120555  0.250872  1
  Sn  Sn26  1  0.955280  0.880586  0.749709  1
  Sn  Sn27  1  0.455049  0.621819  0.748778  1
  Sn  Sn28  1  0.813999  0.537816  0.542039  1
  Sn  Sn29  1  0.312693  0.959398  0.958456  1
  Sn  Sn30  1  0.694526  0.038813  0.459297  1
  Sn  Sn31  1  0.188198  0.460135  0.041232  1
  Sn  Sn32  1  0.183356  0.459628  0.459577  1
  Sn  Sn33  1  0.684628  0.040579  0.040874  1
  Sn  Sn34  1  0.307761  0.962188  0.541017  1
  Sn  Sn35  1  0.814334  0.540146  0.959072  1
