# generated using pymatgen
data_ErU3SnIr4Pb
_symmetry_space_group_name_H-M   'P 1'
_cell_length_a   7.72603084
_cell_length_b   7.77001195
_cell_length_c   3.52557400
_cell_angle_alpha   90.00000000
_cell_angle_beta   90.00000000
_cell_angle_gamma   91.30273429
_symmetry_Int_Tables_number   1
_chemical_formula_structural   ErU3SnIr4Pb
_chemical_formula_sum   'Er1 U3 Sn1 Ir4 Pb1'
_cell_volume   211.59026868
_cell_formula_units_Z   1
loop_
 _symmetry_equiv_pos_site_id
 _symmetry_equiv_pos_as_xyz
  1  'x, y, z'
loop_
 _atom_site_type_symbol
 _atom_site_label
 _atom_site_symmetry_multiplicity
 _atom_site_fract_x
 _atom_site_fract_y
 _atom_site_fract_z
 _atom_site_occupancy
  Er  Er0  1  0.172771  0.333487  0.000000  1
  U  U1  1  0.830643  0.664632  0.000000  1
  U  U2  1  0.664188  0.176014  0.000000  1
  U  U3  1  0.331244  0.826792  0.000000  1
  Sn  Sn4  1  0.490203  0.496908  0.500000  1
  Ir  Ir5  1  0.391998  0.115245  0.500000  1
  Ir  Ir6  1  0.638110  0.853184  0.500000  1
  Ir  Ir7  1  0.849559  0.378714  0.500000  1
  Ir  Ir8  1  0.128360  0.643895  0.500000  1
  Pb  Pb9  1  0.002925  0.011130  0.500000  1
