# generated using pymatgen
data_La3Yb(Pr4Ir3)4
_symmetry_space_group_name_H-M   'P 1'
_cell_length_a   11.36118328
_cell_length_b   11.37994515
_cell_length_c   6.57838024
_cell_angle_alpha   89.99607507
_cell_angle_beta   89.92973694
_cell_angle_gamma   90.05138610
_symmetry_Int_Tables_number   1
_chemical_formula_structural   La3Yb(Pr4Ir3)4
_chemical_formula_sum   'La3 Yb1 Pr16 Ir12'
_cell_volume   850.51544624
_cell_formula_units_Z   1
loop_
 _symmetry_equiv_pos_site_id
 _symmetry_equiv_pos_as_xyz
  1  'x, y, z'
loop_
 _atom_site_type_symbol
 _atom_site_label
 _atom_site_symmetry_multiplicity
 _atom_site_fract_x
 _atom_site_fract_y
 _atom_site_fract_z
 _atom_site_occupancy
  La  La0  1  0.287273  0.089313  0.386675  1
  La  La1  1  0.290525  0.909419  0.886047  1
  La  La2  1  0.709392  0.089936  0.886040  1
  Yb  Yb3  1  0.999537  0.999758  0.499769  1
  Pr  Pr4  1  0.712817  0.911109  0.384832  1
  Pr  Pr5  1  0.591031  0.790083  0.882948  1
  Pr  Pr6  1  0.589184  0.208872  0.382319  1
  Pr  Pr7  1  0.411692  0.790860  0.382308  1
  Pr  Pr8  1  0.409408  0.210326  0.882947  1
  Pr  Pr9  1  0.208084  0.411643  0.617469  1
  Pr  Pr10  1  0.208840  0.589737  0.116971  1
  Pr  Pr11  1  0.791252  0.410184  0.116857  1
  Pr  Pr12  1  0.791792  0.588631  0.617231  1
  Pr  Pr13  1  0.910293  0.709351  0.115751  1
  Pr  Pr14  1  0.911739  0.287543  0.614608  1
  Pr  Pr15  1  0.087920  0.712410  0.614961  1
  Pr  Pr16  1  0.089244  0.290965  0.115115  1
  Pr  Pr17  1  0.999792  0.000051  0.000170  1
  Pr  Pr18  1  0.500039  0.499930  0.000647  1
  Pr  Pr19  1  0.500169  0.499998  0.500767  1
  Ir  Ir20  1  0.844635  0.154046  0.246070  1
  Ir  Ir21  1  0.845433  0.845413  0.752043  1
  Ir  Ir22  1  0.155357  0.154284  0.750291  1
  Ir  Ir23  1  0.155318  0.845837  0.245951  1
  Ir  Ir24  1  0.654776  0.345577  0.748663  1
  Ir  Ir25  1  0.653988  0.654803  0.251375  1
  Ir  Ir26  1  0.345802  0.345084  0.251705  1
  Ir  Ir27  1  0.345236  0.654626  0.748737  1
  Ir  Ir28  1  0.499473  0.000285  0.116865  1
  Ir  Ir29  1  0.499865  0.999934  0.617212  1
  Ir  Ir30  1  0.000144  0.499864  0.882563  1
  Ir  Ir31  1  0.999949  0.500128  0.384095  1
