# generated using pymatgen
data_Y3Al3CuGePd
_symmetry_space_group_name_H-M   'P 1'
_cell_length_a   7.00914400
_cell_length_b   7.00914471
_cell_length_c   4.19337200
_cell_angle_alpha   90.00000000
_cell_angle_beta   90.00000000
_cell_angle_gamma   120.00000611
_symmetry_Int_Tables_number   1
_chemical_formula_structural   Y3Al3CuGePd
_chemical_formula_sum   'Y3 Al3 Cu1 Ge1 Pd1'
_cell_volume   178.41197655
_cell_formula_units_Z   1
loop_
 _symmetry_equiv_pos_site_id
 _symmetry_equiv_pos_as_xyz
  1  'x, y, z'
loop_
 _atom_site_type_symbol
 _atom_site_label
 _atom_site_symmetry_multiplicity
 _atom_site_fract_x
 _atom_site_fract_y
 _atom_site_fract_z
 _atom_site_occupancy
  Y  Y0  1  0.417715  0.421654  0.500000  1
  Y  Y1  1  0.578346  0.996061  0.500000  1
  Y  Y2  1  0.003939  0.582285  0.500000  1
  Al  Al3  1  0.015606  0.245824  0.000000  1
  Al  Al4  1  0.754176  0.769781  0.000000  1
  Al  Al5  1  0.230219  0.984394  0.000000  1
  Cu  Cu6  1  0.333333  0.666667  0.000000  1
  Ge  Ge7  1  0.666667  0.333333  0.000000  1
  Pd  Pd8  1  0.000000  0.000000  0.500000  1
