# generated using pymatgen
data_Dy3Tm2Mg2P12Ir17
_symmetry_space_group_name_H-M   'P 1'
_cell_length_a   12.65681100
_cell_length_b   12.83024001
_cell_length_c   3.97344100
_cell_angle_alpha   90.00000000
_cell_angle_beta   90.00000000
_cell_angle_gamma   119.55385532
_symmetry_Int_Tables_number   1
_chemical_formula_structural   Dy3Tm2Mg2P12Ir17
_chemical_formula_sum   'Dy3 Tm2 Mg2 P12 Ir17'
_cell_volume   561.29530443
_cell_formula_units_Z   1
loop_
 _symmetry_equiv_pos_site_id
 _symmetry_equiv_pos_as_xyz
  1  'x, y, z'
loop_
 _atom_site_type_symbol
 _atom_site_label
 _atom_site_symmetry_multiplicity
 _atom_site_fract_x
 _atom_site_fract_y
 _atom_site_fract_z
 _atom_site_occupancy
  Dy  Dy0  1  0.002286  0.813213  0.000000  1
  Dy  Dy1  1  0.189073  0.186787  0.000000  1
  Dy  Dy2  1  0.810218  0.000000  0.000000  1
  Tm  Tm3  1  0.333010  0.664004  0.500000  1
  Tm  Tm4  1  0.669005  0.335996  0.500000  1
  Mg  Mg5  1  0.997628  0.444144  0.500000  1
  Mg  Mg6  1  0.553484  0.555856  0.500000  1
  P  P7  1  0.003191  0.643570  0.500000  1
  P  P8  1  0.359620  0.356430  0.500000  1
  P  P9  1  0.642619  0.000000  0.500000  1
  P  P10  1  0.513473  0.686049  0.000000  1
  P  P11  1  0.308171  0.823622  0.000000  1
  P  P12  1  0.169158  0.481933  0.000000  1
  P  P13  1  0.484548  0.176378  0.000000  1
  P  P14  1  0.687225  0.518067  0.000000  1
  P  P15  1  0.827423  0.313951  0.000000  1
  P  P16  1  0.998762  0.175941  0.500000  1
  P  P17  1  0.822821  0.824059  0.500000  1
  P  P18  1  0.179100  0.000000  0.500000  1
  Ir  Ir19  1  0.504039  0.865103  0.000000  1
  Ir  Ir20  1  0.128777  0.639690  0.000000  1
  Ir  Ir21  1  0.357670  0.493452  0.000000  1
  Ir  Ir22  1  0.489088  0.360310  0.000000  1
  Ir  Ir23  1  0.864220  0.506548  0.000000  1
  Ir  Ir24  1  0.638938  0.134897  0.000000  1
  Ir  Ir25  1  0.462079  0.000000  0.500000  1
  Ir  Ir26  1  0.996398  0.279415  0.000000  1
  Ir  Ir27  1  0.716983  0.720585  0.000000  1
  Ir  Ir28  1  0.287526  0.000000  0.000000  1
  Ir  Ir29  1  0.622626  0.807056  0.500000  1
  Ir  Ir30  1  0.201475  0.824659  0.500000  1
  Ir  Ir31  1  0.177068  0.367675  0.500000  1
  Ir  Ir32  1  0.376815  0.175341  0.500000  1
  Ir  Ir33  1  0.809393  0.632325  0.500000  1
  Ir  Ir34  1  0.815570  0.192944  0.500000  1
  Ir  Ir35  1  0.000520  0.000000  0.500000  1
