# generated using pymatgen
data_Nd4B4Cl5
_symmetry_space_group_name_H-M   'P 1'
_cell_length_a   10.52393217
_cell_length_b   10.52393231
_cell_length_c   9.36804803
_cell_angle_alpha   53.17533438
_cell_angle_beta   53.17533317
_cell_angle_gamma   23.45853984
_symmetry_Int_Tables_number   1
_chemical_formula_structural   Nd4B4Cl5
_chemical_formula_sum   'Nd4 B4 Cl5'
_cell_volume   326.59971778
_cell_formula_units_Z   1
loop_
 _symmetry_equiv_pos_site_id
 _symmetry_equiv_pos_as_xyz
  1  'x, y, z'
loop_
 _atom_site_type_symbol
 _atom_site_label
 _atom_site_symmetry_multiplicity
 _atom_site_fract_x
 _atom_site_fract_y
 _atom_site_fract_z
 _atom_site_occupancy
  Nd  Nd0  1  0.148149  0.148149  0.778741  1
  Nd  Nd1  1  0.517881  0.517881  0.236118  1
  Nd  Nd2  1  0.482119  0.482119  0.763882  1
  Nd  Nd3  1  0.851851  0.851851  0.221259  1
  B  B4  1  0.005558  0.005558  0.094645  1
  B  B5  1  0.686819  0.313181  0.000000  1
  B  B6  1  0.994442  0.994442  0.905355  1
  B  B7  1  0.313181  0.686819  0.000000  1
  Cl  Cl8  1  0.310269  0.310269  0.075472  1
  Cl  Cl9  1  0.000000  0.000000  0.500000  1
  Cl  Cl10  1  0.332803  0.332803  0.468103  1
  Cl  Cl11  1  0.667197  0.667197  0.531897  1
  Cl  Cl12  1  0.689731  0.689731  0.924528  1
