# generated using pymatgen
data_Tm8Hf12Si15Pt
_symmetry_space_group_name_H-M   'P 1'
_cell_length_a   7.07931174
_cell_length_b   7.22265472
_cell_length_c   13.76058291
_cell_angle_alpha   89.86159033
_cell_angle_beta   89.89700259
_cell_angle_gamma   90.10838509
_symmetry_Int_Tables_number   1
_chemical_formula_structural   Tm8Hf12Si15Pt
_chemical_formula_sum   'Tm8 Hf12 Si15 Pt1'
_cell_volume   703.59374880
_cell_formula_units_Z   1
loop_
 _symmetry_equiv_pos_site_id
 _symmetry_equiv_pos_as_xyz
  1  'x, y, z'
loop_
 _atom_site_type_symbol
 _atom_site_label
 _atom_site_symmetry_multiplicity
 _atom_site_fract_x
 _atom_site_fract_y
 _atom_site_fract_z
 _atom_site_occupancy
  Tm  Tm0  1  0.012828  0.175315  0.096143  1
  Tm  Tm1  1  0.988445  0.825748  0.904684  1
  Tm  Tm2  1  0.489852  0.675481  0.904142  1
  Tm  Tm3  1  0.988674  0.827510  0.596586  1
  Tm  Tm4  1  0.511033  0.324627  0.095472  1
  Tm  Tm5  1  0.009689  0.176268  0.401684  1
  Tm  Tm6  1  0.510910  0.325265  0.401843  1
  Tm  Tm7  1  0.488184  0.673822  0.596534  1
  Hf  Hf8  1  0.161059  0.501717  0.749999  1
  Hf  Hf9  1  0.842038  0.501192  0.248736  1
  Hf  Hf10  1  0.342180  0.000112  0.249506  1
  Hf  Hf11  1  0.657083  0.001878  0.749175  1
  Hf  Hf12  1  0.336500  0.177404  0.624384  1
  Hf  Hf13  1  0.669189  0.825518  0.373762  1
  Hf  Hf14  1  0.170367  0.669760  0.377215  1
  Hf  Hf15  1  0.670919  0.823216  0.124957  1
  Hf  Hf16  1  0.829254  0.323717  0.624995  1
  Hf  Hf17  1  0.329132  0.174114  0.875118  1
  Hf  Hf18  1  0.830674  0.323146  0.875812  1
  Hf  Hf19  1  0.169046  0.676227  0.124739  1
  Si  Si20  1  0.033890  0.118279  0.751344  1
  Si  Si21  1  0.967858  0.882558  0.249741  1
  Si  Si22  1  0.466003  0.616998  0.249735  1
  Si  Si23  1  0.535236  0.382947  0.752524  1
  Si  Si24  1  0.286187  0.870732  0.751584  1
  Si  Si25  1  0.712955  0.130820  0.248747  1
  Si  Si26  1  0.212909  0.367963  0.247822  1
  Si  Si27  1  0.787361  0.631134  0.752976  1
  Si  Si28  1  0.835417  0.534498  0.457225  1
  Si  Si29  1  0.341534  0.968164  0.457061  1
  Si  Si30  1  0.839746  0.531547  0.040937  1
  Si  Si31  1  0.659721  0.033542  0.539271  1
  Si  Si32  1  0.159582  0.466438  0.959958  1
  Si  Si33  1  0.657972  0.031638  0.959411  1
  Si  Si34  1  0.343292  0.967025  0.041529  1
  Pt  Pt35  1  0.153281  0.463680  0.544649  1
