# generated using pymatgen
data_Ho20CoBi8RuRh2
_symmetry_space_group_name_H-M   'P 1'
_cell_length_a   7.98639405
_cell_length_b   8.97096100
_cell_length_c   12.41726531
_cell_angle_alpha   90.00000000
_cell_angle_beta   89.76785643
_cell_angle_gamma   90.00000000
_symmetry_Int_Tables_number   1
_chemical_formula_structural   Ho20CoBi8RuRh2
_chemical_formula_sum   'Ho20 Co1 Bi8 Ru1 Rh2'
_cell_volume   889.63548797
_cell_formula_units_Z   1
loop_
 _symmetry_equiv_pos_site_id
 _symmetry_equiv_pos_as_xyz
  1  'x, y, z'
loop_
 _atom_site_type_symbol
 _atom_site_label
 _atom_site_symmetry_multiplicity
 _atom_site_fract_x
 _atom_site_fract_y
 _atom_site_fract_z
 _atom_site_occupancy
  Ho  Ho0  1  0.345549  0.750000  0.699750  1
  Ho  Ho1  1  0.658319  0.250000  0.293015  1
  Ho  Ho2  1  0.843985  0.250000  0.794349  1
  Ho  Ho3  1  0.157417  0.750000  0.206743  1
  Ho  Ho4  1  0.879327  0.750000  0.805259  1
  Ho  Ho5  1  0.119649  0.250000  0.193029  1
  Ho  Ho6  1  0.378957  0.250000  0.693148  1
  Ho  Ho7  1  0.615386  0.750000  0.311757  1
  Ho  Ho8  1  0.676548  0.546555  0.564318  1
  Ho  Ho9  1  0.324557  0.465794  0.436320  1
  Ho  Ho10  1  0.176224  0.456150  0.934599  1
  Ho  Ho11  1  0.324557  0.034206  0.436320  1
  Ho  Ho12  1  0.822324  0.540356  0.065465  1
  Ho  Ho13  1  0.676548  0.953445  0.564318  1
  Ho  Ho14  1  0.822324  0.959644  0.065465  1
  Ho  Ho15  1  0.176224  0.043850  0.934599  1
  Ho  Ho16  1  0.052078  0.750000  0.498714  1
  Ho  Ho17  1  0.949457  0.250000  0.501696  1
  Ho  Ho18  1  0.551263  0.250000  0.001525  1
  Ho  Ho19  1  0.448949  0.750000  0.997533  1
  Co  Co20  1  0.432413  0.750000  0.491591  1
  Bi  Bi21  1  0.570278  0.509484  0.826507  1
  Bi  Bi22  1  0.429250  0.491123  0.173469  1
  Bi  Bi23  1  0.071475  0.490611  0.672738  1
  Bi  Bi24  1  0.429250  0.008877  0.173469  1
  Bi  Bi25  1  0.928840  0.509756  0.327635  1
  Bi  Bi26  1  0.570278  0.990516  0.826507  1
  Bi  Bi27  1  0.928840  0.990244  0.327635  1
  Bi  Bi28  1  0.071475  0.009389  0.672738  1
  Ru  Ru29  1  0.926648  0.250000  0.010657  1
  Rh  Rh30  1  0.071627  0.750000  0.990111  1
  Rh  Rh31  1  0.569983  0.250000  0.509024  1
