# generated using pymatgen
data_HoThCS
_symmetry_space_group_name_H-M   'P 1'
_cell_length_a   6.81292696
_cell_length_b   6.81292641
_cell_length_c   6.81292748
_cell_angle_alpha   32.33222613
_cell_angle_beta   32.33223233
_cell_angle_gamma   32.33222602
_symmetry_Int_Tables_number   1
_chemical_formula_structural   HoThCS
_chemical_formula_sum   'Ho1 Th1 C1 S1'
_cell_volume   80.41029350
_cell_formula_units_Z   1
loop_
 _symmetry_equiv_pos_site_id
 _symmetry_equiv_pos_as_xyz
  1  'x, y, z'
loop_
 _atom_site_type_symbol
 _atom_site_label
 _atom_site_symmetry_multiplicity
 _atom_site_fract_x
 _atom_site_fract_y
 _atom_site_fract_z
 _atom_site_occupancy
  Ho  Ho0  1  0.260210  0.260210  0.260210  1
  Th  Th1  1  0.736348  0.736348  0.736348  1
  C  C2  1  0.999458  0.999458  0.999458  1
  S  S3  1  0.503984  0.503984  0.503984  1
