# generated using pymatgen
data_La5Nd3(Mg3Au10)2
_symmetry_space_group_name_H-M   'P 1'
_cell_length_a   8.77663625
_cell_length_b   8.77663610
_cell_length_c   10.43474102
_cell_angle_alpha   90.00399811
_cell_angle_beta   90.00399872
_cell_angle_gamma   108.42931604
_symmetry_Int_Tables_number   1
_chemical_formula_structural   La5Nd3(Mg3Au10)2
_chemical_formula_sum   'La5 Nd3 Mg6 Au20'
_cell_volume   762.55881696
_cell_formula_units_Z   1
loop_
 _symmetry_equiv_pos_site_id
 _symmetry_equiv_pos_as_xyz
  1  'x, y, z'
loop_
 _atom_site_type_symbol
 _atom_site_label
 _atom_site_symmetry_multiplicity
 _atom_site_fract_x
 _atom_site_fract_y
 _atom_site_fract_z
 _atom_site_occupancy
  La  La0  1  0.200343  0.799657  0.500000  1
  La  La1  1  0.302551  0.302181  0.202665  1
  La  La2  1  0.697819  0.697449  0.797335  1
  La  La3  1  0.197699  0.198230  0.703395  1
  La  La4  1  0.801770  0.802301  0.296605  1
  Nd  Nd5  1  0.700240  0.299760  0.000000  1
  Nd  Nd6  1  0.299775  0.700225  0.000000  1
  Nd  Nd7  1  0.799493  0.200507  0.500000  1
  Mg  Mg8  1  0.012107  0.511660  0.249448  1
  Mg  Mg9  1  0.987087  0.487106  0.750070  1
  Mg  Mg10  1  0.488340  0.987893  0.750552  1
  Mg  Mg11  1  0.512894  0.012913  0.249930  1
  Mg  Mg12  1  0.999892  0.000108  0.000000  1
  Mg  Mg13  1  0.499885  0.500115  0.500000  1
  Au  Au14  1  0.096525  0.097890  0.403429  1
  Au  Au15  1  0.902110  0.903475  0.596571  1
  Au  Au16  1  0.402512  0.401985  0.904562  1
  Au  Au17  1  0.598015  0.597488  0.095438  1
  Au  Au18  1  0.884551  0.167744  0.205010  1
  Au  Au19  1  0.114353  0.832481  0.796167  1
  Au  Au20  1  0.614880  0.331700  0.705810  1
  Au  Au21  1  0.668300  0.385120  0.294190  1
  Au  Au22  1  0.385929  0.667204  0.293712  1
  Au  Au23  1  0.332796  0.614071  0.706288  1
  Au  Au24  1  0.832256  0.115449  0.794990  1
  Au  Au25  1  0.167519  0.885647  0.203833  1
  Au  Au26  1  0.935246  0.655986  0.022897  1
  Au  Au27  1  0.064652  0.343885  0.977449  1
  Au  Au28  1  0.565998  0.843565  0.522635  1
  Au  Au29  1  0.156435  0.434002  0.477365  1
  Au  Au30  1  0.436015  0.158115  0.477323  1
  Au  Au31  1  0.841885  0.563985  0.522677  1
  Au  Au32  1  0.344014  0.064754  0.977103  1
  Au  Au33  1  0.656115  0.935348  0.022551  1
