# generated using pymatgen
data_HoFeCo2Si
_symmetry_space_group_name_H-M   'P 1'
_cell_length_a   3.88993600
_cell_length_b   3.88993600
_cell_length_c   9.67917900
_cell_angle_alpha   90.00000000
_cell_angle_beta   90.00000000
_cell_angle_gamma   90.00000000
_symmetry_Int_Tables_number   1
_chemical_formula_structural   HoFeCo2Si
_chemical_formula_sum   'Ho2 Fe2 Co4 Si2'
_cell_volume   146.46148513
_cell_formula_units_Z   2
loop_
 _symmetry_equiv_pos_site_id
 _symmetry_equiv_pos_as_xyz
  1  'x, y, z'
loop_
 _atom_site_type_symbol
 _atom_site_label
 _atom_site_symmetry_multiplicity
 _atom_site_fract_x
 _atom_site_fract_y
 _atom_site_fract_z
 _atom_site_occupancy
  Ho  Ho0  1  0.000000  0.500000  0.751038  1
  Ho  Ho1  1  0.500000  0.000000  0.248962  1
  Fe  Fe2  1  0.500000  0.500000  0.500000  1
  Fe  Fe3  1  0.000000  0.000000  0.500000  1
  Co  Co4  1  0.500000  0.000000  0.633367  1
  Co  Co5  1  0.000000  0.000000  0.000000  1
  Co  Co6  1  0.500000  0.500000  0.000000  1
  Co  Co7  1  0.000000  0.500000  0.366633  1
  Si  Si8  1  0.000000  0.500000  0.126129  1
  Si  Si9  1  0.500000  0.000000  0.873871  1
