# generated using pymatgen
data_NaNb6NiS12
_symmetry_space_group_name_H-M   'P 1'
_cell_length_a   5.82188900
_cell_length_b   5.82189031
_cell_length_c   13.34039700
_cell_angle_alpha   90.00000000
_cell_angle_beta   90.00000000
_cell_angle_gamma   119.99999822
_symmetry_Int_Tables_number   1
_chemical_formula_structural   NaNb6NiS12
_chemical_formula_sum   'Na1 Nb6 Ni1 S12'
_cell_volume   391.58615949
_cell_formula_units_Z   1
loop_
 _symmetry_equiv_pos_site_id
 _symmetry_equiv_pos_as_xyz
  1  'x, y, z'
loop_
 _atom_site_type_symbol
 _atom_site_label
 _atom_site_symmetry_multiplicity
 _atom_site_fract_x
 _atom_site_fract_y
 _atom_site_fract_z
 _atom_site_occupancy
  Na  Na0  1  0.333333  0.666667  0.250000  1
  Nb  Nb1  1  0.000000  0.000000  0.532846  1
  Nb  Nb2  1  0.000000  0.000000  0.967154  1
  Nb  Nb3  1  0.333333  0.666667  0.966634  1
  Nb  Nb4  1  0.666667  0.333333  0.971503  1
  Nb  Nb5  1  0.666667  0.333333  0.528497  1
  Nb  Nb6  1  0.333333  0.666667  0.533366  1
  Ni  Ni7  1  0.666667  0.333333  0.750000  1
  S  S8  1  0.330793  0.332287  0.413124  1
  S  S9  1  0.667713  0.998505  0.413124  1
  S  S10  1  0.001495  0.669207  0.413124  1
  S  S11  1  0.334935  0.333127  0.647229  1
  S  S12  1  0.998192  0.665065  0.647229  1
  S  S13  1  0.666873  0.001808  0.647229  1
  S  S14  1  0.666873  0.665065  0.852771  1
  S  S15  1  0.334935  0.001808  0.852771  1
  S  S16  1  0.998192  0.333127  0.852771  1
  S  S17  1  0.667713  0.669207  0.086876  1
  S  S18  1  0.001495  0.332287  0.086876  1
  S  S19  1  0.330793  0.998505  0.086876  1
