# generated using pymatgen
data_Tm4Fe13Co3(P3W)4
_symmetry_space_group_name_H-M   'P 1'
_cell_length_a   3.68089200
_cell_length_b   10.41138415
_cell_length_c   11.92147149
_cell_angle_alpha   89.92616780
_cell_angle_beta   90.00000000
_cell_angle_gamma   90.00000000
_symmetry_Int_Tables_number   1
_chemical_formula_structural   Tm4Fe13Co3(P3W)4
_chemical_formula_sum   'Tm4 Fe13 Co3 P12 W4'
_cell_volume   456.86832582
_cell_formula_units_Z   1
loop_
 _symmetry_equiv_pos_site_id
 _symmetry_equiv_pos_as_xyz
  1  'x, y, z'
loop_
 _atom_site_type_symbol
 _atom_site_label
 _atom_site_symmetry_multiplicity
 _atom_site_fract_x
 _atom_site_fract_y
 _atom_site_fract_z
 _atom_site_occupancy
  Tm  Tm0  1  0.250000  0.580385  0.706078  1
  Tm  Tm1  1  0.250000  0.918966  0.206009  1
  Tm  Tm2  1  0.750000  0.419171  0.294047  1
  Tm  Tm3  1  0.750000  0.081263  0.793759  1
  Fe  Fe4  1  0.750000  0.906686  0.011330  1
  Fe  Fe5  1  0.250000  0.217985  0.176598  1
  Fe  Fe6  1  0.250000  0.281357  0.676249  1
  Fe  Fe7  1  0.750000  0.781572  0.823410  1
  Fe  Fe8  1  0.750000  0.717795  0.323109  1
  Fe  Fe9  1  0.250000  0.878241  0.701936  1
  Fe  Fe10  1  0.250000  0.621805  0.200787  1
  Fe  Fe11  1  0.750000  0.122162  0.298692  1
  Fe  Fe12  1  0.750000  0.378487  0.799454  1
  Fe  Fe13  1  0.250000  0.462566  0.933875  1
  Fe  Fe14  1  0.250000  0.037298  0.433572  1
  Fe  Fe15  1  0.750000  0.537242  0.066875  1
  Fe  Fe16  1  0.750000  0.962317  0.566396  1
  Co  Co17  1  0.250000  0.405894  0.486605  1
  Co  Co18  1  0.250000  0.095544  0.986512  1
  Co  Co19  1  0.750000  0.593699  0.513336  1
  P  P20  1  0.250000  0.424907  0.116161  1
  P  P21  1  0.250000  0.075281  0.615776  1
  P  P22  1  0.750000  0.574497  0.884016  1
  P  P23  1  0.750000  0.924476  0.384011  1
  P  P24  1  0.250000  0.266224  0.863534  1
  P  P25  1  0.250000  0.234279  0.364511  1
  P  P26  1  0.750000  0.736201  0.134716  1
  P  P27  1  0.750000  0.765178  0.635359  1
  P  P28  1  0.250000  0.593382  0.390040  1
  P  P29  1  0.250000  0.908337  0.891762  1
  P  P30  1  0.750000  0.406217  0.610534  1
  P  P31  1  0.750000  0.091479  0.109701  1
  W  W32  1  0.250000  0.702690  0.988457  1
  W  W33  1  0.250000  0.795867  0.487976  1
  W  W34  1  0.750000  0.296483  0.012346  1
  W  W35  1  0.750000  0.204068  0.512469  1
