# generated using pymatgen
data_CsMoH5
_symmetry_space_group_name_H-M   'P 1'
_cell_length_a   11.65513500
_cell_length_b   7.68189200
_cell_length_c   4.83189800
_cell_angle_alpha   90.00000000
_cell_angle_beta   90.00000000
_cell_angle_gamma   90.00000000
_symmetry_Int_Tables_number   1
_chemical_formula_structural   CsMoH5
_chemical_formula_sum   'Cs4 Mo4 H20'
_cell_volume   432.61668312
_cell_formula_units_Z   4
loop_
 _symmetry_equiv_pos_site_id
 _symmetry_equiv_pos_as_xyz
  1  'x, y, z'
loop_
 _atom_site_type_symbol
 _atom_site_label
 _atom_site_symmetry_multiplicity
 _atom_site_fract_x
 _atom_site_fract_y
 _atom_site_fract_z
 _atom_site_occupancy
  Cs  Cs0  1  0.671305  0.078238  0.335944  1
  Cs  Cs1  1  0.171305  0.421761  0.335944  1
  Cs  Cs2  1  0.828695  0.578238  0.835944  1
  Cs  Cs3  1  0.328695  0.921762  0.835944  1
  Mo  Mo4  1  0.516269  0.565129  0.312506  1
  Mo  Mo5  1  0.016269  0.934871  0.312506  1
  Mo  Mo6  1  0.983731  0.065128  0.812505  1
  Mo  Mo7  1  0.483731  0.434872  0.812505  1
  H  H8  1  0.358622  0.310866  0.827257  1
  H  H9  1  0.858622  0.189134  0.827257  1
  H  H10  1  0.977516  0.714912  0.331484  1
  H  H11  1  0.477516  0.785087  0.331484  1
  H  H12  1  0.601572  0.416936  0.060495  1
  H  H13  1  0.101571  0.083064  0.060495  1
  H  H14  1  0.387534  0.538237  0.058907  1
  H  H15  1  0.887534  0.961764  0.058907  1
  H  H16  1  0.962948  0.149914  0.440406  1
  H  H17  1  0.462948  0.350087  0.440406  1
  H  H18  1  0.141378  0.810866  0.327256  1
  H  H19  1  0.641378  0.689133  0.327256  1
  H  H20  1  0.522485  0.214912  0.831486  1
  H  H21  1  0.022485  0.285087  0.831486  1
  H  H22  1  0.898429  0.916935  0.560495  1
  H  H23  1  0.398429  0.583065  0.560495  1
  H  H24  1  0.112466  0.038236  0.558907  1
  H  H25  1  0.612466  0.461764  0.558907  1
  H  H26  1  0.537052  0.649914  0.940408  1
  H  H27  1  0.037052  0.850087  0.940408  1
