# generated using pymatgen
data_DyThSc3Si7Pt9
_symmetry_space_group_name_H-M   'P 1'
_cell_length_a   10.07199600
_cell_length_b   10.07199652
_cell_length_c   4.01884300
_cell_angle_alpha   90.00000000
_cell_angle_beta   90.00000000
_cell_angle_gamma   119.99999830
_symmetry_Int_Tables_number   1
_chemical_formula_structural   DyThSc3Si7Pt9
_chemical_formula_sum   'Dy1 Th1 Sc3 Si7 Pt9'
_cell_volume   353.07160440
_cell_formula_units_Z   1
loop_
 _symmetry_equiv_pos_site_id
 _symmetry_equiv_pos_as_xyz
  1  'x, y, z'
loop_
 _atom_site_type_symbol
 _atom_site_label
 _atom_site_symmetry_multiplicity
 _atom_site_fract_x
 _atom_site_fract_y
 _atom_site_fract_z
 _atom_site_occupancy
  Dy  Dy0  1  0.000000  0.000000  0.000000  1
  Th  Th1  1  0.333333  0.666667  0.500000  1
  Sc  Sc2  1  0.891157  0.453887  0.500000  1
  Sc  Sc3  1  0.562732  0.108843  0.500000  1
  Sc  Sc4  1  0.546113  0.437268  0.500000  1
  Si  Si5  1  0.243720  0.192788  0.500000  1
  Si  Si6  1  0.807212  0.050933  0.500000  1
  Si  Si7  1  0.949067  0.756280  0.500000  1
  Si  Si8  1  0.563503  0.646355  0.000000  1
  Si  Si9  1  0.353645  0.917146  0.000000  1
  Si  Si10  1  0.082854  0.436497  0.000000  1
  Si  Si11  1  0.666667  0.333333  0.000000  1
  Pt  Pt12  1  0.217618  0.935294  0.500000  1
  Pt  Pt13  1  0.064706  0.282325  0.500000  1
  Pt  Pt14  1  0.717675  0.782382  0.500000  1
  Pt  Pt15  1  0.314564  0.415073  0.000000  1
  Pt  Pt16  1  0.584927  0.899491  0.000000  1
  Pt  Pt17  1  0.100509  0.685436  0.000000  1
  Pt  Pt18  1  0.382184  0.173747  0.000000  1
  Pt  Pt19  1  0.826253  0.208438  0.000000  1
  Pt  Pt20  1  0.791562  0.617816  0.000000  1
