# generated using pymatgen
data_PrSn6Ru3Pt
_symmetry_space_group_name_H-M   'P 1'
_cell_length_a   7.03187944
_cell_length_b   6.97126259
_cell_length_c   6.97126175
_cell_angle_alpha   89.98761162
_cell_angle_beta   119.76171484
_cell_angle_gamma   119.76172330
_symmetry_Int_Tables_number   1
_chemical_formula_structural   PrSn6Ru3Pt
_chemical_formula_sum   'Pr1 Sn6 Ru3 Pt1'
_cell_volume   243.40158878
_cell_formula_units_Z   1
loop_
 _symmetry_equiv_pos_site_id
 _symmetry_equiv_pos_as_xyz
  1  'x, y, z'
loop_
 _atom_site_type_symbol
 _atom_site_label
 _atom_site_symmetry_multiplicity
 _atom_site_fract_x
 _atom_site_fract_y
 _atom_site_fract_z
 _atom_site_occupancy
  Pr  Pr0  1  0.008475  0.004164  0.004164  1
  Sn  Sn1  1  0.660911  0.131115  0.131115  1
  Sn  Sn2  1  0.342722  0.465084  0.465084  1
  Sn  Sn3  1  0.986539  0.873490  0.521224  1
  Sn  Sn4  1  0.986539  0.521224  0.873490  1
  Sn  Sn5  1  0.498636  0.488110  0.996509  1
  Sn  Sn6  1  0.498636  0.996509  0.488110  1
  Ru  Ru7  1  0.642172  0.401506  0.401506  1
  Ru  Ru8  1  0.004230  0.255158  0.598215  1
  Ru  Ru9  1  0.004230  0.598215  0.255158  1
  Pt  Pt10  1  0.366910  0.765425  0.765425  1
