# generated using pymatgen
data_Dy4Si10(OsPt)3
_symmetry_space_group_name_H-M   'P 1'
_cell_length_a   8.16141587
_cell_length_b   8.16099073
_cell_length_c   8.16099044
_cell_angle_alpha   137.56677130
_cell_angle_beta   105.01409487
_cell_angle_gamma   90.16418262
_symmetry_Int_Tables_number   1
_chemical_formula_structural   Dy4Si10(OsPt)3
_chemical_formula_sum   'Dy4 Si10 Os3 Pt3'
_cell_volume   338.16845520
_cell_formula_units_Z   1
loop_
 _symmetry_equiv_pos_site_id
 _symmetry_equiv_pos_as_xyz
  1  'x, y, z'
loop_
 _atom_site_type_symbol
 _atom_site_label
 _atom_site_symmetry_multiplicity
 _atom_site_fract_x
 _atom_site_fract_y
 _atom_site_fract_z
 _atom_site_occupancy
  Dy  Dy0  1  0.865069  0.629316  0.235752  1
  Dy  Dy1  1  0.138878  0.370712  0.768166  1
  Dy  Dy2  1  0.397390  0.131328  0.266062  1
  Dy  Dy3  1  0.602474  0.870490  0.731984  1
  Si  Si4  1  0.494858  0.753183  0.253404  1
  Si  Si5  1  0.494858  0.241454  0.741675  1
  Si  Si6  1  0.220661  0.972510  0.744620  1
  Si  Si7  1  0.776613  0.523268  0.745504  1
  Si  Si8  1  0.776613  0.031109  0.253344  1
  Si  Si9  1  0.220661  0.476041  0.248151  1
  Si  Si10  1  0.054434  0.898532  0.155902  1
  Si  Si11  1  0.954898  0.104180  0.850718  1
  Si  Si12  1  0.745042  0.394989  0.350054  1
  Si  Si13  1  0.254950  0.603894  0.651056  1
  Os  Os14  1  0.999291  0.750173  0.750796  1
  Os  Os15  1  0.999291  0.248495  0.249118  1
  Os  Os16  1  0.245122  0.859616  0.385508  1
  Pt  Pt17  1  0.754025  0.139301  0.614723  1
  Pt  Pt18  1  0.475273  0.360132  0.115141  1
  Pt  Pt19  1  0.529601  0.641280  0.888322  1
