# generated using pymatgen
data_Sm5Tm3(P3Pd4)4
_symmetry_space_group_name_H-M   'P 1'
_cell_length_a   13.19630100
_cell_length_b   13.19629910
_cell_length_c   4.03741000
_cell_angle_alpha   90.00000000
_cell_angle_beta   90.00000000
_cell_angle_gamma   120.00000225
_symmetry_Int_Tables_number   1
_chemical_formula_structural   Sm5Tm3(P3Pd4)4
_chemical_formula_sum   'Sm5 Tm3 P12 Pd16'
_cell_volume   608.88859548
_cell_formula_units_Z   1
loop_
 _symmetry_equiv_pos_site_id
 _symmetry_equiv_pos_as_xyz
  1  'x, y, z'
loop_
 _atom_site_type_symbol
 _atom_site_label
 _atom_site_symmetry_multiplicity
 _atom_site_fract_x
 _atom_site_fract_y
 _atom_site_fract_z
 _atom_site_occupancy
  Sm  Sm0  1  0.187110  0.187110  0.500000  1
  Sm  Sm1  1  0.812890  0.000000  0.500000  1
  Sm  Sm2  1  0.000000  0.812890  0.500000  1
  Sm  Sm3  1  0.333333  0.666667  0.000000  1
  Sm  Sm4  1  0.666667  0.333333  0.000000  1
  Tm  Tm5  1  0.556794  0.556794  0.000000  1
  Tm  Tm6  1  0.443206  0.000000  0.000000  1
  Tm  Tm7  1  0.000000  0.443206  0.000000  1
  P  P8  1  0.825911  0.825911  0.000000  1
  P  P9  1  0.174089  0.000000  0.000000  1
  P  P10  1  0.000000  0.174089  0.000000  1
  P  P11  1  0.168687  0.479043  0.500000  1
  P  P12  1  0.520957  0.689643  0.500000  1
  P  P13  1  0.310357  0.831313  0.500000  1
  P  P14  1  0.689643  0.520957  0.500000  1
  P  P15  1  0.831313  0.310357  0.500000  1
  P  P16  1  0.479043  0.168687  0.500000  1
  P  P17  1  0.352923  0.352923  0.000000  1
  P  P18  1  0.647077  0.000000  0.000000  1
  P  P19  1  0.000000  0.647077  0.000000  1
  Pd  Pd20  1  0.726492  0.726492  0.500000  1
  Pd  Pd21  1  0.273508  0.000000  0.500000  1
  Pd  Pd22  1  0.000000  0.273508  0.500000  1
  Pd  Pd23  1  0.185852  0.377598  0.000000  1
  Pd  Pd24  1  0.622402  0.808253  0.000000  1
  Pd  Pd25  1  0.191747  0.814148  0.000000  1
  Pd  Pd26  1  0.808253  0.622402  0.000000  1
  Pd  Pd27  1  0.814148  0.191747  0.000000  1
  Pd  Pd28  1  0.377598  0.185852  0.000000  1
  Pd  Pd29  1  0.359832  0.488918  0.500000  1
  Pd  Pd30  1  0.511082  0.870914  0.500000  1
  Pd  Pd31  1  0.129086  0.640168  0.500000  1
  Pd  Pd32  1  0.870914  0.511082  0.500000  1
  Pd  Pd33  1  0.640168  0.129086  0.500000  1
  Pd  Pd34  1  0.488918  0.359832  0.500000  1
  Pd  Pd35  1  0.000000  0.000000  0.000000  1
