# generated using pymatgen
data_NaSrTmI6
_symmetry_space_group_name_H-M   'P 1'
_cell_length_a   8.78266157
_cell_length_b   8.78270223
_cell_length_c   8.78260776
_cell_angle_alpha   54.21138934
_cell_angle_beta   54.21179506
_cell_angle_gamma   54.21115649
_symmetry_Int_Tables_number   1
_chemical_formula_structural   NaSrTmI6
_chemical_formula_sum   'Na1 Sr1 Tm1 I6'
_cell_volume   414.31311041
_cell_formula_units_Z   1
loop_
 _symmetry_equiv_pos_site_id
 _symmetry_equiv_pos_as_xyz
  1  'x, y, z'
loop_
 _atom_site_type_symbol
 _atom_site_label
 _atom_site_symmetry_multiplicity
 _atom_site_fract_x
 _atom_site_fract_y
 _atom_site_fract_z
 _atom_site_occupancy
  Na  Na0  1  0.669808  0.669801  0.669810  1
  Sr  Sr1  1  0.330612  0.330604  0.330609  1
  Tm  Tm2  1  0.999934  0.999940  0.999935  1
  I  I3  1  0.231519  0.619266  0.912981  1
  I  I4  1  0.619272  0.912978  0.231521  1
  I  I5  1  0.912974  0.231532  0.619259  1
  I  I6  1  0.770759  0.382839  0.082284  1
  I  I7  1  0.382838  0.082285  0.770762  1
  I  I8  1  0.082287  0.770756  0.382838  1
