# generated using pymatgen
data_Pr16In3Co4Ag
_symmetry_space_group_name_H-M   'P 1'
_cell_length_a   9.84672569
_cell_length_b   9.84449946
_cell_length_c   9.84449900
_cell_angle_alpha   59.99999818
_cell_angle_beta   60.00747686
_cell_angle_gamma   60.00748076
_symmetry_Int_Tables_number   1
_chemical_formula_structural   Pr16In3Co4Ag
_chemical_formula_sum   'Pr16 In3 Co4 Ag1'
_cell_volume   674.85920942
_cell_formula_units_Z   1
loop_
 _symmetry_equiv_pos_site_id
 _symmetry_equiv_pos_as_xyz
  1  'x, y, z'
loop_
 _atom_site_type_symbol
 _atom_site_label
 _atom_site_symmetry_multiplicity
 _atom_site_fract_x
 _atom_site_fract_y
 _atom_site_fract_z
 _atom_site_occupancy
  Pr  Pr0  1  0.347027  0.346223  0.346223  1
  Pr  Pr1  1  0.347027  0.346223  0.960526  1
  Pr  Pr2  1  0.347027  0.960526  0.346223  1
  Pr  Pr3  1  0.960050  0.346650  0.346650  1
  Pr  Pr4  1  0.808973  0.190951  0.190951  1
  Pr  Pr5  1  0.189979  0.810430  0.810430  1
  Pr  Pr6  1  0.189979  0.810430  0.189163  1
  Pr  Pr7  1  0.808973  0.190951  0.809125  1
  Pr  Pr8  1  0.189979  0.189163  0.810430  1
  Pr  Pr9  1  0.808973  0.809125  0.190951  1
  Pr  Pr10  1  0.944783  0.559897  0.559897  1
  Pr  Pr11  1  0.564054  0.938293  0.938293  1
  Pr  Pr12  1  0.564054  0.938293  0.559360  1
  Pr  Pr13  1  0.944783  0.559897  0.935425  1
  Pr  Pr14  1  0.564054  0.559360  0.938293  1
  Pr  Pr15  1  0.944783  0.935425  0.559897  1
  In  In16  1  0.574759  0.580816  0.580816  1
  In  In17  1  0.574759  0.580816  0.263609  1
  In  In18  1  0.574759  0.263609  0.580816  1
  Co  Co19  1  0.138044  0.141681  0.141681  1
  Co  Co20  1  0.138044  0.141681  0.578594  1
  Co  Co21  1  0.138044  0.578594  0.141681  1
  Co  Co22  1  0.577680  0.140774  0.140774  1
  Ag  Ag23  1  0.259411  0.580196  0.580196  1
