# generated using pymatgen
data_Tb3YGa18(CuRu2)2
_symmetry_space_group_name_H-M   'P 1'
_cell_length_a   7.58163205
_cell_length_b   7.58061994
_cell_length_c   9.58289900
_cell_angle_alpha   90.00000000
_cell_angle_beta   90.00000000
_cell_angle_gamma   119.91459133
_symmetry_Int_Tables_number   1
_chemical_formula_structural   Tb3YGa18(CuRu2)2
_chemical_formula_sum   'Tb3 Y1 Ga18 Cu2 Ru4'
_cell_volume   477.38425952
_cell_formula_units_Z   1
loop_
 _symmetry_equiv_pos_site_id
 _symmetry_equiv_pos_as_xyz
  1  'x, y, z'
loop_
 _atom_site_type_symbol
 _atom_site_label
 _atom_site_symmetry_multiplicity
 _atom_site_fract_x
 _atom_site_fract_y
 _atom_site_fract_z
 _atom_site_occupancy
  Tb  Tb0  1  0.996153  0.669440  0.250000  1
  Tb  Tb1  1  0.003975  0.330742  0.750000  1
  Tb  Tb2  1  0.669284  0.996111  0.250000  1
  Y  Y3  1  0.330518  0.003885  0.750000  1
  Ga  Ga4  1  0.126097  0.126171  0.250000  1
  Ga  Ga5  1  0.873828  0.873917  0.750000  1
  Ga  Ga6  1  0.002442  0.336857  0.077059  1
  Ga  Ga7  1  0.997526  0.663044  0.922889  1
  Ga  Ga8  1  0.997526  0.663044  0.577111  1
  Ga  Ga9  1  0.337067  0.002618  0.422794  1
  Ga  Ga10  1  0.002442  0.336857  0.422941  1
  Ga  Ga11  1  0.663018  0.997573  0.577082  1
  Ga  Ga12  1  0.663018  0.997573  0.922918  1
  Ga  Ga13  1  0.337067  0.002618  0.077206  1
  Ga  Ga14  1  0.339394  0.339330  0.562778  1
  Ga  Ga15  1  0.660780  0.660739  0.437205  1
  Ga  Ga16  1  0.660780  0.660739  0.062795  1
  Ga  Ga17  1  0.339394  0.339330  0.937222  1
  Ga  Ga18  1  0.334694  0.549068  0.250000  1
  Ga  Ga19  1  0.665317  0.450934  0.750000  1
  Ga  Ga20  1  0.549069  0.334645  0.250000  1
  Ga  Ga21  1  0.450825  0.665047  0.750000  1
  Cu  Cu22  1  0.000021  0.999966  0.000084  1
  Cu  Cu23  1  0.000021  0.999966  0.499916  1
  Ru  Ru24  1  0.673167  0.326758  0.999946  1
  Ru  Ru25  1  0.326706  0.673135  0.999931  1
  Ru  Ru26  1  0.326706  0.673135  0.500069  1
  Ru  Ru27  1  0.673167  0.326758  0.500054  1
