# generated using pymatgen
data_Na2CeNdB24
_symmetry_space_group_name_H-M   'P 1'
_cell_length_a   4.15598400
_cell_length_b   5.86664500
_cell_length_c   11.73566700
_cell_angle_alpha   90.00000000
_cell_angle_beta   90.00000000
_cell_angle_gamma   90.00000000
_symmetry_Int_Tables_number   1
_chemical_formula_structural   Na2CeNdB24
_chemical_formula_sum   'Na2 Ce1 Nd1 B24'
_cell_volume   286.13530970
_cell_formula_units_Z   1
loop_
 _symmetry_equiv_pos_site_id
 _symmetry_equiv_pos_as_xyz
  1  'x, y, z'
loop_
 _atom_site_type_symbol
 _atom_site_label
 _atom_site_symmetry_multiplicity
 _atom_site_fract_x
 _atom_site_fract_y
 _atom_site_fract_z
 _atom_site_occupancy
  Na  Na0  1  0.000000  0.500000  0.249116  1
  Na  Na1  1  0.000000  0.500000  0.750884  1
  Ce  Ce2  1  0.000000  0.000000  0.500000  1
  Nd  Nd3  1  0.000000  0.000000  0.000000  1
  B  B4  1  0.201250  0.500000  0.500000  1
  B  B5  1  0.201429  0.000000  0.749391  1
  B  B6  1  0.201610  0.500000  0.000000  1
  B  B7  1  0.201429  0.000000  0.250609  1
  B  B8  1  0.500000  0.648139  0.575301  1
  B  B9  1  0.500000  0.150661  0.823669  1
  B  B10  1  0.500000  0.648115  0.075327  1
  B  B11  1  0.500000  0.150549  0.324469  1
  B  B12  1  0.500000  0.351861  0.575301  1
  B  B13  1  0.500000  0.849339  0.823669  1
  B  B14  1  0.500000  0.351885  0.075327  1
  B  B15  1  0.500000  0.849451  0.324469  1
  B  B16  1  0.500000  0.351861  0.424699  1
  B  B17  1  0.500000  0.849451  0.675531  1
  B  B18  1  0.500000  0.351885  0.924673  1
  B  B19  1  0.500000  0.849339  0.176331  1
  B  B20  1  0.500000  0.648139  0.424699  1
  B  B21  1  0.500000  0.150549  0.675531  1
  B  B22  1  0.500000  0.648115  0.924673  1
  B  B23  1  0.500000  0.150661  0.176331  1
  B  B24  1  0.798750  0.500000  0.500000  1
  B  B25  1  0.798571  0.000000  0.749391  1
  B  B26  1  0.798390  0.500000  0.000000  1
  B  B27  1  0.798571  0.000000  0.250609  1
