# generated using pymatgen
data_BaLa2MnSe5
_symmetry_space_group_name_H-M   'P 1'
_cell_length_a   8.36649364
_cell_length_b   8.36649419
_cell_length_c   9.33657940
_cell_angle_alpha   116.61859757
_cell_angle_beta   116.61859418
_cell_angle_gamma   89.99999733
_symmetry_Int_Tables_number   1
_chemical_formula_structural   BaLa2MnSe5
_chemical_formula_sum   'Ba2 La4 Mn2 Se10'
_cell_volume   505.60134628
_cell_formula_units_Z   2
loop_
 _symmetry_equiv_pos_site_id
 _symmetry_equiv_pos_as_xyz
  1  'x, y, z'
loop_
 _atom_site_type_symbol
 _atom_site_label
 _atom_site_symmetry_multiplicity
 _atom_site_fract_x
 _atom_site_fract_y
 _atom_site_fract_z
 _atom_site_occupancy
  Ba  Ba0  1  0.250000  0.250000  0.500000  1
  Ba  Ba1  1  0.750000  0.750000  0.500000  1
  La  La2  1  0.339174  0.160825  0.000000  1
  La  La3  1  0.839175  0.339174  0.000000  1
  La  La4  1  0.160825  0.660825  0.000000  1
  La  La5  1  0.660825  0.839175  0.000000  1
  Mn  Mn6  1  0.750000  0.250000  0.500000  1
  Mn  Mn7  1  0.250000  0.750000  0.500000  1
  Se  Se8  1  0.000000  0.000000  0.000000  1
  Se  Se9  1  0.500000  0.500000  0.000000  1
  Se  Se10  1  0.787055  0.287056  0.270003  1
  Se  Se11  1  0.287056  0.482947  0.270003  1
  Se  Se12  1  0.982948  0.787055  0.270003  1
  Se  Se13  1  0.482947  0.982948  0.270003  1
  Se  Se14  1  0.517052  0.017053  0.729996  1
  Se  Se15  1  0.017053  0.212944  0.729996  1
  Se  Se16  1  0.712944  0.517052  0.729996  1
  Se  Se17  1  0.212944  0.712944  0.729996  1
