# generated using pymatgen
data_NaPa2F11
_symmetry_space_group_name_H-M   'P 1'
_cell_length_a   8.79748315
_cell_length_b   8.79748356
_cell_length_c   8.79748405
_cell_angle_alpha   121.41486035
_cell_angle_beta   106.43501947
_cell_angle_gamma   101.29387751
_symmetry_Int_Tables_number   1
_chemical_formula_structural   NaPa2F11
_chemical_formula_sum   'Na2 Pa4 F22'
_cell_volume   505.94782786
_cell_formula_units_Z   2
loop_
 _symmetry_equiv_pos_site_id
 _symmetry_equiv_pos_as_xyz
  1  'x, y, z'
loop_
 _atom_site_type_symbol
 _atom_site_label
 _atom_site_symmetry_multiplicity
 _atom_site_fract_x
 _atom_site_fract_y
 _atom_site_fract_z
 _atom_site_occupancy
  Na  Na0  1  0.750000  0.750000  0.000000  1
  Na  Na1  1  0.250000  0.250000  0.000000  1
  Pa  Pa2  1  0.682634  0.149520  0.832154  1
  Pa  Pa3  1  0.317366  0.850480  0.167846  1
  Pa  Pa4  1  0.182634  0.350480  0.533116  1
  Pa  Pa5  1  0.817366  0.649520  0.466884  1
  F  F6  1  0.500000  0.000000  0.500000  1
  F  F7  1  0.000000  0.500000  0.500000  1
  F  F8  1  0.785141  0.372819  0.157960  1
  F  F9  1  0.214859  0.627181  0.842040  1
  F  F10  1  0.285141  0.127181  0.412322  1
  F  F11  1  0.714859  0.872819  0.587678  1
  F  F12  1  0.709447  0.395346  0.840224  1
  F  F13  1  0.555123  0.869223  0.159776  1
  F  F14  1  0.944877  0.104654  0.314102  1
  F  F15  1  0.790553  0.630777  0.685898  1
  F  F16  1  0.290553  0.604654  0.159776  1
  F  F17  1  0.444877  0.130777  0.840224  1
  F  F18  1  0.055123  0.895346  0.685898  1
  F  F19  1  0.209447  0.369223  0.314102  1
  F  F20  1  0.948699  0.234680  0.910200  1
  F  F21  1  0.324480  0.038499  0.089800  1
  F  F22  1  0.175520  0.265320  0.714018  1
  F  F23  1  0.551301  0.461501  0.285982  1
  F  F24  1  0.051301  0.765320  0.089800  1
  F  F25  1  0.675520  0.961501  0.910200  1
  F  F26  1  0.824480  0.734680  0.285982  1
  F  F27  1  0.448699  0.538499  0.714018  1
