# generated using pymatgen
data_Sr3ScSb3
_symmetry_space_group_name_H-M   'P 1'
_cell_length_a   4.89185300
_cell_length_b   13.59065300
_cell_length_c   15.14915500
_cell_angle_alpha   90.00000000
_cell_angle_beta   90.00000000
_cell_angle_gamma   90.00000000
_symmetry_Int_Tables_number   1
_chemical_formula_structural   Sr3ScSb3
_chemical_formula_sum   'Sr12 Sc4 Sb12'
_cell_volume   1007.16849271
_cell_formula_units_Z   4
loop_
 _symmetry_equiv_pos_site_id
 _symmetry_equiv_pos_as_xyz
  1  'x, y, z'
loop_
 _atom_site_type_symbol
 _atom_site_label
 _atom_site_symmetry_multiplicity
 _atom_site_fract_x
 _atom_site_fract_y
 _atom_site_fract_z
 _atom_site_occupancy
  Sr  Sr0  1  0.250000  0.061507  0.895213  1
  Sr  Sr1  1  0.750000  0.938493  0.104787  1
  Sr  Sr2  1  0.250000  0.561507  0.604787  1
  Sr  Sr3  1  0.750000  0.438493  0.395213  1
  Sr  Sr4  1  0.250000  0.846664  0.494977  1
  Sr  Sr5  1  0.750000  0.153336  0.505023  1
  Sr  Sr6  1  0.250000  0.346664  0.005023  1
  Sr  Sr7  1  0.750000  0.653336  0.994977  1
  Sr  Sr8  1  0.750000  0.231474  0.216423  1
  Sr  Sr9  1  0.250000  0.768526  0.783577  1
  Sr  Sr10  1  0.750000  0.731474  0.283577  1
  Sr  Sr11  1  0.250000  0.268526  0.716423  1
  Sc  Sc12  1  0.250000  0.058494  0.297524  1
  Sc  Sc13  1  0.750000  0.941506  0.702476  1
  Sc  Sc14  1  0.250000  0.558494  0.202476  1
  Sc  Sc15  1  0.750000  0.441506  0.797524  1
  Sb  Sb16  1  0.250000  0.250879  0.375740  1
  Sb  Sb17  1  0.750000  0.749121  0.624260  1
  Sb  Sb18  1  0.250000  0.750879  0.124260  1
  Sb  Sb19  1  0.750000  0.249121  0.875740  1
  Sb  Sb20  1  0.250000  0.110597  0.113399  1
  Sb  Sb21  1  0.750000  0.889403  0.886601  1
  Sb  Sb22  1  0.250000  0.610597  0.386601  1
  Sb  Sb23  1  0.750000  0.389403  0.613399  1
  Sb  Sb24  1  0.250000  0.035930  0.647219  1
  Sb  Sb25  1  0.750000  0.964070  0.352781  1
  Sb  Sb26  1  0.250000  0.535930  0.852781  1
  Sb  Sb27  1  0.750000  0.464070  0.147219  1
