# generated using pymatgen
data_TmLu(Be12Cu)2
_symmetry_space_group_name_H-M   'P 1'
_cell_length_a   7.22250074
_cell_length_b   7.28289565
_cell_length_c   7.20841882
_cell_angle_alpha   59.78604154
_cell_angle_beta   59.72299011
_cell_angle_gamma   59.59475816
_symmetry_Int_Tables_number   1
_chemical_formula_structural   TmLu(Be12Cu)2
_chemical_formula_sum   'Tm1 Lu1 Be24 Cu2'
_cell_volume   266.29138458
_cell_formula_units_Z   1
loop_
 _symmetry_equiv_pos_site_id
 _symmetry_equiv_pos_as_xyz
  1  'x, y, z'
loop_
 _atom_site_type_symbol
 _atom_site_label
 _atom_site_symmetry_multiplicity
 _atom_site_fract_x
 _atom_site_fract_y
 _atom_site_fract_z
 _atom_site_occupancy
  Tm  Tm0  1  0.746863  0.753137  0.746863  1
  Lu  Lu1  1  0.253120  0.246880  0.253120  1
  Be  Be2  1  0.499978  0.500022  0.499978  1
  Be  Be3  1  0.000004  0.999996  0.000004  1
  Be  Be4  1  0.564870  0.794470  0.434783  1
  Be  Be5  1  0.434783  0.205878  0.564870  1
  Be  Be6  1  0.291470  0.936432  0.708254  1
  Be  Be7  1  0.708254  0.063843  0.291470  1
  Be  Be8  1  0.930215  0.278392  0.069886  1
  Be  Be9  1  0.069886  0.721506  0.930215  1
  Be  Be10  1  0.207413  0.800499  0.557428  1
  Be  Be11  1  0.792782  0.199792  0.442295  1
  Be  Be12  1  0.442295  0.565130  0.792782  1
  Be  Be13  1  0.557428  0.434661  0.207413  1
  Be  Be14  1  0.710441  0.286949  0.936385  1
  Be  Be15  1  0.289338  0.712979  0.063785  1
  Be  Be16  1  0.063785  0.933898  0.289338  1
  Be  Be17  1  0.936385  0.066225  0.710441  1
  Be  Be18  1  0.566348  0.206049  0.792380  1
  Be  Be19  1  0.433444  0.794194  0.207899  1
  Be  Be20  1  0.792380  0.435223  0.566348  1
  Be  Be21  1  0.207899  0.564463  0.433444  1
  Be  Be22  1  0.936534  0.711207  0.292285  1
  Be  Be23  1  0.063736  0.288615  0.707429  1
  Be  Be24  1  0.292285  0.059974  0.936534  1
  Be  Be25  1  0.707429  0.940219  0.063736  1
  Cu  Cu26  1  0.805315  0.557094  0.195316  1
  Cu  Cu27  1  0.195316  0.442274  0.805315  1
