# generated using pymatgen
data_La13Nd7Si15Tc
_symmetry_space_group_name_H-M   'P 1'
_cell_length_a   8.01220560
_cell_length_b   8.00733853
_cell_length_c   15.24409700
_cell_angle_alpha   89.73764602
_cell_angle_beta   89.55781684
_cell_angle_gamma   90.16638021
_symmetry_Int_Tables_number   1
_chemical_formula_structural   La13Nd7Si15Tc
_chemical_formula_sum   'La13 Nd7 Si15 Tc1'
_cell_volume   977.96343303
_cell_formula_units_Z   1
loop_
 _symmetry_equiv_pos_site_id
 _symmetry_equiv_pos_as_xyz
  1  'x, y, z'
loop_
 _atom_site_type_symbol
 _atom_site_label
 _atom_site_symmetry_multiplicity
 _atom_site_fract_x
 _atom_site_fract_y
 _atom_site_fract_z
 _atom_site_occupancy
  La  La0  1  0.126091  0.982765  0.876107  1
  La  La1  1  0.989238  0.621704  0.053403  1
  La  La2  1  0.017496  0.385622  0.542580  1
  La  La3  1  0.626690  0.986843  0.953248  1
  La  La4  1  0.127742  0.512536  0.799263  1
  La  La5  1  0.870134  0.484438  0.301160  1
  La  La6  1  0.508999  0.123812  0.199897  1
  La  La7  1  0.494768  0.879180  0.696443  1
  La  La8  1  0.378631  0.012800  0.451020  1
  La  La9  1  0.708017  0.693555  0.497336  1
  La  La10  1  0.811864  0.188779  0.748986  1
  La  La11  1  0.181363  0.799760  0.265190  1
  La  La12  1  0.298054  0.302225  0.997827  1
  Nd  Nd13  1  0.368881  0.488594  0.377013  1
  Nd  Nd14  1  0.871679  0.013387  0.374867  1
  Nd  Nd15  1  0.983154  0.128629  0.125764  1
  Nd  Nd16  1  0.022966  0.870324  0.621622  1
  Nd  Nd17  1  0.628009  0.516922  0.874579  1
  Nd  Nd18  1  0.488997  0.376953  0.623958  1
  Nd  Nd19  1  0.511844  0.626399  0.127406  1
  Si  Si20  1  0.916109  0.291327  0.941092  1
  Si  Si21  1  0.711577  0.082888  0.558828  1
  Si  Si22  1  0.215358  0.417384  0.191617  1
  Si  Si23  1  0.792311  0.579198  0.691561  1
  Si  Si24  1  0.425731  0.214567  0.806608  1
  Si  Si25  1  0.575133  0.791050  0.308235  1
  Si  Si26  1  0.288280  0.917761  0.063039  1
  Si  Si27  1  0.833609  0.800686  0.800034  1
  Si  Si28  1  0.166391  0.200546  0.302447  1
  Si  Si29  1  0.793636  0.836536  0.196701  1
  Si  Si30  1  0.303585  0.671325  0.549130  1
  Si  Si31  1  0.695999  0.335243  0.051163  1
  Si  Si32  1  0.662020  0.298316  0.447802  1
  Si  Si33  1  0.333494  0.694849  0.953149  1
  Si  Si34  1  0.205738  0.170076  0.696230  1
  Tc  Tc35  1  0.066410  0.703022  0.434694  1
