# generated using pymatgen
data_Nd4Mn4Co15NiP12
_symmetry_space_group_name_H-M   'P 1'
_cell_length_a   3.70425400
_cell_length_b   10.46973001
_cell_length_c   11.95116901
_cell_angle_alpha   89.99529551
_cell_angle_beta   90.00000000
_cell_angle_gamma   90.00000000
_symmetry_Int_Tables_number   1
_chemical_formula_structural   Nd4Mn4Co15NiP12
_chemical_formula_sum   'Nd4 Mn4 Co15 Ni1 P12'
_cell_volume   463.49667982
_cell_formula_units_Z   1
loop_
 _symmetry_equiv_pos_site_id
 _symmetry_equiv_pos_as_xyz
  1  'x, y, z'
loop_
 _atom_site_type_symbol
 _atom_site_label
 _atom_site_symmetry_multiplicity
 _atom_site_fract_x
 _atom_site_fract_y
 _atom_site_fract_z
 _atom_site_occupancy
  Nd  Nd0  1  0.250000  0.583065  0.703589  1
  Nd  Nd1  1  0.250000  0.918248  0.203141  1
  Nd  Nd2  1  0.750000  0.418156  0.296377  1
  Nd  Nd3  1  0.750000  0.082377  0.796987  1
  Mn  Mn4  1  0.250000  0.706101  0.989737  1
  Mn  Mn5  1  0.250000  0.792913  0.488705  1
  Mn  Mn6  1  0.750000  0.291718  0.011669  1
  Mn  Mn7  1  0.750000  0.205029  0.511162  1
  Co  Co8  1  0.250000  0.094207  0.989147  1
  Co  Co9  1  0.750000  0.594765  0.510265  1
  Co  Co10  1  0.750000  0.905734  0.009693  1
  Co  Co11  1  0.250000  0.221350  0.173756  1
  Co  Co12  1  0.250000  0.279242  0.676188  1
  Co  Co13  1  0.750000  0.778398  0.823991  1
  Co  Co14  1  0.750000  0.721728  0.324936  1
  Co  Co15  1  0.250000  0.882914  0.697749  1
  Co  Co16  1  0.250000  0.617146  0.198207  1
  Co  Co17  1  0.750000  0.117099  0.301751  1
  Co  Co18  1  0.750000  0.382477  0.803212  1
  Co  Co19  1  0.250000  0.466759  0.933232  1
  Co  Co20  1  0.250000  0.033080  0.433800  1
  Co  Co21  1  0.750000  0.533310  0.066683  1
  Co  Co22  1  0.750000  0.966608  0.566979  1
  Ni  Ni23  1  0.250000  0.406930  0.489766  1
  P  P24  1  0.250000  0.419165  0.110150  1
  P  P25  1  0.250000  0.079922  0.611574  1
  P  P26  1  0.750000  0.580196  0.889115  1
  P  P27  1  0.750000  0.918830  0.389742  1
  P  P28  1  0.250000  0.274015  0.868669  1
  P  P29  1  0.250000  0.223009  0.363106  1
  P  P30  1  0.750000  0.725653  0.133689  1
  P  P31  1  0.750000  0.774259  0.631911  1
  P  P32  1  0.250000  0.607781  0.392604  1
  P  P33  1  0.250000  0.897450  0.892179  1
  P  P34  1  0.750000  0.396573  0.611082  1
  P  P35  1  0.750000  0.103792  0.105457  1
