# generated using pymatgen
data_Dy3ThZn3Si5
_symmetry_space_group_name_H-M   'P 1'
_cell_length_a   4.11453200
_cell_length_b   4.11453180
_cell_length_c   16.19694400
_cell_angle_alpha   90.00000000
_cell_angle_beta   90.00000000
_cell_angle_gamma   120.00000165
_symmetry_Int_Tables_number   1
_chemical_formula_structural   Dy3ThZn3Si5
_chemical_formula_sum   'Dy3 Th1 Zn3 Si5'
_cell_volume   237.46771434
_cell_formula_units_Z   1
loop_
 _symmetry_equiv_pos_site_id
 _symmetry_equiv_pos_as_xyz
  1  'x, y, z'
loop_
 _atom_site_type_symbol
 _atom_site_label
 _atom_site_symmetry_multiplicity
 _atom_site_fract_x
 _atom_site_fract_y
 _atom_site_fract_z
 _atom_site_occupancy
  Dy  Dy0  1  0.333333  0.666667  0.627332  1
  Dy  Dy1  1  0.333333  0.666667  0.377344  1
  Dy  Dy2  1  0.333333  0.666667  0.877818  1
  Th  Th3  1  0.333333  0.666667  0.118888  1
  Zn  Zn4  1  0.666667  0.333333  0.501419  1
  Zn  Zn5  1  0.000000  0.000000  0.253042  1
  Zn  Zn6  1  0.000000  0.000000  0.752677  1
  Si  Si7  1  0.666667  0.333333  0.255357  1
  Si  Si8  1  0.666667  0.333333  0.748147  1
  Si  Si9  1  0.000000  0.000000  0.992225  1
  Si  Si10  1  0.000000  0.000000  0.501842  1
  Si  Si11  1  0.666667  0.333333  0.993908  1
