# generated using pymatgen
data_Y8AlPd24
_symmetry_space_group_name_H-M   'P 1'
_cell_length_a   8.36332100
_cell_length_b   8.36332100
_cell_length_c   8.36332100
_cell_angle_alpha   90.00000000
_cell_angle_beta   90.00000000
_cell_angle_gamma   90.00000000
_symmetry_Int_Tables_number   1
_chemical_formula_structural   Y8AlPd24
_chemical_formula_sum   'Y8 Al1 Pd24'
_cell_volume   584.97364273
_cell_formula_units_Z   1
loop_
 _symmetry_equiv_pos_site_id
 _symmetry_equiv_pos_as_xyz
  1  'x, y, z'
loop_
 _atom_site_type_symbol
 _atom_site_label
 _atom_site_symmetry_multiplicity
 _atom_site_fract_x
 _atom_site_fract_y
 _atom_site_fract_z
 _atom_site_occupancy
  Y  Y0  1  0.251024  0.251024  0.251024  1
  Y  Y1  1  0.748976  0.748976  0.748976  1
  Y  Y2  1  0.748976  0.748976  0.251024  1
  Y  Y3  1  0.748976  0.251024  0.748976  1
  Y  Y4  1  0.251024  0.251024  0.748976  1
  Y  Y5  1  0.251024  0.748976  0.251024  1
  Y  Y6  1  0.251024  0.748976  0.748976  1
  Y  Y7  1  0.748976  0.251024  0.251024  1
  Al  Al8  1  0.000000  0.000000  0.000000  1
  Pd  Pd9  1  0.260290  0.500000  0.000000  1
  Pd  Pd10  1  0.739710  0.500000  0.000000  1
  Pd  Pd11  1  0.000000  0.260290  0.500000  1
  Pd  Pd12  1  0.500000  0.260290  0.000000  1
  Pd  Pd13  1  0.000000  0.739710  0.500000  1
  Pd  Pd14  1  0.500000  0.739710  0.000000  1
  Pd  Pd15  1  0.500000  0.000000  0.260290  1
  Pd  Pd16  1  0.260290  0.000000  0.500000  1
  Pd  Pd17  1  0.500000  0.000000  0.739710  1
  Pd  Pd18  1  0.739710  0.000000  0.500000  1
  Pd  Pd19  1  0.000000  0.500000  0.260290  1
  Pd  Pd20  1  0.000000  0.500000  0.739710  1
  Pd  Pd21  1  0.253067  0.500000  0.500000  1
  Pd  Pd22  1  0.746933  0.500000  0.500000  1
  Pd  Pd23  1  0.500000  0.253067  0.500000  1
  Pd  Pd24  1  0.500000  0.746933  0.500000  1
  Pd  Pd25  1  0.500000  0.500000  0.253067  1
  Pd  Pd26  1  0.500000  0.500000  0.746933  1
  Pd  Pd27  1  0.290499  0.000000  0.000000  1
  Pd  Pd28  1  0.709501  0.000000  0.000000  1
  Pd  Pd29  1  0.000000  0.290499  0.000000  1
  Pd  Pd30  1  0.000000  0.709501  0.000000  1
  Pd  Pd31  1  0.000000  0.000000  0.290499  1
  Pd  Pd32  1  0.000000  0.000000  0.709501  1
