# generated using pymatgen
data_LiPr8ErSi6
_symmetry_space_group_name_H-M   'P 1'
_cell_length_a   7.67072566
_cell_length_b   7.67072458
_cell_length_c   8.98207916
_cell_angle_alpha   115.27742995
_cell_angle_beta   115.27742710
_cell_angle_gamma   90.00000369
_symmetry_Int_Tables_number   1
_chemical_formula_structural   LiPr8ErSi6
_chemical_formula_sum   'Li1 Pr8 Er1 Si6'
_cell_volume   421.26222628
_cell_formula_units_Z   1
loop_
 _symmetry_equiv_pos_site_id
 _symmetry_equiv_pos_as_xyz
  1  'x, y, z'
loop_
 _atom_site_type_symbol
 _atom_site_label
 _atom_site_symmetry_multiplicity
 _atom_site_fract_x
 _atom_site_fract_y
 _atom_site_fract_z
 _atom_site_occupancy
  Li  Li0  1  0.500000  0.500000  0.000000  1
  Pr  Pr1  1  0.957933  0.816343  0.287117  1
  Pr  Pr2  1  0.329183  0.470774  0.287117  1
  Pr  Pr3  1  0.816343  0.329183  0.287117  1
  Pr  Pr4  1  0.470774  0.957933  0.287117  1
  Pr  Pr5  1  0.042067  0.183657  0.712883  1
  Pr  Pr6  1  0.670817  0.529226  0.712883  1
  Pr  Pr7  1  0.183657  0.670817  0.712883  1
  Pr  Pr8  1  0.529226  0.042067  0.712883  1
  Er  Er9  1  0.000000  0.000000  0.000000  1
  Si  Si10  1  0.767459  0.767459  0.534919  1
  Si  Si11  1  0.232541  0.232541  0.465081  1
  Si  Si12  1  0.618814  0.889251  0.000000  1
  Si  Si13  1  0.381186  0.110749  0.000000  1
  Si  Si14  1  0.889251  0.381186  0.000000  1
  Si  Si15  1  0.110749  0.618814  0.000000  1
