# generated using pymatgen
data_Pr19HoSi15Hg
_symmetry_space_group_name_H-M   'P 1'
_cell_length_a   7.94100249
_cell_length_b   7.93169784
_cell_length_c   15.29279100
_cell_angle_alpha   90.10504632
_cell_angle_beta   89.61049982
_cell_angle_gamma   89.91678447
_symmetry_Int_Tables_number   1
_chemical_formula_structural   Pr19HoSi15Hg
_chemical_formula_sum   'Pr19 Ho1 Si15 Hg1'
_cell_volume   963.20120160
_cell_formula_units_Z   1
loop_
 _symmetry_equiv_pos_site_id
 _symmetry_equiv_pos_as_xyz
  1  'x, y, z'
loop_
 _atom_site_type_symbol
 _atom_site_label
 _atom_site_symmetry_multiplicity
 _atom_site_fract_x
 _atom_site_fract_y
 _atom_site_fract_z
 _atom_site_occupancy
  Pr  Pr0  1  0.193894  0.807981  0.249093  1
  Pr  Pr1  1  0.797629  0.186979  0.752889  1
  Pr  Pr2  1  0.693474  0.690792  0.497777  1
  Pr  Pr3  1  0.374047  0.013121  0.448241  1
  Pr  Pr4  1  0.491753  0.868215  0.700030  1
  Pr  Pr5  1  0.509778  0.123423  0.196375  1
  Pr  Pr6  1  0.878851  0.488762  0.300075  1
  Pr  Pr7  1  0.120186  0.517789  0.804949  1
  Pr  Pr8  1  0.626403  0.986656  0.951655  1
  Pr  Pr9  1  0.001542  0.382993  0.547319  1
  Pr  Pr10  1  0.989577  0.625593  0.052530  1
  Pr  Pr11  1  0.130554  0.980858  0.880103  1
  Pr  Pr12  1  0.519682  0.629526  0.125980  1
  Pr  Pr13  1  0.484669  0.378255  0.626788  1
  Pr  Pr14  1  0.629156  0.520463  0.876937  1
  Pr  Pr15  1  0.374098  0.482150  0.370879  1
  Pr  Pr16  1  0.872853  0.020126  0.375197  1
  Pr  Pr17  1  0.982651  0.127132  0.123426  1
  Pr  Pr18  1  0.010050  0.860485  0.621488  1
  Ho  Ho19  1  0.310019  0.310945  0.000001  1
  Si  Si20  1  0.329848  0.690707  0.954510  1
  Si  Si21  1  0.662602  0.302949  0.450726  1
  Si  Si22  1  0.694893  0.331279  0.047998  1
  Si  Si23  1  0.306554  0.669869  0.545577  1
  Si  Si24  1  0.806636  0.831596  0.202384  1
  Si  Si25  1  0.169059  0.195970  0.296792  1
  Si  Si26  1  0.833924  0.804229  0.799357  1
  Si  Si27  1  0.288930  0.926376  0.059902  1
  Si  Si28  1  0.579757  0.788102  0.309112  1
  Si  Si29  1  0.428292  0.213455  0.820738  1
  Si  Si30  1  0.785658  0.577198  0.691965  1
  Si  Si31  1  0.215401  0.418333  0.186060  1
  Si  Si32  1  0.708785  0.079669  0.559483  1
  Si  Si33  1  0.928326  0.290373  0.941912  1
  Si  Si34  1  0.080201  0.713475  0.438305  1
  Hg  Hg35  1  0.190263  0.164179  0.693445  1
