# generated using pymatgen
data_K8MgMn7P8(O7F2)4
_symmetry_space_group_name_H-M   'P 1'
_cell_length_a   6.99333500
_cell_length_b   10.81134700
_cell_length_c   11.46570100
_cell_angle_alpha   90.00000000
_cell_angle_beta   90.00000000
_cell_angle_gamma   90.00000000
_symmetry_Int_Tables_number   1
_chemical_formula_structural   K8MgMn7P8(O7F2)4
_chemical_formula_sum   'K8 Mg1 Mn7 P8 O28 F8'
_cell_volume   866.89151355
_cell_formula_units_Z   1
loop_
 _symmetry_equiv_pos_site_id
 _symmetry_equiv_pos_as_xyz
  1  'x, y, z'
loop_
 _atom_site_type_symbol
 _atom_site_label
 _atom_site_symmetry_multiplicity
 _atom_site_fract_x
 _atom_site_fract_y
 _atom_site_fract_z
 _atom_site_occupancy
  K  K0  1  0.501623  0.562559  0.173324  1
  K  K1  1  0.999879  0.436730  0.324727  1
  K  K2  1  0.499592  0.063196  0.826938  1
  K  K3  1  0.498377  0.437441  0.826676  1
  K  K4  1  0.999463  0.936436  0.674401  1
  K  K5  1  0.000121  0.563270  0.675273  1
  K  K6  1  0.000537  0.063564  0.325599  1
  K  K7  1  0.500408  0.936804  0.173062  1
  Mg  Mg8  1  0.000000  0.500000  0.000000  1
  Mn  Mn9  1  0.499563  0.250030  0.334447  1
  Mn  Mn10  1  0.500437  0.749970  0.665553  1
  Mn  Mn11  1  0.999696  0.252633  0.836279  1
  Mn  Mn12  1  0.000000  0.000000  0.000000  1
  Mn  Mn13  1  0.000304  0.747367  0.163721  1
  Mn  Mn14  1  0.500000  0.000000  0.500000  1
  Mn  Mn15  1  0.500000  0.500000  0.500000  1
  P  P16  1  0.784755  0.748128  0.421444  1
  P  P17  1  0.215245  0.251872  0.578556  1
  P  P18  1  0.282893  0.254184  0.077006  1
  P  P19  1  0.715719  0.251907  0.078307  1
  P  P20  1  0.717107  0.745816  0.922994  1
  P  P21  1  0.784688  0.248663  0.578301  1
  P  P22  1  0.284281  0.748093  0.921693  1
  P  P23  1  0.215312  0.751337  0.421699  1
  O  O24  1  0.999886  0.749985  0.480894  1
  O  O25  1  0.775284  0.115844  0.082128  1
  O  O26  1  0.200733  0.689326  0.301739  1
  O  O27  1  0.674244  0.326550  0.487462  1
  O  O28  1  0.700660  0.311111  0.199461  1
  O  O29  1  0.824073  0.825965  0.014042  1
  O  O30  1  0.724510  0.112875  0.584334  1
  O  O31  1  0.674342  0.826296  0.512144  1
  O  O32  1  0.724822  0.612278  0.415293  1
  O  O33  1  0.500139  0.745361  0.980980  1
  O  O34  1  0.325756  0.673450  0.512538  1
  O  O35  1  0.275490  0.887125  0.415666  1
  O  O36  1  0.218062  0.388968  0.081613  1
  O  O37  1  0.172672  0.667733  0.010010  1
  O  O38  1  0.325658  0.173704  0.487856  1
  O  O39  1  0.702802  0.807641  0.802942  1
  O  O40  1  0.799267  0.310674  0.698261  1
  O  O41  1  0.000114  0.250015  0.519106  1
  O  O42  1  0.297198  0.192359  0.197058  1
  O  O43  1  0.299340  0.688889  0.800539  1
  O  O44  1  0.275178  0.387722  0.584707  1
  O  O45  1  0.201037  0.190908  0.699005  1
  O  O46  1  0.827328  0.332267  0.989990  1
  O  O47  1  0.499861  0.254639  0.019020  1
  O  O48  1  0.798963  0.809092  0.300995  1
  O  O49  1  0.781938  0.611032  0.918387  1
  O  O50  1  0.224716  0.884156  0.917872  1
  O  O51  1  0.175927  0.174035  0.985958  1
  F  F52  1  0.115995  0.927584  0.155858  1
  F  F53  1  0.383576  0.929008  0.656408  1
  F  F54  1  0.382890  0.429002  0.343861  1
  F  F55  1  0.884005  0.072416  0.844142  1
  F  F56  1  0.105859  0.435067  0.851996  1
  F  F57  1  0.616424  0.070992  0.343592  1
  F  F58  1  0.617110  0.570998  0.656139  1
  F  F59  1  0.894141  0.564933  0.148004  1
