# generated using pymatgen
data_Sr6Mn2RuO12
_symmetry_space_group_name_H-M   'P 1'
_cell_length_a   8.83180758
_cell_length_b   8.83180755
_cell_length_c   6.85500461
_cell_angle_alpha   67.27715715
_cell_angle_beta   67.27715724
_cell_angle_gamma   36.84760006
_symmetry_Int_Tables_number   1
_chemical_formula_structural   Sr6Mn2RuO12
_chemical_formula_sum   'Sr6 Mn2 Ru1 O12'
_cell_volume   292.87147281
_cell_formula_units_Z   1
loop_
 _symmetry_equiv_pos_site_id
 _symmetry_equiv_pos_as_xyz
  1  'x, y, z'
loop_
 _atom_site_type_symbol
 _atom_site_label
 _atom_site_symmetry_multiplicity
 _atom_site_fract_x
 _atom_site_fract_y
 _atom_site_fract_z
 _atom_site_occupancy
  Sr  Sr0  1  0.878500  0.878500  0.716023  1
  Sr  Sr1  1  0.216902  0.216902  0.711985  1
  Sr  Sr2  1  0.548198  0.548198  0.710295  1
  Sr  Sr3  1  0.451802  0.451802  0.289705  1
  Sr  Sr4  1  0.783098  0.783098  0.288015  1
  Sr  Sr5  1  0.121500  0.121500  0.283977  1
  Mn  Mn6  1  0.669148  0.669148  0.999794  1
  Mn  Mn7  1  0.330852  0.330852  0.000206  1
  Ru  Ru8  1  0.000000  0.000000  0.000000  1
  O  O9  1  0.946364  0.946364  0.321472  1
  O  O10  1  0.281265  0.281265  0.314531  1
  O  O11  1  0.613937  0.613937  0.314624  1
  O  O12  1  0.386063  0.386063  0.685376  1
  O  O13  1  0.718735  0.718735  0.685469  1
  O  O14  1  0.053636  0.053636  0.678528  1
  O  O15  1  0.500000  0.000000  0.000000  1
  O  O16  1  0.834375  0.330489  0.000007  1
  O  O17  1  0.165625  0.669511  0.999993  1
  O  O18  1  0.000000  0.500000  0.000000  1
  O  O19  1  0.330489  0.834375  0.000007  1
  O  O20  1  0.669511  0.165625  0.999993  1
