# generated using pymatgen
data_Cs3CaInBr6
_symmetry_space_group_name_H-M   'P 1'
_cell_length_a   9.78363171
_cell_length_b   9.78363183
_cell_length_c   9.78363175
_cell_angle_alpha   91.55537377
_cell_angle_beta   91.55537361
_cell_angle_gamma   91.55538158
_symmetry_Int_Tables_number   1
_chemical_formula_structural   Cs3CaInBr6
_chemical_formula_sum   'Cs6 Ca2 In2 Br12'
_cell_volume   935.42960637
_cell_formula_units_Z   2
loop_
 _symmetry_equiv_pos_site_id
 _symmetry_equiv_pos_as_xyz
  1  'x, y, z'
loop_
 _atom_site_type_symbol
 _atom_site_label
 _atom_site_symmetry_multiplicity
 _atom_site_fract_x
 _atom_site_fract_y
 _atom_site_fract_z
 _atom_site_occupancy
  Cs  Cs0  1  0.250000  0.625592  0.874408  1
  Cs  Cs1  1  0.874408  0.250000  0.625592  1
  Cs  Cs2  1  0.625592  0.874408  0.250000  1
  Cs  Cs3  1  0.750000  0.374408  0.125592  1
  Cs  Cs4  1  0.125592  0.750000  0.374408  1
  Cs  Cs5  1  0.374408  0.125592  0.750000  1
  Ca  Ca6  1  0.000000  0.000000  0.000000  1
  Ca  Ca7  1  0.500000  0.500000  0.500000  1
  In  In8  1  0.250000  0.250000  0.250000  1
  In  In9  1  0.750000  0.750000  0.750000  1
  Br  Br10  1  0.547942  0.213657  0.420970  1
  Br  Br11  1  0.420970  0.547942  0.213657  1
  Br  Br12  1  0.213657  0.420970  0.547942  1
  Br  Br13  1  0.952058  0.079030  0.286343  1
  Br  Br14  1  0.286343  0.952058  0.079030  1
  Br  Br15  1  0.079030  0.286343  0.952058  1
  Br  Br16  1  0.452058  0.786343  0.579030  1
  Br  Br17  1  0.579030  0.452058  0.786343  1
  Br  Br18  1  0.786343  0.579030  0.452058  1
  Br  Br19  1  0.047942  0.920970  0.713657  1
  Br  Br20  1  0.920970  0.713657  0.047942  1
  Br  Br21  1  0.713657  0.047942  0.920970  1
