# generated using pymatgen
data_Tm6InSiTc
_symmetry_space_group_name_H-M   'P 1'
_cell_length_a   8.36151450
_cell_length_b   8.36151366
_cell_length_c   8.36151400
_cell_angle_alpha   112.67864973
_cell_angle_beta   111.15297598
_cell_angle_gamma   104.68937634
_symmetry_Int_Tables_number   1
_chemical_formula_structural   Tm6InSiTc
_chemical_formula_sum   'Tm12 In2 Si2 Tc2'
_cell_volume   447.60920254
_cell_formula_units_Z   2
loop_
 _symmetry_equiv_pos_site_id
 _symmetry_equiv_pos_as_xyz
  1  'x, y, z'
loop_
 _atom_site_type_symbol
 _atom_site_label
 _atom_site_symmetry_multiplicity
 _atom_site_fract_x
 _atom_site_fract_y
 _atom_site_fract_z
 _atom_site_occupancy
  Tm  Tm0  1  0.443638  0.241705  0.201933  1
  Tm  Tm1  1  0.556362  0.758295  0.798067  1
  Tm  Tm2  1  0.039771  0.241705  0.798067  1
  Tm  Tm3  1  0.960229  0.758295  0.201933  1
  Tm  Tm4  1  0.187815  0.276101  0.463917  1
  Tm  Tm5  1  0.812185  0.723899  0.536083  1
  Tm  Tm6  1  0.187815  0.723899  0.911714  1
  Tm  Tm7  1  0.812185  0.276101  0.088286  1
  Tm  Tm8  1  0.333586  0.644273  0.310687  1
  Tm  Tm9  1  0.666414  0.355727  0.689313  1
  Tm  Tm10  1  0.333586  0.022901  0.689313  1
  Tm  Tm11  1  0.666414  0.977099  0.310687  1
  In  In12  1  0.500000  0.500000  0.000000  1
  In  In13  1  0.000000  0.000000  0.000000  1
  Si  Si14  1  0.114871  0.614871  0.500000  1
  Si  Si15  1  0.885129  0.385129  0.500000  1
  Tc  Tc16  1  0.328614  0.000000  0.328614  1
  Tc  Tc17  1  0.671386  0.000000  0.671386  1
