# generated using pymatgen
data_K9(NCl2)2
_symmetry_space_group_name_H-M   'P 1'
_cell_length_a   14.31300775
_cell_length_b   8.05072518
_cell_length_c   8.15341301
_cell_angle_alpha   119.93175653
_cell_angle_beta   56.92700691
_cell_angle_gamma   130.98106209
_symmetry_Int_Tables_number   1
_chemical_formula_structural   K9(NCl2)2
_chemical_formula_sum   'K9 N2 Cl4'
_cell_volume   579.37891047
_cell_formula_units_Z   1
loop_
 _symmetry_equiv_pos_site_id
 _symmetry_equiv_pos_as_xyz
  1  'x, y, z'
loop_
 _atom_site_type_symbol
 _atom_site_label
 _atom_site_symmetry_multiplicity
 _atom_site_fract_x
 _atom_site_fract_y
 _atom_site_fract_z
 _atom_site_occupancy
  K  K0  1  0.536291  0.425497  0.552254  1
  K  K1  1  0.893970  0.782538  0.571127  1
  K  K2  1  0.267167  0.182610  0.030924  1
  K  K3  1  0.589543  0.783085  0.982935  1
  K  K4  1  0.250881  0.738049  0.285972  1
  K  K5  1  0.187382  0.396534  0.793887  1
  K  K6  1  0.536476  0.892473  0.672655  1
  K  K7  1  0.882142  0.298832  0.607243  1
  K  K8  1  0.846823  0.735276  0.147325  1
  N  N9  1  0.370308  0.554991  0.909895  1
  N  N10  1  0.744150  0.856337  0.555624  1
  Cl  Cl11  1  0.072318  0.700174  0.135770  1
  Cl  Cl12  1  0.355856  0.581438  0.405282  1
  Cl  Cl13  1  0.082340  0.884084  0.735747  1
  Cl  Cl14  1  0.659168  0.417370  0.836596  1
