# generated using pymatgen
data_Ho3LuPt4F28
_symmetry_space_group_name_H-M   'P 1'
_cell_length_a   5.53077647
_cell_length_b   8.82424728
_cell_length_c   11.93978622
_cell_angle_alpha   62.62747236
_cell_angle_beta   89.93028109
_cell_angle_gamma   90.00944882
_symmetry_Int_Tables_number   1
_chemical_formula_structural   Ho3LuPt4F28
_chemical_formula_sum   'Ho3 Lu1 Pt4 F28'
_cell_volume   517.47622825
_cell_formula_units_Z   1
loop_
 _symmetry_equiv_pos_site_id
 _symmetry_equiv_pos_as_xyz
  1  'x, y, z'
loop_
 _atom_site_type_symbol
 _atom_site_label
 _atom_site_symmetry_multiplicity
 _atom_site_fract_x
 _atom_site_fract_y
 _atom_site_fract_z
 _atom_site_occupancy
  Ho  Ho0  1  0.261400  0.813829  0.264259  1
  Ho  Ho1  1  0.739535  0.183951  0.735573  1
  Ho  Ho2  1  0.761062  0.186023  0.235505  1
  Lu  Lu3  1  0.238060  0.814121  0.764162  1
  Pt  Pt4  1  0.759940  0.728051  0.041038  1
  Pt  Pt5  1  0.241552  0.274117  0.955913  1
  Pt  Pt6  1  0.257917  0.271069  0.457653  1
  Pt  Pt7  1  0.739276  0.728291  0.545222  1
  F  F8  1  0.938312  0.702848  0.418303  1
  F  F9  1  0.062487  0.296854  0.585435  1
  F  F10  1  0.437511  0.298171  0.084072  1
  F  F11  1  0.561485  0.702119  0.914446  1
  F  F12  1  0.467313  0.724979  0.135784  1
  F  F13  1  0.534674  0.274576  0.862600  1
  F  F14  1  0.963990  0.274667  0.364155  1
  F  F15  1  0.030582  0.726614  0.640678  1
  F  F16  1  0.951118  0.747179  0.173704  1
  F  F17  1  0.051290  0.254595  0.823571  1
  F  F18  1  0.447420  0.252810  0.324462  1
  F  F19  1  0.543664  0.748362  0.676427  1
  F  F20  1  0.776969  0.478037  0.141224  1
  F  F21  1  0.227177  0.525154  0.856643  1
  F  F22  1  0.274109  0.521561  0.358231  1
  F  F23  1  0.723786  0.477775  0.643484  1
  F  F24  1  0.939920  0.279156  0.042560  1
  F  F25  1  0.061842  0.723462  0.953491  1
  F  F26  1  0.440433  0.722009  0.457437  1
  F  F27  1  0.559884  0.276708  0.543643  1
  F  F28  1  0.744106  0.978285  0.450245  1
  F  F29  1  0.252958  0.020838  0.552099  1
  F  F30  1  0.245742  0.023931  0.049951  1
  F  F31  1  0.753726  0.978091  0.947922  1
  F  F32  1  0.585002  0.969732  0.232344  1
  F  F33  1  0.417718  0.023555  0.766813  1
  F  F34  1  0.084365  0.030034  0.267330  1
  F  F35  1  0.923680  0.968447  0.733621  1
