# generated using pymatgen
data_CsRbZr6BBr15
_symmetry_space_group_name_H-M   'P 1'
_cell_length_a   10.48672600
_cell_length_b   15.00856500
_cell_length_c   20.07414700
_cell_angle_alpha   90.00000000
_cell_angle_beta   90.00000000
_cell_angle_gamma   90.00000000
_symmetry_Int_Tables_number   1
_chemical_formula_structural   CsRbZr6BBr15
_chemical_formula_sum   'Cs4 Rb4 Zr24 B4 Br60'
_cell_volume   3159.48422505
_cell_formula_units_Z   4
loop_
 _symmetry_equiv_pos_site_id
 _symmetry_equiv_pos_as_xyz
  1  'x, y, z'
loop_
 _atom_site_type_symbol
 _atom_site_label
 _atom_site_symmetry_multiplicity
 _atom_site_fract_x
 _atom_site_fract_y
 _atom_site_fract_z
 _atom_site_occupancy
  Cs  Cs0  1  0.406347  0.500000  0.750000  1
  Cs  Cs1  1  0.593653  0.500000  0.250000  1
  Cs  Cs2  1  0.000000  0.000000  0.500000  1
  Cs  Cs3  1  0.000000  0.000000  0.000000  1
  Rb  Rb4  1  0.842170  0.251240  0.750000  1
  Rb  Rb5  1  0.157830  0.748760  0.250000  1
  Rb  Rb6  1  0.842170  0.748760  0.750000  1
  Rb  Rb7  1  0.157830  0.251240  0.250000  1
  Zr  Zr8  1  0.575111  0.000000  0.750000  1
  Zr  Zr9  1  0.424889  0.000000  0.250000  1
  Zr  Zr10  1  0.076519  0.500000  0.109439  1
  Zr  Zr11  1  0.923481  0.500000  0.890561  1
  Zr  Zr12  1  0.076519  0.500000  0.390561  1
  Zr  Zr13  1  0.923481  0.500000  0.609439  1
  Zr  Zr14  1  0.150832  0.388610  0.528229  1
  Zr  Zr15  1  0.849168  0.611390  0.471771  1
  Zr  Zr16  1  0.150832  0.611390  0.971771  1
  Zr  Zr17  1  0.849168  0.388610  0.471771  1
  Zr  Zr18  1  0.849168  0.388610  0.028229  1
  Zr  Zr19  1  0.150832  0.611390  0.528229  1
  Zr  Zr20  1  0.849168  0.611390  0.028229  1
  Zr  Zr21  1  0.150832  0.388610  0.971771  1
  Zr  Zr22  1  0.351390  0.111766  0.666392  1
  Zr  Zr23  1  0.648610  0.888234  0.333608  1
  Zr  Zr24  1  0.351390  0.888234  0.833608  1
  Zr  Zr25  1  0.648610  0.111766  0.333608  1
  Zr  Zr26  1  0.648610  0.111766  0.166392  1
  Zr  Zr27  1  0.351390  0.888234  0.666392  1
  Zr  Zr28  1  0.648610  0.888234  0.166392  1
  Zr  Zr29  1  0.351390  0.111766  0.833608  1
  Zr  Zr30  1  0.130672  0.000000  0.750000  1
  Zr  Zr31  1  0.869328  0.000000  0.250000  1
  B  B32  1  0.353613  0.000000  0.750000  1
  B  B33  1  0.646387  0.000000  0.250000  1
  B  B34  1  0.000000  0.500000  0.500000  1
  B  B35  1  0.000000  0.500000  0.000000  1
  Br  Br36  1  0.000000  0.247509  0.500000  1
  Br  Br37  1  0.000000  0.752491  0.500000  1
  Br  Br38  1  0.000000  0.752491  0.000000  1
  Br  Br39  1  0.000000  0.247509  0.000000  1
  Br  Br40  1  0.085403  0.376092  0.658499  1
  Br  Br41  1  0.914597  0.623908  0.341501  1
  Br  Br42  1  0.085403  0.623908  0.841501  1
  Br  Br43  1  0.914597  0.376092  0.341501  1
  Br  Br44  1  0.914597  0.376092  0.158499  1
  Br  Br45  1  0.085403  0.623908  0.658499  1
  Br  Br46  1  0.914597  0.623908  0.158499  1
  Br  Br47  1  0.085403  0.376092  0.841501  1
  Br  Br48  1  0.343485  0.500000  0.562984  1
  Br  Br49  1  0.656515  0.500000  0.437016  1
  Br  Br50  1  0.343485  0.500000  0.937016  1
  Br  Br51  1  0.656515  0.500000  0.062984  1
  Br  Br52  1  0.358156  0.253387  0.750000  1
  Br  Br53  1  0.641844  0.746613  0.250000  1
  Br  Br54  1  0.358156  0.746613  0.750000  1
  Br  Br55  1  0.641844  0.253387  0.250000  1
  Br  Br56  1  0.337583  0.251092  0.564728  1
  Br  Br57  1  0.662417  0.748908  0.435272  1
  Br  Br58  1  0.337583  0.748908  0.935272  1
  Br  Br59  1  0.662417  0.251092  0.435272  1
  Br  Br60  1  0.662417  0.251092  0.064728  1
  Br  Br61  1  0.337583  0.748908  0.564728  1
  Br  Br62  1  0.662417  0.748908  0.064728  1
  Br  Br63  1  0.337583  0.251092  0.935272  1
  Br  Br64  1  0.093289  0.126051  0.656076  1
  Br  Br65  1  0.906711  0.873949  0.343924  1
  Br  Br66  1  0.093289  0.873949  0.843924  1
  Br  Br67  1  0.906711  0.126051  0.343924  1
  Br  Br68  1  0.906711  0.126051  0.156076  1
  Br  Br69  1  0.093289  0.873949  0.656076  1
  Br  Br70  1  0.906711  0.873949  0.156076  1
  Br  Br71  1  0.093289  0.126051  0.843924  1
  Br  Br72  1  0.257945  0.372541  0.095000  1
  Br  Br73  1  0.742055  0.627459  0.905000  1
  Br  Br74  1  0.257945  0.627459  0.405000  1
  Br  Br75  1  0.742055  0.372541  0.905000  1
  Br  Br76  1  0.742055  0.372541  0.595000  1
  Br  Br77  1  0.257945  0.627459  0.095000  1
  Br  Br78  1  0.742055  0.627459  0.595000  1
  Br  Br79  1  0.257945  0.372541  0.405000  1
  Br  Br80  1  0.852497  0.000000  0.750000  1
  Br  Br81  1  0.147503  0.000000  0.250000  1
  Br  Br82  1  0.349696  0.000000  0.560268  1
  Br  Br83  1  0.650304  0.000000  0.439732  1
  Br  Br84  1  0.349696  0.000000  0.939732  1
  Br  Br85  1  0.650304  0.000000  0.060268  1
  Br  Br86  1  0.608642  0.126180  0.653894  1
  Br  Br87  1  0.391358  0.873820  0.346106  1
  Br  Br88  1  0.608642  0.873820  0.846106  1
  Br  Br89  1  0.391358  0.126180  0.346106  1
  Br  Br90  1  0.391358  0.126180  0.153894  1
  Br  Br91  1  0.608642  0.873820  0.653894  1
  Br  Br92  1  0.391358  0.873820  0.153894  1
  Br  Br93  1  0.608642  0.126180  0.846106  1
  Br  Br94  1  0.816642  0.500000  0.750000  1
  Br  Br95  1  0.183358  0.500000  0.250000  1
