# generated using pymatgen
data_Tb8HgPI12
_symmetry_space_group_name_H-M   'P 1'
_cell_length_a   4.23964600
_cell_length_b   14.11009163
_cell_length_c   14.88954690
_cell_angle_alpha   89.75642403
_cell_angle_beta   90.00000000
_cell_angle_gamma   90.00000000
_symmetry_Int_Tables_number   1
_chemical_formula_structural   Tb8HgPI12
_chemical_formula_sum   'Tb8 Hg1 P1 I12'
_cell_volume   890.71135153
_cell_formula_units_Z   1
loop_
 _symmetry_equiv_pos_site_id
 _symmetry_equiv_pos_as_xyz
  1  'x, y, z'
loop_
 _atom_site_type_symbol
 _atom_site_label
 _atom_site_symmetry_multiplicity
 _atom_site_fract_x
 _atom_site_fract_y
 _atom_site_fract_z
 _atom_site_occupancy
  Tb  Tb0  1  0.500000  0.120397  0.340304  1
  Tb  Tb1  1  0.500000  0.879603  0.659696  1
  Tb  Tb2  1  0.500000  0.610430  0.146984  1
  Tb  Tb3  1  0.500000  0.389570  0.853016  1
  Tb  Tb4  1  0.000000  0.119414  0.580570  1
  Tb  Tb5  1  0.000000  0.880586  0.419430  1
  Tb  Tb6  1  0.000000  0.604216  0.929935  1
  Tb  Tb7  1  0.000000  0.395784  0.070065  1
  Hg  Hg8  1  0.500000  0.000000  0.500000  1
  P  P9  1  0.500000  0.500000  0.000000  1
  I  I10  1  0.500000  0.251211  0.160265  1
  I  I11  1  0.500000  0.748789  0.839735  1
  I  I12  1  0.500000  0.742456  0.332351  1
  I  I13  1  0.500000  0.257544  0.667649  1
  I  I14  1  0.000000  0.262632  0.413833  1
  I  I15  1  0.000000  0.737368  0.586167  1
  I  I16  1  0.000000  0.754933  0.083587  1
  I  I17  1  0.000000  0.245067  0.916413  1
  I  I18  1  0.000000  0.000694  0.236397  1
  I  I19  1  0.000000  0.999306  0.763603  1
  I  I20  1  0.000000  0.499554  0.255475  1
  I  I21  1  0.000000  0.500446  0.744525  1
