# generated using pymatgen
data_Ho12Ni2BiRu3
_symmetry_space_group_name_H-M   'P 1'
_cell_length_a   8.36320834
_cell_length_b   8.36334762
_cell_length_c   8.36320880
_cell_angle_alpha   112.89251140
_cell_angle_beta   109.99249303
_cell_angle_gamma   105.61003241
_symmetry_Int_Tables_number   1
_chemical_formula_structural   Ho12Ni2BiRu3
_chemical_formula_sum   'Ho12 Ni2 Bi1 Ru3'
_cell_volume   448.47649125
_cell_formula_units_Z   1
loop_
 _symmetry_equiv_pos_site_id
 _symmetry_equiv_pos_as_xyz
  1  'x, y, z'
loop_
 _atom_site_type_symbol
 _atom_site_label
 _atom_site_symmetry_multiplicity
 _atom_site_fract_x
 _atom_site_fract_y
 _atom_site_fract_z
 _atom_site_occupancy
  Ho  Ho0  1  0.822799  0.724984  0.547780  1
  Ho  Ho1  1  0.177201  0.275016  0.452220  1
  Ho  Ho2  1  0.177205  0.724984  0.902185  1
  Ho  Ho3  1  0.822795  0.275016  0.097815  1
  Ho  Ho4  1  0.675185  0.359782  0.684597  1
  Ho  Ho5  1  0.324815  0.640218  0.315403  1
  Ho  Ho6  1  0.675126  0.990490  0.315365  1
  Ho  Ho7  1  0.324874  0.009510  0.684635  1
  Ho  Ho8  1  0.587891  0.775804  0.812095  1
  Ho  Ho9  1  0.412109  0.224196  0.187905  1
  Ho  Ho10  1  0.963710  0.775804  0.187913  1
  Ho  Ho11  1  0.036290  0.224196  0.812087  1
  Ni  Ni12  1  0.116341  0.616391  0.500050  1
  Ni  Ni13  1  0.883659  0.383609  0.499950  1
  Bi  Bi14  1  0.500000  0.500000  0.000000  1
  Ru  Ru15  1  0.662229  0.000000  0.662229  1
  Ru  Ru16  1  0.337771  0.000000  0.337771  1
  Ru  Ru17  1  0.000000  0.000000  0.000000  1
