# generated using pymatgen
data_Sr2Li3NdAu3
_symmetry_space_group_name_H-M   'P 1'
_cell_length_a   7.82778800
_cell_length_b   7.82778826
_cell_length_c   4.33460300
_cell_angle_alpha   90.00000000
_cell_angle_beta   90.00000000
_cell_angle_gamma   119.89182312
_symmetry_Int_Tables_number   1
_chemical_formula_structural   Sr2Li3NdAu3
_chemical_formula_sum   'Sr2 Li3 Nd1 Au3'
_cell_volume   230.26634111
_cell_formula_units_Z   1
loop_
 _symmetry_equiv_pos_site_id
 _symmetry_equiv_pos_as_xyz
  1  'x, y, z'
loop_
 _atom_site_type_symbol
 _atom_site_label
 _atom_site_symmetry_multiplicity
 _atom_site_fract_x
 _atom_site_fract_y
 _atom_site_fract_z
 _atom_site_occupancy
  Sr  Sr0  1  0.586002  0.998203  0.000000  1
  Sr  Sr1  1  0.998203  0.586002  0.000000  1
  Li  Li2  1  0.232116  0.009792  0.500000  1
  Li  Li3  1  0.009792  0.232116  0.500000  1
  Li  Li4  1  0.771142  0.771142  0.500000  1
  Nd  Nd5  1  0.405836  0.405836  0.000000  1
  Au  Au6  1  0.338424  0.644040  0.500000  1
  Au  Au7  1  0.644040  0.338424  0.500000  1
  Au  Au8  1  0.014446  0.014446  0.000000  1
