# generated using pymatgen
data_Zr6Zn20BPd3
_symmetry_space_group_name_H-M   'P 1'
_cell_length_a   8.75820813
_cell_length_b   8.75820707
_cell_length_c   8.75951700
_cell_angle_alpha   59.99506359
_cell_angle_beta   59.99506762
_cell_angle_gamma   60.00988300
_symmetry_Int_Tables_number   1
_chemical_formula_structural   Zr6Zn20BPd3
_chemical_formula_sum   'Zr6 Zn20 B1 Pd3'
_cell_volume   475.11162833
_cell_formula_units_Z   1
loop_
 _symmetry_equiv_pos_site_id
 _symmetry_equiv_pos_as_xyz
  1  'x, y, z'
loop_
 _atom_site_type_symbol
 _atom_site_label
 _atom_site_symmetry_multiplicity
 _atom_site_fract_x
 _atom_site_fract_y
 _atom_site_fract_z
 _atom_site_occupancy
  Zr  Zr0  1  0.692651  0.307349  0.307349  1
  Zr  Zr1  1  0.307349  0.692651  0.692651  1
  Zr  Zr2  1  0.307349  0.692651  0.307349  1
  Zr  Zr3  1  0.692651  0.307349  0.692651  1
  Zr  Zr4  1  0.304420  0.304420  0.695580  1
  Zr  Zr5  1  0.695580  0.695580  0.304420  1
  Zn  Zn6  1  0.118860  0.118860  0.123993  1
  Zn  Zn7  1  0.881140  0.881140  0.876007  1
  Zn  Zn8  1  0.118860  0.118860  0.638287  1
  Zn  Zn9  1  0.123993  0.638287  0.118860  1
  Zn  Zn10  1  0.881140  0.881140  0.361713  1
  Zn  Zn11  1  0.876007  0.361713  0.881140  1
  Zn  Zn12  1  0.638287  0.123993  0.118860  1
  Zn  Zn13  1  0.361713  0.876007  0.881140  1
  Zn  Zn14  1  0.500000  0.000000  0.000000  1
  Zn  Zn15  1  0.000000  0.500000  0.500000  1
  Zn  Zn16  1  0.000000  0.500000  0.000000  1
  Zn  Zn17  1  0.500000  0.000000  0.500000  1
  Zn  Zn18  1  0.332944  0.332944  0.335162  1
  Zn  Zn19  1  0.667056  0.667056  0.664838  1
  Zn  Zn20  1  0.332944  0.332944  0.998953  1
  Zn  Zn21  1  0.335162  0.998953  0.332944  1
  Zn  Zn22  1  0.667056  0.667056  0.001047  1
  Zn  Zn23  1  0.664838  0.001047  0.667056  1
  Zn  Zn24  1  0.998953  0.335162  0.332944  1
  Zn  Zn25  1  0.001047  0.664838  0.667056  1
  B  B26  1  0.500000  0.500000  0.500000  1
  Pd  Pd27  1  0.000000  0.000000  0.500000  1
  Pd  Pd28  1  0.500000  0.500000  0.000000  1
  Pd  Pd29  1  0.000000  0.000000  0.000000  1
