# generated using pymatgen
data_LaYb(In2Rh)2
_symmetry_space_group_name_H-M   'P 1'
_cell_length_a   5.53891603
_cell_length_b   5.53891682
_cell_length_c   8.40562600
_cell_angle_alpha   90.00000000
_cell_angle_beta   90.00000000
_cell_angle_gamma   134.48851118
_symmetry_Int_Tables_number   1
_chemical_formula_structural   LaYb(In2Rh)2
_chemical_formula_sum   'La1 Yb1 In4 Rh2'
_cell_volume   183.97012390
_cell_formula_units_Z   1
loop_
 _symmetry_equiv_pos_site_id
 _symmetry_equiv_pos_as_xyz
  1  'x, y, z'
loop_
 _atom_site_type_symbol
 _atom_site_label
 _atom_site_symmetry_multiplicity
 _atom_site_fract_x
 _atom_site_fract_y
 _atom_site_fract_z
 _atom_site_occupancy
  La  La0  1  0.065219  0.934781  0.250000  1
  Yb  Yb1  1  0.933912  0.066088  0.750000  1
  In  In2  1  0.647354  0.352646  0.555912  1
  In  In3  1  0.353067  0.646933  0.457338  1
  In  In4  1  0.647354  0.352646  0.944088  1
  In  In5  1  0.353067  0.646933  0.042662  1
  Rh  Rh6  1  0.218297  0.781703  0.750000  1
  Rh  Rh7  1  0.781731  0.218269  0.250000  1
