# generated using pymatgen
data_CaYb3Te4
_symmetry_space_group_name_H-M   'P 1'
_cell_length_a   12.74627700
_cell_length_b   4.50732200
_cell_length_c   4.50835800
_cell_angle_alpha   90.00000000
_cell_angle_beta   90.00076866
_cell_angle_gamma   90.00000000
_symmetry_Int_Tables_number   1
_chemical_formula_structural   CaYb3Te4
_chemical_formula_sum   'Ca1 Yb3 Te4'
_cell_volume   259.01226659
_cell_formula_units_Z   1
loop_
 _symmetry_equiv_pos_site_id
 _symmetry_equiv_pos_as_xyz
  1  'x, y, z'
loop_
 _atom_site_type_symbol
 _atom_site_label
 _atom_site_symmetry_multiplicity
 _atom_site_fract_x
 _atom_site_fract_y
 _atom_site_fract_z
 _atom_site_occupancy
  Ca  Ca0  1  0.624885  0.250000  0.750681  1
  Yb  Yb1  1  0.375059  0.749999  0.249313  1
  Yb  Yb2  1  0.875164  0.749999  0.250680  1
  Yb  Yb3  1  0.124892  0.250000  0.749313  1
  Te  Te4  1  0.125190  0.749999  0.249341  1
  Te  Te5  1  0.625190  0.749999  0.250649  1
  Te  Te6  1  0.374348  0.250000  0.749383  1
  Te  Te7  1  0.875271  0.250000  0.750644  1
