# generated using pymatgen
data_Sc5TcP2
_symmetry_space_group_name_H-M   'P 1'
_cell_length_a   5.79789800
_cell_length_b   7.82417643
_cell_length_c   7.82417619
_cell_angle_alpha   121.49874329
_cell_angle_beta   90.00000000
_cell_angle_gamma   90.00000000
_symmetry_Int_Tables_number   1
_chemical_formula_structural   Sc5TcP2
_chemical_formula_sum   'Sc10 Tc2 P4'
_cell_volume   302.63520737
_cell_formula_units_Z   2
loop_
 _symmetry_equiv_pos_site_id
 _symmetry_equiv_pos_as_xyz
  1  'x, y, z'
loop_
 _atom_site_type_symbol
 _atom_site_label
 _atom_site_symmetry_multiplicity
 _atom_site_fract_x
 _atom_site_fract_y
 _atom_site_fract_z
 _atom_site_occupancy
  Sc  Sc0  1  0.750000  0.754795  0.754795  1
  Sc  Sc1  1  0.250000  0.245205  0.245205  1
  Sc  Sc2  1  0.750000  0.017192  0.259351  1
  Sc  Sc3  1  0.250000  0.982808  0.740649  1
  Sc  Sc4  1  0.750000  0.259351  0.017192  1
  Sc  Sc5  1  0.250000  0.740649  0.982808  1
  Sc  Sc6  1  0.000000  0.665293  0.334707  1
  Sc  Sc7  1  0.000000  0.334707  0.665293  1
  Sc  Sc8  1  0.500000  0.334707  0.665293  1
  Sc  Sc9  1  0.500000  0.665293  0.334707  1
  Tc  Tc10  1  0.750000  0.406248  0.406248  1
  Tc  Tc11  1  0.250000  0.593752  0.593752  1
  P  P12  1  0.750000  0.009265  0.619922  1
  P  P13  1  0.250000  0.990735  0.380078  1
  P  P14  1  0.750000  0.619922  0.009265  1
  P  P15  1  0.250000  0.380078  0.990735  1
