# generated using pymatgen
data_Nd2CrFeO6
_symmetry_space_group_name_H-M   'P 1'
_cell_length_a   5.48604157
_cell_length_b   5.66492000
_cell_length_c   7.83159532
_cell_angle_alpha   89.99990618
_cell_angle_beta   90.03917392
_cell_angle_gamma   90.00013554
_symmetry_Int_Tables_number   1
_chemical_formula_structural   Nd2CrFeO6
_chemical_formula_sum   'Nd4 Cr2 Fe2 O12'
_cell_volume   243.39015765
_cell_formula_units_Z   2
loop_
 _symmetry_equiv_pos_site_id
 _symmetry_equiv_pos_as_xyz
  1  'x, y, z'
loop_
 _atom_site_type_symbol
 _atom_site_label
 _atom_site_symmetry_multiplicity
 _atom_site_fract_x
 _atom_site_fract_y
 _atom_site_fract_z
 _atom_site_occupancy
  Nd  Nd0  1  0.513466  0.555158  0.250034  1
  Nd  Nd1  1  0.986546  0.055225  0.249980  1
  Nd  Nd2  1  0.486638  0.444763  0.749993  1
  Nd  Nd3  1  0.013372  0.944828  0.750026  1
  Cr  Cr4  1  0.000067  0.500168  0.500175  1
  Cr  Cr5  1  0.499845  0.999908  0.999805  1
  Fe  Fe6  1  0.000137  0.500087  0.000028  1
  Fe  Fe7  1  0.499881  0.999933  0.499895  1
  O  O8  1  0.409428  0.974184  0.249657  1
  O  O9  1  0.090582  0.474226  0.250337  1
  O  O10  1  0.590555  0.025760  0.750214  1
  O  O11  1  0.909455  0.525801  0.749783  1
  O  O12  1  0.795933  0.795892  0.048310  1
  O  O13  1  0.704076  0.295929  0.451724  1
  O  O14  1  0.203987  0.204063  0.951716  1
  O  O15  1  0.296021  0.704103  0.548320  1
  O  O16  1  0.202976  0.205105  0.548054  1
  O  O17  1  0.297029  0.704994  0.951950  1
  O  O18  1  0.797051  0.794993  0.451957  1
  O  O19  1  0.702954  0.294880  0.048042  1
