# generated using pymatgen
data_YHo(OsO4)2
_symmetry_space_group_name_H-M   'P 1'
_cell_length_a   5.36557787
_cell_length_b   7.72616750
_cell_length_c   7.44087900
_cell_angle_alpha   79.47856608
_cell_angle_beta   91.26121005
_cell_angle_gamma   94.24354022
_symmetry_Int_Tables_number   1
_chemical_formula_structural   YHo(OsO4)2
_chemical_formula_sum   'Y2 Ho2 Os4 O16'
_cell_volume   302.43516782
_cell_formula_units_Z   2
loop_
 _symmetry_equiv_pos_site_id
 _symmetry_equiv_pos_as_xyz
  1  'x, y, z'
loop_
 _atom_site_type_symbol
 _atom_site_label
 _atom_site_symmetry_multiplicity
 _atom_site_fract_x
 _atom_site_fract_y
 _atom_site_fract_z
 _atom_site_occupancy
  Y  Y0  1  0.261139  0.113540  0.612478  1
  Y  Y1  1  0.738861  0.886460  0.387522  1
  Ho  Ho2  1  0.193383  0.169463  0.102171  1
  Ho  Ho3  1  0.806617  0.830537  0.897829  1
  Os  Os4  1  0.246340  0.661889  0.206885  1
  Os  Os5  1  0.753660  0.338111  0.793115  1
  Os  Os6  1  0.715364  0.335881  0.299789  1
  Os  Os7  1  0.284636  0.664119  0.700211  1
  O  O8  1  0.049386  0.471657  0.714419  1
  O  O9  1  0.950615  0.528343  0.285581  1
  O  O10  1  0.615280  0.327424  0.549682  1
  O  O11  1  0.384720  0.672576  0.450318  1
  O  O12  1  0.848834  0.320826  0.054205  1
  O  O13  1  0.151166  0.679174  0.945795  1
  O  O14  1  0.410678  0.441311  0.196026  1
  O  O15  1  0.589322  0.558689  0.803974  1
  O  O16  1  0.051461  0.886589  0.176355  1
  O  O17  1  0.948539  0.113411  0.823645  1
  O  O18  1  0.490581  0.111244  0.320439  1
  O  O19  1  0.509419  0.888756  0.679561  1
  O  O20  1  0.450534  0.199675  0.870899  1
  O  O21  1  0.549466  0.800325  0.129101  1
  O  O22  1  0.977942  0.163727  0.381393  1
  O  O23  1  0.022058  0.836273  0.618607  1
