# generated using pymatgen
data_Sr2ThCu7(Ni3B)2
_symmetry_space_group_name_H-M   'P 1'
_cell_length_a   5.16524100
_cell_length_b   5.16524182
_cell_length_c   11.08301400
_cell_angle_alpha   90.00000000
_cell_angle_beta   90.00000000
_cell_angle_gamma   120.00001398
_symmetry_Int_Tables_number   1
_chemical_formula_structural   Sr2ThCu7(Ni3B)2
_chemical_formula_sum   'Sr2 Th1 Cu7 Ni6 B2'
_cell_volume   256.07648527
_cell_formula_units_Z   1
loop_
 _symmetry_equiv_pos_site_id
 _symmetry_equiv_pos_as_xyz
  1  'x, y, z'
loop_
 _atom_site_type_symbol
 _atom_site_label
 _atom_site_symmetry_multiplicity
 _atom_site_fract_x
 _atom_site_fract_y
 _atom_site_fract_z
 _atom_site_occupancy
  Sr  Sr0  1  0.000000  0.000000  0.677813  1
  Sr  Sr1  1  0.000000  0.000000  0.322187  1
  Th  Th2  1  0.000000  0.000000  0.000000  1
  Cu  Cu3  1  0.500000  0.500000  0.500000  1
  Cu  Cu4  1  0.500000  0.000000  0.500000  1
  Cu  Cu5  1  0.000000  0.500000  0.500000  1
  Cu  Cu6  1  0.666667  0.333333  0.687197  1
  Cu  Cu7  1  0.333333  0.666667  0.687197  1
  Cu  Cu8  1  0.333333  0.666667  0.312803  1
  Cu  Cu9  1  0.666667  0.333333  0.312803  1
  Ni  Ni10  1  0.500000  0.500000  0.873187  1
  Ni  Ni11  1  0.500000  0.000000  0.873187  1
  Ni  Ni12  1  0.000000  0.500000  0.873187  1
  Ni  Ni13  1  0.500000  0.500000  0.126813  1
  Ni  Ni14  1  0.500000  0.000000  0.126813  1
  Ni  Ni15  1  0.000000  0.500000  0.126813  1
  B  B16  1  0.666667  0.333333  0.000000  1
  B  B17  1  0.333333  0.666667  0.000000  1
