# generated using pymatgen
data_ZrTi5(GaPt)6
_symmetry_space_group_name_H-M   'P 1'
_cell_length_a   7.03870242
_cell_length_b   7.09333207
_cell_length_c   6.84106500
_cell_angle_alpha   90.00000000
_cell_angle_beta   90.00000000
_cell_angle_gamma   120.15072820
_symmetry_Int_Tables_number   1
_chemical_formula_structural   ZrTi5(GaPt)6
_chemical_formula_sum   'Zr1 Ti5 Ga6 Pt6'
_cell_volume   295.34907589
_cell_formula_units_Z   1
loop_
 _symmetry_equiv_pos_site_id
 _symmetry_equiv_pos_as_xyz
  1  'x, y, z'
loop_
 _atom_site_type_symbol
 _atom_site_label
 _atom_site_symmetry_multiplicity
 _atom_site_fract_x
 _atom_site_fract_y
 _atom_site_fract_z
 _atom_site_occupancy
  Zr  Zr0  1  0.589184  0.972382  0.750000  1
  Ti  Ti1  1  0.383640  0.409257  0.750000  1
  Ti  Ti2  1  0.026884  0.617135  0.750000  1
  Ti  Ti3  1  0.616488  0.023550  0.250000  1
  Ti  Ti4  1  0.973082  0.591743  0.250000  1
  Ti  Ti5  1  0.406636  0.381853  0.250000  1
  Ga  Ga6  1  0.272568  0.998831  0.007181  1
  Ga  Ga7  1  0.727361  0.725068  0.002071  1
  Ga  Ga8  1  0.000885  0.275061  0.000403  1
  Ga  Ga9  1  0.727361  0.725068  0.497929  1
  Ga  Ga10  1  0.272568  0.998831  0.492819  1
  Ga  Ga11  1  0.000885  0.275061  0.499597  1
  Pt  Pt12  1  0.667156  0.338670  0.969069  1
  Pt  Pt13  1  0.007649  0.000591  0.750000  1
  Pt  Pt14  1  0.667156  0.338670  0.530931  1
  Pt  Pt15  1  0.330867  0.663579  0.459288  1
  Pt  Pt16  1  0.330867  0.663579  0.040712  1
  Pt  Pt17  1  0.998763  0.001072  0.250000  1
