# generated using pymatgen
data_HoLu9(AlSb2)2
_symmetry_space_group_name_H-M   'P 1'
_cell_length_a   8.71861280
_cell_length_b   8.72759571
_cell_length_c   6.28323800
_cell_angle_alpha   90.00000000
_cell_angle_beta   90.00000000
_cell_angle_gamma   120.19162607
_symmetry_Int_Tables_number   1
_chemical_formula_structural   HoLu9(AlSb2)2
_chemical_formula_sum   'Ho1 Lu9 Al2 Sb4'
_cell_volume   413.25137636
_cell_formula_units_Z   1
loop_
 _symmetry_equiv_pos_site_id
 _symmetry_equiv_pos_as_xyz
  1  'x, y, z'
loop_
 _atom_site_type_symbol
 _atom_site_label
 _atom_site_symmetry_multiplicity
 _atom_site_fract_x
 _atom_site_fract_y
 _atom_site_fract_z
 _atom_site_occupancy
  Ho  Ho0  1  0.241083  0.231572  0.750000  1
  Lu  Lu1  1  0.335379  0.667650  0.999871  1
  Lu  Lu2  1  0.655301  0.327604  0.500015  1
  Lu  Lu3  1  0.655301  0.327604  0.999985  1
  Lu  Lu4  1  0.335379  0.667650  0.500129  1
  Lu  Lu5  1  0.755432  0.998483  0.750000  1
  Lu  Lu6  1  0.756302  0.757653  0.250000  1
  Lu  Lu7  1  0.009326  0.242824  0.250000  1
  Lu  Lu8  1  0.009755  0.766352  0.750000  1
  Lu  Lu9  1  0.241816  0.010099  0.250000  1
  Al  Al10  1  0.397468  0.995677  0.750000  1
  Al  Al11  1  0.397045  0.400317  0.250000  1
  Sb  Sb12  1  0.997999  0.607440  0.250000  1
  Sb  Sb13  1  0.996586  0.390812  0.750000  1
  Sb  Sb14  1  0.608244  0.606636  0.750000  1
  Sb  Sb15  1  0.607586  0.001623  0.250000  1
