# generated using pymatgen
data_LaThNi7Rh3
_symmetry_space_group_name_H-M   'P 1'
_cell_length_a   4.04236100
_cell_length_b   5.08738707
_cell_length_c   8.84697270
_cell_angle_alpha   93.11164358
_cell_angle_beta   90.00000000
_cell_angle_gamma   90.00000000
_symmetry_Int_Tables_number   1
_chemical_formula_structural   LaThNi7Rh3
_chemical_formula_sum   'La1 Th1 Ni7 Rh3'
_cell_volume   181.67024158
_cell_formula_units_Z   1
loop_
 _symmetry_equiv_pos_site_id
 _symmetry_equiv_pos_as_xyz
  1  'x, y, z'
loop_
 _atom_site_type_symbol
 _atom_site_label
 _atom_site_symmetry_multiplicity
 _atom_site_fract_x
 _atom_site_fract_y
 _atom_site_fract_z
 _atom_site_occupancy
  La  La0  1  0.000000  0.000000  0.500000  1
  Th  Th1  1  0.000000  0.500000  0.000000  1
  Ni  Ni2  1  0.000000  0.478665  0.324475  1
  Ni  Ni3  1  0.000000  0.983089  0.844203  1
  Ni  Ni4  1  0.000000  0.016911  0.155797  1
  Ni  Ni5  1  0.000000  0.521335  0.675525  1
  Ni  Ni6  1  0.500000  0.000000  0.000000  1
  Ni  Ni7  1  0.500000  0.245025  0.244202  1
  Ni  Ni8  1  0.500000  0.754975  0.755798  1
  Rh  Rh9  1  0.500000  0.500000  0.500000  1
  Rh  Rh10  1  0.500000  0.746216  0.239950  1
  Rh  Rh11  1  0.500000  0.253784  0.760050  1
