# generated using pymatgen
data_Tm3ZrCdCo
_symmetry_space_group_name_H-M   'P 1'
_cell_length_a   9.27250981
_cell_length_b   9.27250922
_cell_length_c   9.27378539
_cell_angle_alpha   60.02266149
_cell_angle_beta   60.02266385
_cell_angle_gamma   60.02051093
_symmetry_Int_Tables_number   1
_chemical_formula_structural   Tm3ZrCdCo
_chemical_formula_sum   'Tm12 Zr4 Cd4 Co4'
_cell_volume   564.09548220
_cell_formula_units_Z   4
loop_
 _symmetry_equiv_pos_site_id
 _symmetry_equiv_pos_as_xyz
  1  'x, y, z'
loop_
 _atom_site_type_symbol
 _atom_site_label
 _atom_site_symmetry_multiplicity
 _atom_site_fract_x
 _atom_site_fract_y
 _atom_site_fract_z
 _atom_site_occupancy
  Tm  Tm0  1  0.809322  0.190862  0.190908  1
  Tm  Tm1  1  0.190947  0.809133  0.809019  1
  Tm  Tm2  1  0.190862  0.809322  0.190908  1
  Tm  Tm3  1  0.809133  0.190947  0.809019  1
  Tm  Tm4  1  0.190880  0.190880  0.809268  1
  Tm  Tm5  1  0.809037  0.809037  0.191014  1
  Tm  Tm6  1  0.941169  0.558831  0.558824  1
  Tm  Tm7  1  0.558872  0.941129  0.941141  1
  Tm  Tm8  1  0.558831  0.941169  0.558824  1
  Tm  Tm9  1  0.941129  0.558872  0.941141  1
  Tm  Tm10  1  0.558838  0.558838  0.941170  1
  Tm  Tm11  1  0.941175  0.941175  0.558856  1
  Zr  Zr12  1  0.343865  0.343865  0.343899  1
  Zr  Zr13  1  0.343814  0.343814  0.968390  1
  Zr  Zr14  1  0.343773  0.968436  0.343806  1
  Zr  Zr15  1  0.968436  0.343773  0.343806  1
  Cd  Cd16  1  0.580826  0.580826  0.580899  1
  Cd  Cd17  1  0.580834  0.580834  0.257461  1
  Cd  Cd18  1  0.580869  0.257478  0.580823  1
  Cd  Cd19  1  0.257478  0.580869  0.580823  1
  Co  Co20  1  0.146202  0.146202  0.146196  1
  Co  Co21  1  0.146225  0.146225  0.561277  1
  Co  Co22  1  0.146206  0.561277  0.146263  1
  Co  Co23  1  0.561277  0.146206  0.146263  1
