# generated using pymatgen
data_Yb11Cd(AgGe)12
_symmetry_space_group_name_H-M   'P 1'
_cell_length_a   4.56655200
_cell_length_b   7.83768027
_cell_length_c   21.29490859
_cell_angle_alpha   89.56617310
_cell_angle_beta   90.00000000
_cell_angle_gamma   90.00000000
_symmetry_Int_Tables_number   1
_chemical_formula_structural   Yb11Cd(AgGe)12
_chemical_formula_sum   'Yb11 Cd1 Ag12 Ge12'
_cell_volume   762.14794134
_cell_formula_units_Z   1
loop_
 _symmetry_equiv_pos_site_id
 _symmetry_equiv_pos_as_xyz
  1  'x, y, z'
loop_
 _atom_site_type_symbol
 _atom_site_label
 _atom_site_symmetry_multiplicity
 _atom_site_fract_x
 _atom_site_fract_y
 _atom_site_fract_z
 _atom_site_occupancy
  Yb  Yb0  1  0.250000  0.219151  0.999398  1
  Yb  Yb1  1  0.250000  0.279342  0.500289  1
  Yb  Yb2  1  0.750000  0.781821  0.996948  1
  Yb  Yb3  1  0.750000  0.721752  0.500131  1
  Yb  Yb4  1  0.250000  0.210015  0.333672  1
  Yb  Yb5  1  0.250000  0.298634  0.833185  1
  Yb  Yb6  1  0.750000  0.791105  0.668800  1
  Yb  Yb7  1  0.750000  0.712644  0.165818  1
  Yb  Yb8  1  0.250000  0.205582  0.668280  1
  Yb  Yb9  1  0.250000  0.288305  0.166477  1
  Yb  Yb10  1  0.750000  0.788604  0.332953  1
  Cd  Cd11  1  0.750000  0.698005  0.836701  1
  Ag  Ag12  1  0.250000  0.903300  0.765739  1
  Ag  Ag13  1  0.250000  0.586570  0.262025  1
  Ag  Ag14  1  0.750000  0.087335  0.237674  1
  Ag  Ag15  1  0.750000  0.416452  0.738762  1
  Ag  Ag16  1  0.250000  0.918889  0.903556  1
  Ag  Ag17  1  0.250000  0.580727  0.405731  1
  Ag  Ag18  1  0.750000  0.082287  0.093030  1
  Ag  Ag19  1  0.750000  0.418966  0.595813  1
  Ag  Ag20  1  0.250000  0.918456  0.564460  1
  Ag  Ag21  1  0.250000  0.585597  0.067082  1
  Ag  Ag22  1  0.750000  0.082191  0.435379  1
  Ag  Ag23  1  0.750000  0.417413  0.933609  1
  Ge  Ge24  1  0.250000  0.578797  0.724161  1
  Ge  Ge25  1  0.250000  0.917792  0.228744  1
  Ge  Ge26  1  0.750000  0.417464  0.270925  1
  Ge  Ge27  1  0.750000  0.082327  0.772672  1
  Ge  Ge28  1  0.250000  0.913519  0.102626  1
  Ge  Ge29  1  0.250000  0.588394  0.600251  1
  Ge  Ge30  1  0.750000  0.092579  0.897583  1
  Ge  Ge31  1  0.750000  0.411844  0.397114  1
  Ge  Ge32  1  0.250000  0.589953  0.930660  1
  Ge  Ge33  1  0.250000  0.909525  0.426730  1
  Ge  Ge34  1  0.750000  0.413607  0.069817  1
  Ge  Ge35  1  0.750000  0.091055  0.573204  1
