# generated using pymatgen
data_Hf4Si3AsRh4
_symmetry_space_group_name_H-M   'P 1'
_cell_length_a   3.92057700
_cell_length_b   6.54148983
_cell_length_c   7.52228522
_cell_angle_alpha   89.51478915
_cell_angle_beta   90.00000000
_cell_angle_gamma   90.00000000
_symmetry_Int_Tables_number   1
_chemical_formula_structural   Hf4Si3AsRh4
_chemical_formula_sum   'Hf4 Si3 As1 Rh4'
_cell_volume   192.91272753
_cell_formula_units_Z   1
loop_
 _symmetry_equiv_pos_site_id
 _symmetry_equiv_pos_as_xyz
  1  'x, y, z'
loop_
 _atom_site_type_symbol
 _atom_site_label
 _atom_site_symmetry_multiplicity
 _atom_site_fract_x
 _atom_site_fract_y
 _atom_site_fract_z
 _atom_site_occupancy
  Hf  Hf0  1  0.250000  0.522357  0.183267  1
  Hf  Hf1  1  0.750000  0.472428  0.814127  1
  Hf  Hf2  1  0.250000  0.023003  0.319030  1
  Hf  Hf3  1  0.750000  0.979450  0.682812  1
  Si  Si4  1  0.750000  0.230547  0.120641  1
  Si  Si5  1  0.250000  0.270392  0.616718  1
  Si  Si6  1  0.750000  0.728256  0.383043  1
  As  As7  1  0.250000  0.763927  0.877360  1
  Rh  Rh8  1  0.750000  0.855610  0.075668  1
  Rh  Rh9  1  0.250000  0.157245  0.938218  1
  Rh  Rh10  1  0.750000  0.350096  0.434138  1
  Rh  Rh11  1  0.250000  0.646689  0.554978  1
