# generated using pymatgen
data_Y4Lu3Sc(ReB6)4
_symmetry_space_group_name_H-M   'P 1'
_cell_length_a   3.63443000
_cell_length_b   9.08980800
_cell_length_c   11.47727600
_cell_angle_alpha   89.99862272
_cell_angle_beta   90.00000000
_cell_angle_gamma   90.00000000
_symmetry_Int_Tables_number   1
_chemical_formula_structural   Y4Lu3Sc(ReB6)4
_chemical_formula_sum   'Y4 Lu3 Sc1 Re4 B24'
_cell_volume   379.16639895
_cell_formula_units_Z   1
loop_
 _symmetry_equiv_pos_site_id
 _symmetry_equiv_pos_as_xyz
  1  'x, y, z'
loop_
 _atom_site_type_symbol
 _atom_site_label
 _atom_site_symmetry_multiplicity
 _atom_site_fract_x
 _atom_site_fract_y
 _atom_site_fract_z
 _atom_site_occupancy
  Y  Y0  1  0.000000  0.323146  0.414422  1
  Y  Y1  1  0.000000  0.676941  0.586574  1
  Y  Y2  1  0.000000  0.822129  0.085242  1
  Y  Y3  1  0.000000  0.177614  0.914103  1
  Lu  Lu4  1  0.000000  0.943845  0.370512  1
  Lu  Lu5  1  0.000000  0.056365  0.630459  1
  Lu  Lu6  1  0.000000  0.444352  0.127707  1
  Sc  Sc7  1  0.000000  0.556753  0.868998  1
  Re  Re8  1  0.000000  0.639543  0.319007  1
  Re  Re9  1  0.000000  0.362001  0.682520  1
  Re  Re10  1  0.000000  0.140140  0.179438  1
  Re  Re11  1  0.000000  0.857175  0.820311  1
  B  B12  1  0.500000  0.553771  0.432543  1
  B  B13  1  0.500000  0.446682  0.568323  1
  B  B14  1  0.500000  0.053399  0.067170  1
  B  B15  1  0.500000  0.944698  0.932550  1
  B  B16  1  0.500000  0.751125  0.418010  1
  B  B17  1  0.500000  0.249507  0.582827  1
  B  B18  1  0.500000  0.251561  0.081382  1
  B  B19  1  0.500000  0.745716  0.917991  1
  B  B20  1  0.500000  0.793435  0.264865  1
  B  B21  1  0.500000  0.207349  0.735829  1
  B  B22  1  0.500000  0.293837  0.234526  1
  B  B23  1  0.500000  0.704571  0.765750  1
  B  B24  1  0.500000  0.630057  0.183900  1
  B  B25  1  0.500000  0.372149  0.816805  1
  B  B26  1  0.500000  0.130506  0.315353  1
  B  B27  1  0.500000  0.868998  0.685028  1
  B  B28  1  0.500000  0.982062  0.212722  1
  B  B29  1  0.500000  0.017215  0.787764  1
  B  B30  1  0.500000  0.481740  0.286778  1
  B  B31  1  0.500000  0.519195  0.714191  1
  B  B32  1  0.500000  0.596982  0.024285  1
  B  B33  1  0.500000  0.405190  0.971319  1
  B  B34  1  0.500000  0.098405  0.473444  1
  B  B35  1  0.500000  0.901846  0.527353  1
