# generated using pymatgen
data_Lu5In4CuIr
_symmetry_space_group_name_H-M   'P 1'
_cell_length_a   3.54162100
_cell_length_b   8.00571381
_cell_length_c   17.90415790
_cell_angle_alpha   89.59441822
_cell_angle_beta   90.00000000
_cell_angle_gamma   90.00000000
_symmetry_Int_Tables_number   1
_chemical_formula_structural   Lu5In4CuIr
_chemical_formula_sum   'Lu10 In8 Cu2 Ir2'
_cell_volume   507.62752539
_cell_formula_units_Z   2
loop_
 _symmetry_equiv_pos_site_id
 _symmetry_equiv_pos_as_xyz
  1  'x, y, z'
loop_
 _atom_site_type_symbol
 _atom_site_label
 _atom_site_symmetry_multiplicity
 _atom_site_fract_x
 _atom_site_fract_y
 _atom_site_fract_z
 _atom_site_occupancy
  Lu  Lu0  1  0.000000  0.500000  0.500000  1
  Lu  Lu1  1  0.000000  0.000000  0.000000  1
  Lu  Lu2  1  0.000000  0.726942  0.278780  1
  Lu  Lu3  1  0.000000  0.273058  0.721220  1
  Lu  Lu4  1  0.000000  0.746860  0.779136  1
  Lu  Lu5  1  0.000000  0.253140  0.220864  1
  Lu  Lu6  1  0.000000  0.617782  0.085846  1
  Lu  Lu7  1  0.000000  0.382218  0.914154  1
  Lu  Lu8  1  0.000000  0.884697  0.583955  1
  Lu  Lu9  1  0.000000  0.115303  0.416045  1
  In  In10  1  0.500000  0.707731  0.932832  1
  In  In11  1  0.500000  0.292269  0.067168  1
  In  In12  1  0.500000  0.792324  0.432085  1
  In  In13  1  0.500000  0.207676  0.567915  1
  In  In14  1  0.500000  0.580837  0.646864  1
  In  In15  1  0.500000  0.419163  0.353136  1
  In  In16  1  0.500000  0.923746  0.151511  1
  In  In17  1  0.500000  0.076254  0.848489  1
  Cu  Cu18  1  0.500000  0.980277  0.696994  1
  Cu  Cu19  1  0.500000  0.019723  0.303006  1
  Ir  Ir20  1  0.500000  0.523322  0.196502  1
  Ir  Ir21  1  0.500000  0.476678  0.803498  1
