# generated using pymatgen
data_Er12Tc3Os
_symmetry_space_group_name_H-M   'P 1'
_cell_length_a   6.22624463
_cell_length_b   7.37377692
_cell_length_c   9.03949600
_cell_angle_alpha   90.00000000
_cell_angle_beta   90.00000000
_cell_angle_gamma   90.08289572
_symmetry_Int_Tables_number   1
_chemical_formula_structural   Er12Tc3Os
_chemical_formula_sum   'Er12 Tc3 Os1'
_cell_volume   415.01131511
_cell_formula_units_Z   1
loop_
 _symmetry_equiv_pos_site_id
 _symmetry_equiv_pos_as_xyz
  1  'x, y, z'
loop_
 _atom_site_type_symbol
 _atom_site_label
 _atom_site_symmetry_multiplicity
 _atom_site_fract_x
 _atom_site_fract_y
 _atom_site_fract_z
 _atom_site_occupancy
  Er  Er0  1  0.337604  0.675311  0.060891  1
  Er  Er1  1  0.160493  0.175418  0.438246  1
  Er  Er2  1  0.661770  0.325376  0.562448  1
  Er  Er3  1  0.837353  0.823614  0.937381  1
  Er  Er4  1  0.661770  0.325376  0.937552  1
  Er  Er5  1  0.837353  0.823614  0.562619  1
  Er  Er6  1  0.337604  0.675311  0.439109  1
  Er  Er7  1  0.160493  0.175418  0.061754  1
  Er  Er8  1  0.874651  0.540174  0.250000  1
  Er  Er9  1  0.626911  0.038781  0.250000  1
  Er  Er10  1  0.128138  0.459235  0.750000  1
  Er  Er11  1  0.373989  0.960036  0.750000  1
  Tc  Tc12  1  0.041718  0.883765  0.250000  1
  Tc  Tc13  1  0.460014  0.385340  0.250000  1
  Tc  Tc14  1  0.958982  0.116224  0.750000  1
  Os  Os15  1  0.541158  0.617004  0.750000  1
