# generated using pymatgen
data_Ho4Al17Ga(Ir2Pt)2
_symmetry_space_group_name_H-M   'P 1'
_cell_length_a   7.55857403
_cell_length_b   7.55857405
_cell_length_c   9.45639500
_cell_angle_alpha   89.93929970
_cell_angle_beta   89.93929356
_cell_angle_gamma   119.55707313
_symmetry_Int_Tables_number   1
_chemical_formula_structural   Ho4Al17Ga(Ir2Pt)2
_chemical_formula_sum   'Ho4 Al17 Ga1 Ir4 Pt2'
_cell_volume   469.95483257
_cell_formula_units_Z   1
loop_
 _symmetry_equiv_pos_site_id
 _symmetry_equiv_pos_as_xyz
  1  'x, y, z'
loop_
 _atom_site_type_symbol
 _atom_site_label
 _atom_site_symmetry_multiplicity
 _atom_site_fract_x
 _atom_site_fract_y
 _atom_site_fract_z
 _atom_site_occupancy
  Ho  Ho0  1  0.995014  0.672847  0.251242  1
  Ho  Ho1  1  0.004501  0.329230  0.748739  1
  Ho  Ho2  1  0.672847  0.995014  0.251242  1
  Ho  Ho3  1  0.329230  0.004501  0.748739  1
  Al  Al4  1  0.872156  0.872156  0.749527  1
  Al  Al5  1  0.000917  0.331642  0.077205  1
  Al  Al6  1  0.998826  0.668101  0.922598  1
  Al  Al7  1  0.999877  0.664853  0.574683  1
  Al  Al8  1  0.335277  0.999838  0.425664  1
  Al  Al9  1  0.999838  0.335277  0.425664  1
  Al  Al10  1  0.664853  0.999877  0.574683  1
  Al  Al11  1  0.668101  0.998826  0.922598  1
  Al  Al12  1  0.331642  0.000917  0.077205  1
  Al  Al13  1  0.332118  0.332118  0.552999  1
  Al  Al14  1  0.667282  0.667282  0.448714  1
  Al  Al15  1  0.668793  0.668793  0.058630  1
  Al  Al16  1  0.330600  0.330600  0.939571  1
  Al  Al17  1  0.339110  0.547937  0.253029  1
  Al  Al18  1  0.660234  0.452962  0.746907  1
  Al  Al19  1  0.547937  0.339110  0.253029  1
  Al  Al20  1  0.452962  0.660234  0.746907  1
  Ga  Ga21  1  0.131352  0.131352  0.250565  1
  Ir  Ir22  1  0.327657  0.671192  0.499843  1
  Ir  Ir23  1  0.671192  0.327657  0.499843  1
  Ir  Ir24  1  0.999413  0.999413  0.997686  1
  Ir  Ir25  1  0.999361  0.999361  0.502226  1
  Pt  Pt26  1  0.671520  0.327392  0.000131  1
  Pt  Pt27  1  0.327392  0.671520  0.000131  1
