# generated using pymatgen
data_K3LiSn2F12
_symmetry_space_group_name_H-M   'P 1'
_cell_length_a   5.71485800
_cell_length_b   5.71485800
_cell_length_c   20.18658200
_cell_angle_alpha   90.00000000
_cell_angle_beta   90.00000000
_cell_angle_gamma   90.00000000
_symmetry_Int_Tables_number   1
_chemical_formula_structural   K3LiSn2F12
_chemical_formula_sum   'K6 Li2 Sn4 F24'
_cell_volume   659.28573306
_cell_formula_units_Z   2
loop_
 _symmetry_equiv_pos_site_id
 _symmetry_equiv_pos_as_xyz
  1  'x, y, z'
loop_
 _atom_site_type_symbol
 _atom_site_label
 _atom_site_symmetry_multiplicity
 _atom_site_fract_x
 _atom_site_fract_y
 _atom_site_fract_z
 _atom_site_occupancy
  K  K0  1  0.000000  0.500000  0.310163  1
  K  K1  1  0.500000  0.000000  0.689837  1
  K  K2  1  0.500000  0.000000  0.189837  1
  K  K3  1  0.000000  0.500000  0.810163  1
  K  K4  1  0.000000  0.000000  0.500000  1
  K  K5  1  0.500000  0.500000  0.000000  1
  Li  Li6  1  0.000000  0.000000  0.000000  1
  Li  Li7  1  0.500000  0.500000  0.500000  1
  Sn  Sn8  1  0.000000  0.500000  0.119114  1
  Sn  Sn9  1  0.500000  0.000000  0.880886  1
  Sn  Sn10  1  0.500000  0.000000  0.380886  1
  Sn  Sn11  1  0.000000  0.500000  0.619114  1
  F  F12  1  0.201995  0.179292  0.387153  1
  F  F13  1  0.798005  0.820708  0.387153  1
  F  F14  1  0.179292  0.798005  0.612847  1
  F  F15  1  0.298005  0.679292  0.112847  1
  F  F16  1  0.820708  0.201995  0.612847  1
  F  F17  1  0.701995  0.320708  0.112847  1
  F  F18  1  0.320708  0.298005  0.887153  1
  F  F19  1  0.679292  0.701995  0.887153  1
  F  F20  1  0.128056  0.293797  0.190465  1
  F  F21  1  0.871944  0.706203  0.190465  1
  F  F22  1  0.293797  0.871944  0.809535  1
  F  F23  1  0.371944  0.793797  0.309535  1
  F  F24  1  0.706203  0.128056  0.809535  1
  F  F25  1  0.628056  0.206203  0.309535  1
  F  F26  1  0.206203  0.371944  0.690465  1
  F  F27  1  0.793797  0.628056  0.690465  1
  F  F28  1  0.117980  0.275492  0.048041  1
  F  F29  1  0.882020  0.724508  0.048041  1
  F  F30  1  0.275492  0.882020  0.951959  1
  F  F31  1  0.382020  0.775492  0.451959  1
  F  F32  1  0.724508  0.117980  0.951959  1
  F  F33  1  0.617980  0.224508  0.451959  1
  F  F34  1  0.224508  0.382020  0.548041  1
  F  F35  1  0.775492  0.617980  0.548041  1
