# generated using pymatgen
data_Pr5Sn15Ir3Rh5
_symmetry_space_group_name_H-M   'P 1'
_cell_length_a   4.54146000
_cell_length_b   7.32817131
_cell_length_c   18.79832946
_cell_angle_alpha   89.89115386
_cell_angle_beta   90.00000000
_cell_angle_gamma   90.00000000
_symmetry_Int_Tables_number   1
_chemical_formula_structural   Pr5Sn15Ir3Rh5
_chemical_formula_sum   'Pr5 Sn15 Ir3 Rh5'
_cell_volume   625.61849589
_cell_formula_units_Z   1
loop_
 _symmetry_equiv_pos_site_id
 _symmetry_equiv_pos_as_xyz
  1  'x, y, z'
loop_
 _atom_site_type_symbol
 _atom_site_label
 _atom_site_symmetry_multiplicity
 _atom_site_fract_x
 _atom_site_fract_y
 _atom_site_fract_z
 _atom_site_occupancy
  Pr  Pr0  1  0.500000  0.002050  0.856401  1
  Pr  Pr1  1  0.500000  0.501239  0.357478  1
  Pr  Pr2  1  0.000000  0.001453  0.143385  1
  Pr  Pr3  1  0.000000  0.500306  0.641096  1
  Pr  Pr4  1  0.500000  0.493496  0.930147  1
  Sn  Sn5  1  0.000000  0.717241  0.806264  1
  Sn  Sn6  1  0.000000  0.780741  0.305413  1
  Sn  Sn7  1  0.500000  0.278086  0.194280  1
  Sn  Sn8  1  0.500000  0.218303  0.693679  1
  Sn  Sn9  1  0.000000  0.854137  0.969992  1
  Sn  Sn10  1  0.000000  0.631412  0.468265  1
  Sn  Sn11  1  0.500000  0.134553  0.032585  1
  Sn  Sn12  1  0.500000  0.364905  0.530664  1
  Sn  Sn13  1  0.000000  0.304332  0.819124  1
  Sn  Sn14  1  0.000000  0.198638  0.317679  1
  Sn  Sn15  1  0.500000  0.696906  0.185812  1
  Sn  Sn16  1  0.500000  0.807629  0.679161  1
  Sn  Sn17  1  0.500000  0.019188  0.432941  1
  Sn  Sn18  1  0.000000  0.511265  0.067702  1
  Sn  Sn19  1  0.000000  0.981720  0.568060  1
  Ir  Ir20  1  0.000000  0.228994  0.965241  1
  Ir  Ir21  1  0.500000  0.764968  0.045174  1
  Ir  Ir22  1  0.500000  0.750426  0.533764  1
  Rh  Rh23  1  0.000000  0.248012  0.464507  1
  Rh  Rh24  1  0.000000  0.018276  0.715457  1
  Rh  Rh25  1  0.000000  0.483203  0.213295  1
  Rh  Rh26  1  0.500000  0.986992  0.288954  1
  Rh  Rh27  1  0.500000  0.521525  0.773483  1
