# generated using pymatgen
data_Pr4Zr3VF28
_symmetry_space_group_name_H-M   'P 1'
_cell_length_a   5.82814720
_cell_length_b   9.35914767
_cell_length_c   12.52492827
_cell_angle_alpha   62.19560529
_cell_angle_beta   90.05187980
_cell_angle_gamma   89.97022055
_symmetry_Int_Tables_number   1
_chemical_formula_structural   Pr4Zr3VF28
_chemical_formula_sum   'Pr4 Zr3 V1 F28'
_cell_volume   604.31262103
_cell_formula_units_Z   1
loop_
 _symmetry_equiv_pos_site_id
 _symmetry_equiv_pos_as_xyz
  1  'x, y, z'
loop_
 _atom_site_type_symbol
 _atom_site_label
 _atom_site_symmetry_multiplicity
 _atom_site_fract_x
 _atom_site_fract_y
 _atom_site_fract_z
 _atom_site_occupancy
  Pr  Pr0  1  0.757965  0.814045  0.764716  1
  Pr  Pr1  1  0.256903  0.189822  0.726544  1
  Pr  Pr2  1  0.242478  0.190632  0.240806  1
  Pr  Pr3  1  0.742862  0.812981  0.266274  1
  Zr  Zr4  1  0.754413  0.274059  0.956269  1
  Zr  Zr5  1  0.253940  0.726076  0.542301  1
  Zr  Zr6  1  0.245855  0.727449  0.042989  1
  V  V7  1  0.744013  0.274590  0.455869  1
  F  F8  1  0.454993  0.709107  0.919986  1
  F  F9  1  0.942080  0.285392  0.573156  1
  F  F10  1  0.542210  0.288179  0.080516  1
  F  F11  1  0.046826  0.709457  0.417903  1
  F  F12  1  0.475934  0.281719  0.542521  1
  F  F13  1  0.953552  0.720063  0.954016  1
  F  F14  1  0.546021  0.714337  0.455304  1
  F  F15  1  0.041000  0.279180  0.049880  1
  F  F16  1  0.772129  0.519919  0.860567  1
  F  F17  1  0.265045  0.481060  0.637430  1
  F  F18  1  0.225987  0.482194  0.140836  1
  F  F19  1  0.735412  0.496809  0.369352  1
  F  F20  1  0.758782  0.028414  0.056577  1
  F  F21  1  0.263805  0.970961  0.447119  1
  F  F22  1  0.238273  0.971267  0.940735  1
  F  F23  1  0.740038  0.052203  0.545686  1
  F  F24  1  0.972939  0.735511  0.635870  1
  F  F25  1  0.481851  0.268728  0.855614  1
  F  F26  1  0.003046  0.267260  0.366267  1
  F  F27  1  0.522447  0.728124  0.143162  1
  F  F28  1  0.046585  0.745681  0.170913  1
  F  F29  1  0.550133  0.258127  0.338252  1
  F  F30  1  0.959459  0.255088  0.829968  1
  F  F31  1  0.455384  0.745789  0.669119  1
  F  F32  1  0.416032  0.970090  0.236255  1
  F  F33  1  0.917707  0.029525  0.270893  1
  F  F34  1  0.584353  0.030483  0.768338  1
  F  F35  1  0.089548  0.965679  0.727998  1
