# generated using pymatgen
data_Ta9V2GeOs2
_symmetry_space_group_name_H-M   'P 1'
_cell_length_a   5.15815209
_cell_length_b   9.90662999
_cell_length_c   9.90663032
_cell_angle_alpha   86.10512365
_cell_angle_beta   74.87728192
_cell_angle_gamma   74.87729892
_symmetry_Int_Tables_number   1
_chemical_formula_structural   Ta9V2GeOs2
_chemical_formula_sum   'Ta18 V4 Ge2 Os4'
_cell_volume   471.77291819
_cell_formula_units_Z   2
loop_
 _symmetry_equiv_pos_site_id
 _symmetry_equiv_pos_as_xyz
  1  'x, y, z'
loop_
 _atom_site_type_symbol
 _atom_site_label
 _atom_site_symmetry_multiplicity
 _atom_site_fract_x
 _atom_site_fract_y
 _atom_site_fract_z
 _atom_site_occupancy
  Ta  Ta0  1  0.750000  0.499905  0.500095  1
  Ta  Ta1  1  0.250000  0.500095  0.499905  1
  Ta  Ta2  1  0.794707  0.770501  0.639611  1
  Ta  Ta3  1  0.205293  0.229499  0.360389  1
  Ta  Ta4  1  0.705293  0.360389  0.229499  1
  Ta  Ta5  1  0.294707  0.639611  0.770501  1
  Ta  Ta6  1  0.565530  0.639679  0.229624  1
  Ta  Ta7  1  0.434470  0.360321  0.770376  1
  Ta  Ta8  1  0.065530  0.229624  0.639679  1
  Ta  Ta9  1  0.934470  0.770376  0.360321  1
  Ta  Ta10  1  0.584489  0.074378  0.755561  1
  Ta  Ta11  1  0.415511  0.925622  0.244439  1
  Ta  Ta12  1  0.915511  0.244439  0.925622  1
  Ta  Ta13  1  0.084489  0.755561  0.074378  1
  Ta  Ta14  1  0.659172  0.755528  0.925628  1
  Ta  Ta15  1  0.340828  0.244472  0.074372  1
  Ta  Ta16  1  0.159172  0.925628  0.755528  1
  Ta  Ta17  1  0.840828  0.074372  0.244472  1
  V  V18  1  0.500000  0.000000  0.500000  1
  V  V19  1  0.000000  0.000000  0.500000  1
  V  V20  1  0.500000  0.500000  0.000000  1
  V  V21  1  0.000000  0.500000  0.000000  1
  Ge  Ge22  1  0.250000  0.000031  0.999969  1
  Ge  Ge23  1  0.750000  0.999969  0.000031  1
  Os  Os24  1  0.132307  0.500055  0.235341  1
  Os  Os25  1  0.867693  0.499945  0.764659  1
  Os  Os26  1  0.367693  0.764659  0.499945  1
  Os  Os27  1  0.632307  0.235341  0.500055  1
