# generated using pymatgen
data_Y11Er5(C2Cl3)4
_symmetry_space_group_name_H-M   'P 1'
_cell_length_a   3.65409800
_cell_length_b   10.47101085
_cell_length_c   19.67148356
_cell_angle_alpha   90.04583912
_cell_angle_beta   90.00000000
_cell_angle_gamma   90.00000000
_symmetry_Int_Tables_number   1
_chemical_formula_structural   Y11Er5(C2Cl3)4
_chemical_formula_sum   'Y11 Er5 C8 Cl12'
_cell_volume   752.67202606
_cell_formula_units_Z   1
loop_
 _symmetry_equiv_pos_site_id
 _symmetry_equiv_pos_as_xyz
  1  'x, y, z'
loop_
 _atom_site_type_symbol
 _atom_site_label
 _atom_site_symmetry_multiplicity
 _atom_site_fract_x
 _atom_site_fract_y
 _atom_site_fract_z
 _atom_site_occupancy
  Y  Y0  1  0.250000  0.139355  0.573477  1
  Y  Y1  1  0.250000  0.638716  0.926543  1
  Y  Y2  1  0.750000  0.860558  0.426713  1
  Y  Y3  1  0.750000  0.360411  0.073072  1
  Y  Y4  1  0.250000  0.637387  0.755796  1
  Y  Y5  1  0.250000  0.136955  0.744509  1
  Y  Y6  1  0.750000  0.363038  0.244040  1
  Y  Y7  1  0.750000  0.862679  0.255789  1
  Y  Y8  1  0.250000  0.100849  0.331666  1
  Y  Y9  1  0.250000  0.600891  0.168128  1
  Y  Y10  1  0.750000  0.899134  0.668308  1
  Er  Er11  1  0.750000  0.400126  0.830934  1
  Er  Er12  1  0.250000  0.125904  0.164946  1
  Er  Er13  1  0.250000  0.625652  0.334898  1
  Er  Er14  1  0.750000  0.874511  0.835063  1
  Er  Er15  1  0.750000  0.373823  0.665351  1
  C  C16  1  0.250000  0.863130  0.347882  1
  C  C17  1  0.250000  0.362812  0.151919  1
  C  C18  1  0.750000  0.137542  0.652475  1
  C  C19  1  0.750000  0.635148  0.847713  1
  C  C20  1  0.250000  0.388035  0.750247  1
  C  C21  1  0.250000  0.886993  0.751248  1
  C  C22  1  0.750000  0.612760  0.250928  1
  C  C23  1  0.750000  0.112634  0.248958  1
  Cl  Cl24  1  0.250000  0.376663  0.951622  1
  Cl  Cl25  1  0.250000  0.876797  0.547673  1
  Cl  Cl26  1  0.750000  0.622992  0.047400  1
  Cl  Cl27  1  0.750000  0.123169  0.452559  1
  Cl  Cl28  1  0.250000  0.889295  0.943362  1
  Cl  Cl29  1  0.250000  0.389824  0.557014  1
  Cl  Cl30  1  0.750000  0.109987  0.056516  1
  Cl  Cl31  1  0.750000  0.610259  0.443376  1
  Cl  Cl32  1  0.250000  0.362605  0.354675  1
  Cl  Cl33  1  0.250000  0.862586  0.145189  1
  Cl  Cl34  1  0.750000  0.637236  0.645232  1
  Cl  Cl35  1  0.750000  0.139543  0.854779  1
