# generated using pymatgen
data_Nd6TaP12Rh17
_symmetry_space_group_name_H-M   'P 1'
_cell_length_a   3.98149400
_cell_length_b   11.29497100
_cell_length_c   12.97014200
_cell_angle_alpha   90.00000000
_cell_angle_beta   90.00000000
_cell_angle_gamma   90.00000000
_symmetry_Int_Tables_number   1
_chemical_formula_structural   Nd6TaP12Rh17
_chemical_formula_sum   'Nd6 Ta1 P12 Rh17'
_cell_volume   583.27843055
_cell_formula_units_Z   1
loop_
 _symmetry_equiv_pos_site_id
 _symmetry_equiv_pos_as_xyz
  1  'x, y, z'
loop_
 _atom_site_type_symbol
 _atom_site_label
 _atom_site_symmetry_multiplicity
 _atom_site_fract_x
 _atom_site_fract_y
 _atom_site_fract_z
 _atom_site_occupancy
  Nd  Nd0  1  0.000000  0.500000  0.519646  1
  Nd  Nd1  1  0.500000  0.000000  0.479635  1
  Nd  Nd2  1  0.500000  0.816394  0.205891  1
  Nd  Nd3  1  0.500000  0.183606  0.205891  1
  Nd  Nd4  1  0.000000  0.682418  0.797710  1
  Nd  Nd5  1  0.000000  0.317582  0.797710  1
  Ta  Ta6  1  0.500000  0.500000  0.155733  1
  P  P7  1  0.500000  0.500000  0.878262  1
  P  P8  1  0.000000  0.000000  0.118528  1
  P  P9  1  0.500000  0.500000  0.346509  1
  P  P10  1  0.000000  0.000000  0.654166  1
  P  P11  1  0.500000  0.312288  0.617174  1
  P  P12  1  0.500000  0.687712  0.617174  1
  P  P13  1  0.000000  0.188174  0.384505  1
  P  P14  1  0.000000  0.811826  0.384505  1
  P  P15  1  0.500000  0.849729  0.890801  1
  P  P16  1  0.500000  0.150271  0.890801  1
  P  P17  1  0.000000  0.654672  0.107881  1
  P  P18  1  0.000000  0.345328  0.107881  1
  Rh  Rh19  1  0.000000  0.000000  0.833639  1
  Rh  Rh20  1  0.500000  0.500000  0.699695  1
  Rh  Rh21  1  0.000000  0.000000  0.297616  1
  Rh  Rh22  1  0.000000  0.500000  0.987255  1
  Rh  Rh23  1  0.500000  0.000000  0.017009  1
  Rh  Rh24  1  0.500000  0.332244  0.989767  1
  Rh  Rh25  1  0.500000  0.667756  0.989767  1
  Rh  Rh26  1  0.000000  0.166146  0.008474  1
  Rh  Rh27  1  0.000000  0.833854  0.008474  1
  Rh  Rh28  1  0.500000  0.290980  0.432752  1
  Rh  Rh29  1  0.500000  0.709020  0.432752  1
  Rh  Rh30  1  0.000000  0.204926  0.570574  1
  Rh  Rh31  1  0.000000  0.795074  0.570574  1
  Rh  Rh32  1  0.500000  0.875397  0.710377  1
  Rh  Rh33  1  0.500000  0.124603  0.710377  1
  Rh  Rh34  1  0.000000  0.624889  0.290247  1
  Rh  Rh35  1  0.000000  0.375111  0.290247  1
