# generated using pymatgen
data_Zr4TaNb5N12
_symmetry_space_group_name_H-M   'P 1'
_cell_length_a   5.35053965
_cell_length_b   5.35976332
_cell_length_c   10.68019700
_cell_angle_alpha   90.00000000
_cell_angle_beta   90.00000000
_cell_angle_gamma   120.05704790
_symmetry_Int_Tables_number   1
_chemical_formula_structural   Zr4TaNb5N12
_chemical_formula_sum   'Zr4 Ta1 Nb5 N12'
_cell_volume   265.09598618
_cell_formula_units_Z   1
loop_
 _symmetry_equiv_pos_site_id
 _symmetry_equiv_pos_as_xyz
  1  'x, y, z'
loop_
 _atom_site_type_symbol
 _atom_site_label
 _atom_site_symmetry_multiplicity
 _atom_site_fract_x
 _atom_site_fract_y
 _atom_site_fract_z
 _atom_site_occupancy
  Zr  Zr0  1  0.665606  0.332112  0.999915  1
  Zr  Zr1  1  0.334394  0.666507  0.999915  1
  Zr  Zr2  1  0.334394  0.666507  0.500085  1
  Zr  Zr3  1  0.665606  0.332112  0.500085  1
  Ta  Ta4  1  0.000000  0.680379  0.250000  1
  Nb  Nb5  1  0.679138  0.678917  0.750000  1
  Nb  Nb6  1  0.320862  0.999779  0.750000  1
  Nb  Nb7  1  0.000000  0.321124  0.750000  1
  Nb  Nb8  1  0.320634  0.321042  0.250000  1
  Nb  Nb9  1  0.679366  0.000409  0.250000  1
  N  N10  1  0.660339  0.656693  0.371641  1
  N  N11  1  0.339661  0.996353  0.371641  1
  N  N12  1  0.000000  0.349087  0.370910  1
  N  N13  1  0.343865  0.343662  0.627955  1
  N  N14  1  0.656135  0.999796  0.627955  1
  N  N15  1  0.000000  0.654966  0.628034  1
  N  N16  1  0.343865  0.343662  0.872045  1
  N  N17  1  0.656135  0.999796  0.872045  1
  N  N18  1  0.000000  0.654966  0.871966  1
  N  N19  1  0.660339  0.656693  0.128359  1
  N  N20  1  0.339661  0.996353  0.128359  1
  N  N21  1  0.000000  0.349087  0.129090  1
