# generated using pymatgen
data_PrNd5Al18(Re3Os4)2
_symmetry_space_group_name_H-M   'P 1'
_cell_length_a   8.94633405
_cell_length_b   8.94633364
_cell_length_c   9.67531900
_cell_angle_alpha   90.00000000
_cell_angle_beta   90.00000000
_cell_angle_gamma   119.98796176
_symmetry_Int_Tables_number   1
_chemical_formula_structural   PrNd5Al18(Re3Os4)2
_chemical_formula_sum   'Pr1 Nd5 Al18 Re6 Os8'
_cell_volume   670.71619771
_cell_formula_units_Z   1
loop_
 _symmetry_equiv_pos_site_id
 _symmetry_equiv_pos_as_xyz
  1  'x, y, z'
loop_
 _atom_site_type_symbol
 _atom_site_label
 _atom_site_symmetry_multiplicity
 _atom_site_fract_x
 _atom_site_fract_y
 _atom_site_fract_z
 _atom_site_occupancy
  Pr  Pr0  1  0.805165  0.194835  0.750000  1
  Nd  Nd1  1  0.194972  0.389936  0.250000  1
  Nd  Nd2  1  0.805005  0.610161  0.750000  1
  Nd  Nd3  1  0.610064  0.805028  0.250000  1
  Nd  Nd4  1  0.389839  0.194995  0.750000  1
  Nd  Nd5  1  0.194959  0.805041  0.250000  1
  Al  Al6  1  0.333339  0.666661  0.005398  1
  Al  Al7  1  0.666593  0.333407  0.994782  1
  Al  Al8  1  0.666593  0.333407  0.505218  1
  Al  Al9  1  0.333339  0.666661  0.494602  1
  Al  Al10  1  0.165835  0.331388  0.575499  1
  Al  Al11  1  0.834332  0.668682  0.424399  1
  Al  Al12  1  0.668612  0.834165  0.575499  1
  Al  Al13  1  0.834332  0.668682  0.075601  1
  Al  Al14  1  0.331318  0.165668  0.424399  1
  Al  Al15  1  0.165835  0.331388  0.924501  1
  Al  Al16  1  0.165659  0.834341  0.575565  1
  Al  Al17  1  0.331318  0.165668  0.075601  1
  Al  Al18  1  0.834345  0.165655  0.424247  1
  Al  Al19  1  0.668612  0.834165  0.924501  1
  Al  Al20  1  0.834345  0.165655  0.075753  1
  Al  Al21  1  0.165659  0.834341  0.924435  1
  Al  Al22  1  0.999995  0.000005  0.250000  1
  Al  Al23  1  0.000118  0.999882  0.750000  1
  Re  Re24  1  0.571788  0.143610  0.250000  1
  Re  Re25  1  0.427869  0.856096  0.750000  1
  Re  Re26  1  0.856390  0.428212  0.250000  1
  Re  Re27  1  0.143904  0.572131  0.750000  1
  Re  Re28  1  0.571825  0.428175  0.250000  1
  Re  Re29  1  0.428189  0.571811  0.750000  1
  Os  Os30  1  0.499785  0.999893  0.000201  1
  Os  Os31  1  0.000107  0.500215  0.000201  1
  Os  Os32  1  0.499785  0.999893  0.499799  1
  Os  Os33  1  0.499994  0.500006  0.000028  1
  Os  Os34  1  0.000107  0.500215  0.499799  1
  Os  Os35  1  0.499994  0.500006  0.499972  1
  Os  Os36  1  0.000041  0.999959  0.000038  1
  Os  Os37  1  0.000041  0.999959  0.499962  1
