# generated using pymatgen
data_Cr2Ru5Pt
_symmetry_space_group_name_H-M   'P 1'
_cell_length_a   5.43827800
_cell_length_b   5.41663791
_cell_length_c   4.26727600
_cell_angle_alpha   90.00000000
_cell_angle_beta   90.00000000
_cell_angle_gamma   120.13223332
_symmetry_Int_Tables_number   1
_chemical_formula_structural   Cr2Ru5Pt
_chemical_formula_sum   'Cr2 Ru5 Pt1'
_cell_volume   108.71572000
_cell_formula_units_Z   1
loop_
 _symmetry_equiv_pos_site_id
 _symmetry_equiv_pos_as_xyz
  1  'x, y, z'
loop_
 _atom_site_type_symbol
 _atom_site_label
 _atom_site_symmetry_multiplicity
 _atom_site_fract_x
 _atom_site_fract_y
 _atom_site_fract_z
 _atom_site_occupancy
  Cr  Cr0  1  0.339588  0.679176  0.750000  1
  Cr  Cr1  1  0.662608  0.325215  0.250000  1
  Ru  Ru2  1  0.659932  0.833959  0.250000  1
  Ru  Ru3  1  0.174026  0.833959  0.250000  1
  Ru  Ru4  1  0.830508  0.661015  0.750000  1
  Ru  Ru5  1  0.340696  0.164857  0.750000  1
  Ru  Ru6  1  0.824162  0.164857  0.750000  1
  Pt  Pt7  1  0.168482  0.336964  0.250000  1
