# generated using pymatgen
data_K2InSn5Au6
_symmetry_space_group_name_H-M   'P 1'
_cell_length_a   4.74178000
_cell_length_b   7.89723800
_cell_length_c   9.50028500
_cell_angle_alpha   90.00000000
_cell_angle_beta   90.00000000
_cell_angle_gamma   90.00000000
_symmetry_Int_Tables_number   1
_chemical_formula_structural   K2InSn5Au6
_chemical_formula_sum   'K2 In1 Sn5 Au6'
_cell_volume   355.75684182
_cell_formula_units_Z   1
loop_
 _symmetry_equiv_pos_site_id
 _symmetry_equiv_pos_as_xyz
  1  'x, y, z'
loop_
 _atom_site_type_symbol
 _atom_site_label
 _atom_site_symmetry_multiplicity
 _atom_site_fract_x
 _atom_site_fract_y
 _atom_site_fract_z
 _atom_site_occupancy
  K  K0  1  0.000000  0.500000  0.261062  1
  K  K1  1  0.500000  0.000000  0.738719  1
  In  In2  1  0.000000  0.000000  0.383686  1
  Sn  Sn3  1  0.500000  0.200805  0.121672  1
  Sn  Sn4  1  0.500000  0.799195  0.121672  1
  Sn  Sn5  1  0.000000  0.701116  0.879505  1
  Sn  Sn6  1  0.000000  0.298884  0.879505  1
  Sn  Sn7  1  0.500000  0.500000  0.617653  1
  Au  Au8  1  0.500000  0.787701  0.417656  1
  Au  Au9  1  0.000000  0.000000  0.069849  1
  Au  Au10  1  0.500000  0.500000  0.928492  1
  Au  Au11  1  0.000000  0.712985  0.581437  1
  Au  Au12  1  0.000000  0.287015  0.581437  1
  Au  Au13  1  0.500000  0.212299  0.417656  1
