# generated using pymatgen
data_Ac5Sc(InPt)6
_symmetry_space_group_name_H-M   'P 1'
_cell_length_a   7.85067000
_cell_length_b   7.77975582
_cell_length_c   8.52439200
_cell_angle_alpha   90.00000000
_cell_angle_beta   90.00000000
_cell_angle_gamma   119.87293788
_symmetry_Int_Tables_number   1
_chemical_formula_structural   Ac5Sc(InPt)6
_chemical_formula_sum   'Ac5 Sc1 In6 Pt6'
_cell_volume   451.46216999
_cell_formula_units_Z   1
loop_
 _symmetry_equiv_pos_site_id
 _symmetry_equiv_pos_as_xyz
  1  'x, y, z'
loop_
 _atom_site_type_symbol
 _atom_site_label
 _atom_site_symmetry_multiplicity
 _atom_site_fract_x
 _atom_site_fract_y
 _atom_site_fract_z
 _atom_site_occupancy
  Ac  Ac0  1  0.410006  0.000222  0.250000  1
  Ac  Ac1  1  0.590307  0.588761  0.250000  1
  Ac  Ac2  1  0.999939  0.416372  0.250000  1
  Ac  Ac3  1  0.416084  0.001080  0.750000  1
  Ac  Ac4  1  0.582909  0.584544  0.750000  1
  Sc  Sc5  1  0.996845  0.399859  0.750000  1
  In  In6  1  0.237672  0.245776  0.997924  1
  In  In7  1  0.000493  0.750940  0.983578  1
  In  In8  1  0.000493  0.750940  0.516422  1
  In  In9  1  0.759510  0.005137  0.501386  1
  In  In10  1  0.237672  0.245776  0.502076  1
  In  In11  1  0.759510  0.005137  0.998614  1
  Pt  Pt12  1  0.998876  0.019635  0.750000  1
  Pt  Pt13  1  0.999746  0.997401  0.250000  1
  Pt  Pt14  1  0.687611  0.338708  0.985771  1
  Pt  Pt15  1  0.317358  0.655504  0.511016  1
  Pt  Pt16  1  0.317358  0.655504  0.988984  1
  Pt  Pt17  1  0.687611  0.338708  0.514229  1
