# generated using pymatgen
data_La17Au36
_symmetry_space_group_name_H-M   'P 1'
_cell_length_a   16.12513400
_cell_length_b   16.12513400
_cell_length_c   9.46540700
_cell_angle_alpha   90.00000000
_cell_angle_beta   90.00000000
_cell_angle_gamma   90.00000000
_symmetry_Int_Tables_number   1
_chemical_formula_structural   La17Au36
_chemical_formula_sum   'La34 Au72'
_cell_volume   2461.19462191
_cell_formula_units_Z   2
loop_
 _symmetry_equiv_pos_site_id
 _symmetry_equiv_pos_as_xyz
  1  'x, y, z'
loop_
 _atom_site_type_symbol
 _atom_site_label
 _atom_site_symmetry_multiplicity
 _atom_site_fract_x
 _atom_site_fract_y
 _atom_site_fract_z
 _atom_site_occupancy
  La  La0  1  0.247604  0.500000  0.116762  1
  La  La1  1  0.670011  0.829989  0.384912  1
  La  La2  1  0.159454  0.000000  0.415793  1
  La  La3  1  0.000000  0.500000  0.706744  1
  La  La4  1  0.670011  0.170011  0.384912  1
  La  La5  1  0.747604  0.000000  0.883238  1
  La  La6  1  0.500000  0.659454  0.415793  1
  La  La7  1  0.840546  0.000000  0.415793  1
  La  La8  1  0.500000  0.752396  0.883238  1
  La  La9  1  0.500000  0.000000  0.293256  1
  La  La10  1  0.000000  0.500000  0.214117  1
  La  La11  1  0.000000  0.747604  0.116762  1
  La  La12  1  0.829989  0.670011  0.615088  1
  La  La13  1  0.000000  0.252396  0.116762  1
  La  La14  1  0.329989  0.170011  0.384912  1
  La  La15  1  0.329989  0.829989  0.384912  1
  La  La16  1  0.000000  0.000000  0.000000  1
  La  La17  1  0.752396  0.500000  0.116762  1
  La  La18  1  0.829989  0.329989  0.615088  1
  La  La19  1  0.500000  0.247604  0.883238  1
  La  La20  1  0.750000  0.750000  0.000000  1
  La  La21  1  0.659454  0.500000  0.584207  1
  La  La22  1  0.500000  0.340546  0.415793  1
  La  La23  1  0.170011  0.670011  0.615088  1
  La  La24  1  0.500000  0.500000  0.000000  1
  La  La25  1  0.000000  0.159454  0.584207  1
  La  La26  1  0.170011  0.329989  0.615088  1
  La  La27  1  0.750000  0.250000  0.000000  1
  La  La28  1  0.500000  0.000000  0.785883  1
  La  La29  1  0.340546  0.500000  0.584207  1
  La  La30  1  0.250000  0.750000  0.000000  1
  La  La31  1  0.250000  0.250000  0.000000  1
  La  La32  1  0.000000  0.840546  0.584207  1
  La  La33  1  0.252396  0.000000  0.883238  1
  Au  Au34  1  0.103134  0.396866  0.968763  1
  Au  Au35  1  0.799398  0.860935  0.633587  1
  Au  Au36  1  0.404045  0.338650  0.126588  1
  Au  Au37  1  0.095955  0.838650  0.873412  1
  Au  Au38  1  0.299398  0.639065  0.366413  1
  Au  Au39  1  0.308214  0.000000  0.223562  1
  Au  Au40  1  0.000000  0.691786  0.776438  1
  Au  Au41  1  0.000000  0.648135  0.463923  1
  Au  Au42  1  0.500000  0.808214  0.223562  1
  Au  Au43  1  0.838650  0.095955  0.126588  1
  Au  Au44  1  0.338650  0.595955  0.873412  1
  Au  Au45  1  0.200602  0.860935  0.633587  1
  Au  Au46  1  0.338650  0.404045  0.873412  1
  Au  Au47  1  0.404045  0.661350  0.126588  1
  Au  Au48  1  0.103134  0.603134  0.968763  1
  Au  Au49  1  0.088135  0.000000  0.710361  1
  Au  Au50  1  0.000000  0.351865  0.463923  1
  Au  Au51  1  0.595955  0.661350  0.126588  1
  Au  Au52  1  0.661350  0.404045  0.873412  1
  Au  Au53  1  0.661350  0.595955  0.873412  1
  Au  Au54  1  0.904045  0.838650  0.873412  1
  Au  Au55  1  0.000000  0.308214  0.776438  1
  Au  Au56  1  0.904045  0.161350  0.873412  1
  Au  Au57  1  0.911865  0.000000  0.710361  1
  Au  Au58  1  0.139065  0.200602  0.366413  1
  Au  Au59  1  0.896866  0.603134  0.968763  1
  Au  Au60  1  0.161350  0.904045  0.126588  1
  Au  Au61  1  0.860935  0.799398  0.366413  1
  Au  Au62  1  0.700602  0.639065  0.366413  1
  Au  Au63  1  0.595955  0.338650  0.126588  1
  Au  Au64  1  0.691786  0.000000  0.223562  1
  Au  Au65  1  0.500000  0.411865  0.710361  1
  Au  Au66  1  0.200602  0.139065  0.633587  1
  Au  Au67  1  0.838650  0.904045  0.126588  1
  Au  Au68  1  0.299398  0.360935  0.366413  1
  Au  Au69  1  0.500000  0.191786  0.223562  1
  Au  Au70  1  0.603134  0.103134  0.031237  1
  Au  Au71  1  0.639065  0.700602  0.633587  1
  Au  Au72  1  0.411865  0.500000  0.289639  1
  Au  Au73  1  0.639065  0.299398  0.633587  1
  Au  Au74  1  0.095955  0.161350  0.873412  1
  Au  Au75  1  0.799398  0.139065  0.633587  1
  Au  Au76  1  0.361975  0.138025  0.744297  1
  Au  Au77  1  0.808214  0.500000  0.776438  1
  Au  Au78  1  0.896866  0.396866  0.968763  1
  Au  Au79  1  0.000000  0.911865  0.289639  1
  Au  Au80  1  0.603134  0.896866  0.031237  1
  Au  Au81  1  0.500000  0.851865  0.536077  1
  Au  Au82  1  0.361975  0.861975  0.744297  1
  Au  Au83  1  0.351865  0.000000  0.536077  1
  Au  Au84  1  0.360935  0.700602  0.633587  1
  Au  Au85  1  0.148135  0.500000  0.463923  1
  Au  Au86  1  0.588135  0.500000  0.289639  1
  Au  Au87  1  0.860935  0.200602  0.366413  1
  Au  Au88  1  0.500000  0.588135  0.710361  1
  Au  Au89  1  0.851865  0.500000  0.463923  1
  Au  Au90  1  0.138025  0.638025  0.255703  1
  Au  Au91  1  0.648135  0.000000  0.536077  1
  Au  Au92  1  0.638025  0.861975  0.744297  1
  Au  Au93  1  0.396866  0.896866  0.031237  1
  Au  Au94  1  0.139065  0.799398  0.366413  1
  Au  Au95  1  0.861975  0.361975  0.255703  1
  Au  Au96  1  0.191786  0.500000  0.776438  1
  Au  Au97  1  0.161350  0.095955  0.126588  1
  Au  Au98  1  0.638025  0.138025  0.744297  1
  Au  Au99  1  0.000000  0.088135  0.289639  1
  Au  Au100  1  0.138025  0.361975  0.255703  1
  Au  Au101  1  0.360935  0.299398  0.633587  1
  Au  Au102  1  0.861975  0.638025  0.255703  1
  Au  Au103  1  0.396866  0.103134  0.031237  1
  Au  Au104  1  0.500000  0.148135  0.536077  1
  Au  Au105  1  0.700602  0.360935  0.366413  1
