# generated using pymatgen
data_HoTm2Co7(P3Ir)2
_symmetry_space_group_name_H-M   'P 1'
_cell_length_a   3.71403500
_cell_length_b   10.61057600
_cell_length_c   12.35426100
_cell_angle_alpha   90.00000000
_cell_angle_beta   90.00000000
_cell_angle_gamma   90.00000000
_symmetry_Int_Tables_number   1
_chemical_formula_structural   HoTm2Co7(P3Ir)2
_chemical_formula_sum   'Ho2 Tm4 Co14 P12 Ir4'
_cell_volume   486.85734304
_cell_formula_units_Z   2
loop_
 _symmetry_equiv_pos_site_id
 _symmetry_equiv_pos_as_xyz
  1  'x, y, z'
loop_
 _atom_site_type_symbol
 _atom_site_label
 _atom_site_symmetry_multiplicity
 _atom_site_fract_x
 _atom_site_fract_y
 _atom_site_fract_z
 _atom_site_occupancy
  Ho  Ho0  1  0.000000  0.500000  0.520374  1
  Ho  Ho1  1  0.500000  0.000000  0.479626  1
  Tm  Tm2  1  0.500000  0.813502  0.206010  1
  Tm  Tm3  1  0.500000  0.186498  0.206010  1
  Tm  Tm4  1  0.000000  0.686498  0.793990  1
  Tm  Tm5  1  0.000000  0.313502  0.793990  1
  Co  Co6  1  0.000000  0.500000  0.988356  1
  Co  Co7  1  0.500000  0.000000  0.011644  1
  Co  Co8  1  0.500000  0.332199  0.993222  1
  Co  Co9  1  0.500000  0.667801  0.993222  1
  Co  Co10  1  0.000000  0.167801  0.006778  1
  Co  Co11  1  0.000000  0.832199  0.006778  1
  Co  Co12  1  0.500000  0.299812  0.428887  1
  Co  Co13  1  0.500000  0.700188  0.428887  1
  Co  Co14  1  0.000000  0.200188  0.571113  1
  Co  Co15  1  0.000000  0.799812  0.571113  1
  Co  Co16  1  0.500000  0.880032  0.710988  1
  Co  Co17  1  0.500000  0.119968  0.710988  1
  Co  Co18  1  0.000000  0.619968  0.289012  1
  Co  Co19  1  0.000000  0.380032  0.289012  1
  P  P20  1  0.500000  0.500000  0.889383  1
  P  P21  1  0.000000  0.000000  0.110617  1
  P  P22  1  0.500000  0.500000  0.351215  1
  P  P23  1  0.000000  0.000000  0.648785  1
  P  P24  1  0.500000  0.302763  0.613704  1
  P  P25  1  0.500000  0.697237  0.613704  1
  P  P26  1  0.000000  0.197237  0.386296  1
  P  P27  1  0.000000  0.802763  0.386296  1
  P  P28  1  0.500000  0.844211  0.893905  1
  P  P29  1  0.500000  0.155789  0.893905  1
  P  P30  1  0.000000  0.655789  0.106095  1
  P  P31  1  0.000000  0.344211  0.106095  1
  Ir  Ir32  1  0.500000  0.500000  0.161042  1
  Ir  Ir33  1  0.000000  0.000000  0.838958  1
  Ir  Ir34  1  0.500000  0.500000  0.703959  1
  Ir  Ir35  1  0.000000  0.000000  0.296041  1
