# generated using pymatgen
data_SmYPt10
_symmetry_space_group_name_H-M   'P 1'
_cell_length_a   4.46481700
_cell_length_b   5.37803600
_cell_length_c   9.29950600
_cell_angle_alpha   89.99998935
_cell_angle_beta   90.00000000
_cell_angle_gamma   90.00000000
_symmetry_Int_Tables_number   1
_chemical_formula_structural   SmYPt10
_chemical_formula_sum   'Sm1 Y1 Pt10'
_cell_volume   223.29924110
_cell_formula_units_Z   1
loop_
 _symmetry_equiv_pos_site_id
 _symmetry_equiv_pos_as_xyz
  1  'x, y, z'
loop_
 _atom_site_type_symbol
 _atom_site_label
 _atom_site_symmetry_multiplicity
 _atom_site_fract_x
 _atom_site_fract_y
 _atom_site_fract_z
 _atom_site_occupancy
  Sm  Sm0  1  0.000000  0.999981  0.000000  1
  Y  Y1  1  0.000000  0.499975  0.500000  1
  Pt  Pt2  1  0.000000  0.999969  0.334075  1
  Pt  Pt3  1  0.000000  0.499973  0.831906  1
  Pt  Pt4  1  0.000000  0.499973  0.168094  1
  Pt  Pt5  1  0.000000  0.999969  0.665925  1
  Pt  Pt6  1  0.500000  0.999998  0.500000  1
  Pt  Pt7  1  0.500000  0.500001  0.000000  1
  Pt  Pt8  1  0.500000  0.250762  0.251316  1
  Pt  Pt9  1  0.500000  0.749218  0.748689  1
  Pt  Pt10  1  0.500000  0.749218  0.251311  1
  Pt  Pt11  1  0.500000  0.250762  0.748684  1
