# generated using pymatgen
data_LuPa3(Co3Si5)2
_symmetry_space_group_name_H-M   'P 1'
_cell_length_a   7.83301780
_cell_length_b   7.85554668
_cell_length_c   7.85554695
_cell_angle_alpha   138.18650295
_cell_angle_beta   104.37324261
_cell_angle_gamma   90.41116179
_symmetry_Int_Tables_number   1
_chemical_formula_structural   LuPa3(Co3Si5)2
_chemical_formula_sum   'Lu1 Pa3 Co6 Si10'
_cell_volume   298.03782868
_cell_formula_units_Z   1
loop_
 _symmetry_equiv_pos_site_id
 _symmetry_equiv_pos_as_xyz
  1  'x, y, z'
loop_
 _atom_site_type_symbol
 _atom_site_label
 _atom_site_symmetry_multiplicity
 _atom_site_fract_x
 _atom_site_fract_y
 _atom_site_fract_z
 _atom_site_occupancy
  Lu  Lu0  1  0.602108  0.868039  0.734069  1
  Pa  Pa1  1  0.865674  0.631223  0.234451  1
  Pa  Pa2  1  0.132128  0.367148  0.764980  1
  Pa  Pa3  1  0.400742  0.134234  0.266508  1
  Co  Co4  1  0.001826  0.747570  0.747819  1
  Co  Co5  1  0.001826  0.254006  0.254256  1
  Co  Co6  1  0.240982  0.860262  0.380719  1
  Co  Co7  1  0.757325  0.139451  0.617875  1
  Co  Co8  1  0.479895  0.363684  0.116211  1
  Co  Co9  1  0.519219  0.635536  0.883683  1
  Si  Si10  1  0.499578  0.752676  0.254613  1
  Si  Si11  1  0.499578  0.244965  0.746902  1
  Si  Si12  1  0.234249  0.984550  0.751516  1
  Si  Si13  1  0.766937  0.520091  0.750849  1
  Si  Si14  1  0.766937  0.016087  0.246846  1
  Si  Si15  1  0.234249  0.482734  0.249699  1
  Si  Si16  1  0.045059  0.895454  0.149605  1
  Si  Si17  1  0.951374  0.101939  0.849434  1
  Si  Si18  1  0.741859  0.393481  0.348378  1
  Si  Si19  1  0.258457  0.606870  0.651587  1
