# generated using pymatgen
data_Zr6Zn19Rh4S
_symmetry_space_group_name_H-M   'P 1'
_cell_length_a   8.73127529
_cell_length_b   8.70303651
_cell_length_c   8.70297530
_cell_angle_alpha   60.11606605
_cell_angle_beta   59.92410961
_cell_angle_gamma   59.92390750
_symmetry_Int_Tables_number   1
_chemical_formula_structural   Zr6Zn19Rh4S
_chemical_formula_sum   'Zr6 Zn19 Rh4 S1'
_cell_volume   467.49833750
_cell_formula_units_Z   1
loop_
 _symmetry_equiv_pos_site_id
 _symmetry_equiv_pos_as_xyz
  1  'x, y, z'
loop_
 _atom_site_type_symbol
 _atom_site_label
 _atom_site_symmetry_multiplicity
 _atom_site_fract_x
 _atom_site_fract_y
 _atom_site_fract_z
 _atom_site_occupancy
  Zr  Zr0  1  0.716292  0.293546  0.293546  1
  Zr  Zr1  1  0.272168  0.718778  0.718777  1
  Zr  Zr2  1  0.289985  0.710307  0.288101  1
  Zr  Zr3  1  0.722204  0.278621  0.702981  1
  Zr  Zr4  1  0.289985  0.288100  0.710308  1
  Zr  Zr5  1  0.722204  0.702982  0.278621  1
  Zn  Zn6  1  0.885976  0.879923  0.355059  1
  Zn  Zn7  1  0.885976  0.355056  0.879923  1
  Zn  Zn8  1  0.639285  0.117011  0.117008  1
  Zn  Zn9  1  0.353087  0.882063  0.882065  1
  Zn  Zn10  1  0.495039  0.001510  0.001511  1
  Zn  Zn11  1  0.998331  0.502122  0.502120  1
  Zn  Zn12  1  0.999542  0.499378  0.001034  1
  Zn  Zn13  1  0.503986  0.000206  0.496282  1
  Zn  Zn14  1  0.999543  0.001033  0.499379  1
  Zn  Zn15  1  0.503985  0.496282  0.000207  1
  Zn  Zn16  1  0.329363  0.333279  0.333277  1
  Zn  Zn17  1  0.664698  0.666878  0.666879  1
  Zn  Zn18  1  0.326154  0.335271  0.006163  1
  Zn  Zn19  1  0.326152  0.006168  0.335270  1
  Zn  Zn20  1  0.670167  0.671042  0.991434  1
  Zn  Zn21  1  0.670166  0.991435  0.671043  1
  Zn  Zn22  1  0.014951  0.328686  0.328686  1
  Zn  Zn23  1  0.992455  0.672313  0.672314  1
  Zn  Zn24  1  0.996331  0.999342  0.999343  1
  Rh  Rh25  1  0.119257  0.116329  0.116326  1
  Rh  Rh26  1  0.872458  0.883148  0.883146  1
  Rh  Rh27  1  0.122076  0.122506  0.641864  1
  Rh  Rh28  1  0.122080  0.641859  0.122508  1
  S  S29  1  0.496106  0.504826  0.504822  1
