# generated using pymatgen
data_Pr4Nd7In9Ru4
_symmetry_space_group_name_H-M   'P 1'
_cell_length_a   13.27758004
_cell_length_b   13.28464393
_cell_length_c   3.93795500
_cell_angle_alpha   90.00000000
_cell_angle_beta   90.00000000
_cell_angle_gamma   112.14450905
_symmetry_Int_Tables_number   1
_chemical_formula_structural   Pr4Nd7In9Ru4
_chemical_formula_sum   'Pr4 Nd7 In9 Ru4'
_cell_volume   643.37072337
_cell_formula_units_Z   1
loop_
 _symmetry_equiv_pos_site_id
 _symmetry_equiv_pos_as_xyz
  1  'x, y, z'
loop_
 _atom_site_type_symbol
 _atom_site_label
 _atom_site_symmetry_multiplicity
 _atom_site_fract_x
 _atom_site_fract_y
 _atom_site_fract_z
 _atom_site_occupancy
  Pr  Pr0  1  0.499982  0.500033  0.500000  1
  Pr  Pr1  1  0.874673  0.125135  0.500000  1
  Pr  Pr2  1  0.338216  0.661776  0.500000  1
  Pr  Pr3  1  0.661833  0.338197  0.500000  1
  Nd  Nd4  1  0.812092  0.812008  0.500000  1
  Nd  Nd5  1  0.188134  0.187755  0.500000  1
  Nd  Nd6  1  0.582959  0.918289  0.500000  1
  Nd  Nd7  1  0.416818  0.081550  0.500000  1
  Nd  Nd8  1  0.918436  0.583037  0.500000  1
  Nd  Nd9  1  0.081728  0.417193  0.500000  1
  Nd  Nd10  1  0.125174  0.875065  0.500000  1
  In  In11  1  0.338172  0.868316  0.000000  1
  In  In12  1  0.661237  0.131701  0.000000  1
  In  In13  1  0.868247  0.338704  0.000000  1
  In  In14  1  0.131724  0.661786  0.000000  1
  In  In15  1  0.578713  0.720989  0.000000  1
  In  In16  1  0.421376  0.279024  0.000000  1
  In  In17  1  0.721040  0.578724  0.000000  1
  In  In18  1  0.278949  0.421214  0.000000  1
  In  In19  1  0.000383  0.999636  0.000000  1
  Ru  Ru20  1  0.749666  0.944452  0.000000  1
  Ru  Ru21  1  0.249536  0.054644  0.000000  1
  Ru  Ru22  1  0.945347  0.750437  0.000000  1
  Ru  Ru23  1  0.055564  0.250339  0.000000  1
