# generated using pymatgen
data_Nd2Y(AlI)2
_symmetry_space_group_name_H-M   'P 1'
_cell_length_a   9.83594446
_cell_length_b   9.83594485
_cell_length_c   12.04499821
_cell_angle_alpha   59.75976035
_cell_angle_beta   59.75976039
_cell_angle_gamma   25.13156301
_symmetry_Int_Tables_number   1
_chemical_formula_structural   Nd2Y(AlI)2
_chemical_formula_sum   'Nd4 Y2 Al4 I4'
_cell_volume   423.93160436
_cell_formula_units_Z   2
loop_
 _symmetry_equiv_pos_site_id
 _symmetry_equiv_pos_as_xyz
  1  'x, y, z'
loop_
 _atom_site_type_symbol
 _atom_site_label
 _atom_site_symmetry_multiplicity
 _atom_site_fract_x
 _atom_site_fract_y
 _atom_site_fract_z
 _atom_site_occupancy
  Nd  Nd0  1  0.755289  0.755289  0.800192  1
  Nd  Nd1  1  0.244711  0.244711  0.199808  1
  Nd  Nd2  1  0.534672  0.534672  0.311796  1
  Nd  Nd3  1  0.465328  0.465328  0.688204  1
  Y  Y4  1  0.831237  0.831237  0.390641  1
  Y  Y5  1  0.168763  0.168763  0.609359  1
  Al  Al6  1  0.925814  0.925814  0.529753  1
  Al  Al7  1  0.074186  0.074186  0.470247  1
  Al  Al8  1  0.336115  0.336115  0.581659  1
  Al  Al9  1  0.663885  0.663885  0.418341  1
  I  I10  1  0.421663  0.421663  0.175845  1
  I  I11  1  0.578337  0.578337  0.824155  1
  I  I12  1  0.859983  0.859983  0.942101  1
  I  I13  1  0.140017  0.140017  0.057899  1
