# generated using pymatgen
data_CeMg3Ge6Ir7
_symmetry_space_group_name_H-M   'P 1'
_cell_length_a   7.17510472
_cell_length_b   7.17510605
_cell_length_c   7.17510594
_cell_angle_alpha   109.84280257
_cell_angle_beta   109.84281019
_cell_angle_gamma   109.84280330
_symmetry_Int_Tables_number   1
_chemical_formula_structural   CeMg3Ge6Ir7
_chemical_formula_sum   'Ce1 Mg3 Ge6 Ir7'
_cell_volume   280.37614124
_cell_formula_units_Z   1
loop_
 _symmetry_equiv_pos_site_id
 _symmetry_equiv_pos_as_xyz
  1  'x, y, z'
loop_
 _atom_site_type_symbol
 _atom_site_label
 _atom_site_symmetry_multiplicity
 _atom_site_fract_x
 _atom_site_fract_y
 _atom_site_fract_z
 _atom_site_occupancy
  Ce  Ce0  1  0.500000  0.500000  0.500000  1
  Mg  Mg1  1  0.000000  0.000000  0.500000  1
  Mg  Mg2  1  0.000000  0.500000  0.000000  1
  Mg  Mg3  1  0.500000  0.000000  0.000000  1
  Ge  Ge4  1  0.694669  0.694669  0.011889  1
  Ge  Ge5  1  0.305331  0.988111  0.305331  1
  Ge  Ge6  1  0.988111  0.305331  0.305331  1
  Ge  Ge7  1  0.305331  0.305331  0.988111  1
  Ge  Ge8  1  0.694669  0.011889  0.694669  1
  Ge  Ge9  1  0.011889  0.694669  0.694669  1
  Ir  Ir10  1  0.753239  0.246761  0.500000  1
  Ir  Ir11  1  0.753239  0.500000  0.246761  1
  Ir  Ir12  1  0.500000  0.246761  0.753239  1
  Ir  Ir13  1  0.246761  0.500000  0.753239  1
  Ir  Ir14  1  0.246761  0.753239  0.500000  1
  Ir  Ir15  1  0.500000  0.753239  0.246761  1
  Ir  Ir16  1  0.000000  0.000000  0.000000  1
