# generated using pymatgen
data_Li2SmGd(WO4)4
_symmetry_space_group_name_H-M   'P 1'
_cell_length_a   6.07974800
_cell_length_b   5.08680103
_cell_length_c   11.13563153
_cell_angle_alpha   65.67905567
_cell_angle_beta   90.00000000
_cell_angle_gamma   90.00000000
_symmetry_Int_Tables_number   1
_chemical_formula_structural   Li2SmGd(WO4)4
_chemical_formula_sum   'Li2 Sm1 Gd1 W4 O16'
_cell_volume   313.82248055
_cell_formula_units_Z   1
loop_
 _symmetry_equiv_pos_site_id
 _symmetry_equiv_pos_as_xyz
  1  'x, y, z'
loop_
 _atom_site_type_symbol
 _atom_site_label
 _atom_site_symmetry_multiplicity
 _atom_site_fract_x
 _atom_site_fract_y
 _atom_site_fract_z
 _atom_site_occupancy
  Li  Li0  1  0.242350  0.500000  0.750000  1
  Li  Li1  1  0.756694  0.500000  0.250000  1
  Sm  Sm2  1  0.668908  0.000000  0.750000  1
  Gd  Gd3  1  0.335167  0.000000  0.250000  1
  W  W4  1  0.168088  0.237070  0.512443  1
  W  W5  1  0.832057  0.765250  0.485660  1
  W  W6  1  0.168088  0.762930  0.987557  1
  W  W7  1  0.832057  0.234750  0.014340  1
  O  O8  1  0.634977  0.778514  0.606757  1
  O  O9  1  0.364179  0.218314  0.391724  1
  O  O10  1  0.634977  0.221486  0.893243  1
  O  O11  1  0.364179  0.781686  0.108276  1
  O  O12  1  0.352367  0.269373  0.635388  1
  O  O13  1  0.646796  0.731680  0.363147  1
  O  O14  1  0.352367  0.730627  0.864612  1
  O  O15  1  0.646796  0.268320  0.136853  1
  O  O16  1  0.085629  0.842529  0.608889  1
  O  O17  1  0.912615  0.159943  0.390667  1
  O  O18  1  0.085629  0.157471  0.891111  1
  O  O19  1  0.912615  0.840057  0.109333  1
  O  O20  1  0.891023  0.347464  0.595086  1
  O  O21  1  0.110709  0.655939  0.402595  1
  O  O22  1  0.891023  0.652536  0.904914  1
  O  O23  1  0.110709  0.344061  0.097405  1
