# generated using pymatgen
data_Nd7Dy3(SnSb)4
_symmetry_space_group_name_H-M   'P 1'
_cell_length_a   9.07631567
_cell_length_b   8.78856197
_cell_length_c   8.35055353
_cell_angle_alpha   90.12991358
_cell_angle_beta   90.17150776
_cell_angle_gamma   124.75607222
_symmetry_Int_Tables_number   1
_chemical_formula_structural   Nd7Dy3(SnSb)4
_chemical_formula_sum   'Nd7 Dy3 Sn4 Sb4'
_cell_volume   547.25401618
_cell_formula_units_Z   1
loop_
 _symmetry_equiv_pos_site_id
 _symmetry_equiv_pos_as_xyz
  1  'x, y, z'
loop_
 _atom_site_type_symbol
 _atom_site_label
 _atom_site_symmetry_multiplicity
 _atom_site_fract_x
 _atom_site_fract_y
 _atom_site_fract_z
 _atom_site_occupancy
  Nd  Nd0  1  0.041588  0.319025  0.330765  1
  Nd  Nd1  1  0.956154  0.676291  0.668410  1
  Nd  Nd2  1  0.460151  0.178335  0.830782  1
  Nd  Nd3  1  0.794843  0.522319  0.161627  1
  Nd  Nd4  1  0.542485  0.822940  0.170528  1
  Nd  Nd5  1  0.208782  0.480917  0.837634  1
  Nd  Nd6  1  0.708134  0.977099  0.661330  1
  Dy  Dy7  1  0.286581  0.023168  0.340919  1
  Dy  Dy8  1  0.002095  0.000296  0.000397  1
  Dy  Dy9  1  0.498697  0.500404  0.499001  1
  Sn  Sn10  1  0.367838  0.364848  0.134143  1
  Sn  Sn11  1  0.633396  0.632866  0.867002  1
  Sn  Sn12  1  0.134972  0.133216  0.633257  1
  Sn  Sn13  1  0.868324  0.866353  0.367008  1
  Sb  Sb14  1  0.811474  0.208740  0.987944  1
  Sb  Sb15  1  0.195021  0.795959  0.017346  1
  Sb  Sb16  1  0.683123  0.283934  0.483459  1
  Sb  Sb17  1  0.306341  0.713291  0.508447  1
