# generated using pymatgen
data_HfZrSc(CuSi)4
_symmetry_space_group_name_H-M   'P 1'
_cell_length_a   7.54271784
_cell_length_b   7.54271772
_cell_length_c   7.54271735
_cell_angle_alpha   149.75457561
_cell_angle_beta   129.85160755
_cell_angle_gamma   59.69007332
_symmetry_Int_Tables_number   1
_chemical_formula_structural   HfZrSc(CuSi)4
_chemical_formula_sum   'Hf1 Zr1 Sc1 Cu4 Si4'
_cell_volume   164.60964665
_cell_formula_units_Z   1
loop_
 _symmetry_equiv_pos_site_id
 _symmetry_equiv_pos_as_xyz
  1  'x, y, z'
loop_
 _atom_site_type_symbol
 _atom_site_label
 _atom_site_symmetry_multiplicity
 _atom_site_fract_x
 _atom_site_fract_y
 _atom_site_fract_z
 _atom_site_occupancy
  Hf  Hf0  1  0.124617  0.124617  0.000000  1
  Zr  Zr1  1  0.500531  0.000531  0.500000  1
  Sc  Sc2  1  0.874576  0.874576  0.000000  1
  Cu  Cu3  1  0.524155  0.329713  0.194442  1
  Cu  Cu4  1  0.863338  0.670182  0.193155  1
  Cu  Cu5  1  0.135270  0.329712  0.805558  1
  Cu  Cu6  1  0.477028  0.670182  0.806845  1
  Si  Si7  1  0.810298  0.500053  0.310246  1
  Si  Si8  1  0.189808  0.500053  0.689754  1
  Si  Si9  1  0.283644  0.783644  0.500000  1
  Si  Si10  1  0.716734  0.216734  0.500000  1
