# generated using pymatgen
data_Tb2MgGa7Ni2
_symmetry_space_group_name_H-M   'P 1'
_cell_length_a   4.18011968
_cell_length_b   6.48906577
_cell_length_c   8.05848171
_cell_angle_alpha   90.75902503
_cell_angle_beta   105.03219347
_cell_angle_gamma   89.99999978
_symmetry_Int_Tables_number   1
_chemical_formula_structural   Tb2MgGa7Ni2
_chemical_formula_sum   'Tb2 Mg1 Ga7 Ni2'
_cell_volume   211.08704377
_cell_formula_units_Z   1
loop_
 _symmetry_equiv_pos_site_id
 _symmetry_equiv_pos_as_xyz
  1  'x, y, z'
loop_
 _atom_site_type_symbol
 _atom_site_label
 _atom_site_symmetry_multiplicity
 _atom_site_fract_x
 _atom_site_fract_y
 _atom_site_fract_z
 _atom_site_occupancy
  Tb  Tb0  1  0.876394  0.759257  0.752788  1
  Tb  Tb1  1  0.123606  0.240743  0.247212  1
  Mg  Mg2  1  0.500000  0.500000  0.000000  1
  Ga  Ga3  1  0.500000  0.000000  0.000000  1
  Ga  Ga4  1  0.070270  0.754407  0.140540  1
  Ga  Ga5  1  0.929730  0.245593  0.859460  1
  Ga  Ga6  1  0.686124  0.543782  0.372248  1
  Ga  Ga7  1  0.313876  0.456218  0.627752  1
  Ga  Ga8  1  0.685135  0.944834  0.370271  1
  Ga  Ga9  1  0.314865  0.055166  0.629729  1
  Ni  Ni10  1  0.221563  0.754051  0.443125  1
  Ni  Ni11  1  0.778437  0.245949  0.556875  1
