# generated using pymatgen
data_Er16Cd4IrRu2Pt
_symmetry_space_group_name_H-M   'P 1'
_cell_length_a   9.57536581
_cell_length_b   9.60115560
_cell_length_c   9.60178462
_cell_angle_alpha   59.76551206
_cell_angle_beta   59.68315273
_cell_angle_gamma   59.68820195
_symmetry_Int_Tables_number   1
_chemical_formula_structural   Er16Cd4IrRu2Pt
_chemical_formula_sum   'Er16 Cd4 Ir1 Ru2 Pt1'
_cell_volume   620.10883718
_cell_formula_units_Z   1
loop_
 _symmetry_equiv_pos_site_id
 _symmetry_equiv_pos_as_xyz
  1  'x, y, z'
loop_
 _atom_site_type_symbol
 _atom_site_label
 _atom_site_symmetry_multiplicity
 _atom_site_fract_x
 _atom_site_fract_y
 _atom_site_fract_z
 _atom_site_occupancy
  Er  Er0  1  0.347501  0.351431  0.351483  1
  Er  Er1  1  0.347639  0.351928  0.952632  1
  Er  Er2  1  0.347668  0.952707  0.351874  1
  Er  Er3  1  0.959588  0.346795  0.346834  1
  Er  Er4  1  0.812701  0.189888  0.189954  1
  Er  Er5  1  0.185191  0.811591  0.811458  1
  Er  Er6  1  0.188577  0.808877  0.188859  1
  Er  Er7  1  0.813893  0.188725  0.805424  1
  Er  Er8  1  0.188391  0.188933  0.808910  1
  Er  Er9  1  0.813877  0.805487  0.188662  1
  Er  Er10  1  0.937676  0.561335  0.561428  1
  Er  Er11  1  0.559422  0.936897  0.936811  1
  Er  Er12  1  0.558114  0.938324  0.566109  1
  Er  Er13  1  0.936500  0.563142  0.937431  1
  Er  Er14  1  0.558106  0.566106  0.938362  1
  Er  Er15  1  0.936436  0.937495  0.563156  1
  Cd  Cd16  1  0.580146  0.580551  0.580655  1
  Cd  Cd17  1  0.581041  0.580658  0.257609  1
  Cd  Cd18  1  0.580863  0.257573  0.580834  1
  Cd  Cd19  1  0.256193  0.581269  0.581269  1
  Ir  Ir20  1  0.146163  0.139528  0.139524  1
  Ru  Ru21  1  0.144559  0.141843  0.575880  1
  Ru  Ru22  1  0.144568  0.575884  0.141845  1
  Pt  Pt23  1  0.575189  0.143031  0.142997  1
