# generated using pymatgen
data_La7Pr3(TlSi2)2
_symmetry_space_group_name_H-M   'P 1'
_cell_length_a   8.07385042
_cell_length_b   9.24838888
_cell_length_c   8.07424500
_cell_angle_alpha   115.72117207
_cell_angle_beta   90.35205774
_cell_angle_gamma   115.67394927
_symmetry_Int_Tables_number   1
_chemical_formula_structural   La7Pr3(TlSi2)2
_chemical_formula_sum   'La7 Pr3 Tl2 Si4'
_cell_volume   475.33887622
_cell_formula_units_Z   1
loop_
 _symmetry_equiv_pos_site_id
 _symmetry_equiv_pos_as_xyz
  1  'x, y, z'
loop_
 _atom_site_type_symbol
 _atom_site_label
 _atom_site_symmetry_multiplicity
 _atom_site_fract_x
 _atom_site_fract_y
 _atom_site_fract_z
 _atom_site_occupancy
  La  La0  1  0.999037  0.998881  0.999575  1
  La  La1  1  0.499749  0.999697  0.500002  1
  La  La2  1  0.536042  0.720771  0.684872  1
  La  La3  1  0.684055  0.719517  0.183706  1
  La  La4  1  0.036087  0.719553  0.535768  1
  La  La5  1  0.316651  0.280565  0.816737  1
  La  La6  1  0.963643  0.280587  0.463590  1
  Pr  Pr7  1  0.186192  0.722898  0.037092  1
  Pr  Pr8  1  0.464206  0.279328  0.314630  1
  Pr  Pr9  1  0.813360  0.277320  0.963840  1
  Tl  Tl10  1  0.751448  0.498515  0.750371  1
  Tl  Tl11  1  0.248014  0.498468  0.247428  1
  Si  Si12  1  0.885689  0.000592  0.614999  1
  Si  Si13  1  0.116191  0.000865  0.384651  1
  Si  Si14  1  0.612922  0.001310  0.114644  1
  Si  Si15  1  0.386715  0.001133  0.888096  1
