# generated using pymatgen
data_Nd4Al3GaIrPt3
_symmetry_space_group_name_H-M   'P 1'
_cell_length_a   4.51046800
_cell_length_b   7.07813836
_cell_length_c   7.89917628
_cell_angle_alpha   89.69996388
_cell_angle_beta   90.00000000
_cell_angle_gamma   90.00000000
_symmetry_Int_Tables_number   1
_chemical_formula_structural   Nd4Al3GaIrPt3
_chemical_formula_sum   'Nd4 Al3 Ga1 Ir1 Pt3'
_cell_volume   252.18340550
_cell_formula_units_Z   1
loop_
 _symmetry_equiv_pos_site_id
 _symmetry_equiv_pos_as_xyz
  1  'x, y, z'
loop_
 _atom_site_type_symbol
 _atom_site_label
 _atom_site_symmetry_multiplicity
 _atom_site_fract_x
 _atom_site_fract_y
 _atom_site_fract_z
 _atom_site_occupancy
  Nd  Nd0  1  0.750000  0.469830  0.180681  1
  Nd  Nd1  1  0.250000  0.025661  0.683046  1
  Nd  Nd2  1  0.750000  0.964016  0.318317  1
  Nd  Nd3  1  0.250000  0.535255  0.817005  1
  Al  Al4  1  0.250000  0.646373  0.437390  1
  Al  Al5  1  0.750000  0.360116  0.565091  1
  Al  Al6  1  0.250000  0.147178  0.064904  1
  Ga  Ga7  1  0.750000  0.847383  0.931595  1
  Ir  Ir8  1  0.750000  0.720813  0.610858  1
  Pt  Pt9  1  0.750000  0.221380  0.885942  1
  Pt  Pt10  1  0.250000  0.280835  0.385344  1
  Pt  Pt11  1  0.250000  0.781160  0.119825  1
