# generated using pymatgen
data_Er4InGa4Ag
_symmetry_space_group_name_H-M   'P 1'
_cell_length_a   7.09279000
_cell_length_b   7.09279000
_cell_length_c   4.36245300
_cell_angle_alpha   90.00000000
_cell_angle_beta   90.00000000
_cell_angle_gamma   90.00000000
_symmetry_Int_Tables_number   1
_chemical_formula_structural   Er4InGa4Ag
_chemical_formula_sum   'Er4 In1 Ga4 Ag1'
_cell_volume   219.46484585
_cell_formula_units_Z   1
loop_
 _symmetry_equiv_pos_site_id
 _symmetry_equiv_pos_as_xyz
  1  'x, y, z'
loop_
 _atom_site_type_symbol
 _atom_site_label
 _atom_site_symmetry_multiplicity
 _atom_site_fract_x
 _atom_site_fract_y
 _atom_site_fract_z
 _atom_site_occupancy
  Er  Er0  1  0.332231  0.827321  0.500000  1
  Er  Er1  1  0.827321  0.667769  0.500000  1
  Er  Er2  1  0.172679  0.332231  0.500000  1
  Er  Er3  1  0.667769  0.172679  0.500000  1
  In  In4  1  0.500000  0.500000  0.000000  1
  Ga  Ga5  1  0.363743  0.122139  0.000000  1
  Ga  Ga6  1  0.877861  0.363743  0.000000  1
  Ga  Ga7  1  0.122139  0.636257  0.000000  1
  Ga  Ga8  1  0.636257  0.877861  0.000000  1
  Ag  Ag9  1  0.000000  0.000000  0.000000  1
