# generated using pymatgen
data_Na3Li2SnAs3
_symmetry_space_group_name_H-M   'P 1'
_cell_length_a   9.81078515
_cell_length_b   9.81078549
_cell_length_c   14.40710400
_cell_angle_alpha   90.00000000
_cell_angle_beta   90.00000000
_cell_angle_gamma   143.86851015
_symmetry_Int_Tables_number   1
_chemical_formula_structural   Na3Li2SnAs3
_chemical_formula_sum   'Na12 Li8 Sn4 As12'
_cell_volume   817.65750006
_cell_formula_units_Z   4
loop_
 _symmetry_equiv_pos_site_id
 _symmetry_equiv_pos_as_xyz
  1  'x, y, z'
loop_
 _atom_site_type_symbol
 _atom_site_label
 _atom_site_symmetry_multiplicity
 _atom_site_fract_x
 _atom_site_fract_y
 _atom_site_fract_z
 _atom_site_occupancy
  Na  Na0  1  0.597570  0.935679  0.822332  1
  Na  Na1  1  0.262157  0.262157  0.321365  1
  Na  Na2  1  0.237843  0.237843  0.821365  1
  Na  Na3  1  0.737843  0.737843  0.678635  1
  Na  Na4  1  0.435679  0.097570  0.677668  1
  Na  Na5  1  0.902430  0.564321  0.322332  1
  Na  Na6  1  0.064321  0.402430  0.177668  1
  Na  Na7  1  0.402430  0.064321  0.177668  1
  Na  Na8  1  0.564321  0.902430  0.322332  1
  Na  Na9  1  0.097570  0.435679  0.677668  1
  Na  Na10  1  0.935679  0.597570  0.822332  1
  Na  Na11  1  0.762157  0.762157  0.178635  1
  Li  Li12  1  0.083110  0.916890  0.000000  1
  Li  Li13  1  0.583110  0.416890  0.500000  1
  Li  Li14  1  0.916890  0.083110  0.000000  1
  Li  Li15  1  0.755175  0.244825  0.000000  1
  Li  Li16  1  0.744825  0.255175  0.500000  1
  Li  Li17  1  0.244825  0.755175  0.000000  1
  Li  Li18  1  0.255175  0.744825  0.500000  1
  Li  Li19  1  0.416890  0.583110  0.500000  1
  Sn  Sn20  1  0.092599  0.907401  0.500000  1
  Sn  Sn21  1  0.407401  0.592599  0.000000  1
  Sn  Sn22  1  0.907401  0.092599  0.500000  1
  Sn  Sn23  1  0.592599  0.407401  0.000000  1
  As  As24  1  0.082143  0.416354  0.386758  1
  As  As25  1  0.916354  0.582143  0.113242  1
  As  As26  1  0.417857  0.083646  0.886758  1
  As  As27  1  0.583646  0.917857  0.613242  1
  As  As28  1  0.917857  0.583646  0.613242  1
  As  As29  1  0.083646  0.417857  0.886758  1
  As  As30  1  0.582143  0.916354  0.113242  1
  As  As31  1  0.416354  0.082143  0.386758  1
  As  As32  1  0.238453  0.238453  0.605623  1
  As  As33  1  0.738453  0.738453  0.894377  1
  As  As34  1  0.261547  0.261547  0.105623  1
  As  As35  1  0.761547  0.761547  0.394377  1
