# generated using pymatgen
data_K8Cd3Hg9Se16
_symmetry_space_group_name_H-M   'P 1'
_cell_length_a   6.98240700
_cell_length_b   11.19869600
_cell_length_c   14.41576700
_cell_angle_alpha   90.00253502
_cell_angle_beta   90.00000000
_cell_angle_gamma   90.00000000
_symmetry_Int_Tables_number   1
_chemical_formula_structural   K8Cd3Hg9Se16
_chemical_formula_sum   'K8 Cd3 Hg9 Se16'
_cell_volume   1127.22437005
_cell_formula_units_Z   1
loop_
 _symmetry_equiv_pos_site_id
 _symmetry_equiv_pos_as_xyz
  1  'x, y, z'
loop_
 _atom_site_type_symbol
 _atom_site_label
 _atom_site_symmetry_multiplicity
 _atom_site_fract_x
 _atom_site_fract_y
 _atom_site_fract_z
 _atom_site_occupancy
  K  K0  1  0.729002  0.880712  0.501987  1
  K  K1  1  0.271670  0.119088  0.498664  1
  K  K2  1  0.771596  0.618889  0.002077  1
  K  K3  1  0.729002  0.119288  0.998013  1
  K  K4  1  0.228177  0.380923  0.998171  1
  K  K5  1  0.271670  0.880912  0.001336  1
  K  K6  1  0.771596  0.381111  0.497923  1
  K  K7  1  0.228177  0.619077  0.501829  1
  Cd  Cd8  1  0.589377  0.500000  0.750000  1
  Cd  Cd9  1  0.410618  0.500000  0.250000  1
  Cd  Cd10  1  0.910610  0.000000  0.250000  1
  Hg  Hg11  1  0.088294  0.000000  0.750000  1
  Hg  Hg12  1  0.588841  0.837887  0.758672  1
  Hg  Hg13  1  0.411248  0.161469  0.241353  1
  Hg  Hg14  1  0.911251  0.661461  0.258660  1
  Hg  Hg15  1  0.588841  0.162113  0.741328  1
  Hg  Hg16  1  0.088763  0.338970  0.741366  1
  Hg  Hg17  1  0.411248  0.838531  0.258647  1
  Hg  Hg18  1  0.911251  0.338539  0.241340  1
  Hg  Hg19  1  0.088763  0.661030  0.758634  1
  Se  Se20  1  0.823559  0.633352  0.640069  1
  Se  Se21  1  0.176616  0.366578  0.359921  1
  Se  Se22  1  0.676639  0.866547  0.140077  1
  Se  Se23  1  0.823559  0.366648  0.859931  1
  Se  Se24  1  0.326557  0.135041  0.861069  1
  Se  Se25  1  0.176616  0.633422  0.140079  1
  Se  Se26  1  0.676639  0.133453  0.359923  1
  Se  Se27  1  0.326557  0.864959  0.638931  1
  Se  Se28  1  0.865442  0.871503  0.870069  1
  Se  Se29  1  0.131468  0.127124  0.131407  1
  Se  Se30  1  0.631459  0.627138  0.368578  1
  Se  Se31  1  0.865442  0.128497  0.629931  1
  Se  Se32  1  0.368261  0.372899  0.631379  1
  Se  Se33  1  0.131468  0.872876  0.368593  1
  Se  Se34  1  0.631459  0.372862  0.131422  1
  Se  Se35  1  0.368261  0.627101  0.868621  1
