# generated using pymatgen
data_Sr5TaTcN7
_symmetry_space_group_name_H-M   'P 1'
_cell_length_a   6.57121481
_cell_length_b   9.44494258
_cell_length_c   9.42634031
_cell_angle_alpha   116.07469601
_cell_angle_beta   96.32570880
_cell_angle_gamma   88.69716884
_symmetry_Int_Tables_number   1
_chemical_formula_structural   Sr5TaTcN7
_chemical_formula_sum   'Sr10 Ta2 Tc2 N14'
_cell_volume   522.08297636
_cell_formula_units_Z   2
loop_
 _symmetry_equiv_pos_site_id
 _symmetry_equiv_pos_as_xyz
  1  'x, y, z'
loop_
 _atom_site_type_symbol
 _atom_site_label
 _atom_site_symmetry_multiplicity
 _atom_site_fract_x
 _atom_site_fract_y
 _atom_site_fract_z
 _atom_site_occupancy
  Sr  Sr0  1  0.842731  0.590521  0.313700  1
  Sr  Sr1  1  0.260658  0.986122  0.556956  1
  Sr  Sr2  1  0.703574  0.415700  0.859310  1
  Sr  Sr3  1  0.296426  0.584300  0.140690  1
  Sr  Sr4  1  0.407729  0.797804  0.936002  1
  Sr  Sr5  1  0.592271  0.202196  0.063998  1
  Sr  Sr6  1  0.157269  0.409479  0.686300  1
  Sr  Sr7  1  0.911680  0.850471  0.770776  1
  Sr  Sr8  1  0.088320  0.149529  0.229224  1
  Sr  Sr9  1  0.739342  0.013878  0.443044  1
  Ta  Ta10  1  0.116687  0.213999  0.912572  1
  Ta  Ta11  1  0.883313  0.786001  0.087428  1
  Tc  Tc12  1  0.572411  0.360317  0.475583  1
  Tc  Tc13  1  0.427589  0.639683  0.524417  1
  N  N14  1  0.523256  0.549305  0.672927  1
  N  N15  1  0.476744  0.450695  0.327073  1
  N  N16  1  0.166429  0.693459  0.538767  1
  N  N17  1  0.833571  0.306541  0.461233  1
  N  N18  1  0.411399  0.201246  0.460728  1
  N  N19  1  0.588601  0.798754  0.539272  1
  N  N20  1  0.948523  0.126086  0.705724  1
  N  N21  1  0.051477  0.873914  0.294276  1
  N  N22  1  0.232902  0.045789  0.960100  1
  N  N23  1  0.767098  0.954211  0.039900  1
  N  N24  1  0.353731  0.327093  0.894014  1
  N  N25  1  0.952561  0.347386  0.084665  1
  N  N26  1  0.047439  0.652614  0.915335  1
  N  N27  1  0.646269  0.672907  0.105986  1
