# generated using pymatgen
data_V3Sb4RhO16
_symmetry_space_group_name_H-M   'P 1'
_cell_length_a   5.65222036
_cell_length_b   5.65229627
_cell_length_c   9.15399800
_cell_angle_alpha   87.70095448
_cell_angle_beta   87.70089769
_cell_angle_gamma   71.83439445
_symmetry_Int_Tables_number   1
_chemical_formula_structural   V3Sb4RhO16
_chemical_formula_sum   'V3 Sb4 Rh1 O16'
_cell_volume   277.53504409
_cell_formula_units_Z   1
loop_
 _symmetry_equiv_pos_site_id
 _symmetry_equiv_pos_as_xyz
  1  'x, y, z'
loop_
 _atom_site_type_symbol
 _atom_site_label
 _atom_site_symmetry_multiplicity
 _atom_site_fract_x
 _atom_site_fract_y
 _atom_site_fract_z
 _atom_site_occupancy
  V  V0  1  0.872599  0.872606  0.627142  1
  V  V1  1  0.995911  0.995912  0.004106  1
  V  V2  1  0.371282  0.371257  0.128830  1
  Sb  Sb3  1  0.753487  0.753479  0.246009  1
  Sb  Sb4  1  0.252505  0.252506  0.747864  1
  Sb  Sb5  1  0.628562  0.628570  0.871915  1
  Sb  Sb6  1  0.126820  0.126819  0.372555  1
  Rh  Rh7  1  0.496664  0.496665  0.503224  1
  O  O8  1  0.652643  0.652652  0.654717  1
  O  O9  1  0.148124  0.148114  0.155046  1
  O  O10  1  0.176957  0.569458  0.627251  1
  O  O11  1  0.675004  0.069337  0.127439  1
  O  O12  1  0.069355  0.674961  0.127445  1
  O  O13  1  0.569451  0.176971  0.627242  1
  O  O14  1  0.846106  0.846121  0.850744  1
  O  O15  1  0.344068  0.344063  0.348486  1
  O  O16  1  0.599156  0.599166  0.092541  1
  O  O17  1  0.098093  0.098093  0.593494  1
  O  O18  1  0.817828  0.436245  0.372794  1
  O  O19  1  0.319080  0.936243  0.872840  1
  O  O20  1  0.936232  0.319108  0.872830  1
  O  O21  1  0.436247  0.817825  0.372800  1
  O  O22  1  0.407110  0.407103  0.902074  1
  O  O23  1  0.906715  0.906718  0.400618  1
