# generated using pymatgen
data_Yb(TiSe2)8
_symmetry_space_group_name_H-M   'P 1'
_cell_length_a   7.09197103
_cell_length_b   7.08812736
_cell_length_c   14.36420324
_cell_angle_alpha   90.01567445
_cell_angle_beta   90.00411468
_cell_angle_gamma   120.00875832
_symmetry_Int_Tables_number   1
_chemical_formula_structural   Yb(TiSe2)8
_chemical_formula_sum   'Yb1 Ti8 Se16'
_cell_volume   625.27674107
_cell_formula_units_Z   1
loop_
 _symmetry_equiv_pos_site_id
 _symmetry_equiv_pos_as_xyz
  1  'x, y, z'
loop_
 _atom_site_type_symbol
 _atom_site_label
 _atom_site_symmetry_multiplicity
 _atom_site_fract_x
 _atom_site_fract_y
 _atom_site_fract_z
 _atom_site_occupancy
  Yb  Yb0  1  0.000000  0.000000  0.000000  1
  Ti  Ti1  1  0.502411  0.497728  0.742908  1
  Ti  Ti2  1  0.497589  0.502272  0.257092  1
  Ti  Ti3  1  0.502417  0.004742  0.742776  1
  Ti  Ti4  1  0.497583  0.995258  0.257224  1
  Ti  Ti5  1  0.995279  0.497754  0.742893  1
  Ti  Ti6  1  0.004721  0.502246  0.257107  1
  Ti  Ti7  1  0.000003  0.000007  0.740859  1
  Ti  Ti8  1  0.999997  0.999993  0.259141  1
  Se  Se9  1  0.832883  0.665769  0.147107  1
  Se  Se10  1  0.833121  0.666210  0.634607  1
  Se  Se11  1  0.832785  0.167477  0.147152  1
  Se  Se12  1  0.833080  0.167367  0.634642  1
  Se  Se13  1  0.333675  0.667237  0.146561  1
  Se  Se14  1  0.333595  0.667071  0.637549  1
  Se  Se15  1  0.334783  0.167497  0.147150  1
  Se  Se16  1  0.334328  0.167408  0.634644  1
  Se  Se17  1  0.665217  0.832503  0.852850  1
  Se  Se18  1  0.665672  0.832592  0.365356  1
  Se  Se19  1  0.666325  0.332763  0.853439  1
  Se  Se20  1  0.666405  0.332929  0.362451  1
  Se  Se21  1  0.167215  0.832523  0.852848  1
  Se  Se22  1  0.166920  0.832633  0.365358  1
  Se  Se23  1  0.167117  0.334231  0.852893  1
  Se  Se24  1  0.166879  0.333790  0.365393  1
