# generated using pymatgen
data_K2CrNiS4
_symmetry_space_group_name_H-M   'P 1'
_cell_length_a   13.12781599
_cell_length_b   11.71459617
_cell_length_c   6.98673240
_cell_angle_alpha   85.19679988
_cell_angle_beta   62.77481608
_cell_angle_gamma   32.02838359
_symmetry_Int_Tables_number   1
_chemical_formula_structural   K2CrNiS4
_chemical_formula_sum   'K4 Cr2 Ni2 S8'
_cell_volume   387.26366095
_cell_formula_units_Z   2
loop_
 _symmetry_equiv_pos_site_id
 _symmetry_equiv_pos_as_xyz
  1  'x, y, z'
loop_
 _atom_site_type_symbol
 _atom_site_label
 _atom_site_symmetry_multiplicity
 _atom_site_fract_x
 _atom_site_fract_y
 _atom_site_fract_z
 _atom_site_occupancy
  K  K0  1  0.678711  0.678711  0.321289  1
  K  K1  1  0.928711  0.928711  0.571289  1
  K  K2  1  0.321289  0.321289  0.678711  1
  K  K3  1  0.571289  0.571289  0.928711  1
  Cr  Cr4  1  0.750000  0.750000  0.750000  1
  Cr  Cr5  1  0.500000  0.500000  0.500000  1
  Ni  Ni6  1  0.000000  0.000000  0.000000  1
  Ni  Ni7  1  0.250000  0.250000  0.250000  1
  S  S8  1  0.028859  0.363681  0.661743  1
  S  S9  1  0.221141  0.886319  0.588257  1
  S  S10  1  0.886319  0.221141  0.304284  1
  S  S11  1  0.588257  0.304284  0.221141  1
  S  S12  1  0.945716  0.661743  0.363681  1
  S  S13  1  0.661743  0.945716  0.028859  1
  S  S14  1  0.363681  0.028859  0.945716  1
  S  S15  1  0.304284  0.588257  0.886319  1
