# generated using pymatgen
data_CaTm(Ga2Ag)2
_symmetry_space_group_name_H-M   'P 1'
_cell_length_a   4.35633900
_cell_length_b   6.97687326
_cell_length_c   10.38249400
_cell_angle_alpha   90.81500388
_cell_angle_beta   90.00000000
_cell_angle_gamma   90.00000000
_symmetry_Int_Tables_number   1
_chemical_formula_structural   CaTm(Ga2Ag)2
_chemical_formula_sum   'Ca2 Tm2 Ga8 Ag4'
_cell_volume   315.52970577
_cell_formula_units_Z   2
loop_
 _symmetry_equiv_pos_site_id
 _symmetry_equiv_pos_as_xyz
  1  'x, y, z'
loop_
 _atom_site_type_symbol
 _atom_site_label
 _atom_site_symmetry_multiplicity
 _atom_site_fract_x
 _atom_site_fract_y
 _atom_site_fract_z
 _atom_site_occupancy
  Ca  Ca0  1  0.750000  0.724261  0.326850  1
  Ca  Ca1  1  0.250000  0.275739  0.673150  1
  Tm  Tm2  1  0.250000  0.776725  0.828975  1
  Tm  Tm3  1  0.750000  0.223275  0.171025  1
  Ga  Ga4  1  0.250000  0.703729  0.536407  1
  Ga  Ga5  1  0.750000  0.296271  0.463593  1
  Ga  Ga6  1  0.750000  0.797371  0.034372  1
  Ga  Ga7  1  0.250000  0.202629  0.965628  1
  Ga  Ga8  1  0.250000  0.929458  0.150453  1
  Ga  Ga9  1  0.750000  0.070542  0.849547  1
  Ga  Ga10  1  0.750000  0.574869  0.653029  1
  Ga  Ga11  1  0.250000  0.425131  0.346971  1
  Ag  Ag12  1  0.250000  0.542327  0.098372  1
  Ag  Ag13  1  0.750000  0.457673  0.901628  1
  Ag  Ag14  1  0.750000  0.958266  0.599481  1
  Ag  Ag15  1  0.250000  0.041734  0.400519  1
