# generated using pymatgen
data_SmGd3(DyB5)4
_symmetry_space_group_name_H-M   'P 1'
_cell_length_a   7.13533664
_cell_length_b   7.12656637
_cell_length_c   7.16122051
_cell_angle_alpha   76.87229649
_cell_angle_beta   90.08920918
_cell_angle_gamma   89.94830736
_symmetry_Int_Tables_number   1
_chemical_formula_structural   SmGd3(DyB5)4
_chemical_formula_sum   'Sm1 Gd3 Dy4 B20'
_cell_volume   354.63392789
_cell_formula_units_Z   1
loop_
 _symmetry_equiv_pos_site_id
 _symmetry_equiv_pos_as_xyz
  1  'x, y, z'
loop_
 _atom_site_type_symbol
 _atom_site_label
 _atom_site_symmetry_multiplicity
 _atom_site_fract_x
 _atom_site_fract_y
 _atom_site_fract_z
 _atom_site_occupancy
  Sm  Sm0  1  0.690176  0.773639  0.625306  1
  Gd  Gd1  1  0.192069  0.230465  0.872829  1
  Gd  Gd2  1  0.308023  0.230221  0.373058  1
  Gd  Gd3  1  0.808253  0.769307  0.126667  1
  Dy  Dy4  1  0.314838  0.755665  0.253398  1
  Dy  Dy5  1  0.815427  0.244499  0.246404  1
  Dy  Dy6  1  0.685001  0.245255  0.746796  1
  Dy  Dy7  1  0.184512  0.755618  0.753600  1
  B  B8  1  0.502309  0.314049  0.040754  1
  B  B9  1  0.003363  0.685753  0.458990  1
  B  B10  1  0.496971  0.685501  0.960630  1
  B  B11  1  0.997918  0.314189  0.540429  1
  B  B12  1  0.489028  0.925341  0.927054  1
  B  B13  1  0.990026  0.074869  0.573284  1
  B  B14  1  0.510718  0.074362  0.074728  1
  B  B15  1  0.012263  0.925783  0.425300  1
  B  B16  1  0.326116  0.496352  0.039874  1
  B  B17  1  0.826666  0.503021  0.459638  1
  B  B18  1  0.673348  0.503180  0.960632  1
  B  B19  1  0.173717  0.496203  0.539818  1
  B  B20  1  0.910630  0.498288  0.910706  1
  B  B21  1  0.410331  0.500722  0.589550  1
  B  B22  1  0.089411  0.501224  0.089405  1
  B  B23  1  0.589347  0.497827  0.410745  1
  B  B24  1  0.962119  0.496411  0.673860  1
  B  B25  1  0.460890  0.502506  0.826481  1
  B  B26  1  0.038390  0.503317  0.325802  1
  B  B27  1  0.538139  0.496434  0.174262  1
