# generated using pymatgen
data_PrYAlGaI2
_symmetry_space_group_name_H-M   'P 1'
_cell_length_a   4.29000700
_cell_length_b   4.29000671
_cell_length_c   12.53288500
_cell_angle_alpha   90.00000000
_cell_angle_beta   90.00000000
_cell_angle_gamma   119.99999451
_symmetry_Int_Tables_number   1
_chemical_formula_structural   PrYAlGaI2
_chemical_formula_sum   'Pr1 Y1 Al1 Ga1 I2'
_cell_volume   199.75501104
_cell_formula_units_Z   1
loop_
 _symmetry_equiv_pos_site_id
 _symmetry_equiv_pos_as_xyz
  1  'x, y, z'
loop_
 _atom_site_type_symbol
 _atom_site_label
 _atom_site_symmetry_multiplicity
 _atom_site_fract_x
 _atom_site_fract_y
 _atom_site_fract_z
 _atom_site_occupancy
  Pr  Pr0  1  0.000000  0.000000  0.832317  1
  Y  Y1  1  0.000000  0.000000  0.165752  1
  Al  Al2  1  0.333333  0.666667  0.984494  1
  Ga  Ga3  1  0.666667  0.333333  0.028309  1
  I  I4  1  0.666667  0.333333  0.665179  1
  I  I5  1  0.333333  0.666667  0.323948  1
