# generated using pymatgen
data_CaTb5PrIrBr12
_symmetry_space_group_name_H-M   'P 1'
_cell_length_a   9.39983596
_cell_length_b   9.34662866
_cell_length_c   9.41645707
_cell_angle_alpha   106.83370736
_cell_angle_beta   106.74244444
_cell_angle_gamma   107.43561570
_symmetry_Int_Tables_number   1
_chemical_formula_structural   CaTb5PrIrBr12
_chemical_formula_sum   'Ca1 Tb5 Pr1 Ir1 Br12'
_cell_volume   688.88618470
_cell_formula_units_Z   1
loop_
 _symmetry_equiv_pos_site_id
 _symmetry_equiv_pos_as_xyz
  1  'x, y, z'
loop_
 _atom_site_type_symbol
 _atom_site_label
 _atom_site_symmetry_multiplicity
 _atom_site_fract_x
 _atom_site_fract_y
 _atom_site_fract_z
 _atom_site_occupancy
  Ca  Ca0  1  0.499826  0.500548  0.499312  1
  Tb  Tb1  1  0.104054  0.305497  0.025124  1
  Tb  Tb2  1  0.315686  0.026475  0.106176  1
  Tb  Tb3  1  0.026388  0.108302  0.315414  1
  Tb  Tb4  1  0.974768  0.895984  0.686276  1
  Tb  Tb5  1  0.684773  0.973547  0.893630  1
  Pr  Pr6  1  0.893947  0.685858  0.975572  1
  Ir  Ir7  1  0.000473  0.000390  0.001159  1
  Br  Br8  1  0.227220  0.683339  0.075564  1
  Br  Br9  1  0.455255  0.376560  0.159675  1
  Br  Br10  1  0.681437  0.072533  0.215768  1
  Br  Br11  1  0.929581  0.789256  0.328716  1
  Br  Br12  1  0.159979  0.456066  0.374927  1
  Br  Br13  1  0.375320  0.158736  0.454851  1
  Br  Br14  1  0.624907  0.842439  0.545492  1
  Br  Br15  1  0.838212  0.543266  0.614229  1
  Br  Br16  1  0.073149  0.218301  0.682731  1
  Br  Br17  1  0.318621  0.928093  0.784451  1
  Br  Br18  1  0.533590  0.623536  0.834090  1
  Br  Br19  1  0.782819  0.311277  0.926846  1
