# generated using pymatgen
data_Ca4FeSi2Pd27
_symmetry_space_group_name_H-M   'P 1'
_cell_length_a   8.91121479
_cell_length_b   8.91121479
_cell_length_c   7.10095837
_cell_angle_alpha   90.30446775
_cell_angle_beta   90.30446775
_cell_angle_gamma   89.34994325
_symmetry_Int_Tables_number   1
_chemical_formula_structural   Ca4FeSi2Pd27
_chemical_formula_sum   'Ca4 Fe1 Si2 Pd27'
_cell_volume   563.83328601
_cell_formula_units_Z   1
loop_
 _symmetry_equiv_pos_site_id
 _symmetry_equiv_pos_as_xyz
  1  'x, y, z'
loop_
 _atom_site_type_symbol
 _atom_site_label
 _atom_site_symmetry_multiplicity
 _atom_site_fract_x
 _atom_site_fract_y
 _atom_site_fract_z
 _atom_site_occupancy
  Ca  Ca0  1  0.506482  0.006482  0.937371  1
  Ca  Ca1  1  0.993518  0.493518  0.062629  1
  Ca  Ca2  1  0.001083  0.998917  0.500000  1
  Ca  Ca3  1  0.498917  0.501083  0.500000  1
  Fe  Fe4  1  0.250000  0.750000  0.000000  1
  Si  Si5  1  0.501150  0.001150  0.446570  1
  Si  Si6  1  0.998850  0.498850  0.553430  1
  Pd  Pd7  1  0.334347  0.834347  0.613435  1
  Pd  Pd8  1  0.332690  0.166323  0.619353  1
  Pd  Pd9  1  0.666323  0.832690  0.619353  1
  Pd  Pd10  1  0.666452  0.166452  0.616334  1
  Pd  Pd11  1  0.165653  0.665653  0.386565  1
  Pd  Pd12  1  0.167310  0.333677  0.380647  1
  Pd  Pd13  1  0.833677  0.667310  0.380647  1
  Pd  Pd14  1  0.833548  0.333548  0.383666  1
  Pd  Pd15  1  0.497474  0.771018  0.253302  1
  Pd  Pd16  1  0.497594  0.231133  0.257020  1
  Pd  Pd17  1  0.271018  0.997474  0.253302  1
  Pd  Pd18  1  0.731133  0.997594  0.257020  1
  Pd  Pd19  1  0.002526  0.728982  0.746698  1
  Pd  Pd20  1  0.002406  0.268867  0.742980  1
  Pd  Pd21  1  0.228982  0.502526  0.746698  1
  Pd  Pd22  1  0.768867  0.502406  0.742980  1
  Pd  Pd23  1  0.498674  0.352686  0.855313  1
  Pd  Pd24  1  0.492080  0.659899  0.862934  1
  Pd  Pd25  1  0.852686  0.998674  0.855313  1
  Pd  Pd26  1  0.159899  0.992080  0.862934  1
  Pd  Pd27  1  0.001326  0.147314  0.144687  1
  Pd  Pd28  1  0.007920  0.840101  0.137066  1
  Pd  Pd29  1  0.647314  0.501326  0.144687  1
  Pd  Pd30  1  0.340101  0.507920  0.137066  1
  Pd  Pd31  1  0.250000  0.250000  0.000000  1
  Pd  Pd32  1  0.750000  0.750000  0.000000  1
  Pd  Pd33  1  0.750000  0.250000  0.000000  1
