# generated using pymatgen
data_LaTb4Pr(RuO7)2
_symmetry_space_group_name_H-M   'P 1'
_cell_length_a   6.49757181
_cell_length_b   6.49757043
_cell_length_c   7.55074605
_cell_angle_alpha   90.00786010
_cell_angle_beta   90.00786626
_cell_angle_gamma   110.31191059
_symmetry_Int_Tables_number   1
_chemical_formula_structural   LaTb4Pr(RuO7)2
_chemical_formula_sum   'La1 Tb4 Pr1 Ru2 O14'
_cell_volume   298.95783588
_cell_formula_units_Z   1
loop_
 _symmetry_equiv_pos_site_id
 _symmetry_equiv_pos_as_xyz
  1  'x, y, z'
loop_
 _atom_site_type_symbol
 _atom_site_label
 _atom_site_symmetry_multiplicity
 _atom_site_fract_x
 _atom_site_fract_y
 _atom_site_fract_z
 _atom_site_occupancy
  La  La0  1  0.000000  0.000000  0.500000  1
  Tb  Tb1  1  0.520204  0.073639  0.249997  1
  Tb  Tb2  1  0.926361  0.479796  0.750003  1
  Tb  Tb3  1  0.479796  0.926361  0.750003  1
  Tb  Tb4  1  0.073639  0.520204  0.249997  1
  Pr  Pr5  1  0.000000  0.000000  0.000000  1
  Ru  Ru6  1  0.500000  0.500000  0.500000  1
  Ru  Ru7  1  0.500000  0.500000  0.000000  1
  O  O8  1  0.441889  0.183530  0.537435  1
  O  O9  1  0.816470  0.558111  0.462565  1
  O  O10  1  0.440799  0.183148  0.962633  1
  O  O11  1  0.816852  0.559201  0.037367  1
  O  O12  1  0.558111  0.816470  0.462565  1
  O  O13  1  0.183530  0.441889  0.537435  1
  O  O14  1  0.559201  0.816852  0.037367  1
  O  O15  1  0.183148  0.440799  0.962633  1
  O  O16  1  0.163403  0.884419  0.249599  1
  O  O17  1  0.115581  0.836597  0.750401  1
  O  O18  1  0.836597  0.115581  0.750401  1
  O  O19  1  0.884419  0.163403  0.249599  1
  O  O20  1  0.411891  0.411891  0.250085  1
  O  O21  1  0.588109  0.588109  0.749915  1
