# generated using pymatgen
data_Tb2Pr17LuPb16
_symmetry_space_group_name_H-M   'P 1'
_cell_length_a   8.43513163
_cell_length_b   8.55775628
_cell_length_c   16.29849500
_cell_angle_alpha   90.00000000
_cell_angle_beta   90.00000000
_cell_angle_gamma   89.99080363
_symmetry_Int_Tables_number   1
_chemical_formula_structural   Tb2Pr17LuPb16
_chemical_formula_sum   'Tb2 Pr17 Lu1 Pb16'
_cell_volume   1176.51989657
_cell_formula_units_Z   1
loop_
 _symmetry_equiv_pos_site_id
 _symmetry_equiv_pos_as_xyz
  1  'x, y, z'
loop_
 _atom_site_type_symbol
 _atom_site_label
 _atom_site_symmetry_multiplicity
 _atom_site_fract_x
 _atom_site_fract_y
 _atom_site_fract_z
 _atom_site_occupancy
  Tb  Tb0  1  0.791080  0.497002  0.250000  1
  Tb  Tb1  1  0.290790  0.002796  0.250000  1
  Pr  Pr2  1  0.376138  0.840595  0.880754  1
  Pr  Pr3  1  0.878538  0.657811  0.619435  1
  Pr  Pr4  1  0.622670  0.158645  0.380219  1
  Pr  Pr5  1  0.122706  0.341191  0.119296  1
  Pr  Pr6  1  0.622670  0.158645  0.119781  1
  Pr  Pr7  1  0.122706  0.341191  0.380704  1
  Pr  Pr8  1  0.376138  0.840595  0.619246  1
  Pr  Pr9  1  0.878538  0.657811  0.880565  1
  Pr  Pr10  1  0.532178  0.323495  0.899405  1
  Pr  Pr11  1  0.033596  0.178937  0.600349  1
  Pr  Pr12  1  0.467046  0.677602  0.399553  1
  Pr  Pr13  1  0.966946  0.822435  0.100852  1
  Pr  Pr14  1  0.467046  0.677602  0.100447  1
  Pr  Pr15  1  0.966946  0.822435  0.399148  1
  Pr  Pr16  1  0.532178  0.323495  0.600595  1
  Pr  Pr17  1  0.033596  0.178937  0.899651  1
  Pr  Pr18  1  0.708045  0.997606  0.750000  1
  Lu  Lu19  1  0.209798  0.503960  0.750000  1
  Pb  Pb20  1  0.281687  0.031705  0.044845  1
  Pb  Pb21  1  0.781619  0.467975  0.455110  1
  Pb  Pb22  1  0.718244  0.967384  0.543606  1
  Pb  Pb23  1  0.218715  0.531374  0.954426  1
  Pb  Pb24  1  0.718244  0.967384  0.956394  1
  Pb  Pb25  1  0.218715  0.531374  0.545574  1
  Pb  Pb26  1  0.281687  0.031705  0.455155  1
  Pb  Pb27  1  0.781619  0.467975  0.044890  1
  Pb  Pb28  1  0.570115  0.621140  0.750000  1
  Pb  Pb29  1  0.075799  0.872912  0.750000  1
  Pb  Pb30  1  0.427856  0.375428  0.250000  1
  Pb  Pb31  1  0.928272  0.124954  0.250000  1
  Pb  Pb32  1  0.340411  0.155081  0.750000  1
  Pb  Pb33  1  0.844092  0.351467  0.750000  1
  Pb  Pb34  1  0.657032  0.847248  0.250000  1
  Pb  Pb35  1  0.156548  0.652111  0.250000  1
