# generated using pymatgen
data_Dy14Tm2ZnIn3Rh4
_symmetry_space_group_name_H-M   'P 1'
_cell_length_a   9.59476974
_cell_length_b   9.60655132
_cell_length_c   9.59851951
_cell_angle_alpha   59.97231784
_cell_angle_beta   60.05652010
_cell_angle_gamma   59.95936891
_symmetry_Int_Tables_number   1
_chemical_formula_structural   Dy14Tm2ZnIn3Rh4
_chemical_formula_sum   'Dy14 Tm2 Zn1 In3 Rh4'
_cell_volume   625.53536999
_cell_formula_units_Z   1
loop_
 _symmetry_equiv_pos_site_id
 _symmetry_equiv_pos_as_xyz
  1  'x, y, z'
loop_
 _atom_site_type_symbol
 _atom_site_label
 _atom_site_symmetry_multiplicity
 _atom_site_fract_x
 _atom_site_fract_y
 _atom_site_fract_z
 _atom_site_occupancy
  Dy  Dy0  1  0.312217  0.688776  0.310232  1
  Dy  Dy1  1  0.936099  0.937647  0.556790  1
  Dy  Dy2  1  0.148141  0.151129  0.549600  1
  Dy  Dy3  1  0.566755  0.938991  0.555262  1
  Dy  Dy4  1  0.148315  0.152206  0.150678  1
  Dy  Dy5  1  0.311875  0.307972  0.690606  1
  Dy  Dy6  1  0.936099  0.569463  0.556790  1
  Dy  Dy7  1  0.563029  0.562802  0.936433  1
  Dy  Dy8  1  0.563029  0.937735  0.936433  1
  Dy  Dy9  1  0.935927  0.564362  0.935349  1
  Dy  Dy10  1  0.148315  0.548799  0.150678  1
  Dy  Dy11  1  0.311875  0.689547  0.690606  1
  Dy  Dy12  1  0.689984  0.310275  0.689466  1
  Dy  Dy13  1  0.553812  0.148738  0.148710  1
  Tm  Tm14  1  0.689741  0.309903  0.312045  1
  Tm  Tm15  1  0.689741  0.688311  0.312045  1
  Zn  Zn16  1  0.917257  0.915700  0.251343  1
  In  In17  1  0.243832  0.916576  0.923016  1
  In  In18  1  0.917252  0.244197  0.922390  1
  In  In19  1  0.917252  0.916161  0.922390  1
  Rh  Rh20  1  0.359188  0.356490  0.357392  1
  Rh  Rh21  1  0.923664  0.359594  0.357150  1
  Rh  Rh22  1  0.357408  0.357693  0.927206  1
  Rh  Rh23  1  0.359188  0.926933  0.357392  1
