# generated using pymatgen
data_Pr8Dy9Ho3Pb16
_symmetry_space_group_name_H-M   'P 1'
_cell_length_a   8.32950603
_cell_length_b   8.39391903
_cell_length_c   15.90075300
_cell_angle_alpha   90.00000000
_cell_angle_beta   90.00000000
_cell_angle_gamma   90.00911324
_symmetry_Int_Tables_number   1
_chemical_formula_structural   Pr8Dy9Ho3Pb16
_chemical_formula_sum   'Pr8 Dy9 Ho3 Pb16'
_cell_volume   1111.73609954
_cell_formula_units_Z   1
loop_
 _symmetry_equiv_pos_site_id
 _symmetry_equiv_pos_as_xyz
  1  'x, y, z'
loop_
 _atom_site_type_symbol
 _atom_site_label
 _atom_site_symmetry_multiplicity
 _atom_site_fract_x
 _atom_site_fract_y
 _atom_site_fract_z
 _atom_site_occupancy
  Pr  Pr0  1  0.475954  0.677783  0.597418  1
  Pr  Pr1  1  0.976049  0.822328  0.902563  1
  Pr  Pr2  1  0.523973  0.322249  0.097465  1
  Pr  Pr3  1  0.023951  0.177740  0.402562  1
  Pr  Pr4  1  0.523973  0.322249  0.402535  1
  Pr  Pr5  1  0.023951  0.177740  0.097438  1
  Pr  Pr6  1  0.475954  0.677783  0.902582  1
  Pr  Pr7  1  0.976049  0.822328  0.597437  1
  Dy  Dy8  1  0.632967  0.158274  0.622310  1
  Dy  Dy9  1  0.133136  0.341619  0.877697  1
  Dy  Dy10  1  0.366964  0.841669  0.122313  1
  Dy  Dy11  1  0.866950  0.658295  0.377660  1
  Dy  Dy12  1  0.366964  0.841669  0.377687  1
  Dy  Dy13  1  0.866950  0.658295  0.122340  1
  Dy  Dy14  1  0.632967  0.158274  0.877690  1
  Dy  Dy15  1  0.133136  0.341619  0.622303  1
  Dy  Dy16  1  0.799055  0.494877  0.750000  1
  Ho  Ho17  1  0.299004  0.005305  0.750000  1
  Ho  Ho18  1  0.201011  0.505253  0.250000  1
  Ho  Ho19  1  0.700994  0.994745  0.250000  1
  Pb  Pb20  1  0.705812  0.959522  0.456453  1
  Pb  Pb21  1  0.205825  0.540439  0.043540  1
  Pb  Pb22  1  0.294192  0.040449  0.956456  1
  Pb  Pb23  1  0.794225  0.459532  0.543444  1
  Pb  Pb24  1  0.294192  0.040449  0.543544  1
  Pb  Pb25  1  0.794225  0.459532  0.956556  1
  Pb  Pb26  1  0.705812  0.959522  0.043547  1
  Pb  Pb27  1  0.205825  0.540439  0.456460  1
  Pb  Pb28  1  0.437187  0.370502  0.750000  1
  Pb  Pb29  1  0.937511  0.129261  0.750000  1
  Pb  Pb30  1  0.562594  0.629454  0.250000  1
  Pb  Pb31  1  0.062604  0.870563  0.250000  1
  Pb  Pb32  1  0.663611  0.850548  0.750000  1
  Pb  Pb33  1  0.163654  0.649757  0.750000  1
  Pb  Pb34  1  0.336402  0.149726  0.250000  1
  Pb  Pb35  1  0.836379  0.350210  0.250000  1
