# generated using pymatgen
data_La3IO8
_symmetry_space_group_name_H-M   'P 1'
_cell_length_a   6.25590500
_cell_length_b   7.69991758
_cell_length_c   7.69771757
_cell_angle_alpha   70.46808236
_cell_angle_beta   90.00000000
_cell_angle_gamma   90.00000000
_symmetry_Int_Tables_number   1
_chemical_formula_structural   La3IO8
_chemical_formula_sum   'La6 I2 O16'
_cell_volume   349.46122680
_cell_formula_units_Z   2
loop_
 _symmetry_equiv_pos_site_id
 _symmetry_equiv_pos_as_xyz
  1  'x, y, z'
loop_
 _atom_site_type_symbol
 _atom_site_label
 _atom_site_symmetry_multiplicity
 _atom_site_fract_x
 _atom_site_fract_y
 _atom_site_fract_z
 _atom_site_occupancy
  La  La0  1  0.750000  0.110041  0.668507  1
  La  La1  1  0.250000  0.889959  0.331493  1
  La  La2  1  0.250000  0.399321  0.396198  1
  La  La3  1  0.750000  0.600679  0.603802  1
  La  La4  1  0.250000  0.328262  0.888824  1
  La  La5  1  0.750000  0.671738  0.111176  1
  I  I6  1  0.250000  0.814085  0.816812  1
  I  I7  1  0.750000  0.185915  0.183188  1
  O  O8  1  0.999541  0.340536  0.658301  1
  O  O9  1  0.499541  0.659464  0.341699  1
  O  O10  1  0.000459  0.659464  0.341699  1
  O  O11  1  0.500459  0.340536  0.658301  1
  O  O12  1  0.946323  0.807375  0.808709  1
  O  O13  1  0.446323  0.192625  0.191291  1
  O  O14  1  0.053677  0.192625  0.191291  1
  O  O15  1  0.553677  0.807375  0.808709  1
  O  O16  1  0.750000  0.976747  0.406521  1
  O  O17  1  0.250000  0.023253  0.593479  1
  O  O18  1  0.750000  0.337814  0.335569  1
  O  O19  1  0.250000  0.662186  0.664431  1
  O  O20  1  0.750000  0.410221  0.975006  1
  O  O21  1  0.250000  0.589779  0.024994  1
  O  O22  1  0.750000  0.037421  0.032533  1
  O  O23  1  0.250000  0.962579  0.967467  1
