# generated using pymatgen
data_Lu5(Hg2Pd)2
_symmetry_space_group_name_H-M   'P 1'
_cell_length_a   3.55728300
_cell_length_b   7.88244400
_cell_length_c   17.92139400
_cell_angle_alpha   90.00000000
_cell_angle_beta   90.00000000
_cell_angle_gamma   90.00000000
_symmetry_Int_Tables_number   1
_chemical_formula_structural   Lu5(Hg2Pd)2
_chemical_formula_sum   'Lu10 Hg8 Pd4'
_cell_volume   502.51739387
_cell_formula_units_Z   2
loop_
 _symmetry_equiv_pos_site_id
 _symmetry_equiv_pos_as_xyz
  1  'x, y, z'
loop_
 _atom_site_type_symbol
 _atom_site_label
 _atom_site_symmetry_multiplicity
 _atom_site_fract_x
 _atom_site_fract_y
 _atom_site_fract_z
 _atom_site_occupancy
  Lu  Lu0  1  0.000000  0.500000  0.500000  1
  Lu  Lu1  1  0.000000  0.000000  0.000000  1
  Lu  Lu2  1  0.000000  0.734424  0.286014  1
  Lu  Lu3  1  0.000000  0.265576  0.713986  1
  Lu  Lu4  1  0.000000  0.765576  0.786014  1
  Lu  Lu5  1  0.000000  0.234424  0.213986  1
  Lu  Lu6  1  0.000000  0.612635  0.083904  1
  Lu  Lu7  1  0.000000  0.387365  0.916096  1
  Lu  Lu8  1  0.000000  0.887365  0.583904  1
  Lu  Lu9  1  0.000000  0.112635  0.416096  1
  Hg  Hg10  1  0.500000  0.711513  0.937134  1
  Hg  Hg11  1  0.500000  0.288487  0.062866  1
  Hg  Hg12  1  0.500000  0.788487  0.437134  1
  Hg  Hg13  1  0.500000  0.211513  0.562866  1
  Hg  Hg14  1  0.500000  0.585619  0.647131  1
  Hg  Hg15  1  0.500000  0.414381  0.352869  1
  Hg  Hg16  1  0.500000  0.914381  0.147131  1
  Hg  Hg17  1  0.500000  0.085619  0.852869  1
  Pd  Pd18  1  0.500000  0.524465  0.196245  1
  Pd  Pd19  1  0.500000  0.475535  0.803755  1
  Pd  Pd20  1  0.500000  0.975535  0.696245  1
  Pd  Pd21  1  0.500000  0.024465  0.303755  1
