# generated using pymatgen
data_Dy2Tm(SiIr)2
_symmetry_space_group_name_H-M   'P 1'
_cell_length_a   5.55480800
_cell_length_b   5.55480717
_cell_length_c   13.19065600
_cell_angle_alpha   90.00000000
_cell_angle_beta   90.00000000
_cell_angle_gamma   136.90411150
_symmetry_Int_Tables_number   1
_chemical_formula_structural   Dy2Tm(SiIr)2
_chemical_formula_sum   'Dy4 Tm2 Si4 Ir4'
_cell_volume   278.07751906
_cell_formula_units_Z   2
loop_
 _symmetry_equiv_pos_site_id
 _symmetry_equiv_pos_as_xyz
  1  'x, y, z'
loop_
 _atom_site_type_symbol
 _atom_site_label
 _atom_site_symmetry_multiplicity
 _atom_site_fract_x
 _atom_site_fract_y
 _atom_site_fract_z
 _atom_site_occupancy
  Dy  Dy0  1  0.774367  0.225633  0.604641  1
  Dy  Dy1  1  0.225633  0.774367  0.395359  1
  Dy  Dy2  1  0.774367  0.225633  0.895359  1
  Dy  Dy3  1  0.225633  0.774367  0.104641  1
  Tm  Tm4  1  0.517097  0.482903  0.250000  1
  Tm  Tm5  1  0.482903  0.517097  0.750000  1
  Si  Si6  1  0.061367  0.938633  0.590452  1
  Si  Si7  1  0.061367  0.938633  0.909548  1
  Si  Si8  1  0.938633  0.061367  0.409548  1
  Si  Si9  1  0.938633  0.061367  0.090452  1
  Ir  Ir10  1  0.811803  0.188197  0.250000  1
  Ir  Ir11  1  0.188197  0.811803  0.750000  1
  Ir  Ir12  1  0.500000  0.500000  0.000000  1
  Ir  Ir13  1  0.500000  0.500000  0.500000  1
