# generated using pymatgen
data_Pr2MnBe4Ir5
_symmetry_space_group_name_H-M   'P 1'
_cell_length_a   6.46780577
_cell_length_b   6.46780646
_cell_length_c   6.46474144
_cell_angle_alpha   129.42123111
_cell_angle_beta   113.13971156
_cell_angle_gamma   88.42392057
_symmetry_Int_Tables_number   1
_chemical_formula_structural   Pr2MnBe4Ir5
_chemical_formula_sum   'Pr2 Mn1 Be4 Ir5'
_cell_volume   182.47851462
_cell_formula_units_Z   1
loop_
 _symmetry_equiv_pos_site_id
 _symmetry_equiv_pos_as_xyz
  1  'x, y, z'
loop_
 _atom_site_type_symbol
 _atom_site_label
 _atom_site_symmetry_multiplicity
 _atom_site_fract_x
 _atom_site_fract_y
 _atom_site_fract_z
 _atom_site_occupancy
  Pr  Pr0  1  0.253961  0.995012  0.748973  1
  Pr  Pr1  1  0.746039  0.004988  0.251027  1
  Mn  Mn2  1  0.000000  0.500000  0.000000  1
  Be  Be3  1  0.081730  0.306231  0.236783  1
  Be  Be4  1  0.918270  0.693769  0.763217  1
  Be  Be5  1  0.430551  0.655053  0.236783  1
  Be  Be6  1  0.569449  0.344947  0.763217  1
  Ir  Ir7  1  0.500000  0.500000  0.500000  1
  Ir  Ir8  1  0.251552  0.987783  0.254913  1
  Ir  Ir9  1  0.748448  0.012217  0.745087  1
  Ir  Ir10  1  0.232870  0.496639  0.745087  1
  Ir  Ir11  1  0.767130  0.503361  0.254913  1
