# generated using pymatgen
data_K7RbLi4(ScBi2)4
_symmetry_space_group_name_H-M   'P 1'
_cell_length_a   10.92438546
_cell_length_b   10.92438532
_cell_length_c   7.12404239
_cell_angle_alpha   90.06033300
_cell_angle_beta   89.93967377
_cell_angle_gamma   98.76775688
_symmetry_Int_Tables_number   1
_chemical_formula_structural   K7RbLi4(ScBi2)4
_chemical_formula_sum   'K7 Rb1 Li4 Sc4 Bi8'
_cell_volume   840.26290206
_cell_formula_units_Z   1
loop_
 _symmetry_equiv_pos_site_id
 _symmetry_equiv_pos_as_xyz
  1  'x, y, z'
loop_
 _atom_site_type_symbol
 _atom_site_label
 _atom_site_symmetry_multiplicity
 _atom_site_fract_x
 _atom_site_fract_y
 _atom_site_fract_z
 _atom_site_occupancy
  K  K0  1  0.074123  0.424148  0.749918  1
  K  K1  1  0.671696  0.328304  0.781812  1
  K  K2  1  0.328848  0.671152  0.217950  1
  K  K3  1  0.575852  0.925877  0.749918  1
  K  K4  1  0.425406  0.075586  0.249557  1
  K  K5  1  0.924414  0.574594  0.249557  1
  K  K6  1  0.827620  0.172380  0.282291  1
  Rb  Rb7  1  0.176475  0.823525  0.717754  1
  Li  Li8  1  0.122184  0.123521  0.499844  1
  Li  Li9  1  0.876479  0.877816  0.499844  1
  Li  Li10  1  0.377794  0.377523  0.000225  1
  Li  Li11  1  0.622477  0.622206  0.000225  1
  Sc  Sc12  1  0.869922  0.871552  0.999989  1
  Sc  Sc13  1  0.371551  0.371083  0.499703  1
  Sc  Sc14  1  0.628917  0.628449  0.499703  1
  Sc  Sc15  1  0.128448  0.130078  0.999989  1
  Bi  Bi16  1  0.845372  0.652863  0.750537  1
  Bi  Bi17  1  0.096583  0.903417  0.230259  1
  Bi  Bi18  1  0.404177  0.595823  0.732784  1
  Bi  Bi19  1  0.598625  0.401375  0.268360  1
  Bi  Bi20  1  0.651871  0.847144  0.250165  1
  Bi  Bi21  1  0.152856  0.348129  0.250165  1
  Bi  Bi22  1  0.347137  0.154628  0.750537  1
  Bi  Bi23  1  0.901176  0.098824  0.768913  1
