# generated using pymatgen
data_KTb2CuSe4
_symmetry_space_group_name_H-M   'P 1'
_cell_length_a   7.36382943
_cell_length_b   7.36382906
_cell_length_c   14.40909800
_cell_angle_alpha   90.00000000
_cell_angle_beta   90.00000000
_cell_angle_gamma   147.41214319
_symmetry_Int_Tables_number   1
_chemical_formula_structural   KTb2CuSe4
_chemical_formula_sum   'K2 Tb4 Cu2 Se8'
_cell_volume   420.82767521
_cell_formula_units_Z   2
loop_
 _symmetry_equiv_pos_site_id
 _symmetry_equiv_pos_as_xyz
  1  'x, y, z'
loop_
 _atom_site_type_symbol
 _atom_site_label
 _atom_site_symmetry_multiplicity
 _atom_site_fract_x
 _atom_site_fract_y
 _atom_site_fract_z
 _atom_site_occupancy
  K  K0  1  0.110377  0.889623  0.250000  1
  K  K1  1  0.889623  0.110377  0.750000  1
  Tb  Tb2  1  0.634492  0.365508  0.935423  1
  Tb  Tb3  1  0.365508  0.634492  0.435423  1
  Tb  Tb4  1  0.634492  0.365508  0.564577  1
  Tb  Tb5  1  0.365508  0.634492  0.064577  1
  Cu  Cu6  1  0.161483  0.838517  0.750000  1
  Cu  Cu7  1  0.838517  0.161483  0.250000  1
  Se  Se8  1  0.000000  0.000000  0.500000  1
  Se  Se9  1  0.000000  0.000000  0.000000  1
  Se  Se10  1  0.734923  0.265077  0.112070  1
  Se  Se11  1  0.265077  0.734923  0.887930  1
  Se  Se12  1  0.565242  0.434758  0.750000  1
  Se  Se13  1  0.734923  0.265077  0.387930  1
  Se  Se14  1  0.434758  0.565242  0.250000  1
  Se  Se15  1  0.265077  0.734923  0.612070  1
