# generated using pymatgen
data_La7(PrIn4)5
_symmetry_space_group_name_H-M   'P 1'
_cell_length_a   6.84521029
_cell_length_b   10.81849025
_cell_length_c   12.75741600
_cell_angle_alpha   90.19136425
_cell_angle_beta   90.07122205
_cell_angle_gamma   90.09162290
_symmetry_Int_Tables_number   1
_chemical_formula_structural   La7(PrIn4)5
_chemical_formula_sum   'La7 Pr5 In20'
_cell_volume   944.74119652
_cell_formula_units_Z   1
loop_
 _symmetry_equiv_pos_site_id
 _symmetry_equiv_pos_as_xyz
  1  'x, y, z'
loop_
 _atom_site_type_symbol
 _atom_site_label
 _atom_site_symmetry_multiplicity
 _atom_site_fract_x
 _atom_site_fract_y
 _atom_site_fract_z
 _atom_site_occupancy
  La  La0  1  0.886901  0.489434  0.144591  1
  La  La1  1  0.614184  0.011506  0.645546  1
  La  La2  1  0.112756  0.989244  0.853888  1
  La  La3  1  0.385866  0.511205  0.355673  1
  La  La4  1  0.112750  0.510329  0.855597  1
  La  La5  1  0.387006  0.989580  0.355600  1
  La  La6  1  0.885837  0.009408  0.145157  1
  Pr  Pr7  1  0.352001  0.749380  0.061524  1
  Pr  Pr8  1  0.149300  0.752481  0.561717  1
  Pr  Pr9  1  0.648372  0.248488  0.938342  1
  Pr  Pr10  1  0.852902  0.250289  0.438810  1
  Pr  Pr11  1  0.613098  0.488587  0.643732  1
  In  In12  1  0.619672  0.748671  0.507373  1
  In  In13  1  0.880275  0.748929  0.003413  1
  In  In14  1  0.383196  0.251422  0.495716  1
  In  In15  1  0.118781  0.249788  0.995456  1
  In  In16  1  0.658642  0.749241  0.246393  1
  In  In17  1  0.839708  0.747346  0.744258  1
  In  In18  1  0.341160  0.252017  0.753514  1
  In  In19  1  0.159072  0.249827  0.254249  1
  In  In20  1  0.104807  0.749777  0.287143  1
  In  In21  1  0.394050  0.749106  0.786904  1
  In  In22  1  0.893000  0.253339  0.712785  1
  In  In23  1  0.605874  0.250187  0.213095  1
  In  In24  1  0.872055  0.547813  0.405726  1
  In  In25  1  0.627986  0.950807  0.905345  1
  In  In26  1  0.128738  0.050737  0.594807  1
  In  In27  1  0.373297  0.451727  0.094710  1
  In  In28  1  0.129405  0.454478  0.595737  1
  In  In29  1  0.371872  0.047618  0.095003  1
  In  In30  1  0.871433  0.951472  0.405900  1
  In  In31  1  0.626007  0.545764  0.902295  1
