# generated using pymatgen
data_YHoSc3Si7Pt9
_symmetry_space_group_name_H-M   'P 1'
_cell_length_a   10.05647500
_cell_length_b   10.05647540
_cell_length_c   3.97792200
_cell_angle_alpha   90.00000000
_cell_angle_beta   90.00000000
_cell_angle_gamma   120.00000196
_symmetry_Int_Tables_number   1
_chemical_formula_structural   YHoSc3Si7Pt9
_chemical_formula_sum   'Y1 Ho1 Sc3 Si7 Pt9'
_cell_volume   348.40025185
_cell_formula_units_Z   1
loop_
 _symmetry_equiv_pos_site_id
 _symmetry_equiv_pos_as_xyz
  1  'x, y, z'
loop_
 _atom_site_type_symbol
 _atom_site_label
 _atom_site_symmetry_multiplicity
 _atom_site_fract_x
 _atom_site_fract_y
 _atom_site_fract_z
 _atom_site_occupancy
  Y  Y0  1  0.000000  0.000000  0.000000  1
  Ho  Ho1  1  0.333333  0.666667  0.500000  1
  Sc  Sc2  1  0.894853  0.455721  0.500000  1
  Sc  Sc3  1  0.560869  0.105147  0.500000  1
  Sc  Sc4  1  0.544279  0.439131  0.500000  1
  Si  Si5  1  0.245960  0.195316  0.500000  1
  Si  Si6  1  0.804684  0.050645  0.500000  1
  Si  Si7  1  0.949355  0.754040  0.500000  1
  Si  Si8  1  0.556397  0.647180  0.000000  1
  Si  Si9  1  0.352820  0.909216  0.000000  1
  Si  Si10  1  0.090784  0.443603  0.000000  1
  Si  Si11  1  0.666667  0.333333  0.000000  1
  Pt  Pt12  1  0.219117  0.935903  0.500000  1
  Pt  Pt13  1  0.064097  0.283214  0.500000  1
  Pt  Pt14  1  0.716786  0.780883  0.500000  1
  Pt  Pt15  1  0.314308  0.413690  0.000000  1
  Pt  Pt16  1  0.586310  0.900618  0.000000  1
  Pt  Pt17  1  0.099382  0.685692  0.000000  1
  Pt  Pt18  1  0.383774  0.171567  0.000000  1
  Pt  Pt19  1  0.828433  0.212207  0.000000  1
  Pt  Pt20  1  0.787793  0.616226  0.000000  1
