# generated using pymatgen
data_YHo3Si4(RuRh)2
_symmetry_space_group_name_H-M   'P 1'
_cell_length_a   4.31350800
_cell_length_b   6.93849106
_cell_length_c   7.18957102
_cell_angle_alpha   90.06660486
_cell_angle_beta   90.00000000
_cell_angle_gamma   90.00000000
_symmetry_Int_Tables_number   1
_chemical_formula_structural   YHo3Si4(RuRh)2
_chemical_formula_sum   'Y1 Ho3 Si4 Ru2 Rh2'
_cell_volume   215.17822757
_cell_formula_units_Z   1
loop_
 _symmetry_equiv_pos_site_id
 _symmetry_equiv_pos_as_xyz
  1  'x, y, z'
loop_
 _atom_site_type_symbol
 _atom_site_label
 _atom_site_symmetry_multiplicity
 _atom_site_fract_x
 _atom_site_fract_y
 _atom_site_fract_z
 _atom_site_occupancy
  Y  Y0  1  0.250000  0.986752  0.812387  1
  Ho  Ho1  1  0.750000  0.013711  0.188711  1
  Ho  Ho2  1  0.250000  0.492920  0.685996  1
  Ho  Ho3  1  0.750000  0.507037  0.313904  1
  Si  Si4  1  0.250000  0.302492  0.099924  1
  Si  Si5  1  0.750000  0.697464  0.900500  1
  Si  Si6  1  0.250000  0.799642  0.385496  1
  Si  Si7  1  0.750000  0.200673  0.614081  1
  Ru  Ru8  1  0.750000  0.346162  0.932086  1
  Ru  Ru9  1  0.250000  0.653351  0.068518  1
  Rh  Rh10  1  0.750000  0.845874  0.564835  1
  Rh  Rh11  1  0.250000  0.153920  0.433562  1
