# generated using pymatgen
data_RbMgMoH9
_symmetry_space_group_name_H-M   'P 1'
_cell_length_a   8.74208600
_cell_length_b   8.74208515
_cell_length_c   5.39916300
_cell_angle_alpha   90.00000000
_cell_angle_beta   90.00000000
_cell_angle_gamma   120.00001078
_symmetry_Int_Tables_number   1
_chemical_formula_structural   RbMgMoH9
_chemical_formula_sum   'Rb3 Mg3 Mo3 H27'
_cell_volume   357.34452322
_cell_formula_units_Z   3
loop_
 _symmetry_equiv_pos_site_id
 _symmetry_equiv_pos_as_xyz
  1  'x, y, z'
loop_
 _atom_site_type_symbol
 _atom_site_label
 _atom_site_symmetry_multiplicity
 _atom_site_fract_x
 _atom_site_fract_y
 _atom_site_fract_z
 _atom_site_occupancy
  Rb  Rb0  1  0.000000  0.590619  0.000000  1
  Rb  Rb1  1  0.409381  0.409381  0.000000  1
  Rb  Rb2  1  0.590619  0.000000  0.000000  1
  Mg  Mg3  1  0.000000  0.286362  0.500000  1
  Mg  Mg4  1  0.713638  0.713638  0.500000  1
  Mg  Mg5  1  0.286362  0.000000  0.500000  1
  Mo  Mo6  1  0.666667  0.333333  0.500000  1
  Mo  Mo7  1  0.333333  0.666667  0.500000  1
  Mo  Mo8  1  0.000000  0.000000  0.000000  1
  H  H9  1  0.797530  0.302550  0.724321  1
  H  H10  1  0.697450  0.494979  0.724321  1
  H  H11  1  0.505021  0.202470  0.724321  1
  H  H12  1  0.202470  0.505021  0.275679  1
  H  H13  1  0.505021  0.202470  0.275679  1
  H  H14  1  0.797530  0.302550  0.275679  1
  H  H15  1  0.697450  0.494979  0.275679  1
  H  H16  1  0.302550  0.797530  0.724321  1
  H  H17  1  0.494979  0.697450  0.724321  1
  H  H18  1  0.198306  0.000000  0.000000  1
  H  H19  1  0.801694  0.801694  0.000000  1
  H  H20  1  0.000000  0.198306  0.000000  1
  H  H21  1  0.862053  0.000000  0.246688  1
  H  H22  1  0.137947  0.137947  0.753312  1
  H  H23  1  0.000000  0.862053  0.753312  1
  H  H24  1  0.000000  0.862053  0.246688  1
  H  H25  1  0.137947  0.137947  0.246688  1
  H  H26  1  0.862053  0.000000  0.753312  1
  H  H27  1  0.120621  0.628161  0.500000  1
  H  H28  1  0.507540  0.879379  0.500000  1
  H  H29  1  0.371839  0.492460  0.500000  1
  H  H30  1  0.492460  0.371839  0.500000  1
  H  H31  1  0.879379  0.507540  0.500000  1
  H  H32  1  0.628161  0.120621  0.500000  1
  H  H33  1  0.202470  0.505021  0.724321  1
  H  H34  1  0.302550  0.797530  0.275679  1
  H  H35  1  0.494979  0.697450  0.275679  1
