# generated using pymatgen
data_LiHo12Ni4Sn
_symmetry_space_group_name_H-M   'P 1'
_cell_length_a   8.31476008
_cell_length_b   8.31476128
_cell_length_c   8.31476089
_cell_angle_alpha   111.98145515
_cell_angle_beta   109.94365430
_cell_angle_gamma   106.53480413
_symmetry_Int_Tables_number   1
_chemical_formula_structural   LiHo12Ni4Sn
_chemical_formula_sum   'Li1 Ho12 Ni4 Sn1'
_cell_volume   441.50067772
_cell_formula_units_Z   1
loop_
 _symmetry_equiv_pos_site_id
 _symmetry_equiv_pos_as_xyz
  1  'x, y, z'
loop_
 _atom_site_type_symbol
 _atom_site_label
 _atom_site_symmetry_multiplicity
 _atom_site_fract_x
 _atom_site_fract_y
 _atom_site_fract_z
 _atom_site_occupancy
  Li  Li0  1  0.000000  0.000000  0.000000  1
  Ho  Ho1  1  0.425374  0.226765  0.198608  1
  Ho  Ho2  1  0.574626  0.773235  0.801392  1
  Ho  Ho3  1  0.028156  0.226765  0.801392  1
  Ho  Ho4  1  0.971844  0.773235  0.198608  1
  Ho  Ho5  1  0.182716  0.292856  0.475572  1
  Ho  Ho6  1  0.817284  0.707144  0.524428  1
  Ho  Ho7  1  0.182716  0.707144  0.889861  1
  Ho  Ho8  1  0.817284  0.292856  0.110139  1
  Ho  Ho9  1  0.321018  0.626896  0.305877  1
  Ho  Ho10  1  0.678982  0.373104  0.694123  1
  Ho  Ho11  1  0.321018  0.015141  0.694123  1
  Ho  Ho12  1  0.678982  0.984859  0.305877  1
  Ni  Ni13  1  0.352211  0.000000  0.352211  1
  Ni  Ni14  1  0.647789  0.000000  0.647789  1
  Ni  Ni15  1  0.124815  0.624815  0.500000  1
  Ni  Ni16  1  0.875185  0.375185  0.500000  1
  Sn  Sn17  1  0.500000  0.500000  0.000000  1
