# generated using pymatgen
data_NdGd(CrN3)2
_symmetry_space_group_name_H-M   'P 1'
_cell_length_a   7.06568538
_cell_length_b   7.06568585
_cell_length_c   5.91772224
_cell_angle_alpha   77.63266455
_cell_angle_beta   77.63266410
_cell_angle_gamma   87.06940443
_symmetry_Int_Tables_number   1
_chemical_formula_structural   NdGd(CrN3)2
_chemical_formula_sum   'Nd2 Gd2 Cr4 N12'
_cell_volume   281.87921903
_cell_formula_units_Z   2
loop_
 _symmetry_equiv_pos_site_id
 _symmetry_equiv_pos_as_xyz
  1  'x, y, z'
loop_
 _atom_site_type_symbol
 _atom_site_label
 _atom_site_symmetry_multiplicity
 _atom_site_fract_x
 _atom_site_fract_y
 _atom_site_fract_z
 _atom_site_occupancy
  Nd  Nd0  1  0.331763  0.668237  0.750000  1
  Nd  Nd1  1  0.668237  0.331763  0.250000  1
  Gd  Gd2  1  0.092033  0.907967  0.250000  1
  Gd  Gd3  1  0.907967  0.092033  0.750000  1
  Cr  Cr4  1  0.376199  0.198988  0.758129  1
  Cr  Cr5  1  0.623801  0.801012  0.241871  1
  Cr  Cr6  1  0.801012  0.623801  0.741871  1
  Cr  Cr7  1  0.198988  0.376199  0.258129  1
  N  N8  1  0.995619  0.775548  0.654305  1
  N  N9  1  0.871587  0.399985  0.837840  1
  N  N10  1  0.775548  0.995619  0.154305  1
  N  N11  1  0.128413  0.600015  0.162160  1
  N  N12  1  0.004381  0.224452  0.345695  1
  N  N13  1  0.224452  0.004381  0.845695  1
  N  N14  1  0.600015  0.128413  0.662160  1
  N  N15  1  0.629817  0.675872  0.995618  1
  N  N16  1  0.370183  0.324128  0.004382  1
  N  N17  1  0.399985  0.871587  0.337840  1
  N  N18  1  0.675872  0.629817  0.495618  1
  N  N19  1  0.324128  0.370183  0.504382  1
