# generated using pymatgen
data_Sr2PrNdAl6O14
_symmetry_space_group_name_H-M   'P 1'
_cell_length_a   7.92636400
_cell_length_b   7.92636441
_cell_length_c   5.24793111
_cell_angle_alpha   89.98354502
_cell_angle_beta   89.98353857
_cell_angle_gamma   90.09855966
_symmetry_Int_Tables_number   1
_chemical_formula_structural   Sr2PrNdAl6O14
_chemical_formula_sum   'Sr2 Pr1 Nd1 Al6 O14'
_cell_volume   329.71256203
_cell_formula_units_Z   1
loop_
 _symmetry_equiv_pos_site_id
 _symmetry_equiv_pos_as_xyz
  1  'x, y, z'
loop_
 _atom_site_type_symbol
 _atom_site_label
 _atom_site_symmetry_multiplicity
 _atom_site_fract_x
 _atom_site_fract_y
 _atom_site_fract_z
 _atom_site_occupancy
  Sr  Sr0  1  0.161050  0.838920  0.489652  1
  Sr  Sr1  1  0.838920  0.161050  0.489652  1
  Pr  Pr2  1  0.661869  0.661869  0.513100  1
  Nd  Nd3  1  0.337698  0.337698  0.514359  1
  Al  Al4  1  0.358003  0.641372  0.039394  1
  Al  Al5  1  0.855080  0.855080  0.962005  1
  Al  Al6  1  0.641372  0.358003  0.039394  1
  Al  Al7  1  0.145429  0.145429  0.962113  1
  Al  Al8  1  0.499859  0.000327  0.997700  1
  Al  Al9  1  0.000327  0.499859  0.997700  1
  O  O10  1  0.000287  0.000287  0.839382  1
  O  O11  1  0.499063  0.499063  0.191215  1
  O  O12  1  0.416719  0.834475  0.185771  1
  O  O13  1  0.907280  0.660810  0.805863  1
  O  O14  1  0.583067  0.165324  0.186683  1
  O  O15  1  0.093729  0.339492  0.804711  1
  O  O16  1  0.339492  0.093729  0.804711  1
  O  O17  1  0.834475  0.416719  0.185771  1
  O  O18  1  0.660810  0.907280  0.805863  1
  O  O19  1  0.165324  0.583067  0.186683  1
  O  O20  1  0.368585  0.629976  0.705727  1
  O  O21  1  0.847466  0.847466  0.293254  1
  O  O22  1  0.629976  0.368585  0.705727  1
  O  O23  1  0.154121  0.154121  0.293572  1
