# generated using pymatgen
data_V2InBr6
_symmetry_space_group_name_H-M   'P 1'
_cell_length_a   8.71804748
_cell_length_b   8.48011667
_cell_length_c   8.27842700
_cell_angle_alpha   130.26283084
_cell_angle_beta   113.98717820
_cell_angle_gamma   42.56453358
_symmetry_Int_Tables_number   1
_chemical_formula_structural   V2InBr6
_chemical_formula_sum   'V2 In1 Br6'
_cell_volume   313.03290172
_cell_formula_units_Z   1
loop_
 _symmetry_equiv_pos_site_id
 _symmetry_equiv_pos_as_xyz
  1  'x, y, z'
loop_
 _atom_site_type_symbol
 _atom_site_label
 _atom_site_symmetry_multiplicity
 _atom_site_fract_x
 _atom_site_fract_y
 _atom_site_fract_z
 _atom_site_occupancy
  V  V0  1  0.136404  0.573058  0.119579  1
  V  V1  1  0.633749  0.075587  0.119757  1
  In  In2  1  0.129350  0.068779  0.103959  1
  Br  Br3  1  0.904419  0.104032  0.398048  1
  Br  Br4  1  0.501867  0.465638  0.117640  1
  Br  Br5  1  0.366348  0.042617  0.838638  1
  Br  Br6  1  0.287098  0.465455  0.405395  1
  Br  Br7  1  0.768332  0.686151  0.125383  1
  Br  Br8  1  0.982718  0.682181  0.833120  1
