# generated using pymatgen
data_AlAgI4
_symmetry_space_group_name_H-M   'P 1'
_cell_length_a   8.91344600
_cell_length_b   7.76629293
_cell_length_c   16.57386470
_cell_angle_alpha   91.46591947
_cell_angle_beta   90.00000000
_cell_angle_gamma   90.00000000
_symmetry_Int_Tables_number   1
_chemical_formula_structural   AlAgI4
_chemical_formula_sum   'Al4 Ag4 I16'
_cell_volume   1146.94088588
_cell_formula_units_Z   4
loop_
 _symmetry_equiv_pos_site_id
 _symmetry_equiv_pos_as_xyz
  1  'x, y, z'
loop_
 _atom_site_type_symbol
 _atom_site_label
 _atom_site_symmetry_multiplicity
 _atom_site_fract_x
 _atom_site_fract_y
 _atom_site_fract_z
 _atom_site_occupancy
  Al  Al0  1  0.178690  0.698934  0.607377  1
  Al  Al1  1  0.821310  0.301066  0.392623  1
  Al  Al2  1  0.678690  0.301066  0.892623  1
  Al  Al3  1  0.321310  0.698934  0.107377  1
  Ag  Ag4  1  0.417201  0.806037  0.867339  1
  Ag  Ag5  1  0.582799  0.193963  0.132661  1
  Ag  Ag6  1  0.917201  0.193963  0.632661  1
  Ag  Ag7  1  0.082799  0.806037  0.367339  1
  I  I8  1  0.168450  0.403986  0.675847  1
  I  I9  1  0.831550  0.596014  0.324153  1
  I  I10  1  0.668450  0.596014  0.824153  1
  I  I11  1  0.331550  0.403986  0.175847  1
  I  I12  1  0.345174  0.896389  0.695421  1
  I  I13  1  0.654826  0.103611  0.304579  1
  I  I14  1  0.845174  0.103611  0.804579  1
  I  I15  1  0.154826  0.896389  0.195421  1
  I  I16  1  0.193903  0.665942  0.967170  1
  I  I17  1  0.806097  0.334058  0.032830  1
  I  I18  1  0.693903  0.334058  0.532830  1
  I  I19  1  0.306097  0.665942  0.467170  1
  I  I20  1  0.913482  0.825438  0.592036  1
  I  I21  1  0.086518  0.174562  0.407964  1
  I  I22  1  0.413482  0.174562  0.907964  1
  I  I23  1  0.586518  0.825438  0.092036  1
