# generated using pymatgen
data_Pr4HoErGa4
_symmetry_space_group_name_H-M   'P 1'
_cell_length_a   7.72507900
_cell_length_b   7.72507900
_cell_length_c   4.60518200
_cell_angle_alpha   90.00000000
_cell_angle_beta   90.00000000
_cell_angle_gamma   90.00000000
_symmetry_Int_Tables_number   1
_chemical_formula_structural   Pr4HoErGa4
_chemical_formula_sum   'Pr4 Ho1 Er1 Ga4'
_cell_volume   274.82273497
_cell_formula_units_Z   1
loop_
 _symmetry_equiv_pos_site_id
 _symmetry_equiv_pos_as_xyz
  1  'x, y, z'
loop_
 _atom_site_type_symbol
 _atom_site_label
 _atom_site_symmetry_multiplicity
 _atom_site_fract_x
 _atom_site_fract_y
 _atom_site_fract_z
 _atom_site_occupancy
  Pr  Pr0  1  0.325935  0.174233  0.500001  1
  Pr  Pr1  1  0.825767  0.325935  0.500001  1
  Pr  Pr2  1  0.174233  0.674065  0.500001  1
  Pr  Pr3  1  0.674065  0.825767  0.500001  1
  Ho  Ho4  1  0.000000  0.000000  0.000000  1
  Er  Er5  1  0.499999  0.499999  0.000000  1
  Ga  Ga6  1  0.619928  0.120154  0.000000  1
  Ga  Ga7  1  0.120154  0.380072  0.000000  1
  Ga  Ga8  1  0.879847  0.619928  0.000000  1
  Ga  Ga9  1  0.380072  0.879847  0.000000  1
