# generated using pymatgen
data_Pr2Zr3Si4
_symmetry_space_group_name_H-M   'P 1'
_cell_length_a   7.47281200
_cell_length_b   7.26335885
_cell_length_c   7.45353349
_cell_angle_alpha   71.90992032
_cell_angle_beta   90.00000000
_cell_angle_gamma   90.00000000
_symmetry_Int_Tables_number   1
_chemical_formula_structural   Pr2Zr3Si4
_chemical_formula_sum   'Pr4 Zr6 Si8'
_cell_volume   384.56312979
_cell_formula_units_Z   2
loop_
 _symmetry_equiv_pos_site_id
 _symmetry_equiv_pos_as_xyz
  1  'x, y, z'
loop_
 _atom_site_type_symbol
 _atom_site_label
 _atom_site_symmetry_multiplicity
 _atom_site_fract_x
 _atom_site_fract_y
 _atom_site_fract_z
 _atom_site_occupancy
  Pr  Pr0  1  0.670124  0.926203  0.690175  1
  Pr  Pr1  1  0.329876  0.073797  0.309825  1
  Pr  Pr2  1  0.170124  0.573797  0.309825  1
  Pr  Pr3  1  0.829876  0.426203  0.690175  1
  Zr  Zr4  1  0.677467  0.750701  0.245855  1
  Zr  Zr5  1  0.322533  0.249299  0.754145  1
  Zr  Zr6  1  0.177467  0.749299  0.754145  1
  Zr  Zr7  1  0.822533  0.250701  0.245855  1
  Zr  Zr8  1  0.000000  0.000000  0.000000  1
  Zr  Zr9  1  0.500000  0.500000  0.000000  1
  Si  Si10  1  0.963859  0.876792  0.416282  1
  Si  Si11  1  0.036141  0.123208  0.583718  1
  Si  Si12  1  0.463859  0.623208  0.583718  1
  Si  Si13  1  0.536141  0.376792  0.416282  1
  Si  Si14  1  0.877874  0.628175  0.996115  1
  Si  Si15  1  0.122126  0.371825  0.003885  1
  Si  Si16  1  0.377874  0.871825  0.003885  1
  Si  Si17  1  0.622126  0.128175  0.996115  1
