# generated using pymatgen
data_Sr12DyY7Ti3(Ge3O16)3
_symmetry_space_group_name_H-M   'P 1'
_cell_length_a   11.48575637
_cell_length_b   11.48575605
_cell_length_c   11.48577400
_cell_angle_alpha   109.47125053
_cell_angle_beta   109.47124996
_cell_angle_gamma   109.47118940
_symmetry_Int_Tables_number   1
_chemical_formula_structural   Sr12DyY7Ti3(Ge3O16)3
_chemical_formula_sum   'Sr12 Dy1 Y7 Ti3 Ge9 O48'
_cell_volume   1166.42659688
_cell_formula_units_Z   1
loop_
 _symmetry_equiv_pos_site_id
 _symmetry_equiv_pos_as_xyz
  1  'x, y, z'
loop_
 _atom_site_type_symbol
 _atom_site_label
 _atom_site_symmetry_multiplicity
 _atom_site_fract_x
 _atom_site_fract_y
 _atom_site_fract_z
 _atom_site_occupancy
  Sr  Sr0  1  0.750437  0.124870  0.374192  1
  Sr  Sr1  1  0.250690  0.375060  0.124708  1
  Sr  Sr2  1  0.125612  0.250232  0.374512  1
  Sr  Sr3  1  0.375521  0.749907  0.124429  1
  Sr  Sr4  1  0.749388  0.624348  0.874781  1
  Sr  Sr5  1  0.126323  0.376093  0.750098  1
  Sr  Sr6  1  0.624215  0.874803  0.750520  1
  Sr  Sr7  1  0.249537  0.875688  0.626370  1
  Sr  Sr8  1  0.873672  0.624068  0.250636  1
  Sr  Sr9  1  0.623897  0.249398  0.874831  1
  Sr  Sr10  1  0.875018  0.749597  0.625338  1
  Sr  Sr11  1  0.375815  0.125975  0.249686  1
  Dy  Dy12  1  0.499926  0.999889  0.999948  1
  Y  Y13  1  0.999959  0.000050  0.000016  1
  Y  Y14  1  0.999378  0.499480  0.998416  1
  Y  Y15  1  0.500066  0.500030  0.000119  1
  Y  Y16  1  0.998951  0.499918  0.500499  1
  Y  Y17  1  0.501035  0.001575  0.500960  1
  Y  Y18  1  0.500514  0.499033  0.500026  1
  Y  Y19  1  0.000069  0.000070  0.499976  1
  Ti  Ti20  1  0.124882  0.874980  0.249916  1
  Ti  Ti21  1  0.875247  0.124812  0.749804  1
  Ti  Ti22  1  0.249904  0.624849  0.375426  1
  Ge  Ge23  1  0.375109  0.250495  0.625355  1
  Ge  Ge24  1  0.749481  0.874602  0.124578  1
  Ge  Ge25  1  0.125518  0.750449  0.875137  1
  Ge  Ge26  1  0.375159  0.625200  0.750207  1
  Ge  Ge27  1  0.624991  0.749657  0.374943  1
  Ge  Ge28  1  0.874382  0.249739  0.124924  1
  Ge  Ge29  1  0.250515  0.125400  0.875418  1
  Ge  Ge30  1  0.750050  0.375020  0.624624  1
  Ge  Ge31  1  0.624725  0.374489  0.249617  1
  O  O32  1  0.409797  0.802429  0.790569  1
  O  O33  1  0.880628  0.392468  0.090337  1
  O  O34  1  0.106990  0.988482  0.698828  1
  O  O35  1  0.512020  0.619660  0.709703  1
  O  O36  1  0.694704  0.090241  0.712797  1
  O  O37  1  0.618886  0.709566  0.511984  1
  O  O38  1  0.619548  0.409429  0.107186  1
  O  O39  1  0.710980  0.513013  0.620306  1
  O  O40  1  0.801216  0.511772  0.392604  1
  O  O41  1  0.988294  0.789786  0.881427  1
  O  O42  1  0.789999  0.879908  0.987760  1
  O  O43  1  0.709735  0.697525  0.090152  1
  O  O44  1  0.408342  0.107220  0.619027  1
  O  O45  1  0.394763  0.806594  0.517644  1
  O  O46  1  0.090314  0.710488  0.697874  1
  O  O47  1  0.104405  0.622492  0.411497  1
  O  O48  1  0.512702  0.392829  0.802607  1
  O  O49  1  0.089025  0.877107  0.395412  1
  O  O50  1  0.981654  0.693343  0.104770  1
  O  O51  1  0.197995  0.488350  0.607138  1
  O  O52  1  0.697207  0.107314  0.987824  1
  O  O53  1  0.788884  0.407986  0.801028  1
  O  O54  1  0.392792  0.090286  0.880589  1
  O  O55  1  0.876768  0.981076  0.787874  1
  O  O56  1  0.590052  0.197229  0.209364  1
  O  O57  1  0.119780  0.607791  0.909160  1
  O  O58  1  0.892822  0.011541  0.301224  1
  O  O59  1  0.487728  0.379990  0.289702  1
  O  O60  1  0.306311  0.910612  0.288214  1
  O  O61  1  0.380778  0.289537  0.487945  1
  O  O62  1  0.380311  0.590336  0.892480  1
  O  O63  1  0.288767  0.481635  0.377166  1
  O  O64  1  0.123291  0.018557  0.212071  1
  O  O65  1  0.607377  0.909938  0.119603  1
  O  O66  1  0.211572  0.590372  0.194617  1
  O  O67  1  0.197690  0.210148  0.590111  1
  O  O68  1  0.302874  0.893009  0.012330  1
  O  O69  1  0.018414  0.306141  0.895004  1
  O  O70  1  0.911206  0.123198  0.604341  1
  O  O71  1  0.487589  0.607352  0.197717  1
  O  O72  1  0.892816  0.379975  0.590546  1
  O  O73  1  0.909916  0.290114  0.302445  1
  O  O74  1  0.607732  0.198031  0.487223  1
  O  O75  1  0.591462  0.892867  0.381386  1
  O  O76  1  0.290224  0.302409  0.909614  1
  O  O77  1  0.210006  0.119893  0.012193  1
  O  O78  1  0.011404  0.210223  0.118441  1
  O  O79  1  0.802244  0.789958  0.410157  1
