# generated using pymatgen
data_Y2As4O9
_symmetry_space_group_name_H-M   'P 1'
_cell_length_a   6.76376239
_cell_length_b   7.56148158
_cell_length_c   9.82608719
_cell_angle_alpha   94.98954139
_cell_angle_beta   104.19807556
_cell_angle_gamma   104.71792922
_symmetry_Int_Tables_number   1
_chemical_formula_structural   Y2As4O9
_chemical_formula_sum   'Y4 As8 O18'
_cell_volume   465.19845813
_cell_formula_units_Z   2
loop_
 _symmetry_equiv_pos_site_id
 _symmetry_equiv_pos_as_xyz
  1  'x, y, z'
loop_
 _atom_site_type_symbol
 _atom_site_label
 _atom_site_symmetry_multiplicity
 _atom_site_fract_x
 _atom_site_fract_y
 _atom_site_fract_z
 _atom_site_occupancy
  Y  Y0  1  0.244085  0.939336  0.615724  1
  Y  Y1  1  0.755915  0.060664  0.384276  1
  Y  Y2  1  0.720878  0.530629  0.408856  1
  Y  Y3  1  0.279122  0.469371  0.591144  1
  As  As4  1  0.681342  0.774920  0.077038  1
  As  As5  1  0.318658  0.225080  0.922962  1
  As  As6  1  0.171967  0.753084  0.913226  1
  As  As7  1  0.828033  0.246916  0.086774  1
  As  As8  1  0.744850  0.915680  0.709712  1
  As  As9  1  0.255150  0.084320  0.290288  1
  As  As10  1  0.809806  0.351096  0.701766  1
  As  As11  1  0.190194  0.648904  0.298234  1
  O  O12  1  0.723708  0.750602  0.257798  1
  O  O13  1  0.276292  0.249398  0.742202  1
  O  O14  1  0.316248  0.978856  0.871100  1
  O  O15  1  0.683752  0.021144  0.128900  1
  O  O16  1  0.607813  0.324102  0.985301  1
  O  O17  1  0.392187  0.675898  0.014699  1
  O  O18  1  0.128551  0.647561  0.738244  1
  O  O19  1  0.871449  0.352439  0.261756  1
  O  O20  1  0.846561  0.874660  0.559173  1
  O  O21  1  0.153439  0.125340  0.440827  1
  O  O22  1  0.484860  0.769230  0.666972  1
  O  O23  1  0.515140  0.230770  0.333028  1
  O  O24  1  0.372686  0.534775  0.379292  1
  O  O25  1  0.627314  0.465225  0.620708  1
  O  O26  1  0.089414  0.669360  0.453104  1
  O  O27  1  0.910586  0.330640  0.546896  1
  O  O28  1  0.374820  0.898975  0.358480  1
  O  O29  1  0.625180  0.101025  0.641520  1
