# generated using pymatgen
data_Nd4Ga18IrRuPt4
_symmetry_space_group_name_H-M   'P 1'
_cell_length_a   7.75020524
_cell_length_b   7.75020466
_cell_length_c   9.66503351
_cell_angle_alpha   90.01870201
_cell_angle_beta   90.01870316
_cell_angle_gamma   119.93125803
_symmetry_Int_Tables_number   1
_chemical_formula_structural   Nd4Ga18IrRuPt4
_chemical_formula_sum   'Nd4 Ga18 Ir1 Ru1 Pt4'
_cell_volume   503.10738558
_cell_formula_units_Z   1
loop_
 _symmetry_equiv_pos_site_id
 _symmetry_equiv_pos_as_xyz
  1  'x, y, z'
loop_
 _atom_site_type_symbol
 _atom_site_label
 _atom_site_symmetry_multiplicity
 _atom_site_fract_x
 _atom_site_fract_y
 _atom_site_fract_z
 _atom_site_occupancy
  Nd  Nd0  1  0.997811  0.666150  0.249433  1
  Nd  Nd1  1  0.002189  0.333850  0.750567  1
  Nd  Nd2  1  0.666150  0.997811  0.249433  1
  Nd  Nd3  1  0.333850  0.002189  0.750567  1
  Ga  Ga4  1  0.122463  0.122463  0.251861  1
  Ga  Ga5  1  0.877537  0.877537  0.748139  1
  Ga  Ga6  1  0.000716  0.330370  0.079372  1
  Ga  Ga7  1  0.999284  0.669630  0.920628  1
  Ga  Ga8  1  0.999367  0.671984  0.578037  1
  Ga  Ga9  1  0.328016  0.000633  0.421963  1
  Ga  Ga10  1  0.000633  0.328016  0.421963  1
  Ga  Ga11  1  0.671984  0.999367  0.578037  1
  Ga  Ga12  1  0.669630  0.999284  0.920628  1
  Ga  Ga13  1  0.330370  0.000716  0.079372  1
  Ga  Ga14  1  0.326586  0.326586  0.562041  1
  Ga  Ga15  1  0.673414  0.673414  0.437959  1
  Ga  Ga16  1  0.670757  0.670757  0.062734  1
  Ga  Ga17  1  0.329243  0.329243  0.937266  1
  Ga  Ga18  1  0.342729  0.542416  0.250132  1
  Ga  Ga19  1  0.657271  0.457584  0.749868  1
  Ga  Ga20  1  0.542416  0.342729  0.250132  1
  Ga  Ga21  1  0.457584  0.657271  0.749868  1
  Ir  Ir22  1  0.000000  0.000000  0.000000  1
  Ru  Ru23  1  0.000000  0.000000  0.500000  1
  Pt  Pt24  1  0.670907  0.329093  0.000000  1
  Pt  Pt25  1  0.329093  0.670907  0.000000  1
  Pt  Pt26  1  0.328859  0.671141  0.500000  1
  Pt  Pt27  1  0.671141  0.328859  0.500000  1
