# generated using pymatgen
data_Cs8Na3Li(InSb2)4
_symmetry_space_group_name_H-M   'P 1'
_cell_length_a   11.53621622
_cell_length_b   11.53621531
_cell_length_c   7.33326411
_cell_angle_alpha   89.98345069
_cell_angle_beta   90.01654908
_cell_angle_gamma   101.72650617
_symmetry_Int_Tables_number   1
_chemical_formula_structural   Cs8Na3Li(InSb2)4
_chemical_formula_sum   'Cs8 Na3 Li1 In4 Sb8'
_cell_volume   955.57307225
_cell_formula_units_Z   1
loop_
 _symmetry_equiv_pos_site_id
 _symmetry_equiv_pos_as_xyz
  1  'x, y, z'
loop_
 _atom_site_type_symbol
 _atom_site_label
 _atom_site_symmetry_multiplicity
 _atom_site_fract_x
 _atom_site_fract_y
 _atom_site_fract_z
 _atom_site_occupancy
  Cs  Cs0  1  0.577958  0.923237  0.749789  1
  Cs  Cs1  1  0.923237  0.577958  0.250211  1
  Cs  Cs2  1  0.421050  0.077839  0.249319  1
  Cs  Cs3  1  0.077839  0.421050  0.750681  1
  Cs  Cs4  1  0.671497  0.326346  0.775734  1
  Cs  Cs5  1  0.829828  0.171556  0.274779  1
  Cs  Cs6  1  0.326346  0.671497  0.224266  1
  Cs  Cs7  1  0.171556  0.829828  0.725221  1
  Na  Na8  1  0.619373  0.619373  0.000000  1
  Na  Na9  1  0.882057  0.882057  0.500000  1
  Na  Na10  1  0.379498  0.379498  0.000000  1
  Li  Li11  1  0.121759  0.121759  0.500000  1
  In  In12  1  0.869320  0.869320  0.000000  1
  In  In13  1  0.632517  0.632517  0.500000  1
  In  In14  1  0.132644  0.132644  0.000000  1
  In  In15  1  0.367209  0.367209  0.500000  1
  Sb  Sb16  1  0.337320  0.153008  0.740231  1
  Sb  Sb17  1  0.153008  0.337320  0.259769  1
  Sb  Sb18  1  0.655077  0.845380  0.249458  1
  Sb  Sb19  1  0.845380  0.655077  0.750542  1
  Sb  Sb20  1  0.911491  0.094489  0.785964  1
  Sb  Sb21  1  0.593837  0.405712  0.293913  1
  Sb  Sb22  1  0.094489  0.911491  0.214036  1
  Sb  Sb23  1  0.405712  0.593837  0.706087  1
