# generated using pymatgen
data_Zr6Al16Cu4IrRu2
_symmetry_space_group_name_H-M   'P 1'
_cell_length_a   8.70528120
_cell_length_b   8.63870543
_cell_length_c   8.70528187
_cell_angle_alpha   60.25266764
_cell_angle_beta   59.50298736
_cell_angle_gamma   60.25266466
_symmetry_Int_Tables_number   1
_chemical_formula_structural   Zr6Al16Cu4IrRu2
_chemical_formula_sum   'Zr6 Al16 Cu4 Ir1 Ru2'
_cell_volume   462.88946469
_cell_formula_units_Z   1
loop_
 _symmetry_equiv_pos_site_id
 _symmetry_equiv_pos_as_xyz
  1  'x, y, z'
loop_
 _atom_site_type_symbol
 _atom_site_label
 _atom_site_symmetry_multiplicity
 _atom_site_fract_x
 _atom_site_fract_y
 _atom_site_fract_z
 _atom_site_occupancy
  Zr  Zr0  1  0.190109  0.810870  0.809891  1
  Zr  Zr1  1  0.809891  0.189130  0.190109  1
  Zr  Zr2  1  0.798979  0.201021  0.798979  1
  Zr  Zr3  1  0.809891  0.810870  0.190109  1
  Zr  Zr4  1  0.201021  0.798979  0.201021  1
  Zr  Zr5  1  0.190109  0.189130  0.809891  1
  Al  Al6  1  0.832832  0.837479  0.832832  1
  Al  Al7  1  0.835136  0.833628  0.497606  1
  Al  Al8  1  0.497606  0.833628  0.835136  1
  Al  Al9  1  0.832832  0.496857  0.832832  1
  Al  Al10  1  0.167168  0.162521  0.167168  1
  Al  Al11  1  0.164864  0.166372  0.502394  1
  Al  Al12  1  0.167168  0.503143  0.167168  1
  Al  Al13  1  0.502394  0.166372  0.164864  1
  Al  Al14  1  0.614481  0.627127  0.614481  1
  Al  Al15  1  0.624633  0.615490  0.144387  1
  Al  Al16  1  0.144387  0.615490  0.624633  1
  Al  Al17  1  0.614481  0.143912  0.614481  1
  Al  Al18  1  0.385519  0.372873  0.385519  1
  Al  Al19  1  0.375367  0.384510  0.855613  1
  Al  Al20  1  0.385519  0.856088  0.385519  1
  Al  Al21  1  0.855613  0.384510  0.375367  1
  Cu  Cu22  1  0.000000  0.500000  0.500000  1
  Cu  Cu23  1  0.500000  0.000000  0.000000  1
  Cu  Cu24  1  0.500000  0.500000  0.000000  1
  Cu  Cu25  1  0.000000  0.000000  0.500000  1
  Ir  Ir26  1  0.000000  0.500000  0.000000  1
  Ru  Ru27  1  0.500000  0.000000  0.500000  1
  Ru  Ru28  1  0.500000  0.500000  0.500000  1
