# generated using pymatgen
data_Tb4Y7In9Rh4
_symmetry_space_group_name_H-M   'P 1'
_cell_length_a   3.68850000
_cell_length_b   13.17441376
_cell_length_c   13.17441377
_cell_angle_alpha   111.55587025
_cell_angle_beta   90.00000000
_cell_angle_gamma   90.00000000
_symmetry_Int_Tables_number   1
_chemical_formula_structural   Tb4Y7In9Rh4
_chemical_formula_sum   'Tb4 Y7 In9 Rh4'
_cell_volume   595.41974503
_cell_formula_units_Z   1
loop_
 _symmetry_equiv_pos_site_id
 _symmetry_equiv_pos_as_xyz
  1  'x, y, z'
loop_
 _atom_site_type_symbol
 _atom_site_label
 _atom_site_symmetry_multiplicity
 _atom_site_fract_x
 _atom_site_fract_y
 _atom_site_fract_z
 _atom_site_occupancy
  Tb  Tb0  1  0.000000  0.374957  0.625043  1
  Tb  Tb1  1  0.000000  0.625043  0.374957  1
  Tb  Tb2  1  0.000000  0.686760  0.686760  1
  Tb  Tb3  1  0.000000  0.313240  0.313240  1
  Y  Y4  1  0.000000  0.921318  0.581035  1
  Y  Y5  1  0.000000  0.078682  0.418965  1
  Y  Y6  1  0.000000  0.581035  0.921318  1
  Y  Y7  1  0.000000  0.418965  0.078682  1
  Y  Y8  1  0.000000  0.159161  0.840839  1
  Y  Y9  1  0.000000  0.840839  0.159161  1
  Y  Y10  1  0.000000  0.000000  0.000000  1
  In  In11  1  0.500000  0.159616  0.632557  1
  In  In12  1  0.500000  0.840384  0.367443  1
  In  In13  1  0.500000  0.632557  0.159616  1
  In  In14  1  0.500000  0.367443  0.840384  1
  In  In15  1  0.500000  0.923150  0.780462  1
  In  In16  1  0.500000  0.076850  0.219538  1
  In  In17  1  0.500000  0.780462  0.923150  1
  In  In18  1  0.500000  0.219538  0.076850  1
  In  In19  1  0.500000  0.500000  0.500000  1
  Rh  Rh20  1  0.500000  0.753557  0.549581  1
  Rh  Rh21  1  0.500000  0.246443  0.450419  1
  Rh  Rh22  1  0.500000  0.549581  0.753557  1
  Rh  Rh23  1  0.500000  0.450419  0.246443  1
