# generated using pymatgen
data_EuHoTm2(SeO4)6
_symmetry_space_group_name_H-M   'P 1'
_cell_length_a   9.94718880
_cell_length_b   9.94718984
_cell_length_c   9.94719023
_cell_angle_alpha   58.05870157
_cell_angle_beta   58.05869389
_cell_angle_gamma   58.05870971
_symmetry_Int_Tables_number   1
_chemical_formula_structural   EuHoTm2(SeO4)6
_chemical_formula_sum   'Eu1 Ho1 Tm2 Se6 O24'
_cell_volume   664.98084747
_cell_formula_units_Z   1
loop_
 _symmetry_equiv_pos_site_id
 _symmetry_equiv_pos_as_xyz
  1  'x, y, z'
loop_
 _atom_site_type_symbol
 _atom_site_label
 _atom_site_symmetry_multiplicity
 _atom_site_fract_x
 _atom_site_fract_y
 _atom_site_fract_z
 _atom_site_occupancy
  Eu  Eu0  1  0.642843  0.642843  0.642843  1
  Ho  Ho1  1  0.855461  0.855461  0.855461  1
  Tm  Tm2  1  0.356235  0.356235  0.356235  1
  Tm  Tm3  1  0.143619  0.143619  0.143619  1
  Se  Se4  1  0.749304  0.042179  0.460601  1
  Se  Se5  1  0.969646  0.535450  0.243654  1
  Se  Se6  1  0.535450  0.243654  0.969647  1
  Se  Se7  1  0.460600  0.749304  0.042180  1
  Se  Se8  1  0.042180  0.460600  0.749304  1
  Se  Se9  1  0.243654  0.969646  0.535450  1
  O  O10  1  0.916823  0.073085  0.289882  1
  O  O11  1  0.773250  0.009905  0.630017  1
  O  O12  1  0.999420  0.369276  0.216796  1
  O  O13  1  0.707190  0.075419  0.943586  1
  O  O14  1  0.578688  0.211693  0.436106  1
  O  O15  1  0.873792  0.484738  0.730476  1
  O  O16  1  0.506747  0.272813  0.134364  1
  O  O17  1  0.796025  0.560283  0.410634  1
  O  O18  1  0.943586  0.707190  0.075419  1
  O  O19  1  0.560283  0.410634  0.796025  1
  O  O20  1  0.369276  0.216796  0.999420  1
  O  O21  1  0.272813  0.134364  0.506747  1
  O  O22  1  0.730476  0.873792  0.484738  1
  O  O23  1  0.630017  0.773250  0.009905  1
  O  O24  1  0.436106  0.578688  0.211693  1
  O  O25  1  0.073085  0.289882  0.916823  1
  O  O26  1  0.211693  0.436106  0.578688  1
  O  O27  1  0.484738  0.730476  0.873792  1
  O  O28  1  0.134364  0.506747  0.272813  1
  O  O29  1  0.410634  0.796025  0.560283  1
  O  O30  1  0.289882  0.916823  0.073085  1
  O  O31  1  0.009905  0.630017  0.773250  1
  O  O32  1  0.216796  0.999420  0.369276  1
  O  O33  1  0.075419  0.943586  0.707190  1
