# generated using pymatgen
data_Tb4YCoBi2
_symmetry_space_group_name_H-M   'P 1'
_cell_length_a   8.07044300
_cell_length_b   8.88949700
_cell_length_c   12.46589500
_cell_angle_alpha   90.00000000
_cell_angle_beta   90.00000000
_cell_angle_gamma   90.00000000
_symmetry_Int_Tables_number   1
_chemical_formula_structural   Tb4YCoBi2
_chemical_formula_sum   'Tb16 Y4 Co4 Bi8'
_cell_volume   894.33046846
_cell_formula_units_Z   4
loop_
 _symmetry_equiv_pos_site_id
 _symmetry_equiv_pos_as_xyz
  1  'x, y, z'
loop_
 _atom_site_type_symbol
 _atom_site_label
 _atom_site_symmetry_multiplicity
 _atom_site_fract_x
 _atom_site_fract_y
 _atom_site_fract_z
 _atom_site_occupancy
  Tb  Tb0  1  0.379557  0.750000  0.690338  1
  Tb  Tb1  1  0.620443  0.250000  0.309662  1
  Tb  Tb2  1  0.879557  0.250000  0.809662  1
  Tb  Tb3  1  0.120443  0.750000  0.190338  1
  Tb  Tb4  1  0.954184  0.750000  0.502173  1
  Tb  Tb5  1  0.045816  0.250000  0.497827  1
  Tb  Tb6  1  0.454184  0.250000  0.997827  1
  Tb  Tb7  1  0.545816  0.750000  0.002173  1
  Tb  Tb8  1  0.676616  0.034025  0.562875  1
  Tb  Tb9  1  0.323384  0.965975  0.437125  1
  Tb  Tb10  1  0.176616  0.965975  0.937125  1
  Tb  Tb11  1  0.323384  0.534025  0.437125  1
  Tb  Tb12  1  0.823384  0.034025  0.062875  1
  Tb  Tb13  1  0.676616  0.465975  0.562875  1
  Tb  Tb14  1  0.823384  0.465975  0.062875  1
  Tb  Tb15  1  0.176616  0.534025  0.937125  1
  Y  Y16  1  0.847540  0.750000  0.800741  1
  Y  Y17  1  0.152460  0.250000  0.199259  1
  Y  Y18  1  0.347540  0.250000  0.699259  1
  Y  Y19  1  0.652460  0.750000  0.300741  1
  Co  Co20  1  0.559786  0.750000  0.508766  1
  Co  Co21  1  0.440214  0.250000  0.491234  1
  Co  Co22  1  0.059786  0.250000  0.991234  1
  Co  Co23  1  0.940214  0.750000  0.008766  1
  Bi  Bi24  1  0.570903  0.492179  0.825418  1
  Bi  Bi25  1  0.429097  0.507821  0.174582  1
  Bi  Bi26  1  0.070903  0.507821  0.674582  1
  Bi  Bi27  1  0.429097  0.992179  0.174582  1
  Bi  Bi28  1  0.929097  0.492179  0.325418  1
  Bi  Bi29  1  0.570903  0.007821  0.825418  1
  Bi  Bi30  1  0.929097  0.007821  0.325418  1
  Bi  Bi31  1  0.070903  0.992179  0.674582  1
