# generated using pymatgen
data_Ho5Tm6Th5(MgRu)4
_symmetry_space_group_name_H-M   'P 1'
_cell_length_a   9.69128133
_cell_length_b   9.73527937
_cell_length_c   9.73528082
_cell_angle_alpha   59.82570490
_cell_angle_beta   60.14939110
_cell_angle_gamma   60.14939185
_symmetry_Int_Tables_number   1
_chemical_formula_structural   Ho5Tm6Th5(MgRu)4
_chemical_formula_sum   'Ho5 Tm6 Th5 Mg4 Ru4'
_cell_volume   650.07309092
_cell_formula_units_Z   1
loop_
 _symmetry_equiv_pos_site_id
 _symmetry_equiv_pos_as_xyz
  1  'x, y, z'
loop_
 _atom_site_type_symbol
 _atom_site_label
 _atom_site_symmetry_multiplicity
 _atom_site_fract_x
 _atom_site_fract_y
 _atom_site_fract_z
 _atom_site_occupancy
  Ho  Ho0  1  0.564634  0.935366  0.935366  1
  Ho  Ho1  1  0.563213  0.935180  0.565144  1
  Ho  Ho2  1  0.936464  0.565144  0.935180  1
  Ho  Ho3  1  0.563213  0.565144  0.935180  1
  Ho  Ho4  1  0.936464  0.935180  0.565144  1
  Tm  Tm5  1  0.185937  0.814063  0.814063  1
  Tm  Tm6  1  0.190746  0.810101  0.184918  1
  Tm  Tm7  1  0.814235  0.184918  0.810101  1
  Tm  Tm8  1  0.190746  0.184918  0.810101  1
  Tm  Tm9  1  0.814235  0.810101  0.184918  1
  Tm  Tm10  1  0.933287  0.566713  0.566713  1
  Th  Th11  1  0.342395  0.348980  0.348980  1
  Th  Th12  1  0.346735  0.347698  0.958831  1
  Th  Th13  1  0.346735  0.958831  0.347698  1
  Th  Th14  1  0.959643  0.348980  0.348980  1
  Th  Th15  1  0.816228  0.183772  0.183772  1
  Mg  Mg16  1  0.581307  0.579720  0.579720  1
  Mg  Mg17  1  0.579556  0.581969  0.258920  1
  Mg  Mg18  1  0.579556  0.258920  0.581969  1
  Mg  Mg19  1  0.259256  0.579720  0.579720  1
  Ru  Ru20  1  0.129919  0.146630  0.146630  1
  Ru  Ru21  1  0.144338  0.142122  0.569202  1
  Ru  Ru22  1  0.144338  0.569202  0.142122  1
  Ru  Ru23  1  0.576821  0.146630  0.146630  1
