# generated using pymatgen
data_Pr8Tm12Bi7Sb5
_symmetry_space_group_name_H-M   'P 1'
_cell_length_a   8.33045514
_cell_length_b   9.60493465
_cell_length_c   12.25275600
_cell_angle_alpha   90.04243078
_cell_angle_beta   89.93637282
_cell_angle_gamma   90.00321466
_symmetry_Int_Tables_number   1
_chemical_formula_structural   Pr8Tm12Bi7Sb5
_chemical_formula_sum   'Pr8 Tm12 Bi7 Sb5'
_cell_volume   980.38473774
_cell_formula_units_Z   1
loop_
 _symmetry_equiv_pos_site_id
 _symmetry_equiv_pos_as_xyz
  1  'x, y, z'
loop_
 _atom_site_type_symbol
 _atom_site_label
 _atom_site_symmetry_multiplicity
 _atom_site_fract_x
 _atom_site_fract_y
 _atom_site_fract_z
 _atom_site_occupancy
  Pr  Pr0  1  0.185653  0.753994  0.719148  1
  Pr  Pr1  1  0.681547  0.752645  0.779531  1
  Pr  Pr2  1  0.816807  0.250054  0.280549  1
  Pr  Pr3  1  0.317299  0.249886  0.219699  1
  Pr  Pr4  1  0.352294  0.749590  0.214899  1
  Pr  Pr5  1  0.851976  0.749956  0.285609  1
  Pr  Pr6  1  0.644902  0.246396  0.784136  1
  Pr  Pr7  1  0.150685  0.246655  0.714218  1
  Tm  Tm8  1  0.026986  0.749750  0.988077  1
  Tm  Tm9  1  0.526269  0.752652  0.512946  1
  Tm  Tm10  1  0.973039  0.249907  0.011126  1
  Tm  Tm11  1  0.472042  0.247363  0.490432  1
  Tm  Tm12  1  0.313285  0.435966  0.943453  1
  Tm  Tm13  1  0.811220  0.062785  0.556918  1
  Tm  Tm14  1  0.686659  0.936141  0.056158  1
  Tm  Tm15  1  0.187473  0.564368  0.444358  1
  Tm  Tm16  1  0.686489  0.564312  0.055867  1
  Tm  Tm17  1  0.188320  0.936983  0.446146  1
  Tm  Tm18  1  0.314858  0.063340  0.941702  1
  Tm  Tm19  1  0.812432  0.436262  0.556776  1
  Bi  Bi20  1  0.935684  0.495565  0.831805  1
  Bi  Bi21  1  0.563565  0.504193  0.334209  1
  Bi  Bi22  1  0.064163  0.995758  0.167088  1
  Bi  Bi23  1  0.564054  0.995667  0.332444  1
  Bi  Bi24  1  0.064093  0.504218  0.167068  1
  Bi  Bi25  1  0.435905  0.496052  0.667243  1
  Bi  Bi26  1  0.935638  0.004355  0.833117  1
  Sb  Sb27  1  0.436833  0.004547  0.664839  1
  Sb  Sb28  1  0.404131  0.749867  0.958472  1
  Sb  Sb29  1  0.904713  0.749851  0.542011  1
  Sb  Sb30  1  0.596149  0.250328  0.041454  1
  Sb  Sb31  1  0.094838  0.250593  0.458501  1
