# generated using pymatgen
data_Th3In2SnRh3
_symmetry_space_group_name_H-M   'P 1'
_cell_length_a   7.68337343
_cell_length_b   7.67279851
_cell_length_c   4.04119700
_cell_angle_alpha   90.00000000
_cell_angle_beta   90.00000000
_cell_angle_gamma   119.95448074
_symmetry_Int_Tables_number   1
_chemical_formula_structural   Th3In2SnRh3
_chemical_formula_sum   'Th3 In2 Sn1 Rh3'
_cell_volume   206.41697489
_cell_formula_units_Z   1
loop_
 _symmetry_equiv_pos_site_id
 _symmetry_equiv_pos_as_xyz
  1  'x, y, z'
loop_
 _atom_site_type_symbol
 _atom_site_label
 _atom_site_symmetry_multiplicity
 _atom_site_fract_x
 _atom_site_fract_y
 _atom_site_fract_z
 _atom_site_occupancy
  Th  Th0  1  0.412611  0.411569  0.500000  1
  Th  Th1  1  0.587389  0.998958  0.500000  1
  Th  Th2  1  0.000000  0.588259  0.500000  1
  In  In3  1  0.750537  0.749377  0.000000  1
  In  In4  1  0.249463  0.998840  0.000000  1
  Sn  Sn5  1  0.000000  0.249170  0.000000  1
  Rh  Rh6  1  0.670193  0.333066  0.000000  1
  Rh  Rh7  1  0.329807  0.662874  0.000000  1
  Rh  Rh8  1  0.000000  0.007886  0.500000  1
