# generated using pymatgen
data_CaDy3Lu2(Si3Os)8
_symmetry_space_group_name_H-M   'P 1'
_cell_length_a   10.11055661
_cell_length_b   10.11055666
_cell_length_c   8.16213826
_cell_angle_alpha   89.86149254
_cell_angle_beta   90.13851299
_cell_angle_gamma   132.41123597
_symmetry_Int_Tables_number   1
_chemical_formula_structural   CaDy3Lu2(Si3Os)8
_chemical_formula_sum   'Ca1 Dy3 Lu2 Si24 Os8'
_cell_volume   616.02596221
_cell_formula_units_Z   1
loop_
 _symmetry_equiv_pos_site_id
 _symmetry_equiv_pos_as_xyz
  1  'x, y, z'
loop_
 _atom_site_type_symbol
 _atom_site_label
 _atom_site_symmetry_multiplicity
 _atom_site_fract_x
 _atom_site_fract_y
 _atom_site_fract_z
 _atom_site_occupancy
  Ca  Ca0  1  0.501293  0.001293  0.750000  1
  Dy  Dy1  1  0.999649  0.499649  0.250000  1
  Dy  Dy2  1  0.497722  0.997722  0.250000  1
  Dy  Dy3  1  0.002057  0.502057  0.750000  1
  Lu  Lu4  1  0.500149  0.500365  0.500706  1
  Lu  Lu5  1  0.000365  0.000149  0.999294  1
  Si  Si6  1  0.794344  0.203737  0.500341  1
  Si  Si7  1  0.295617  0.705588  0.998518  1
  Si  Si8  1  0.205588  0.795617  0.501482  1
  Si  Si9  1  0.703737  0.294344  0.999659  1
  Si  Si10  1  0.331882  0.333698  0.832813  1
  Si  Si11  1  0.667351  0.669378  0.167123  1
  Si  Si12  1  0.169378  0.167351  0.332877  1
  Si  Si13  1  0.833698  0.831882  0.667187  1
  Si  Si14  1  0.119152  0.884609  0.728241  1
  Si  Si15  1  0.112098  0.878431  0.272755  1
  Si  Si16  1  0.612098  0.378805  0.228305  1
  Si  Si17  1  0.624680  0.390717  0.771481  1
  Si  Si18  1  0.878805  0.112098  0.271695  1
  Si  Si19  1  0.890717  0.124680  0.728519  1
  Si  Si20  1  0.384609  0.619152  0.771759  1
  Si  Si21  1  0.378431  0.612098  0.227245  1
  Si  Si22  1  0.344562  0.111332  0.501260  1
  Si  Si23  1  0.888400  0.655273  0.495907  1
  Si  Si24  1  0.387793  0.154379  0.006676  1
  Si  Si25  1  0.844174  0.611755  0.995428  1
  Si  Si26  1  0.654379  0.887793  0.493324  1
  Si  Si27  1  0.111755  0.344174  0.504572  1
  Si  Si28  1  0.611332  0.844562  0.998740  1
  Si  Si29  1  0.155273  0.388400  0.004093  1
  Os  Os30  1  0.668972  0.331299  0.498898  1
  Os  Os31  1  0.166814  0.830258  0.002294  1
  Os  Os32  1  0.330258  0.666814  0.497706  1
  Os  Os33  1  0.831299  0.168972  0.001102  1
  Os  Os34  1  0.127597  0.127012  0.628111  1
  Os  Os35  1  0.873224  0.873737  0.372334  1
  Os  Os36  1  0.373737  0.373224  0.127666  1
  Os  Os37  1  0.627012  0.627597  0.871889  1
