# generated using pymatgen
data_Er2Co12SiP6
_symmetry_space_group_name_H-M   'P 1'
_cell_length_a   8.98674500
_cell_length_b   8.98674521
_cell_length_c   3.57427900
_cell_angle_alpha   90.00000000
_cell_angle_beta   90.00000000
_cell_angle_gamma   119.99998917
_symmetry_Int_Tables_number   1
_chemical_formula_structural   Er2Co12SiP6
_chemical_formula_sum   'Er2 Co12 Si1 P6'
_cell_volume   249.99077117
_cell_formula_units_Z   1
loop_
 _symmetry_equiv_pos_site_id
 _symmetry_equiv_pos_as_xyz
  1  'x, y, z'
loop_
 _atom_site_type_symbol
 _atom_site_label
 _atom_site_symmetry_multiplicity
 _atom_site_fract_x
 _atom_site_fract_y
 _atom_site_fract_z
 _atom_site_occupancy
  Er  Er0  1  0.666667  0.333333  0.500000  1
  Er  Er1  1  0.333333  0.666667  0.000000  1
  Co  Co2  1  0.121958  0.840089  0.000000  1
  Co  Co3  1  0.386035  0.435758  0.500000  1
  Co  Co4  1  0.718130  0.878042  0.000000  1
  Co  Co5  1  0.564242  0.950277  0.500000  1
  Co  Co6  1  0.228168  0.098856  0.500000  1
  Co  Co7  1  0.870687  0.771832  0.500000  1
  Co  Co8  1  0.901144  0.129313  0.500000  1
  Co  Co9  1  0.939713  0.373007  0.000000  1
  Co  Co10  1  0.626993  0.566706  0.000000  1
  Co  Co11  1  0.433294  0.060287  0.000000  1
  Co  Co12  1  0.049723  0.613965  0.500000  1
  Co  Co13  1  0.159911  0.281870  0.000000  1
  Si  Si14  1  0.000000  0.000000  0.000000  1
  P  P15  1  0.597245  0.710259  0.500000  1
  P  P16  1  0.705833  0.113464  0.000000  1
  P  P17  1  0.886536  0.592369  0.000000  1
  P  P18  1  0.407631  0.294167  0.000000  1
  P  P19  1  0.289741  0.886986  0.500000  1
  P  P20  1  0.113014  0.402755  0.500000  1
