# generated using pymatgen
data_Ni8Hg2Bi8S
_symmetry_space_group_name_H-M   'P 1'
_cell_length_a   4.18283700
_cell_length_b   9.97145600
_cell_length_c   21.71127200
_cell_angle_alpha   90.00000000
_cell_angle_beta   90.00000000
_cell_angle_gamma   90.00000000
_symmetry_Int_Tables_number   1
_chemical_formula_structural   Ni8Hg2Bi8S
_chemical_formula_sum   'Ni16 Hg4 Bi16 S2'
_cell_volume   905.55490325
_cell_formula_units_Z   2
loop_
 _symmetry_equiv_pos_site_id
 _symmetry_equiv_pos_as_xyz
  1  'x, y, z'
loop_
 _atom_site_type_symbol
 _atom_site_label
 _atom_site_symmetry_multiplicity
 _atom_site_fract_x
 _atom_site_fract_y
 _atom_site_fract_z
 _atom_site_occupancy
  Ni  Ni0  1  0.750741  0.312672  0.970837  1
  Ni  Ni1  1  0.750741  0.687328  0.029163  1
  Ni  Ni2  1  0.249259  0.812672  0.529163  1
  Ni  Ni3  1  0.249259  0.187328  0.470837  1
  Ni  Ni4  1  0.249569  0.588146  0.083719  1
  Ni  Ni5  1  0.249569  0.411854  0.916281  1
  Ni  Ni6  1  0.750431  0.088146  0.416281  1
  Ni  Ni7  1  0.750431  0.911854  0.583719  1
  Ni  Ni8  1  0.248788  0.324348  0.041750  1
  Ni  Ni9  1  0.248788  0.675652  0.958250  1
  Ni  Ni10  1  0.751212  0.824348  0.458250  1
  Ni  Ni11  1  0.751212  0.175652  0.541750  1
  Ni  Ni12  1  0.750274  0.439634  0.088177  1
  Ni  Ni13  1  0.750274  0.560366  0.911823  1
  Ni  Ni14  1  0.249726  0.939634  0.411823  1
  Ni  Ni15  1  0.249726  0.060366  0.588177  1
  Hg  Hg16  1  0.249766  0.005418  0.796405  1
  Hg  Hg17  1  0.249766  0.994582  0.203595  1
  Hg  Hg18  1  0.750234  0.505418  0.703595  1
  Hg  Hg19  1  0.750234  0.494582  0.296405  1
  Bi  Bi20  1  0.248920  0.381185  0.165278  1
  Bi  Bi21  1  0.248920  0.618815  0.834722  1
  Bi  Bi22  1  0.751080  0.881185  0.334722  1
  Bi  Bi23  1  0.751080  0.118815  0.665278  1
  Bi  Bi24  1  0.750942  0.168948  0.078778  1
  Bi  Bi25  1  0.750942  0.831052  0.921222  1
  Bi  Bi26  1  0.249058  0.668948  0.421222  1
  Bi  Bi27  1  0.249058  0.331052  0.578778  1
  Bi  Bi28  1  0.249093  0.146071  0.946254  1
  Bi  Bi29  1  0.249093  0.853929  0.053746  1
  Bi  Bi30  1  0.750907  0.646071  0.553746  1
  Bi  Bi31  1  0.750907  0.353929  0.446254  1
  Bi  Bi32  1  0.751519  0.670174  0.155460  1
  Bi  Bi33  1  0.751519  0.329826  0.844540  1
  Bi  Bi34  1  0.248481  0.170174  0.344540  1
  Bi  Bi35  1  0.248481  0.829826  0.655460  1
  S  S36  1  0.496943  0.500000  0.000000  1
  S  S37  1  0.503057  0.000000  0.500000  1
