# generated using pymatgen
data_Nb6Co6Ru
_symmetry_space_group_name_H-M   'P 1'
_cell_length_a   9.28808339
_cell_length_b   9.28808323
_cell_length_c   9.28808309
_cell_angle_alpha   30.55984991
_cell_angle_beta   30.55985013
_cell_angle_gamma   30.55985590
_symmetry_Int_Tables_number   1
_chemical_formula_structural   Nb6Co6Ru
_chemical_formula_sum   'Nb6 Co6 Ru1'
_cell_volume   183.63056975
_cell_formula_units_Z   1
loop_
 _symmetry_equiv_pos_site_id
 _symmetry_equiv_pos_as_xyz
  1  'x, y, z'
loop_
 _atom_site_type_symbol
 _atom_site_label
 _atom_site_symmetry_multiplicity
 _atom_site_fract_x
 _atom_site_fract_y
 _atom_site_fract_z
 _atom_site_occupancy
  Nb  Nb0  1  0.835106  0.835106  0.835106  1
  Nb  Nb1  1  0.164894  0.164894  0.164894  1
  Nb  Nb2  1  0.655023  0.655023  0.655023  1
  Nb  Nb3  1  0.344977  0.344977  0.344977  1
  Nb  Nb4  1  0.550330  0.550330  0.550330  1
  Nb  Nb5  1  0.449670  0.449670  0.449670  1
  Co  Co6  1  0.909774  0.413100  0.909774  1
  Co  Co7  1  0.909774  0.909774  0.413100  1
  Co  Co8  1  0.413100  0.909774  0.909774  1
  Co  Co9  1  0.090226  0.586900  0.090226  1
  Co  Co10  1  0.090226  0.090226  0.586900  1
  Co  Co11  1  0.586900  0.090226  0.090226  1
  Ru  Ru12  1  0.000000  0.000000  0.000000  1
