# generated using pymatgen
data_Ce3GaSn2Ir3
_symmetry_space_group_name_H-M   'P 1'
_cell_length_a   7.42155104
_cell_length_b   7.39092132
_cell_length_c   4.05360500
_cell_angle_alpha   90.00000000
_cell_angle_beta   90.00000000
_cell_angle_gamma   119.86356278
_symmetry_Int_Tables_number   1
_chemical_formula_structural   Ce3GaSn2Ir3
_chemical_formula_sum   'Ce3 Ga1 Sn2 Ir3'
_cell_volume   192.82385350
_cell_formula_units_Z   1
loop_
 _symmetry_equiv_pos_site_id
 _symmetry_equiv_pos_as_xyz
  1  'x, y, z'
loop_
 _atom_site_type_symbol
 _atom_site_label
 _atom_site_symmetry_multiplicity
 _atom_site_fract_x
 _atom_site_fract_y
 _atom_site_fract_z
 _atom_site_occupancy
  Ce  Ce0  1  0.404398  0.411334  0.000000  1
  Ce  Ce1  1  0.595602  0.006937  0.000000  1
  Ce  Ce2  1  0.000000  0.574651  0.000000  1
  Ga  Ga3  1  0.000000  0.250699  0.500000  1
  Sn  Sn4  1  0.749609  0.750273  0.500000  1
  Sn  Sn5  1  0.250391  0.000664  0.500000  1
  Ir  Ir6  1  0.000000  0.014419  0.000000  1
  Ir  Ir7  1  0.673903  0.332462  0.500000  1
  Ir  Ir8  1  0.326097  0.658560  0.500000  1
