# generated using pymatgen
data_Tb2Ni7P4
_symmetry_space_group_name_H-M   'P 1'
_cell_length_a   3.70260200
_cell_length_b   9.16532400
_cell_length_c   10.25853700
_cell_angle_alpha   90.00000000
_cell_angle_beta   90.00000000
_cell_angle_gamma   90.00000000
_symmetry_Int_Tables_number   1
_chemical_formula_structural   Tb2Ni7P4
_chemical_formula_sum   'Tb4 Ni14 P8'
_cell_volume   348.12906424
_cell_formula_units_Z   2
loop_
 _symmetry_equiv_pos_site_id
 _symmetry_equiv_pos_as_xyz
  1  'x, y, z'
loop_
 _atom_site_type_symbol
 _atom_site_label
 _atom_site_symmetry_multiplicity
 _atom_site_fract_x
 _atom_site_fract_y
 _atom_site_fract_z
 _atom_site_occupancy
  Tb  Tb0  1  0.000000  0.058205  0.395526  1
  Tb  Tb1  1  0.500000  0.941795  0.895526  1
  Tb  Tb2  1  0.000000  0.436003  0.177980  1
  Tb  Tb3  1  0.500000  0.563997  0.677980  1
  Ni  Ni4  1  0.000000  0.056978  0.699178  1
  Ni  Ni5  1  0.500000  0.943022  0.199178  1
  Ni  Ni6  1  0.000000  0.725924  0.509713  1
  Ni  Ni7  1  0.500000  0.274076  0.009713  1
  Ni  Ni8  1  0.000000  0.096851  0.093790  1
  Ni  Ni9  1  0.500000  0.903149  0.593790  1
  Ni  Ni10  1  0.000000  0.745812  0.273986  1
  Ni  Ni11  1  0.500000  0.254188  0.773986  1
  Ni  Ni12  1  0.000000  0.306242  0.602885  1
  Ni  Ni13  1  0.500000  0.693758  0.102885  1
  Ni  Ni14  1  0.000000  0.685678  0.912135  1
  Ni  Ni15  1  0.500000  0.314322  0.412135  1
  Ni  Ni16  1  0.000000  0.417339  0.870075  1
  Ni  Ni17  1  0.500000  0.582661  0.370075  1
  P  P18  1  0.000000  0.180582  0.889613  1
  P  P19  1  0.500000  0.819418  0.389613  1
  P  P20  1  0.000000  0.844969  0.084557  1
  P  P21  1  0.500000  0.155031  0.584557  1
  P  P22  1  0.000000  0.809856  0.713800  1
  P  P23  1  0.500000  0.190144  0.213800  1
  P  P24  1  0.000000  0.479826  0.460860  1
  P  P25  1  0.500000  0.520174  0.960860  1
