# generated using pymatgen
data_SrGe3AsRh6
_symmetry_space_group_name_H-M   'P 1'
_cell_length_a   7.29982929
_cell_length_b   7.29982959
_cell_length_c   3.88241500
_cell_angle_alpha   90.00000000
_cell_angle_beta   90.00000000
_cell_angle_gamma   120.38542371
_symmetry_Int_Tables_number   1
_chemical_formula_structural   SrGe3AsRh6
_chemical_formula_sum   'Sr1 Ge3 As1 Rh6'
_cell_volume   178.46710221
_cell_formula_units_Z   1
loop_
 _symmetry_equiv_pos_site_id
 _symmetry_equiv_pos_as_xyz
  1  'x, y, z'
loop_
 _atom_site_type_symbol
 _atom_site_label
 _atom_site_symmetry_multiplicity
 _atom_site_fract_x
 _atom_site_fract_y
 _atom_site_fract_z
 _atom_site_occupancy
  Sr  Sr0  1  0.000039  0.999961  0.000000  1
  Ge  Ge1  1  0.801184  0.605085  0.500000  1
  Ge  Ge2  1  0.394915  0.198816  0.500000  1
  Ge  Ge3  1  0.333686  0.666314  0.000000  1
  As  As4  1  0.803684  0.196316  0.500000  1
  Rh  Rh5  1  0.201917  0.798083  0.500000  1
  Rh  Rh6  1  0.200383  0.402827  0.500000  1
  Rh  Rh7  1  0.534703  0.068705  0.000000  1
  Rh  Rh8  1  0.931295  0.465297  0.000000  1
  Rh  Rh9  1  0.534353  0.465647  0.000000  1
  Rh  Rh10  1  0.597173  0.799617  0.500000  1
