# generated using pymatgen
data_CaY2Mg2(GeO4)3
_symmetry_space_group_name_H-M   'P 1'
_cell_length_a   10.78825113
_cell_length_b   10.78825152
_cell_length_c   10.78825127
_cell_angle_alpha   109.57355613
_cell_angle_beta   109.57355983
_cell_angle_gamma   109.26674411
_symmetry_Int_Tables_number   1
_chemical_formula_structural   CaY2Mg2(GeO4)3
_chemical_formula_sum   'Ca4 Y8 Mg8 Ge12 O48'
_cell_volume   966.55617623
_cell_formula_units_Z   4
loop_
 _symmetry_equiv_pos_site_id
 _symmetry_equiv_pos_as_xyz
  1  'x, y, z'
loop_
 _atom_site_type_symbol
 _atom_site_label
 _atom_site_symmetry_multiplicity
 _atom_site_fract_x
 _atom_site_fract_y
 _atom_site_fract_z
 _atom_site_occupancy
  Ca  Ca0  1  0.500000  0.000000  0.500000  1
  Ca  Ca1  1  0.250000  0.250000  0.000000  1
  Ca  Ca2  1  0.750000  0.750000  0.000000  1
  Ca  Ca3  1  0.000000  0.500000  0.500000  1
  Y  Y4  1  0.496690  0.125000  0.871690  1
  Y  Y5  1  0.253310  0.625000  0.128310  1
  Y  Y6  1  0.875000  0.246690  0.871690  1
  Y  Y7  1  0.375000  0.003310  0.128310  1
  Y  Y8  1  0.753310  0.625000  0.628310  1
  Y  Y9  1  0.996690  0.125000  0.371690  1
  Y  Y10  1  0.375000  0.503310  0.628310  1
  Y  Y11  1  0.875000  0.746690  0.371690  1
  Mg  Mg12  1  0.625000  0.875000  0.250000  1
  Mg  Mg13  1  0.125000  0.375000  0.250000  1
  Mg  Mg14  1  0.125000  0.875000  0.750000  1
  Mg  Mg15  1  0.625000  0.375000  0.750000  1
  Mg  Mg16  1  0.125000  0.875000  0.250000  1
  Mg  Mg17  1  0.625000  0.375000  0.250000  1
  Mg  Mg18  1  0.125000  0.375000  0.750000  1
  Mg  Mg19  1  0.625000  0.875000  0.750000  1
  Ge  Ge20  1  0.250000  0.750000  0.500000  1
  Ge  Ge21  1  0.500000  0.500000  0.000000  1
  Ge  Ge22  1  0.748746  0.125000  0.123746  1
  Ge  Ge23  1  0.001254  0.625000  0.876254  1
  Ge  Ge24  1  0.875000  0.998746  0.623746  1
  Ge  Ge25  1  0.375000  0.251254  0.376254  1
  Ge  Ge26  1  0.000000  0.000000  0.000000  1
  Ge  Ge27  1  0.750000  0.250000  0.500000  1
  Ge  Ge28  1  0.501254  0.625000  0.376254  1
  Ge  Ge29  1  0.248746  0.125000  0.623746  1
  Ge  Ge30  1  0.375000  0.751254  0.876254  1
  Ge  Ge31  1  0.875000  0.498746  0.123746  1
  O  O32  1  0.503051  0.771537  0.334434  1
  O  O33  1  0.312896  0.478463  0.231513  1
  O  O34  1  0.246949  0.081382  0.768487  1
  O  O35  1  0.437104  0.168618  0.665566  1
  O  O36  1  0.336843  0.901331  0.876837  1
  O  O37  1  0.413157  0.789994  0.064489  1
  O  O38  1  0.024495  0.460006  0.123163  1
  O  O39  1  0.725505  0.348669  0.935511  1
  O  O40  1  0.031089  0.185164  0.034977  1
  O  O41  1  0.150188  0.996112  0.965023  1
  O  O42  1  0.599812  0.064836  0.345924  1
  O  O43  1  0.718911  0.253888  0.654076  1
  O  O44  1  0.746949  0.978463  0.165566  1
  O  O45  1  0.937104  0.271537  0.268487  1
  O  O46  1  0.003051  0.668618  0.731513  1
  O  O47  1  0.812896  0.581382  0.834434  1
  O  O48  1  0.913157  0.848669  0.623163  1
  O  O49  1  0.836843  0.960006  0.435511  1
  O  O50  1  0.225505  0.289994  0.376837  1
  O  O51  1  0.524495  0.401331  0.564489  1
  O  O52  1  0.218911  0.564836  0.465023  1
  O  O53  1  0.099812  0.753888  0.534977  1
  O  O54  1  0.650188  0.685164  0.154076  1
  O  O55  1  0.531089  0.496112  0.845924  1
  O  O56  1  0.918618  0.687104  0.165566  1
  O  O57  1  0.831382  0.496949  0.268487  1
  O  O58  1  0.228463  0.562896  0.731513  1
  O  O59  1  0.521537  0.753051  0.834434  1
  O  O60  1  0.210006  0.274495  0.623163  1
  O  O61  1  0.098669  0.975505  0.435511  1
  O  O62  1  0.651331  0.586843  0.376837  1
  O  O63  1  0.539994  0.663157  0.564489  1
  O  O64  1  0.746112  0.400188  0.465023  1
  O  O65  1  0.935164  0.281089  0.534977  1
  O  O66  1  0.003888  0.968911  0.154076  1
  O  O67  1  0.814836  0.849812  0.845924  1
  O  O68  1  0.331382  0.062896  0.334434  1
  O  O69  1  0.418618  0.253051  0.231513  1
  O  O70  1  0.021537  0.187104  0.768487  1
  O  O71  1  0.728463  0.996949  0.665566  1
  O  O72  1  0.039994  0.475505  0.876837  1
  O  O73  1  0.151331  0.774495  0.064489  1
  O  O74  1  0.598669  0.163157  0.123163  1
  O  O75  1  0.710006  0.086843  0.935511  1
  O  O76  1  0.503888  0.349812  0.034977  1
  O  O77  1  0.314836  0.468911  0.965023  1
  O  O78  1  0.246112  0.781089  0.345924  1
  O  O79  1  0.435164  0.900188  0.654076  1
