# generated using pymatgen
data_Dy4Lu12Cd3InNi4
_symmetry_space_group_name_H-M   'P 1'
_cell_length_a   9.41068955
_cell_length_b   9.41069043
_cell_length_c   9.41069019
_cell_angle_alpha   59.95327565
_cell_angle_beta   59.95327422
_cell_angle_gamma   59.95327444
_symmetry_Int_Tables_number   1
_chemical_formula_structural   Dy4Lu12Cd3InNi4
_chemical_formula_sum   'Dy4 Lu12 Cd3 In1 Ni4'
_cell_volume   588.69310723
_cell_formula_units_Z   1
loop_
 _symmetry_equiv_pos_site_id
 _symmetry_equiv_pos_as_xyz
  1  'x, y, z'
loop_
 _atom_site_type_symbol
 _atom_site_label
 _atom_site_symmetry_multiplicity
 _atom_site_fract_x
 _atom_site_fract_y
 _atom_site_fract_z
 _atom_site_occupancy
  Dy  Dy0  1  0.347436  0.347436  0.347436  1
  Dy  Dy1  1  0.352023  0.352023  0.947514  1
  Dy  Dy2  1  0.352023  0.947514  0.352023  1
  Dy  Dy3  1  0.947514  0.352023  0.352023  1
  Lu  Lu4  1  0.812096  0.187941  0.187941  1
  Lu  Lu5  1  0.188728  0.812584  0.812584  1
  Lu  Lu6  1  0.187941  0.812096  0.187941  1
  Lu  Lu7  1  0.812584  0.188728  0.812584  1
  Lu  Lu8  1  0.187941  0.187941  0.812096  1
  Lu  Lu9  1  0.812584  0.812584  0.188728  1
  Lu  Lu10  1  0.935837  0.566377  0.566377  1
  Lu  Lu11  1  0.564078  0.936896  0.936896  1
  Lu  Lu12  1  0.566377  0.935837  0.566377  1
  Lu  Lu13  1  0.936896  0.564078  0.936896  1
  Lu  Lu14  1  0.566377  0.566377  0.935837  1
  Lu  Lu15  1  0.936896  0.936896  0.564078  1
  Cd  Cd16  1  0.580613  0.580613  0.252181  1
  Cd  Cd17  1  0.580613  0.252181  0.580613  1
  Cd  Cd18  1  0.252181  0.580613  0.580613  1
  In  In19  1  0.583018  0.583018  0.583018  1
  Ni  Ni20  1  0.142205  0.142205  0.142205  1
  Ni  Ni21  1  0.139028  0.139028  0.575977  1
  Ni  Ni22  1  0.139028  0.575977  0.139028  1
  Ni  Ni23  1  0.575977  0.139028  0.139028  1
