# generated using pymatgen
data_Na3HfH7
_symmetry_space_group_name_H-M   'P 1'
_cell_length_a   5.74825965
_cell_length_b   3.17691053
_cell_length_c   7.32580944
_cell_angle_alpha   115.60168618
_cell_angle_beta   90.18324817
_cell_angle_gamma   89.74678819
_symmetry_Int_Tables_number   1
_chemical_formula_structural   Na3HfH7
_chemical_formula_sum   'Na3 Hf1 H7'
_cell_volume   120.64576039
_cell_formula_units_Z   1
loop_
 _symmetry_equiv_pos_site_id
 _symmetry_equiv_pos_as_xyz
  1  'x, y, z'
loop_
 _atom_site_type_symbol
 _atom_site_label
 _atom_site_symmetry_multiplicity
 _atom_site_fract_x
 _atom_site_fract_y
 _atom_site_fract_z
 _atom_site_occupancy
  Na  Na0  1  0.156502  0.371910  0.036757  1
  Na  Na1  1  0.158234  0.859483  0.527226  1
  Na  Na2  1  0.628329  0.125398  0.784247  1
  Hf  Hf3  1  0.657604  0.116710  0.283270  1
  H  H4  1  0.878621  0.612877  0.281860  1
  H  H5  1  0.318583  0.119634  0.284507  1
  H  H6  1  0.822136  0.856222  0.022906  1
  H  H7  1  0.549727  0.780283  0.446792  1
  H  H8  1  0.825898  0.372981  0.542003  1
  H  H9  1  0.546047  0.455932  0.121261  1
  H  H10  1  0.291466  0.621702  0.782777  1
