# generated using pymatgen
data_CeNd3Er4(B6Os)4
_symmetry_space_group_name_H-M   'P 1'
_cell_length_a   3.68978100
_cell_length_b   9.19921346
_cell_length_c   11.60995058
_cell_angle_alpha   89.96380959
_cell_angle_beta   90.00000000
_cell_angle_gamma   90.00000000
_symmetry_Int_Tables_number   1
_chemical_formula_structural   CeNd3Er4(B6Os)4
_chemical_formula_sum   'Ce1 Nd3 Er4 B24 Os4'
_cell_volume   394.07743792
_cell_formula_units_Z   1
loop_
 _symmetry_equiv_pos_site_id
 _symmetry_equiv_pos_as_xyz
  1  'x, y, z'
loop_
 _atom_site_type_symbol
 _atom_site_label
 _atom_site_symmetry_multiplicity
 _atom_site_fract_x
 _atom_site_fract_y
 _atom_site_fract_z
 _atom_site_occupancy
  Ce  Ce0  1  0.000000  0.177189  0.914117  1
  Nd  Nd1  1  0.000000  0.322092  0.414117  1
  Nd  Nd2  1  0.000000  0.677863  0.585688  1
  Nd  Nd3  1  0.000000  0.821492  0.086441  1
  Er  Er4  1  0.000000  0.944631  0.373010  1
  Er  Er5  1  0.000000  0.055160  0.626443  1
  Er  Er6  1  0.000000  0.445401  0.126588  1
  Er  Er7  1  0.000000  0.555572  0.873475  1
  B  B8  1  0.500000  0.556247  0.430487  1
  B  B9  1  0.500000  0.443339  0.570363  1
  B  B10  1  0.500000  0.056625  0.068355  1
  B  B11  1  0.500000  0.945246  0.930340  1
  B  B12  1  0.500000  0.750154  0.417955  1
  B  B13  1  0.500000  0.249728  0.582329  1
  B  B14  1  0.500000  0.249834  0.080803  1
  B  B15  1  0.500000  0.750184  0.917895  1
  B  B16  1  0.500000  0.791291  0.266976  1
  B  B17  1  0.500000  0.207940  0.734121  1
  B  B18  1  0.500000  0.291255  0.232865  1
  B  B19  1  0.500000  0.709071  0.767112  1
  B  B20  1  0.500000  0.631149  0.185119  1
  B  B21  1  0.500000  0.367857  0.815639  1
  B  B22  1  0.500000  0.131306  0.314609  1
  B  B23  1  0.500000  0.869288  0.685134  1
  B  B24  1  0.500000  0.985904  0.214465  1
  B  B25  1  0.500000  0.015513  0.785928  1
  B  B26  1  0.500000  0.485190  0.285234  1
  B  B27  1  0.500000  0.514444  0.714863  1
  B  B28  1  0.500000  0.604599  0.028240  1
  B  B29  1  0.500000  0.394436  0.971133  1
  B  B30  1  0.500000  0.103749  0.471562  1
  B  B31  1  0.500000  0.896509  0.528286  1
  Os  Os32  1  0.000000  0.639248  0.319300  1
  Os  Os33  1  0.000000  0.358940  0.682487  1
  Os  Os34  1  0.000000  0.139505  0.178306  1
  Os  Os35  1  0.000000  0.862050  0.820214  1
