# generated using pymatgen
data_HoPaNi2Hg
_symmetry_space_group_name_H-M   'P 1'
_cell_length_a   7.40669771
_cell_length_b   7.40669725
_cell_length_c   3.58030700
_cell_angle_alpha   90.00000000
_cell_angle_beta   90.00000000
_cell_angle_gamma   94.58908917
_symmetry_Int_Tables_number   1
_chemical_formula_structural   HoPaNi2Hg
_chemical_formula_sum   'Ho2 Pa2 Ni4 Hg2'
_cell_volume   195.78298872
_cell_formula_units_Z   2
loop_
 _symmetry_equiv_pos_site_id
 _symmetry_equiv_pos_as_xyz
  1  'x, y, z'
loop_
 _atom_site_type_symbol
 _atom_site_label
 _atom_site_symmetry_multiplicity
 _atom_site_fract_x
 _atom_site_fract_y
 _atom_site_fract_z
 _atom_site_occupancy
  Ho  Ho0  1  0.172742  0.327258  0.500000  1
  Ho  Ho1  1  0.827258  0.672742  0.500000  1
  Pa  Pa2  1  0.673775  0.173775  0.500000  1
  Pa  Pa3  1  0.326225  0.826225  0.500000  1
  Ni  Ni4  1  0.868554  0.368554  0.000000  1
  Ni  Ni5  1  0.131446  0.631446  0.000000  1
  Ni  Ni6  1  0.385256  0.114744  0.000000  1
  Ni  Ni7  1  0.614744  0.885256  0.000000  1
  Hg  Hg8  1  0.500000  0.500000  0.000000  1
  Hg  Hg9  1  0.000000  0.000000  0.000000  1
