# generated using pymatgen
data_Tb3Y(ScPt)4
_symmetry_space_group_name_H-M   'P 1'
_cell_length_a   4.64334800
_cell_length_b   7.00010414
_cell_length_c   8.40632022
_cell_angle_alpha   90.21454849
_cell_angle_beta   90.00000000
_cell_angle_gamma   90.00000000
_symmetry_Int_Tables_number   1
_chemical_formula_structural   Tb3Y(ScPt)4
_chemical_formula_sum   'Tb3 Y1 Sc4 Pt4'
_cell_volume   273.23644059
_cell_formula_units_Z   1
loop_
 _symmetry_equiv_pos_site_id
 _symmetry_equiv_pos_as_xyz
  1  'x, y, z'
loop_
 _atom_site_type_symbol
 _atom_site_label
 _atom_site_symmetry_multiplicity
 _atom_site_fract_x
 _atom_site_fract_y
 _atom_site_fract_z
 _atom_site_occupancy
  Tb  Tb0  1  0.250000  0.984677  0.322576  1
  Tb  Tb1  1  0.750000  0.016458  0.677127  1
  Tb  Tb2  1  0.250000  0.483707  0.176614  1
  Y  Y3  1  0.750000  0.515878  0.822823  1
  Sc  Sc4  1  0.750000  0.641157  0.427125  1
  Sc  Sc5  1  0.250000  0.360225  0.574376  1
  Sc  Sc6  1  0.750000  0.140074  0.072842  1
  Sc  Sc7  1  0.250000  0.857801  0.926361  1
  Pt  Pt8  1  0.250000  0.242646  0.903220  1
  Pt  Pt9  1  0.750000  0.756163  0.097110  1
  Pt  Pt10  1  0.250000  0.744645  0.595768  1
  Pt  Pt11  1  0.750000  0.256572  0.404057  1
