# generated using pymatgen
data_Tm4MnOs6Ru
_symmetry_space_group_name_H-M   'P 1'
_cell_length_a   5.29879420
_cell_length_b   5.24340771
_cell_length_c   8.85716250
_cell_angle_alpha   89.94267688
_cell_angle_beta   89.99937845
_cell_angle_gamma   120.33059824
_symmetry_Int_Tables_number   1
_chemical_formula_structural   Tm4MnOs6Ru
_chemical_formula_sum   'Tm4 Mn1 Os6 Ru1'
_cell_volume   212.40228874
_cell_formula_units_Z   1
loop_
 _symmetry_equiv_pos_site_id
 _symmetry_equiv_pos_as_xyz
  1  'x, y, z'
loop_
 _atom_site_type_symbol
 _atom_site_label
 _atom_site_symmetry_multiplicity
 _atom_site_fract_x
 _atom_site_fract_y
 _atom_site_fract_z
 _atom_site_occupancy
  Tm  Tm0  1  0.666502  0.333567  0.565041  1
  Tm  Tm1  1  0.331857  0.664057  0.435098  1
  Tm  Tm2  1  0.332351  0.664918  0.065052  1
  Tm  Tm3  1  0.667297  0.335036  0.934888  1
  Mn  Mn4  1  0.167603  0.335234  0.749364  1
  Os  Os5  1  0.998318  0.997682  0.502427  1
  Os  Os6  1  0.175905  0.829616  0.749106  1
  Os  Os7  1  0.654272  0.829592  0.749046  1
  Os  Os8  1  0.832536  0.664875  0.250526  1
  Os  Os9  1  0.828072  0.173647  0.250770  1
  Os  Os10  1  0.347024  0.173961  0.250734  1
  Ru  Ru11  1  0.998263  0.997815  0.997945  1
