# generated using pymatgen
data_HfScNbGa3
_symmetry_space_group_name_H-M   'P 1'
_cell_length_a   5.58414400
_cell_length_b   8.44644300
_cell_length_c   9.24912700
_cell_angle_alpha   90.00000000
_cell_angle_beta   90.00000000
_cell_angle_gamma   90.00000000
_symmetry_Int_Tables_number   1
_chemical_formula_structural   HfScNbGa3
_chemical_formula_sum   'Hf4 Sc4 Nb4 Ga12'
_cell_volume   436.24574845
_cell_formula_units_Z   4
loop_
 _symmetry_equiv_pos_site_id
 _symmetry_equiv_pos_as_xyz
  1  'x, y, z'
loop_
 _atom_site_type_symbol
 _atom_site_label
 _atom_site_symmetry_multiplicity
 _atom_site_fract_x
 _atom_site_fract_y
 _atom_site_fract_z
 _atom_site_occupancy
  Hf  Hf0  1  0.750000  0.362781  0.178506  1
  Hf  Hf1  1  0.250000  0.637219  0.821494  1
  Hf  Hf2  1  0.750000  0.862781  0.821494  1
  Hf  Hf3  1  0.250000  0.137219  0.178506  1
  Sc  Sc4  1  0.750000  0.467678  0.623085  1
  Sc  Sc5  1  0.250000  0.532322  0.376915  1
  Sc  Sc6  1  0.750000  0.967678  0.376915  1
  Sc  Sc7  1  0.250000  0.032322  0.623085  1
  Nb  Nb8  1  0.000000  0.750000  0.109099  1
  Nb  Nb9  1  0.500000  0.250000  0.890901  1
  Nb  Nb10  1  0.000000  0.250000  0.890901  1
  Nb  Nb11  1  0.500000  0.750000  0.109099  1
  Ga  Ga12  1  0.000000  0.750000  0.574966  1
  Ga  Ga13  1  0.500000  0.250000  0.425034  1
  Ga  Ga14  1  0.000000  0.250000  0.425034  1
  Ga  Ga15  1  0.500000  0.750000  0.574966  1
  Ga  Ga16  1  0.750000  0.043608  0.081953  1
  Ga  Ga17  1  0.250000  0.956392  0.918047  1
  Ga  Ga18  1  0.750000  0.543608  0.918047  1
  Ga  Ga19  1  0.250000  0.456392  0.081953  1
  Ga  Ga20  1  0.750000  0.130145  0.653337  1
  Ga  Ga21  1  0.250000  0.869855  0.346663  1
  Ga  Ga22  1  0.750000  0.630145  0.346663  1
  Ga  Ga23  1  0.250000  0.369855  0.653337  1
