# generated using pymatgen
data_DyHo7(Si3Rh)4
_symmetry_space_group_name_H-M   'P 1'
_cell_length_a   8.16646900
_cell_length_b   8.16646872
_cell_length_c   7.86598200
_cell_angle_alpha   90.00000000
_cell_angle_beta   90.00000000
_cell_angle_gamma   120.00000519
_symmetry_Int_Tables_number   1
_chemical_formula_structural   DyHo7(Si3Rh)4
_chemical_formula_sum   'Dy1 Ho7 Si12 Rh4'
_cell_volume   454.30987613
_cell_formula_units_Z   1
loop_
 _symmetry_equiv_pos_site_id
 _symmetry_equiv_pos_as_xyz
  1  'x, y, z'
loop_
 _atom_site_type_symbol
 _atom_site_label
 _atom_site_symmetry_multiplicity
 _atom_site_fract_x
 _atom_site_fract_y
 _atom_site_fract_z
 _atom_site_occupancy
  Dy  Dy0  1  0.000000  0.000000  0.250000  1
  Ho  Ho1  1  0.000000  0.000000  0.750000  1
  Ho  Ho2  1  0.508955  0.491045  0.250000  1
  Ho  Ho3  1  0.508955  0.017910  0.250000  1
  Ho  Ho4  1  0.982090  0.491045  0.250000  1
  Ho  Ho5  1  0.491029  0.508971  0.750000  1
  Ho  Ho6  1  0.491029  0.982059  0.750000  1
  Ho  Ho7  1  0.017941  0.508971  0.750000  1
  Si  Si8  1  0.166849  0.833151  0.499428  1
  Si  Si9  1  0.166849  0.333697  0.499428  1
  Si  Si10  1  0.666303  0.833151  0.499428  1
  Si  Si11  1  0.833149  0.166851  0.500637  1
  Si  Si12  1  0.833149  0.666299  0.500637  1
  Si  Si13  1  0.333701  0.166851  0.500637  1
  Si  Si14  1  0.833149  0.166851  0.999363  1
  Si  Si15  1  0.833149  0.666299  0.999363  1
  Si  Si16  1  0.333701  0.166851  0.999363  1
  Si  Si17  1  0.166849  0.833151  0.000572  1
  Si  Si18  1  0.166849  0.333697  0.000572  1
  Si  Si19  1  0.666303  0.833151  0.000572  1
  Rh  Rh20  1  0.333333  0.666667  0.466588  1
  Rh  Rh21  1  0.666667  0.333333  0.533487  1
  Rh  Rh22  1  0.666667  0.333333  0.966513  1
  Rh  Rh23  1  0.333333  0.666667  0.033412  1
