# generated using pymatgen
data_TbSmMn2F14
_symmetry_space_group_name_H-M   'P 1'
_cell_length_a   5.47607569
_cell_length_b   8.82694342
_cell_length_c   11.83125862
_cell_angle_alpha   62.18764597
_cell_angle_beta   89.89624320
_cell_angle_gamma   89.99277740
_symmetry_Int_Tables_number   1
_chemical_formula_structural   TbSmMn2F14
_chemical_formula_sum   'Tb2 Sm2 Mn4 F28'
_cell_volume   505.82243443
_cell_formula_units_Z   2
loop_
 _symmetry_equiv_pos_site_id
 _symmetry_equiv_pos_as_xyz
  1  'x, y, z'
loop_
 _atom_site_type_symbol
 _atom_site_label
 _atom_site_symmetry_multiplicity
 _atom_site_fract_x
 _atom_site_fract_y
 _atom_site_fract_z
 _atom_site_occupancy
  Tb  Tb0  1  0.761536  0.191459  0.235872  1
  Tb  Tb1  1  0.238464  0.808541  0.764128  1
  Sm  Sm2  1  0.261023  0.811405  0.264022  1
  Sm  Sm3  1  0.738977  0.188595  0.735978  1
  Mn  Mn4  1  0.758400  0.724281  0.041920  1
  Mn  Mn5  1  0.241600  0.275719  0.958080  1
  Mn  Mn6  1  0.258545  0.272508  0.456576  1
  Mn  Mn7  1  0.741455  0.727492  0.543424  1
  F  F8  1  0.928612  0.708257  0.421840  1
  F  F9  1  0.071388  0.291743  0.578160  1
  F  F10  1  0.429892  0.292563  0.079784  1
  F  F11  1  0.570108  0.707437  0.920216  1
  F  F12  1  0.480909  0.727118  0.129221  1
  F  F13  1  0.519091  0.272882  0.870779  1
  F  F14  1  0.980557  0.270534  0.369133  1
  F  F15  1  0.019443  0.729466  0.630867  1
  F  F16  1  0.942534  0.738447  0.167987  1
  F  F17  1  0.057466  0.261553  0.832013  1
  F  F18  1  0.446259  0.258110  0.330950  1
  F  F19  1  0.553741  0.741890  0.669050  1
  F  F20  1  0.769993  0.488117  0.135925  1
  F  F21  1  0.230007  0.511883  0.864075  1
  F  F22  1  0.269304  0.508534  0.363218  1
  F  F23  1  0.730696  0.491466  0.636782  1
  F  F24  1  0.956418  0.281834  0.040721  1
  F  F25  1  0.043582  0.718166  0.959279  1
  F  F26  1  0.458164  0.718671  0.461901  1
  F  F27  1  0.541836  0.281329  0.538099  1
  F  F28  1  0.739183  0.962031  0.452598  1
  F  F29  1  0.260817  0.037969  0.547402  1
  F  F30  1  0.239887  0.041046  0.046580  1
  F  F31  1  0.760113  0.958954  0.953420  1
  F  F32  1  0.600893  0.971452  0.227273  1
  F  F33  1  0.399107  0.028548  0.772727  1
  F  F34  1  0.094025  0.036532  0.272180  1
  F  F35  1  0.905975  0.963468  0.727820  1
