# generated using pymatgen
data_Er3Lu9Co4BiIr
_symmetry_space_group_name_H-M   'P 1'
_cell_length_a   8.18101395
_cell_length_b   8.18101323
_cell_length_c   8.17656684
_cell_angle_alpha   110.99986568
_cell_angle_beta   111.14425496
_cell_angle_gamma   106.33825955
_symmetry_Int_Tables_number   1
_chemical_formula_structural   Er3Lu9Co4BiIr
_chemical_formula_sum   'Er3 Lu9 Co4 Bi1 Ir1'
_cell_volume   420.20569819
_cell_formula_units_Z   1
loop_
 _symmetry_equiv_pos_site_id
 _symmetry_equiv_pos_as_xyz
  1  'x, y, z'
loop_
 _atom_site_type_symbol
 _atom_site_label
 _atom_site_symmetry_multiplicity
 _atom_site_fract_x
 _atom_site_fract_y
 _atom_site_fract_z
 _atom_site_occupancy
  Er  Er0  1  0.283631  0.183779  0.467409  1
  Er  Er1  1  0.716730  0.816766  0.533497  1
  Er  Er2  1  0.283573  0.816074  0.099646  1
  Lu  Lu3  1  0.717536  0.182743  0.900280  1
  Lu  Lu4  1  0.621673  0.311802  0.309072  1
  Lu  Lu5  1  0.378949  0.688882  0.690499  1
  Lu  Lu6  1  0.001618  0.311550  0.690499  1
  Lu  Lu7  1  0.997270  0.687399  0.309072  1
  Lu  Lu8  1  0.213259  0.411613  0.197195  1
  Lu  Lu9  1  0.785435  0.586839  0.802039  1
  Lu  Lu10  1  0.215201  0.016603  0.802039  1
  Lu  Lu11  1  0.785580  0.983936  0.197195  1
  Co  Co12  1  0.999272  0.374735  0.374007  1
  Co  Co13  1  0.000167  0.625099  0.625267  1
  Co  Co14  1  0.388680  0.888886  0.501657  1
  Co  Co15  1  0.612771  0.112977  0.501657  1
  Bi  Bi16  1  0.499823  0.500158  0.999981  1
  Ir  Ir17  1  0.998828  0.000159  0.998989  1
