# generated using pymatgen
data_GdDyCSe
_symmetry_space_group_name_H-M   'P 1'
_cell_length_a   6.98455830
_cell_length_b   6.98455846
_cell_length_c   6.98455805
_cell_angle_alpha   31.57019923
_cell_angle_beta   31.57019520
_cell_angle_gamma   31.57020384
_symmetry_Int_Tables_number   1
_chemical_formula_structural   GdDyCSe
_chemical_formula_sum   'Gd1 Dy1 C1 Se1'
_cell_volume   82.92465756
_cell_formula_units_Z   1
loop_
 _symmetry_equiv_pos_site_id
 _symmetry_equiv_pos_as_xyz
  1  'x, y, z'
loop_
 _atom_site_type_symbol
 _atom_site_label
 _atom_site_symmetry_multiplicity
 _atom_site_fract_x
 _atom_site_fract_y
 _atom_site_fract_z
 _atom_site_occupancy
  Gd  Gd0  1  0.984176  0.984176  0.984176  1
  Dy  Dy1  1  0.515417  0.515417  0.515417  1
  C  C2  1  0.249294  0.249294  0.249294  1
  Se  Se3  1  0.751113  0.751113  0.751113  1
