# generated using pymatgen
data_TbYb2Pa(Al8Pt3)3
_symmetry_space_group_name_H-M   'P 1'
_cell_length_a   7.55353831
_cell_length_b   7.56772026
_cell_length_c   13.20874623
_cell_angle_alpha   84.56097044
_cell_angle_beta   79.07586099
_cell_angle_gamma   59.95701357
_symmetry_Int_Tables_number   1
_chemical_formula_structural   TbYb2Pa(Al8Pt3)3
_chemical_formula_sum   'Tb1 Yb2 Pa1 Al24 Pt9'
_cell_volume   641.76703153
_cell_formula_units_Z   1
loop_
 _symmetry_equiv_pos_site_id
 _symmetry_equiv_pos_as_xyz
  1  'x, y, z'
loop_
 _atom_site_type_symbol
 _atom_site_label
 _atom_site_symmetry_multiplicity
 _atom_site_fract_x
 _atom_site_fract_y
 _atom_site_fract_z
 _atom_site_occupancy
  Tb  Tb0  1  0.266935  0.501048  0.191977  1
  Yb  Yb1  1  0.605793  0.831554  0.192655  1
  Yb  Yb2  1  0.733822  0.499305  0.807705  1
  Pa  Pa3  1  0.395760  0.167169  0.804520  1
  Al  Al4  1  0.684147  0.832953  0.945516  1
  Al  Al5  1  0.315779  0.165681  0.054683  1
  Al  Al6  1  0.147052  0.832187  0.560878  1
  Al  Al7  1  0.853965  0.167765  0.439218  1
  Al  Al8  1  0.480025  0.166422  0.557974  1
  Al  Al9  1  0.520773  0.831655  0.441338  1
  Al  Al10  1  0.217590  0.164406  0.330647  1
  Al  Al11  1  0.786199  0.830652  0.670056  1
  Al  Al12  1  0.438488  0.509598  0.670055  1
  Al  Al13  1  0.562785  0.494501  0.329697  1
  Al  Al14  1  0.105767  0.160651  0.668522  1
  Al  Al15  1  0.889294  0.840144  0.331159  1
  Al  Al16  1  0.353588  0.499275  0.944051  1
  Al  Al17  1  0.648406  0.500564  0.054142  1
  Al  Al18  1  0.014896  0.168271  0.953564  1
  Al  Al19  1  0.983985  0.832916  0.046128  1
  Al  Al20  1  0.185539  0.500311  0.441996  1
  Al  Al21  1  0.812998  0.501185  0.559042  1
  Al  Al22  1  0.733424  0.166092  0.183267  1
  Al  Al23  1  0.261212  0.840689  0.817538  1
  Al  Al24  1  0.064849  0.630352  0.816242  1
  Al  Al25  1  0.940002  0.368748  0.184066  1
  Al  Al26  1  0.853722  0.038817  0.817099  1
  Al  Al27  1  0.143518  0.957825  0.183295  1
  Pt  Pt28  1  0.121845  0.490631  0.639821  1
  Pt  Pt29  1  0.880722  0.506675  0.362162  1
  Pt  Pt30  1  0.657329  0.171639  0.999170  1
  Pt  Pt31  1  0.342783  0.828257  0.998957  1
  Pt  Pt32  1  0.537851  0.166942  0.362585  1
  Pt  Pt33  1  0.461150  0.835155  0.639667  1
  Pt  Pt34  1  0.777141  0.174426  0.638314  1
  Pt  Pt35  1  0.219857  0.825872  0.363457  1
  Pt  Pt36  1  0.001012  0.499667  0.998842  1
