# generated using pymatgen
data_ZrBeBr
_symmetry_space_group_name_H-M   'P 1'
_cell_length_a   3.66088800
_cell_length_b   3.66088849
_cell_length_c   10.62691200
_cell_angle_alpha   90.00000000
_cell_angle_beta   90.00000000
_cell_angle_gamma   120.00001362
_symmetry_Int_Tables_number   1
_chemical_formula_structural   ZrBeBr
_chemical_formula_sum   'Zr2 Be2 Br2'
_cell_volume   123.34189020
_cell_formula_units_Z   2
loop_
 _symmetry_equiv_pos_site_id
 _symmetry_equiv_pos_as_xyz
  1  'x, y, z'
loop_
 _atom_site_type_symbol
 _atom_site_label
 _atom_site_symmetry_multiplicity
 _atom_site_fract_x
 _atom_site_fract_y
 _atom_site_fract_z
 _atom_site_occupancy
  Zr  Zr0  1  0.000000  0.000000  0.159398  1
  Zr  Zr1  1  0.000000  0.000000  0.840699  1
  Be  Be2  1  0.333333  0.666667  0.010084  1
  Be  Be3  1  0.666667  0.333333  0.989609  1
  Br  Br4  1  0.333333  0.666667  0.666634  1
  Br  Br5  1  0.666667  0.333333  0.333576  1
