# generated using pymatgen
data_Er2Ta3Nb(B2Ru5)2
_symmetry_space_group_name_H-M   'P 1'
_cell_length_a   9.53892058
_cell_length_b   9.53891985
_cell_length_c   3.08612100
_cell_angle_alpha   90.00000000
_cell_angle_beta   90.00000000
_cell_angle_gamma   89.48146603
_symmetry_Int_Tables_number   1
_chemical_formula_structural   Er2Ta3Nb(B2Ru5)2
_chemical_formula_sum   'Er2 Ta3 Nb1 B4 Ru10'
_cell_volume   280.79773245
_cell_formula_units_Z   1
loop_
 _symmetry_equiv_pos_site_id
 _symmetry_equiv_pos_as_xyz
  1  'x, y, z'
loop_
 _atom_site_type_symbol
 _atom_site_label
 _atom_site_symmetry_multiplicity
 _atom_site_fract_x
 _atom_site_fract_y
 _atom_site_fract_z
 _atom_site_occupancy
  Er  Er0  1  0.175995  0.175887  0.000000  1
  Er  Er1  1  0.824113  0.824005  0.000000  1
  Ta  Ta2  1  0.499878  0.999971  0.000000  1
  Ta  Ta3  1  0.000029  0.500122  0.000000  1
  Ta  Ta4  1  0.676056  0.323944  0.000000  1
  Nb  Nb5  1  0.324186  0.675814  0.000000  1
  B  B6  1  0.378945  0.379186  0.000000  1
  B  B7  1  0.620814  0.621055  0.000000  1
  B  B8  1  0.879229  0.120771  0.000000  1
  B  B9  1  0.120817  0.879183  0.000000  1
  Ru  Ru10  1  0.501024  0.498976  0.500000  1
  Ru  Ru11  1  0.999655  0.000345  0.500000  1
  Ru  Ru12  1  0.440198  0.222454  0.500000  1
  Ru  Ru13  1  0.560842  0.777470  0.500000  1
  Ru  Ru14  1  0.918646  0.285373  0.500000  1
  Ru  Ru15  1  0.079954  0.715082  0.500000  1
  Ru  Ru16  1  0.714627  0.081354  0.500000  1
  Ru  Ru17  1  0.284918  0.920046  0.500000  1
  Ru  Ru18  1  0.777546  0.559802  0.500000  1
  Ru  Ru19  1  0.222530  0.439158  0.500000  1
