# generated using pymatgen
data_Cs3TlPBr9
_symmetry_space_group_name_H-M   'P 1'
_cell_length_a   7.87213900
_cell_length_b   7.87213894
_cell_length_c   19.50942400
_cell_angle_alpha   90.00000000
_cell_angle_beta   90.00000000
_cell_angle_gamma   120.00000445
_symmetry_Int_Tables_number   1
_chemical_formula_structural   Cs3TlPBr9
_chemical_formula_sum   'Cs6 Tl2 P2 Br18'
_cell_volume   1047.03346870
_cell_formula_units_Z   2
loop_
 _symmetry_equiv_pos_site_id
 _symmetry_equiv_pos_as_xyz
  1  'x, y, z'
loop_
 _atom_site_type_symbol
 _atom_site_label
 _atom_site_symmetry_multiplicity
 _atom_site_fract_x
 _atom_site_fract_y
 _atom_site_fract_z
 _atom_site_occupancy
  Cs  Cs0  1  0.666667  0.333333  0.922074  1
  Cs  Cs1  1  0.333333  0.666667  0.422074  1
  Cs  Cs2  1  0.666667  0.333333  0.589084  1
  Cs  Cs3  1  0.333333  0.666667  0.089084  1
  Cs  Cs4  1  0.000000  0.000000  0.740669  1
  Cs  Cs5  1  0.000000  0.000000  0.240669  1
  Tl  Tl6  1  0.333333  0.666667  0.658762  1
  Tl  Tl7  1  0.666667  0.333333  0.158762  1
  P  P8  1  0.666667  0.333333  0.349272  1
  P  P9  1  0.333333  0.666667  0.849272  1
  Br  Br10  1  0.815474  0.630947  0.412721  1
  Br  Br11  1  0.184526  0.369053  0.912721  1
  Br  Br12  1  0.184526  0.815474  0.912721  1
  Br  Br13  1  0.165001  0.330002  0.582633  1
  Br  Br14  1  0.630947  0.815474  0.912721  1
  Br  Br15  1  0.369053  0.184526  0.412721  1
  Br  Br16  1  0.006203  0.503102  0.751359  1
  Br  Br17  1  0.815474  0.184526  0.412721  1
  Br  Br18  1  0.503102  0.006203  0.251359  1
  Br  Br19  1  0.496898  0.503102  0.751359  1
  Br  Br20  1  0.503102  0.496898  0.251359  1
  Br  Br21  1  0.993797  0.496898  0.251359  1
  Br  Br22  1  0.330002  0.165001  0.082633  1
  Br  Br23  1  0.496898  0.993797  0.751359  1
  Br  Br24  1  0.834999  0.669998  0.082633  1
  Br  Br25  1  0.165001  0.834999  0.582633  1
  Br  Br26  1  0.669998  0.834999  0.582633  1
  Br  Br27  1  0.834999  0.165001  0.082633  1
