# generated using pymatgen
data_Ca14Nb2Cr4CN17
_symmetry_space_group_name_H-M   'P 1'
_cell_length_a   10.01494000
_cell_length_b   6.10787637
_cell_length_c   9.08323083
_cell_angle_alpha   87.76529068
_cell_angle_beta   90.00000000
_cell_angle_gamma   90.00000000
_symmetry_Int_Tables_number   1
_chemical_formula_structural   Ca14Nb2Cr4CN17
_chemical_formula_sum   'Ca14 Nb2 Cr4 C1 N17'
_cell_volume   555.19880722
_cell_formula_units_Z   1
loop_
 _symmetry_equiv_pos_site_id
 _symmetry_equiv_pos_as_xyz
  1  'x, y, z'
loop_
 _atom_site_type_symbol
 _atom_site_label
 _atom_site_symmetry_multiplicity
 _atom_site_fract_x
 _atom_site_fract_y
 _atom_site_fract_z
 _atom_site_occupancy
  Ca  Ca0  1  0.940236  0.428192  0.168543  1
  Ca  Ca1  1  0.081113  0.247059  0.493683  1
  Ca  Ca2  1  0.250000  0.086788  0.798014  1
  Ca  Ca3  1  0.433154  0.571716  0.835860  1
  Ca  Ca4  1  0.579791  0.754224  0.506754  1
  Ca  Ca5  1  0.580275  0.066218  0.828750  1
  Ca  Ca6  1  0.919725  0.066218  0.828750  1
  Ca  Ca7  1  0.418411  0.934768  0.172824  1
  Ca  Ca8  1  0.418887  0.247059  0.493683  1
  Ca  Ca9  1  0.081589  0.934768  0.172824  1
  Ca  Ca10  1  0.920209  0.754224  0.506754  1
  Ca  Ca11  1  0.066846  0.571716  0.835860  1
  Ca  Ca12  1  0.750000  0.913675  0.201171  1
  Ca  Ca13  1  0.559764  0.428192  0.168543  1
  Nb  Nb14  1  0.750000  0.281325  0.439972  1
  Nb  Nb15  1  0.250000  0.721921  0.559111  1
  Cr  Cr16  1  0.250000  0.327239  0.062733  1
  Cr  Cr17  1  0.750000  0.460329  0.722920  1
  Cr  Cr18  1  0.750000  0.669816  0.934057  1
  Cr  Cr19  1  0.250000  0.544659  0.274337  1
  C  C20  1  0.250000  0.233745  0.265332  1
  N  N21  1  0.401408  0.230208  0.978511  1
  N  N22  1  0.902128  0.114713  0.342388  1
  N  N23  1  0.607033  0.365941  0.629089  1
  N  N24  1  0.750000  0.555593  0.332132  1
  N  N25  1  0.250000  0.634620  0.072014  1
  N  N26  1  0.892967  0.365941  0.629089  1
  N  N27  1  0.393504  0.633315  0.372011  1
  N  N28  1  0.750000  0.363919  0.923415  1
  N  N29  1  0.096960  0.884235  0.658951  1
  N  N30  1  0.750000  0.767277  0.733887  1
  N  N31  1  0.106496  0.633315  0.372011  1
  N  N32  1  0.600104  0.765461  0.019207  1
  N  N33  1  0.250000  0.446993  0.667764  1
  N  N34  1  0.403040  0.884235  0.658951  1
  N  N35  1  0.597872  0.114713  0.342388  1
  N  N36  1  0.098592  0.230208  0.978511  1
  N  N37  1  0.899896  0.765461  0.019207  1
