# generated using pymatgen
data_Ti2ZnGaPd2
_symmetry_space_group_name_H-M   'P 1'
_cell_length_a   4.47915500
_cell_length_b   4.47915523
_cell_length_c   5.26677600
_cell_angle_alpha   90.00000000
_cell_angle_beta   90.00000000
_cell_angle_gamma   120.00000565
_symmetry_Int_Tables_number   1
_chemical_formula_structural   Ti2ZnGaPd2
_chemical_formula_sum   'Ti2 Zn1 Ga1 Pd2'
_cell_volume   91.50981141
_cell_formula_units_Z   1
loop_
 _symmetry_equiv_pos_site_id
 _symmetry_equiv_pos_as_xyz
  1  'x, y, z'
loop_
 _atom_site_type_symbol
 _atom_site_label
 _atom_site_symmetry_multiplicity
 _atom_site_fract_x
 _atom_site_fract_y
 _atom_site_fract_z
 _atom_site_occupancy
  Ti  Ti0  1  0.000000  0.000000  0.997601  1
  Ti  Ti1  1  0.000000  0.000000  0.502399  1
  Zn  Zn2  1  0.333333  0.666667  0.750000  1
  Ga  Ga3  1  0.666667  0.333333  0.250000  1
  Pd  Pd4  1  0.333333  0.666667  0.250000  1
  Pd  Pd5  1  0.666667  0.333333  0.750000  1
