# generated using pymatgen
data_SmY5U4O20
_symmetry_space_group_name_H-M   'P 1'
_cell_length_a   6.66845557
_cell_length_b   7.53976012
_cell_length_c   8.45053631
_cell_angle_alpha   100.86485276
_cell_angle_beta   97.79029801
_cell_angle_gamma   107.33009449
_symmetry_Int_Tables_number   1
_chemical_formula_structural   SmY5U4O20
_chemical_formula_sum   'Sm1 Y5 U4 O20'
_cell_volume   389.90663656
_cell_formula_units_Z   1
loop_
 _symmetry_equiv_pos_site_id
 _symmetry_equiv_pos_as_xyz
  1  'x, y, z'
loop_
 _atom_site_type_symbol
 _atom_site_label
 _atom_site_symmetry_multiplicity
 _atom_site_fract_x
 _atom_site_fract_y
 _atom_site_fract_z
 _atom_site_occupancy
  Sm  Sm0  1  0.000000  0.500000  0.500000  1
  Y  Y1  1  0.614435  0.704940  0.700180  1
  Y  Y2  1  0.385565  0.295060  0.299820  1
  Y  Y3  1  0.198028  0.897551  0.893242  1
  Y  Y4  1  0.801972  0.102449  0.106758  1
  Y  Y5  1  0.000000  0.000000  0.500000  1
  U  U6  1  0.402411  0.804946  0.301576  1
  U  U7  1  0.199262  0.400019  0.900240  1
  U  U8  1  0.800738  0.599981  0.099760  1
  U  U9  1  0.597589  0.195054  0.698424  1
  O  O10  1  0.438657  0.531912  0.136200  1
  O  O11  1  0.555663  0.987298  0.841355  1
  O  O12  1  0.270562  0.144931  0.745167  1
  O  O13  1  0.363624  0.595289  0.440683  1
  O  O14  1  0.053766  0.730403  0.331036  1
  O  O15  1  0.444337  0.012702  0.158645  1
  O  O16  1  0.150579  0.183605  0.031296  1
  O  O17  1  0.561343  0.468088  0.863800  1
  O  O18  1  0.855037  0.336478  0.950332  1
  O  O19  1  0.259872  0.607804  0.762607  1
  O  O20  1  0.953121  0.776296  0.654646  1
  O  O21  1  0.354363  0.061797  0.453135  1
  O  O22  1  0.645637  0.938203  0.546865  1
  O  O23  1  0.046879  0.223704  0.345354  1
  O  O24  1  0.740128  0.392196  0.237393  1
  O  O25  1  0.144963  0.663522  0.049668  1
  O  O26  1  0.849421  0.816395  0.968704  1
  O  O27  1  0.946234  0.269597  0.668964  1
  O  O28  1  0.636376  0.404711  0.559317  1
  O  O29  1  0.729438  0.855069  0.254833  1
