# generated using pymatgen
data_Y4Al3ZnPt4
_symmetry_space_group_name_H-M   'P 1'
_cell_length_a   4.44897000
_cell_length_b   6.87967382
_cell_length_c   7.77739154
_cell_angle_alpha   89.79965172
_cell_angle_beta   90.00000000
_cell_angle_gamma   90.00000000
_symmetry_Int_Tables_number   1
_chemical_formula_structural   Y4Al3ZnPt4
_chemical_formula_sum   'Y4 Al3 Zn1 Pt4'
_cell_volume   238.04476430
_cell_formula_units_Z   1
loop_
 _symmetry_equiv_pos_site_id
 _symmetry_equiv_pos_as_xyz
  1  'x, y, z'
loop_
 _atom_site_type_symbol
 _atom_site_label
 _atom_site_symmetry_multiplicity
 _atom_site_fract_x
 _atom_site_fract_y
 _atom_site_fract_z
 _atom_site_occupancy
  Y  Y0  1  0.250000  0.026230  0.686068  1
  Y  Y1  1  0.250000  0.526127  0.817984  1
  Y  Y2  1  0.750000  0.973791  0.315247  1
  Y  Y3  1  0.750000  0.470499  0.181110  1
  Al  Al4  1  0.250000  0.650629  0.436428  1
  Al  Al5  1  0.750000  0.851671  0.934930  1
  Al  Al6  1  0.750000  0.353168  0.562351  1
  Zn  Zn7  1  0.250000  0.152818  0.067225  1
  Pt  Pt8  1  0.250000  0.277572  0.393140  1
  Pt  Pt9  1  0.250000  0.767300  0.114656  1
  Pt  Pt10  1  0.750000  0.724457  0.614688  1
  Pt  Pt11  1  0.750000  0.225739  0.876174  1
