# generated using pymatgen
data_LuMg3(GaPt)4
_symmetry_space_group_name_H-M   'P 1'
_cell_length_a   4.14353700
_cell_length_b   6.64892890
_cell_length_c   7.79078933
_cell_angle_alpha   92.56533557
_cell_angle_beta   90.00000000
_cell_angle_gamma   90.00000000
_symmetry_Int_Tables_number   1
_chemical_formula_structural   LuMg3(GaPt)4
_chemical_formula_sum   'Lu1 Mg3 Ga4 Pt4'
_cell_volume   214.42178952
_cell_formula_units_Z   1
loop_
 _symmetry_equiv_pos_site_id
 _symmetry_equiv_pos_as_xyz
  1  'x, y, z'
loop_
 _atom_site_type_symbol
 _atom_site_label
 _atom_site_symmetry_multiplicity
 _atom_site_fract_x
 _atom_site_fract_y
 _atom_site_fract_z
 _atom_site_occupancy
  Lu  Lu0  1  0.750000  0.526993  0.822201  1
  Mg  Mg1  1  0.250000  0.971235  0.327742  1
  Mg  Mg2  1  0.250000  0.467171  0.179056  1
  Mg  Mg3  1  0.750000  0.033452  0.669790  1
  Ga  Ga4  1  0.250000  0.346511  0.558051  1
  Ga  Ga5  1  0.250000  0.852205  0.944340  1
  Ga  Ga6  1  0.750000  0.651860  0.438014  1
  Ga  Ga7  1  0.750000  0.147468  0.060163  1
  Pt  Pt8  1  0.250000  0.226094  0.868232  1
  Pt  Pt9  1  0.250000  0.741305  0.626132  1
  Pt  Pt10  1  0.750000  0.769613  0.132383  1
  Pt  Pt11  1  0.750000  0.266093  0.373895  1
