# generated using pymatgen
data_Nd3(ZnPt)4
_symmetry_space_group_name_H-M   'P 1'
_cell_length_a   4.14082134
_cell_length_b   7.46689251
_cell_length_c   8.38810413
_cell_angle_alpha   116.42898955
_cell_angle_beta   104.28982868
_cell_angle_gamma   89.99999556
_symmetry_Int_Tables_number   1
_chemical_formula_structural   Nd3(ZnPt)4
_chemical_formula_sum   'Nd3 Zn4 Pt4'
_cell_volume   223.24994026
_cell_formula_units_Z   1
loop_
 _symmetry_equiv_pos_site_id
 _symmetry_equiv_pos_as_xyz
  1  'x, y, z'
loop_
 _atom_site_type_symbol
 _atom_site_label
 _atom_site_symmetry_multiplicity
 _atom_site_fract_x
 _atom_site_fract_y
 _atom_site_fract_z
 _atom_site_occupancy
  Nd  Nd0  1  0.000000  0.500000  0.000000  1
  Nd  Nd1  1  0.872540  0.872540  0.745082  1
  Nd  Nd2  1  0.127460  0.127460  0.254918  1
  Zn  Zn3  1  0.672579  0.867535  0.345159  1
  Zn  Zn4  1  0.672579  0.477624  0.345159  1
  Zn  Zn5  1  0.327421  0.522376  0.654841  1
  Zn  Zn6  1  0.327421  0.132465  0.654841  1
  Pt  Pt7  1  0.782327  0.282327  0.564654  1
  Pt  Pt8  1  0.217673  0.717673  0.435346  1
  Pt  Pt9  1  0.500000  0.195714  0.000000  1
  Pt  Pt10  1  0.500000  0.804286  0.000000  1
