# generated using pymatgen
data_YbPr2(HoGe2)2
_symmetry_space_group_name_H-M   'P 1'
_cell_length_a   7.57023800
_cell_length_b   7.94797800
_cell_length_c   14.98342700
_cell_angle_alpha   90.00000000
_cell_angle_beta   90.00000000
_cell_angle_gamma   90.00000000
_symmetry_Int_Tables_number   1
_chemical_formula_structural   YbPr2(HoGe2)2
_chemical_formula_sum   'Yb4 Pr8 Ho8 Ge16'
_cell_volume   901.52411051
_cell_formula_units_Z   4
loop_
 _symmetry_equiv_pos_site_id
 _symmetry_equiv_pos_as_xyz
  1  'x, y, z'
loop_
 _atom_site_type_symbol
 _atom_site_label
 _atom_site_symmetry_multiplicity
 _atom_site_fract_x
 _atom_site_fract_y
 _atom_site_fract_z
 _atom_site_occupancy
  Yb  Yb0  1  0.345397  0.012585  0.750000  1
  Yb  Yb1  1  0.845397  0.487415  0.750000  1
  Yb  Yb2  1  0.154603  0.512585  0.250000  1
  Yb  Yb3  1  0.654603  0.987415  0.250000  1
  Pr  Pr4  1  0.977380  0.818606  0.402481  1
  Pr  Pr5  1  0.477380  0.681394  0.097519  1
  Pr  Pr6  1  0.522620  0.318606  0.597519  1
  Pr  Pr7  1  0.022620  0.181394  0.902481  1
  Pr  Pr8  1  0.022620  0.181394  0.597519  1
  Pr  Pr9  1  0.522620  0.318606  0.902481  1
  Pr  Pr10  1  0.477380  0.681394  0.402481  1
  Pr  Pr11  1  0.977380  0.818606  0.097519  1
  Ho  Ho12  1  0.320156  0.176359  0.122881  1
  Ho  Ho13  1  0.820156  0.323641  0.377119  1
  Ho  Ho14  1  0.179844  0.676359  0.877119  1
  Ho  Ho15  1  0.679844  0.823641  0.622881  1
  Ho  Ho16  1  0.320156  0.176359  0.377119  1
  Ho  Ho17  1  0.820156  0.323641  0.122881  1
  Ho  Ho18  1  0.179844  0.676359  0.622881  1
  Ho  Ho19  1  0.679844  0.823641  0.877119  1
  Ge  Ge20  1  0.842932  0.534392  0.538919  1
  Ge  Ge21  1  0.342932  0.965608  0.961081  1
  Ge  Ge22  1  0.657068  0.034392  0.461081  1
  Ge  Ge23  1  0.157068  0.465608  0.038919  1
  Ge  Ge24  1  0.157068  0.465608  0.461081  1
  Ge  Ge25  1  0.657068  0.034392  0.038919  1
  Ge  Ge26  1  0.342932  0.965608  0.538919  1
  Ge  Ge27  1  0.842932  0.534392  0.961081  1
  Ge  Ge28  1  0.977061  0.881548  0.750000  1
  Ge  Ge29  1  0.477061  0.618452  0.750000  1
  Ge  Ge30  1  0.522939  0.381548  0.250000  1
  Ge  Ge31  1  0.022939  0.118452  0.250000  1
  Ge  Ge32  1  0.228723  0.381244  0.750000  1
  Ge  Ge33  1  0.728723  0.118756  0.750000  1
  Ge  Ge34  1  0.271277  0.881244  0.250000  1
  Ge  Ge35  1  0.771277  0.618756  0.250000  1
