# generated using pymatgen
data_MgSc3Be4(SiIr5)2
_symmetry_space_group_name_H-M   'P 1'
_cell_length_a   9.47900198
_cell_length_b   9.47900198
_cell_length_c   3.03270600
_cell_angle_alpha   90.00000000
_cell_angle_beta   90.00000000
_cell_angle_gamma   89.31983317
_symmetry_Int_Tables_number   1
_chemical_formula_structural   MgSc3Be4(SiIr5)2
_chemical_formula_sum   'Mg1 Sc3 Be4 Si2 Ir10'
_cell_volume   272.47391769
_cell_formula_units_Z   1
loop_
 _symmetry_equiv_pos_site_id
 _symmetry_equiv_pos_as_xyz
  1  'x, y, z'
loop_
 _atom_site_type_symbol
 _atom_site_label
 _atom_site_symmetry_multiplicity
 _atom_site_fract_x
 _atom_site_fract_y
 _atom_site_fract_z
 _atom_site_occupancy
  Mg  Mg0  1  0.324954  0.175046  0.000000  1
  Sc  Sc1  1  0.672134  0.827866  0.000000  1
  Sc  Sc2  1  0.826387  0.324951  0.000000  1
  Sc  Sc3  1  0.175049  0.673613  0.000000  1
  Be  Be4  1  0.375609  0.877579  0.000000  1
  Be  Be5  1  0.127646  0.372354  0.000000  1
  Be  Be6  1  0.875696  0.624304  0.000000  1
  Be  Be7  1  0.622421  0.124391  0.000000  1
  Si  Si8  1  0.501328  0.501506  0.000000  1
  Si  Si9  1  0.998494  0.998672  0.000000  1
  Ir  Ir10  1  0.498152  0.001848  0.500000  1
  Ir  Ir11  1  0.569882  0.296958  0.500000  1
  Ir  Ir12  1  0.705351  0.568107  0.500000  1
  Ir  Ir13  1  0.297523  0.433956  0.500000  1
  Ir  Ir14  1  0.203042  0.930118  0.500000  1
  Ir  Ir15  1  0.001152  0.498848  0.500000  1
  Ir  Ir16  1  0.066044  0.202477  0.500000  1
  Ir  Ir17  1  0.794631  0.067390  0.500000  1
  Ir  Ir18  1  0.931893  0.794649  0.500000  1
  Ir  Ir19  1  0.432610  0.705369  0.500000  1
