# generated using pymatgen
data_Tm4Lu8Fe2Co3Bi
_symmetry_space_group_name_H-M   'P 1'
_cell_length_a   8.14522561
_cell_length_b   8.14522535
_cell_length_c   8.14522453
_cell_angle_alpha   111.16881454
_cell_angle_beta   111.77234395
_cell_angle_gamma   105.54310264
_symmetry_Int_Tables_number   1
_chemical_formula_structural   Tm4Lu8Fe2Co3Bi
_chemical_formula_sum   'Tm4 Lu8 Fe2 Co3 Bi1'
_cell_volume   414.52854756
_cell_formula_units_Z   1
loop_
 _symmetry_equiv_pos_site_id
 _symmetry_equiv_pos_as_xyz
  1  'x, y, z'
loop_
 _atom_site_type_symbol
 _atom_site_label
 _atom_site_symmetry_multiplicity
 _atom_site_fract_x
 _atom_site_fract_y
 _atom_site_fract_z
 _atom_site_occupancy
  Tm  Tm0  1  0.209870  0.406660  0.196793  1
  Tm  Tm1  1  0.790130  0.593340  0.803207  1
  Tm  Tm2  1  0.209870  0.013077  0.803207  1
  Tm  Tm3  1  0.790130  0.986923  0.196793  1
  Lu  Lu4  1  0.283268  0.184587  0.467855  1
  Lu  Lu5  1  0.716732  0.815413  0.532145  1
  Lu  Lu6  1  0.283268  0.815413  0.098679  1
  Lu  Lu7  1  0.716732  0.184587  0.901321  1
  Lu  Lu8  1  0.619498  0.310960  0.308537  1
  Lu  Lu9  1  0.380502  0.689040  0.691463  1
  Lu  Lu10  1  0.002423  0.310960  0.691463  1
  Lu  Lu11  1  0.997577  0.689040  0.308537  1
  Fe  Fe12  1  0.000000  0.381365  0.381365  1
  Fe  Fe13  1  0.000000  0.618635  0.618635  1
  Co  Co14  1  0.388828  0.888828  0.500000  1
  Co  Co15  1  0.611172  0.111172  0.500000  1
  Co  Co16  1  0.000000  0.000000  0.000000  1
  Bi  Bi17  1  0.500000  0.500000  0.000000  1
