# generated using pymatgen
data_Hf4Sc4Ir3Pt
_symmetry_space_group_name_H-M   'P 1'
_cell_length_a   4.52506900
_cell_length_b   6.70772659
_cell_length_c   8.06200122
_cell_angle_alpha   89.83474071
_cell_angle_beta   90.00000000
_cell_angle_gamma   90.00000000
_symmetry_Int_Tables_number   1
_chemical_formula_structural   Hf4Sc4Ir3Pt
_chemical_formula_sum   'Hf4 Sc4 Ir3 Pt1'
_cell_volume   244.70430554
_cell_formula_units_Z   1
loop_
 _symmetry_equiv_pos_site_id
 _symmetry_equiv_pos_as_xyz
  1  'x, y, z'
loop_
 _atom_site_type_symbol
 _atom_site_label
 _atom_site_symmetry_multiplicity
 _atom_site_fract_x
 _atom_site_fract_y
 _atom_site_fract_z
 _atom_site_occupancy
  Hf  Hf0  1  0.250000  0.146062  0.918853  1
  Hf  Hf1  1  0.250000  0.647578  0.577698  1
  Hf  Hf2  1  0.750000  0.848739  0.075657  1
  Hf  Hf3  1  0.750000  0.353671  0.424166  1
  Sc  Sc4  1  0.250000  0.010947  0.326444  1
  Sc  Sc5  1  0.250000  0.517171  0.178848  1
  Sc  Sc6  1  0.750000  0.987726  0.673396  1
  Sc  Sc7  1  0.750000  0.488634  0.822009  1
  Ir  Ir8  1  0.250000  0.254216  0.590961  1
  Ir  Ir9  1  0.250000  0.753626  0.910220  1
  Ir  Ir10  1  0.750000  0.746393  0.408141  1
  Pt  Pt11  1  0.750000  0.245238  0.093608  1
