# generated using pymatgen
data_TbY3(Er2Rh)4
_symmetry_space_group_name_H-M   'P 1'
_cell_length_a   6.29147029
_cell_length_b   7.17225612
_cell_length_c   9.33310600
_cell_angle_alpha   90.00000000
_cell_angle_beta   90.00000000
_cell_angle_gamma   89.82224707
_symmetry_Int_Tables_number   1
_chemical_formula_structural   TbY3(Er2Rh)4
_chemical_formula_sum   'Tb1 Y3 Er8 Rh4'
_cell_volume   421.14538710
_cell_formula_units_Z   1
loop_
 _symmetry_equiv_pos_site_id
 _symmetry_equiv_pos_as_xyz
  1  'x, y, z'
loop_
 _atom_site_type_symbol
 _atom_site_label
 _atom_site_symmetry_multiplicity
 _atom_site_fract_x
 _atom_site_fract_y
 _atom_site_fract_z
 _atom_site_occupancy
  Tb  Tb0  1  0.131998  0.034445  0.250000  1
  Y  Y1  1  0.868540  0.966630  0.750000  1
  Y  Y2  1  0.369006  0.532759  0.250000  1
  Y  Y3  1  0.631326  0.466811  0.750000  1
  Er  Er4  1  0.671585  0.177559  0.062852  1
  Er  Er5  1  0.170998  0.321901  0.937117  1
  Er  Er6  1  0.829271  0.678290  0.436737  1
  Er  Er7  1  0.328573  0.822242  0.562794  1
  Er  Er8  1  0.328573  0.822242  0.937206  1
  Er  Er9  1  0.829271  0.678290  0.063263  1
  Er  Er10  1  0.170998  0.321901  0.562883  1
  Er  Er11  1  0.671585  0.177559  0.437148  1
  Rh  Rh12  1  0.059393  0.615971  0.750000  1
  Rh  Rh13  1  0.556318  0.884773  0.250000  1
  Rh  Rh14  1  0.440917  0.115392  0.750000  1
  Rh  Rh15  1  0.941648  0.383235  0.250000  1
