# generated using pymatgen
data_Th3Zn22
_symmetry_space_group_name_H-M   'P 1'
_cell_length_a   12.37687196
_cell_length_b   8.91314094
_cell_length_c   8.91314100
_cell_angle_alpha   90.00000000
_cell_angle_beta   111.10464742
_cell_angle_gamma   111.10464426
_symmetry_Int_Tables_number   1
_chemical_formula_structural   Th3Zn22
_chemical_formula_sum   'Th6 Zn44'
_cell_volume   846.23765633
_cell_formula_units_Z   2
loop_
 _symmetry_equiv_pos_site_id
 _symmetry_equiv_pos_as_xyz
  1  'x, y, z'
loop_
 _atom_site_type_symbol
 _atom_site_label
 _atom_site_symmetry_multiplicity
 _atom_site_fract_x
 _atom_site_fract_y
 _atom_site_fract_z
 _atom_site_occupancy
  Th  Th0  1  0.507173  0.253587  0.003586  1
  Th  Th1  1  0.992827  0.496414  0.246413  1
  Th  Th2  1  0.250000  0.125000  0.375001  1
  Th  Th3  1  0.750000  0.875000  0.625000  1
  Th  Th4  1  0.007173  0.503586  0.753587  1
  Th  Th5  1  0.492827  0.746413  0.996414  1
  Zn  Zn6  1  0.000000  0.000000  0.000000  1
  Zn  Zn7  1  0.232456  0.116229  0.012506  1
  Zn  Zn8  1  0.121919  0.318983  0.080769  1
  Zn  Zn9  1  0.121919  0.802937  0.080769  1
  Zn  Zn10  1  0.246054  0.623027  0.095112  1
  Zn  Zn11  1  0.746054  0.150942  0.123027  1
  Zn  Zn12  1  0.746054  0.595112  0.123027  1
  Zn  Zn13  1  0.378081  0.419231  0.181018  1
  Zn  Zn14  1  0.378081  0.958850  0.181018  1
  Zn  Zn15  1  0.972854  0.136594  0.236428  1
  Zn  Zn16  1  0.972854  0.836260  0.236428  1
  Zn  Zn17  1  0.767544  0.883771  0.280050  1
  Zn  Zn18  1  0.621919  0.041150  0.302937  1
  Zn  Zn19  1  0.621919  0.580770  0.302937  1
  Zn  Zn20  1  0.472854  0.736427  0.336261  1
  Zn  Zn21  1  0.753946  0.376973  0.349058  1
  Zn  Zn22  1  0.527146  0.263573  0.363407  1
  Zn  Zn23  1  0.267543  0.487493  0.383772  1
  Zn  Zn24  1  0.267543  0.780050  0.383772  1
  Zn  Zn25  1  0.878081  0.197064  0.458850  1
  Zn  Zn26  1  0.878081  0.681017  0.458850  1
  Zn  Zn27  1  0.000000  0.000000  0.500000  1
  Zn  Zn28  1  0.500000  0.000000  0.500001  1
  Zn  Zn29  1  0.500000  0.500001  0.500001  1
  Zn  Zn30  1  0.121919  0.318983  0.541150  1
  Zn  Zn31  1  0.121919  0.802937  0.541150  1
  Zn  Zn32  1  0.732457  0.219950  0.616229  1
  Zn  Zn33  1  0.732457  0.512507  0.616229  1
  Zn  Zn34  1  0.472854  0.736427  0.636593  1
  Zn  Zn35  1  0.246054  0.623027  0.650942  1
  Zn  Zn36  1  0.527146  0.263573  0.663739  1
  Zn  Zn37  1  0.378081  0.419231  0.697063  1
  Zn  Zn38  1  0.378081  0.958850  0.697063  1
  Zn  Zn39  1  0.232456  0.116229  0.719950  1
  Zn  Zn40  1  0.027146  0.163740  0.763573  1
  Zn  Zn41  1  0.027146  0.863406  0.763573  1
  Zn  Zn42  1  0.621919  0.041150  0.818982  1
  Zn  Zn43  1  0.621919  0.580770  0.818982  1
  Zn  Zn44  1  0.253946  0.404888  0.876973  1
  Zn  Zn45  1  0.253946  0.849058  0.876973  1
  Zn  Zn46  1  0.753946  0.376973  0.904888  1
  Zn  Zn47  1  0.878081  0.197064  0.919231  1
  Zn  Zn48  1  0.878081  0.681017  0.919231  1
  Zn  Zn49  1  0.767544  0.883771  0.987494  1
