# generated using pymatgen
data_ZnFe3(PtO3)8
_symmetry_space_group_name_H-M   'P 1'
_cell_length_a   4.60151570
_cell_length_b   9.19853041
_cell_length_c   9.48627700
_cell_angle_alpha   90.00000000
_cell_angle_beta   90.00000000
_cell_angle_gamma   89.81958956
_symmetry_Int_Tables_number   1
_chemical_formula_structural   ZnFe3(PtO3)8
_chemical_formula_sum   'Zn1 Fe3 Pt8 O24'
_cell_volume   401.52538332
_cell_formula_units_Z   1
loop_
 _symmetry_equiv_pos_site_id
 _symmetry_equiv_pos_as_xyz
  1  'x, y, z'
loop_
 _atom_site_type_symbol
 _atom_site_label
 _atom_site_symmetry_multiplicity
 _atom_site_fract_x
 _atom_site_fract_y
 _atom_site_fract_z
 _atom_site_occupancy
  Zn  Zn0  1  0.000000  0.500000  0.000000  1
  Fe  Fe1  1  0.499456  0.750079  0.500000  1
  Fe  Fe2  1  0.000000  0.000000  0.000000  1
  Fe  Fe3  1  0.500544  0.249921  0.500000  1
  Pt  Pt4  1  0.000000  0.000000  0.332015  1
  Pt  Pt5  1  0.000000  0.500000  0.332365  1
  Pt  Pt6  1  0.497243  0.250133  0.831824  1
  Pt  Pt7  1  0.502757  0.749867  0.831824  1
  Pt  Pt8  1  0.497243  0.250133  0.168176  1
  Pt  Pt9  1  0.502757  0.749867  0.168176  1
  Pt  Pt10  1  0.000000  0.000000  0.667985  1
  Pt  Pt11  1  0.000000  0.500000  0.667635  1
  O  O12  1  0.306352  0.154357  0.000000  1
  O  O13  1  0.314813  0.657018  0.000000  1
  O  O14  1  0.192297  0.404207  0.500000  1
  O  O15  1  0.190964  0.904513  0.500000  1
  O  O16  1  0.809036  0.095487  0.500000  1
  O  O17  1  0.807703  0.595793  0.500000  1
  O  O18  1  0.685187  0.342982  0.000000  1
  O  O19  1  0.693648  0.845643  0.000000  1
  O  O20  1  0.307495  0.152932  0.336647  1
  O  O21  1  0.306758  0.654153  0.336069  1
  O  O22  1  0.192896  0.402634  0.832361  1
  O  O23  1  0.193590  0.904019  0.835978  1
  O  O24  1  0.806410  0.095981  0.835978  1
  O  O25  1  0.807104  0.597366  0.832361  1
  O  O26  1  0.806410  0.095981  0.164022  1
  O  O27  1  0.807104  0.597366  0.167639  1
  O  O28  1  0.192896  0.402634  0.167639  1
  O  O29  1  0.193590  0.904019  0.164022  1
  O  O30  1  0.693242  0.345847  0.336069  1
  O  O31  1  0.692505  0.847068  0.336647  1
  O  O32  1  0.307495  0.152932  0.663353  1
  O  O33  1  0.306758  0.654153  0.663931  1
  O  O34  1  0.693242  0.345847  0.663931  1
  O  O35  1  0.692505  0.847068  0.663353  1
