# generated using pymatgen
data_Sc4Al6FeTc
_symmetry_space_group_name_H-M   'P 1'
_cell_length_a   5.30040600
_cell_length_b   5.30040455
_cell_length_c   8.54080300
_cell_angle_alpha   90.00000000
_cell_angle_beta   90.00000000
_cell_angle_gamma   120.00002150
_symmetry_Int_Tables_number   1
_chemical_formula_structural   Sc4Al6FeTc
_chemical_formula_sum   'Sc4 Al6 Fe1 Tc1'
_cell_volume   207.80088731
_cell_formula_units_Z   1
loop_
 _symmetry_equiv_pos_site_id
 _symmetry_equiv_pos_as_xyz
  1  'x, y, z'
loop_
 _atom_site_type_symbol
 _atom_site_label
 _atom_site_symmetry_multiplicity
 _atom_site_fract_x
 _atom_site_fract_y
 _atom_site_fract_z
 _atom_site_occupancy
  Sc  Sc0  1  0.666667  0.333333  0.946137  1
  Sc  Sc1  1  0.333333  0.666667  0.053863  1
  Sc  Sc2  1  0.333333  0.666667  0.448684  1
  Sc  Sc3  1  0.666667  0.333333  0.551316  1
  Al  Al4  1  0.328598  0.164298  0.256230  1
  Al  Al5  1  0.835702  0.164298  0.256230  1
  Al  Al6  1  0.835702  0.671402  0.256230  1
  Al  Al7  1  0.164298  0.328598  0.743770  1
  Al  Al8  1  0.164298  0.835702  0.743770  1
  Al  Al9  1  0.671402  0.835702  0.743770  1
  Fe  Fe10  1  0.000000  0.000000  0.500000  1
  Tc  Tc11  1  0.000000  0.000000  0.000000  1
