# generated using pymatgen
data_Li2Be(SiRh2)3
_symmetry_space_group_name_H-M   'P 1'
_cell_length_a   4.09447800
_cell_length_b   5.78810700
_cell_length_c   12.27871600
_cell_angle_alpha   90.00000000
_cell_angle_beta   90.00000467
_cell_angle_gamma   90.00000000
_symmetry_Int_Tables_number   1
_chemical_formula_structural   Li2Be(SiRh2)3
_chemical_formula_sum   'Li4 Be2 Si6 Rh12'
_cell_volume   290.99668890
_cell_formula_units_Z   2
loop_
 _symmetry_equiv_pos_site_id
 _symmetry_equiv_pos_as_xyz
  1  'x, y, z'
loop_
 _atom_site_type_symbol
 _atom_site_label
 _atom_site_symmetry_multiplicity
 _atom_site_fract_x
 _atom_site_fract_y
 _atom_site_fract_z
 _atom_site_occupancy
  Li  Li0  1  0.000093  0.000000  0.997587  1
  Li  Li1  1  0.499370  0.500000  0.165488  1
  Li  Li2  1  0.999371  0.000000  0.334513  1
  Li  Li3  1  0.500092  0.500000  0.502409  1
  Be  Be4  1  0.000622  0.000000  0.667579  1
  Be  Be5  1  0.500622  0.500000  0.832421  1
  Si  Si6  1  0.000013  0.500000  0.002962  1
  Si  Si7  1  0.499602  0.000000  0.166470  1
  Si  Si8  1  0.999602  0.500000  0.333531  1
  Si  Si9  1  0.500012  0.000000  0.497039  1
  Si  Si10  1  0.000434  0.500000  0.664037  1
  Si  Si11  1  0.500435  0.000000  0.835962  1
  Rh  Rh12  1  0.500030  0.254382  0.994768  1
  Rh  Rh13  1  0.500030  0.745618  0.994768  1
  Rh  Rh14  1  0.999672  0.249024  0.165760  1
  Rh  Rh15  1  0.999672  0.750977  0.165760  1
  Rh  Rh16  1  0.499673  0.250976  0.334240  1
  Rh  Rh17  1  0.499673  0.749024  0.334240  1
  Rh  Rh18  1  0.000029  0.245614  0.505233  1
  Rh  Rh19  1  0.000029  0.754386  0.505233  1
  Rh  Rh20  1  0.500230  0.245309  0.670816  1
  Rh  Rh21  1  0.500230  0.754691  0.670816  1
  Rh  Rh22  1  0.000231  0.254690  0.829183  1
  Rh  Rh23  1  0.000231  0.745311  0.829183  1
