# generated using pymatgen
data_Sr4TaRhO8
_symmetry_space_group_name_H-M   'P 1'
_cell_length_a   7.00198581
_cell_length_b   7.00198590
_cell_length_c   5.62625800
_cell_angle_alpha   90.00000000
_cell_angle_beta   90.00000000
_cell_angle_gamma   132.55501620
_symmetry_Int_Tables_number   1
_chemical_formula_structural   Sr4TaRhO8
_chemical_formula_sum   'Sr4 Ta1 Rh1 O8'
_cell_volume   203.19381900
_cell_formula_units_Z   1
loop_
 _symmetry_equiv_pos_site_id
 _symmetry_equiv_pos_as_xyz
  1  'x, y, z'
loop_
 _atom_site_type_symbol
 _atom_site_label
 _atom_site_symmetry_multiplicity
 _atom_site_fract_x
 _atom_site_fract_y
 _atom_site_fract_z
 _atom_site_occupancy
  Sr  Sr0  1  0.648101  0.351899  0.000000  1
  Sr  Sr1  1  0.145435  0.854565  0.500000  1
  Sr  Sr2  1  0.854565  0.145435  0.500000  1
  Sr  Sr3  1  0.351899  0.648101  0.000000  1
  Ta  Ta4  1  0.500000  0.500000  0.500000  1
  Rh  Rh5  1  0.000000  0.000000  0.000000  1
  O  O6  1  0.746916  0.746916  0.745876  1
  O  O7  1  0.253084  0.253084  0.254124  1
  O  O8  1  0.253084  0.253084  0.745876  1
  O  O9  1  0.746916  0.746916  0.254124  1
  O  O10  1  0.834834  0.165166  0.000000  1
  O  O11  1  0.339829  0.660171  0.500000  1
  O  O12  1  0.660171  0.339829  0.500000  1
  O  O13  1  0.165166  0.834834  0.000000  1
