# generated using pymatgen
data_Yb7MnNbAlN9
_symmetry_space_group_name_H-M   'P 1'
_cell_length_a   9.90112200
_cell_length_b   6.01645587
_cell_length_c   8.98549814
_cell_angle_alpha   87.28874030
_cell_angle_beta   90.00000000
_cell_angle_gamma   90.00000000
_symmetry_Int_Tables_number   1
_chemical_formula_structural   Yb7MnNbAlN9
_chemical_formula_sum   'Yb14 Mn2 Nb2 Al2 N18'
_cell_volume   534.66392738
_cell_formula_units_Z   2
loop_
 _symmetry_equiv_pos_site_id
 _symmetry_equiv_pos_as_xyz
  1  'x, y, z'
loop_
 _atom_site_type_symbol
 _atom_site_label
 _atom_site_symmetry_multiplicity
 _atom_site_fract_x
 _atom_site_fract_y
 _atom_site_fract_z
 _atom_site_occupancy
  Yb  Yb0  1  0.940644  0.422440  0.160167  1
  Yb  Yb1  1  0.079924  0.241878  0.494131  1
  Yb  Yb2  1  0.250000  0.087287  0.805473  1
  Yb  Yb3  1  0.454085  0.555984  0.823225  1
  Yb  Yb4  1  0.580089  0.752170  0.504601  1
  Yb  Yb5  1  0.576945  0.065864  0.824546  1
  Yb  Yb6  1  0.923055  0.065864  0.824546  1
  Yb  Yb7  1  0.420812  0.936109  0.166851  1
  Yb  Yb8  1  0.420076  0.241878  0.494131  1
  Yb  Yb9  1  0.079188  0.936109  0.166851  1
  Yb  Yb10  1  0.919911  0.752170  0.504601  1
  Yb  Yb11  1  0.045915  0.555984  0.823225  1
  Yb  Yb12  1  0.750000  0.911324  0.203497  1
  Yb  Yb13  1  0.559356  0.422440  0.160167  1
  Mn  Mn14  1  0.750000  0.679156  0.941245  1
  Mn  Mn15  1  0.250000  0.541915  0.279954  1
  Nb  Nb16  1  0.750000  0.280459  0.442260  1
  Nb  Nb17  1  0.250000  0.720218  0.564865  1
  Al  Al18  1  0.250000  0.331225  0.055321  1
  Al  Al19  1  0.750000  0.459312  0.723432  1
  N  N20  1  0.410997  0.227938  0.975387  1
  N  N21  1  0.250000  0.240324  0.269700  1
  N  N22  1  0.902316  0.112907  0.341692  1
  N  N23  1  0.599666  0.366867  0.626664  1
  N  N24  1  0.750000  0.560879  0.332555  1
  N  N25  1  0.250000  0.649554  0.088491  1
  N  N26  1  0.900334  0.366867  0.626664  1
  N  N27  1  0.394359  0.634190  0.373165  1
  N  N28  1  0.750000  0.377048  0.935795  1
  N  N29  1  0.096468  0.883142  0.657500  1
  N  N30  1  0.750000  0.777223  0.744162  1
  N  N31  1  0.105641  0.634190  0.373165  1
  N  N32  1  0.597997  0.772261  0.021698  1
  N  N33  1  0.250000  0.440580  0.674000  1
  N  N34  1  0.403532  0.883142  0.657500  1
  N  N35  1  0.597684  0.112907  0.341692  1
  N  N36  1  0.089003  0.227938  0.975387  1
  N  N37  1  0.902003  0.772261  0.021698  1
