# generated using pymatgen
data_DyYHo2(Al3Rh)6
_symmetry_space_group_name_H-M   'P 1'
_cell_length_a   7.54964532
_cell_length_b   7.54799603
_cell_length_c   9.46086500
_cell_angle_alpha   90.00000000
_cell_angle_beta   90.00000000
_cell_angle_gamma   119.30968620
_symmetry_Int_Tables_number   1
_chemical_formula_structural   DyYHo2(Al3Rh)6
_chemical_formula_sum   'Dy1 Y1 Ho2 Al18 Rh6'
_cell_volume   470.10928835
_cell_formula_units_Z   1
loop_
 _symmetry_equiv_pos_site_id
 _symmetry_equiv_pos_as_xyz
  1  'x, y, z'
loop_
 _atom_site_type_symbol
 _atom_site_label
 _atom_site_symmetry_multiplicity
 _atom_site_fract_x
 _atom_site_fract_y
 _atom_site_fract_z
 _atom_site_occupancy
  Dy  Dy0  1  0.005707  0.328327  0.750000  1
  Y  Y1  1  0.328382  0.005804  0.750000  1
  Ho  Ho2  1  0.994439  0.671700  0.250000  1
  Ho  Ho3  1  0.671816  0.994575  0.250000  1
  Al  Al4  1  0.127689  0.127829  0.250000  1
  Al  Al5  1  0.871283  0.871682  0.750000  1
  Al  Al6  1  0.000557  0.335680  0.075534  1
  Al  Al7  1  0.998884  0.664177  0.925533  1
  Al  Al8  1  0.998884  0.664177  0.574467  1
  Al  Al9  1  0.335694  0.000576  0.424082  1
  Al  Al10  1  0.000557  0.335680  0.424466  1
  Al  Al11  1  0.664660  0.999106  0.574422  1
  Al  Al12  1  0.664660  0.999106  0.925578  1
  Al  Al13  1  0.335694  0.000576  0.075918  1
  Al  Al14  1  0.332851  0.333042  0.549091  1
  Al  Al15  1  0.667274  0.667288  0.449592  1
  Al  Al16  1  0.667274  0.667288  0.050408  1
  Al  Al17  1  0.332851  0.333042  0.950909  1
  Al  Al18  1  0.339691  0.550651  0.250000  1
  Al  Al19  1  0.661063  0.450280  0.750000  1
  Al  Al20  1  0.550668  0.339871  0.250000  1
  Al  Al21  1  0.449865  0.660015  0.750000  1
  Rh  Rh22  1  0.672024  0.327921  0.000256  1
  Rh  Rh23  1  0.327943  0.672061  0.000238  1
  Rh  Rh24  1  0.327943  0.672061  0.499762  1
  Rh  Rh25  1  0.672024  0.327921  0.499744  1
  Rh  Rh26  1  0.999813  0.999782  0.000336  1
  Rh  Rh27  1  0.999813  0.999782  0.499664  1
