# generated using pymatgen
data_Ho5As2ClO10
_symmetry_space_group_name_H-M   'P 1'
_cell_length_a   6.58328728
_cell_length_b   6.58328709
_cell_length_c   8.69857223
_cell_angle_alpha   67.87924834
_cell_angle_beta   112.12075356
_cell_angle_gamma   130.20904765
_symmetry_Int_Tables_number   1
_chemical_formula_structural   Ho5As2ClO10
_chemical_formula_sum   'Ho5 As2 Cl1 O10'
_cell_volume   261.92664807
_cell_formula_units_Z   1
loop_
 _symmetry_equiv_pos_site_id
 _symmetry_equiv_pos_as_xyz
  1  'x, y, z'
loop_
 _atom_site_type_symbol
 _atom_site_label
 _atom_site_symmetry_multiplicity
 _atom_site_fract_x
 _atom_site_fract_y
 _atom_site_fract_z
 _atom_site_occupancy
  Ho  Ho0  1  0.000000  0.000000  0.000000  1
  Ho  Ho1  1  0.496282  0.503718  0.289647  1
  Ho  Ho2  1  0.503717  0.496283  0.710352  1
  Ho  Ho3  1  0.259849  0.740151  0.882496  1
  Ho  Ho4  1  0.740151  0.259849  0.117505  1
  As  As5  1  0.212182  0.787818  0.396967  1
  As  As6  1  0.787818  0.212182  0.603033  1
  Cl  Cl7  1  0.000001  0.999999  0.500001  1
  O  O8  1  0.366999  0.633001  0.414200  1
  O  O9  1  0.633002  0.366999  0.585800  1
  O  O10  1  0.620582  0.898843  0.759071  1
  O  O11  1  0.898844  0.620582  0.240930  1
  O  O12  1  0.379418  0.101157  0.240930  1
  O  O13  1  0.101157  0.379418  0.759071  1
  O  O14  1  0.373215  0.131786  0.911279  1
  O  O15  1  0.131787  0.373214  0.088722  1
  O  O16  1  0.626784  0.868211  0.088722  1
  O  O17  1  0.868212  0.626783  0.911279  1
