# generated using pymatgen
data_SrTaAlO5
_symmetry_space_group_name_H-M   'P 1'
_cell_length_a   5.76416271
_cell_length_b   5.76416255
_cell_length_c   7.52504683
_cell_angle_alpha   75.42680795
_cell_angle_beta   75.42681072
_cell_angle_gamma   105.82564437
_symmetry_Int_Tables_number   1
_chemical_formula_structural   SrTaAlO5
_chemical_formula_sum   'Sr2 Ta2 Al2 O10'
_cell_volume   218.60674283
_cell_formula_units_Z   2
loop_
 _symmetry_equiv_pos_site_id
 _symmetry_equiv_pos_as_xyz
  1  'x, y, z'
loop_
 _atom_site_type_symbol
 _atom_site_label
 _atom_site_symmetry_multiplicity
 _atom_site_fract_x
 _atom_site_fract_y
 _atom_site_fract_z
 _atom_site_occupancy
  Sr  Sr0  1  0.331087  0.668913  0.250000  1
  Sr  Sr1  1  0.668913  0.331087  0.750000  1
  Ta  Ta2  1  0.000000  0.000000  0.500000  1
  Ta  Ta3  1  0.000000  0.000000  0.000000  1
  Al  Al4  1  0.686293  0.313707  0.250000  1
  Al  Al5  1  0.313707  0.686293  0.750000  1
  O  O6  1  0.063425  0.936575  0.250000  1
  O  O7  1  0.936575  0.063425  0.750000  1
  O  O8  1  0.295991  0.890147  0.893685  1
  O  O9  1  0.109853  0.704009  0.606315  1
  O  O10  1  0.704009  0.109853  0.106315  1
  O  O11  1  0.890147  0.295991  0.393685  1
  O  O12  1  0.762121  0.634264  0.095732  1
  O  O13  1  0.365736  0.237879  0.404268  1
  O  O14  1  0.237879  0.365736  0.904268  1
  O  O15  1  0.634264  0.762121  0.595732  1
