# generated using pymatgen
data_Ho4Cr5MoO24
_symmetry_space_group_name_H-M   'P 1'
_cell_length_a   10.09271800
_cell_length_b   10.03786890
_cell_length_c   10.03786875
_cell_angle_alpha   58.39553620
_cell_angle_beta   58.16429130
_cell_angle_gamma   58.16429909
_symmetry_Int_Tables_number   1
_chemical_formula_structural   Ho4Cr5MoO24
_chemical_formula_sum   'Ho4 Cr5 Mo1 O24'
_cell_volume   690.10022393
_cell_formula_units_Z   1
loop_
 _symmetry_equiv_pos_site_id
 _symmetry_equiv_pos_as_xyz
  1  'x, y, z'
loop_
 _atom_site_type_symbol
 _atom_site_label
 _atom_site_symmetry_multiplicity
 _atom_site_fract_x
 _atom_site_fract_y
 _atom_site_fract_z
 _atom_site_occupancy
  Ho  Ho0  1  0.640602  0.638699  0.644399  1
  Ho  Ho1  1  0.349847  0.363112  0.356314  1
  Ho  Ho2  1  0.150153  0.143686  0.136888  1
  Ho  Ho3  1  0.859398  0.855601  0.861301  1
  Cr  Cr4  1  0.961565  0.534027  0.252505  1
  Cr  Cr5  1  0.538435  0.247495  0.965974  1
  Cr  Cr6  1  0.467533  0.749044  0.034440  1
  Cr  Cr7  1  0.032467  0.465560  0.750956  1
  Cr  Cr8  1  0.250000  0.964837  0.535163  1
  Mo  Mo9  1  0.750000  0.037942  0.462058  1
  O  O10  1  0.929433  0.067384  0.280761  1
  O  O11  1  0.777786  0.004582  0.640443  1
  O  O12  1  0.998912  0.369152  0.220323  1
  O  O13  1  0.706972  0.079548  0.941540  1
  O  O14  1  0.570567  0.219239  0.432616  1
  O  O15  1  0.867341  0.496347  0.725361  1
  O  O16  1  0.501088  0.279677  0.130848  1
  O  O17  1  0.793028  0.558460  0.420452  1
  O  O18  1  0.931556  0.704121  0.087811  1
  O  O19  1  0.568444  0.412189  0.795879  1
  O  O20  1  0.375765  0.219597  0.994759  1
  O  O21  1  0.276880  0.130787  0.502628  1
  O  O22  1  0.722214  0.859557  0.495418  1
  O  O23  1  0.632659  0.774639  0.003653  1
  O  O24  1  0.434275  0.583944  0.203041  1
  O  O25  1  0.065725  0.296959  0.916056  1
  O  O26  1  0.199264  0.438834  0.582063  1
  O  O27  1  0.499714  0.721624  0.868653  1
  O  O28  1  0.124235  0.505241  0.280403  1
  O  O29  1  0.416663  0.796153  0.564693  1
  O  O30  1  0.300736  0.917937  0.061166  1
  O  O31  1  0.000286  0.631347  0.778376  1
  O  O32  1  0.223120  0.997372  0.369213  1
  O  O33  1  0.083337  0.935307  0.703847  1
