# generated using pymatgen
data_Tb16CdNi(HgRu)3
_symmetry_space_group_name_H-M   'P 1'
_cell_length_a   9.54912716
_cell_length_b   9.65894548
_cell_length_c   9.65894600
_cell_angle_alpha   59.99999824
_cell_angle_beta   59.61883483
_cell_angle_gamma   59.61883225
_symmetry_Int_Tables_number   1
_chemical_formula_structural   Tb16CdNi(HgRu)3
_chemical_formula_sum   'Tb16 Cd1 Ni1 Hg3 Ru3'
_cell_volume   626.29917249
_cell_formula_units_Z   1
loop_
 _symmetry_equiv_pos_site_id
 _symmetry_equiv_pos_as_xyz
  1  'x, y, z'
loop_
 _atom_site_type_symbol
 _atom_site_label
 _atom_site_symmetry_multiplicity
 _atom_site_fract_x
 _atom_site_fract_y
 _atom_site_fract_z
 _atom_site_occupancy
  Tb  Tb0  1  0.351203  0.347355  0.347355  1
  Tb  Tb1  1  0.351203  0.347355  0.954086  1
  Tb  Tb2  1  0.351203  0.954086  0.347355  1
  Tb  Tb3  1  0.952953  0.349016  0.349016  1
  Tb  Tb4  1  0.810600  0.189029  0.189029  1
  Tb  Tb5  1  0.188970  0.810936  0.810936  1
  Tb  Tb6  1  0.188970  0.810936  0.189158  1
  Tb  Tb7  1  0.810600  0.189029  0.811341  1
  Tb  Tb8  1  0.188970  0.189158  0.810936  1
  Tb  Tb9  1  0.810600  0.811341  0.189029  1
  Tb  Tb10  1  0.936230  0.561820  0.561820  1
  Tb  Tb11  1  0.558643  0.937238  0.937238  1
  Tb  Tb12  1  0.558643  0.937238  0.566880  1
  Tb  Tb13  1  0.936230  0.561820  0.940131  1
  Tb  Tb14  1  0.558643  0.566880  0.937238  1
  Tb  Tb15  1  0.936230  0.940131  0.561820  1
  Cd  Cd16  1  0.260616  0.579794  0.579794  1
  Ni  Ni17  1  0.575354  0.141549  0.141549  1
  Hg  Hg18  1  0.581439  0.584738  0.584738  1
  Hg  Hg19  1  0.581439  0.584738  0.249084  1
  Hg  Hg20  1  0.581439  0.249084  0.584738  1
  Ru  Ru21  1  0.143275  0.139471  0.139471  1
  Ru  Ru22  1  0.143275  0.139471  0.577783  1
  Ru  Ru23  1  0.143275  0.577783  0.139471  1
