# generated using pymatgen
data_Er6Sc4SnSb5
_symmetry_space_group_name_H-M   'P 1'
_cell_length_a   8.75122600
_cell_length_b   8.73869239
_cell_length_c   6.11009600
_cell_angle_alpha   90.00000000
_cell_angle_beta   90.00000000
_cell_angle_gamma   120.04745650
_symmetry_Int_Tables_number   1
_chemical_formula_structural   Er6Sc4SnSb5
_chemical_formula_sum   'Er6 Sc4 Sn1 Sb5'
_cell_volume   404.46983453
_cell_formula_units_Z   1
loop_
 _symmetry_equiv_pos_site_id
 _symmetry_equiv_pos_as_xyz
  1  'x, y, z'
loop_
 _atom_site_type_symbol
 _atom_site_label
 _atom_site_symmetry_multiplicity
 _atom_site_fract_x
 _atom_site_fract_y
 _atom_site_fract_z
 _atom_site_occupancy
  Er  Er0  1  0.000949  0.755768  0.750000  1
  Er  Er1  1  0.999392  0.244785  0.250000  1
  Er  Er2  1  0.754608  0.755215  0.250000  1
  Er  Er3  1  0.754911  0.000000  0.750000  1
  Er  Er4  1  0.245182  0.244232  0.750000  1
  Er  Er5  1  0.244584  0.000000  0.250000  1
  Sc  Sc6  1  0.333459  0.666863  0.499987  1
  Sc  Sc7  1  0.666597  0.333137  0.000013  1
  Sc  Sc8  1  0.666597  0.333137  0.499987  1
  Sc  Sc9  1  0.333459  0.666863  0.000013  1
  Sn  Sn10  1  0.395955  0.000000  0.750000  1
  Sb  Sb11  1  0.394541  0.394788  0.250000  1
  Sb  Sb12  1  0.999753  0.605212  0.250000  1
  Sb  Sb13  1  0.000068  0.394646  0.750000  1
  Sb  Sb14  1  0.605422  0.605354  0.750000  1
  Sb  Sb15  1  0.604524  0.000000  0.250000  1
