# generated using pymatgen
data_Zr4Ir3Rh
_symmetry_space_group_name_H-M   'P 1'
_cell_length_a   6.16819134
_cell_length_b   4.49110400
_cell_length_c   5.39999186
_cell_angle_alpha   90.00000000
_cell_angle_beta   89.88136236
_cell_angle_gamma   90.00000000
_symmetry_Int_Tables_number   1
_chemical_formula_structural   Zr4Ir3Rh
_chemical_formula_sum   'Zr4 Ir3 Rh1'
_cell_volume   149.59019346
_cell_formula_units_Z   1
loop_
 _symmetry_equiv_pos_site_id
 _symmetry_equiv_pos_as_xyz
  1  'x, y, z'
loop_
 _atom_site_type_symbol
 _atom_site_label
 _atom_site_symmetry_multiplicity
 _atom_site_fract_x
 _atom_site_fract_y
 _atom_site_fract_z
 _atom_site_occupancy
  Zr  Zr0  1  0.174360  0.250000  0.140302  1
  Zr  Zr1  1  0.673477  0.250000  0.360663  1
  Zr  Zr2  1  0.323187  0.750001  0.638097  1
  Zr  Zr3  1  0.827516  0.750001  0.863704  1
  Ir  Ir4  1  0.456834  0.750001  0.165011  1
  Ir  Ir5  1  0.953626  0.750001  0.333884  1
  Ir  Ir6  1  0.045393  0.250000  0.668967  1
  Rh  Rh7  1  0.545606  0.250000  0.829369  1
