# generated using pymatgen
data_NdPa7(ZnIr)8
_symmetry_space_group_name_H-M   'P 1'
_cell_length_a   3.86219900
_cell_length_b   7.38154455
_cell_length_c   16.41129008
_cell_angle_alpha   90.49882617
_cell_angle_beta   90.00000000
_cell_angle_gamma   90.00000000
_symmetry_Int_Tables_number   1
_chemical_formula_structural   NdPa7(ZnIr)8
_chemical_formula_sum   'Nd1 Pa7 Zn8 Ir8'
_cell_volume   467.85163855
_cell_formula_units_Z   1
loop_
 _symmetry_equiv_pos_site_id
 _symmetry_equiv_pos_as_xyz
  1  'x, y, z'
loop_
 _atom_site_type_symbol
 _atom_site_label
 _atom_site_symmetry_multiplicity
 _atom_site_fract_x
 _atom_site_fract_y
 _atom_site_fract_z
 _atom_site_occupancy
  Nd  Nd0  1  0.250000  0.555490  0.786910  1
  Pa  Pa1  1  0.250000  0.166362  0.939674  1
  Pa  Pa2  1  0.250000  0.677038  0.560572  1
  Pa  Pa3  1  0.750000  0.336026  0.439419  1
  Pa  Pa4  1  0.750000  0.940855  0.285177  1
  Pa  Pa5  1  0.750000  0.830145  0.061829  1
  Pa  Pa6  1  0.750000  0.439695  0.215472  1
  Pa  Pa7  1  0.250000  0.057167  0.714416  1
  Zn  Zn8  1  0.750000  0.015296  0.556546  1
  Zn  Zn9  1  0.250000  0.610989  0.344677  1
  Zn  Zn10  1  0.750000  0.393135  0.656362  1
  Zn  Zn11  1  0.250000  0.493001  0.062145  1
  Zn  Zn12  1  0.750000  0.500991  0.939632  1
  Zn  Zn13  1  0.250000  0.998219  0.438620  1
  Zn  Zn14  1  0.250000  0.111390  0.155404  1
  Zn  Zn15  1  0.750000  0.874694  0.845833  1
  Ir  Ir16  1  0.750000  0.738756  0.439417  1
  Ir  Ir17  1  0.250000  0.238610  0.313207  1
  Ir  Ir18  1  0.750000  0.225428  0.815327  1
  Ir  Ir19  1  0.750000  0.783232  0.676772  1
  Ir  Ir20  1  0.250000  0.272769  0.558306  1
  Ir  Ir21  1  0.250000  0.739317  0.188318  1
  Ir  Ir22  1  0.750000  0.236148  0.058856  1
  Ir  Ir23  1  0.250000  0.765248  0.947108  1
