# generated using pymatgen
data_Nb3Co2OsC
_symmetry_space_group_name_H-M   'P 1'
_cell_length_a   8.15083785
_cell_length_b   8.15194456
_cell_length_c   8.15165501
_cell_angle_alpha   60.00668902
_cell_angle_beta   60.00130538
_cell_angle_gamma   60.00248971
_symmetry_Int_Tables_number   1
_chemical_formula_structural   Nb3Co2OsC
_chemical_formula_sum   'Nb12 Co8 Os4 C4'
_cell_volume   383.02636672
_cell_formula_units_Z   4
loop_
 _symmetry_equiv_pos_site_id
 _symmetry_equiv_pos_as_xyz
  1  'x, y, z'
loop_
 _atom_site_type_symbol
 _atom_site_label
 _atom_site_symmetry_multiplicity
 _atom_site_fract_x
 _atom_site_fract_y
 _atom_site_fract_z
 _atom_site_occupancy
  Nb  Nb0  1  0.693984  0.306034  0.693960  1
  Nb  Nb1  1  0.943973  0.556028  0.556035  1
  Nb  Nb2  1  0.556003  0.943980  0.943972  1
  Nb  Nb3  1  0.943987  0.556017  0.943954  1
  Nb  Nb4  1  0.556027  0.556044  0.943952  1
  Nb  Nb5  1  0.943991  0.943968  0.556012  1
  Nb  Nb6  1  0.693973  0.693956  0.306048  1
  Nb  Nb7  1  0.306027  0.693972  0.693965  1
  Nb  Nb8  1  0.693997  0.306020  0.306028  1
  Nb  Nb9  1  0.306009  0.306032  0.693988  1
  Nb  Nb10  1  0.556016  0.943966  0.556040  1
  Nb  Nb11  1  0.306013  0.693983  0.306046  1
  Co  Co12  1  0.326756  0.326745  0.326750  1
  Co  Co13  1  0.230209  0.923272  0.923267  1
  Co  Co14  1  0.923239  0.230283  0.923246  1
  Co  Co15  1  0.923240  0.923251  0.230278  1
  Co  Co16  1  0.326761  0.019717  0.326754  1
  Co  Co17  1  0.326760  0.326749  0.019722  1
  Co  Co18  1  0.019791  0.326728  0.326733  1
  Co  Co19  1  0.923244  0.923255  0.923250  1
  Os  Os20  1  0.125000  0.125000  0.125000  1
  Os  Os21  1  0.625000  0.125000  0.125000  1
  Os  Os22  1  0.125000  0.625000  0.125000  1
  Os  Os23  1  0.125000  0.125000  0.625000  1
  C  C24  1  0.625000  0.625000  0.625000  1
  C  C25  1  0.125000  0.625000  0.625000  1
  C  C26  1  0.625000  0.125000  0.625000  1
  C  C27  1  0.625000  0.625000  0.125000  1
