# generated using pymatgen
data_Gd6Zn22AgC
_symmetry_space_group_name_H-M   'P 1'
_cell_length_a   8.92865521
_cell_length_b   8.92865430
_cell_length_c   8.92865400
_cell_angle_alpha   59.99999369
_cell_angle_beta   59.99999706
_cell_angle_gamma   59.99999253
_symmetry_Int_Tables_number   1
_chemical_formula_structural   Gd6Zn22AgC
_chemical_formula_sum   'Gd6 Zn22 Ag1 C1'
_cell_volume   503.31862478
_cell_formula_units_Z   1
loop_
 _symmetry_equiv_pos_site_id
 _symmetry_equiv_pos_as_xyz
  1  'x, y, z'
loop_
 _atom_site_type_symbol
 _atom_site_label
 _atom_site_symmetry_multiplicity
 _atom_site_fract_x
 _atom_site_fract_y
 _atom_site_fract_z
 _atom_site_occupancy
  Gd  Gd0  1  0.696975  0.303025  0.303025  1
  Gd  Gd1  1  0.303025  0.696975  0.696975  1
  Gd  Gd2  1  0.303025  0.696975  0.303025  1
  Gd  Gd3  1  0.696975  0.303025  0.696975  1
  Gd  Gd4  1  0.303025  0.303025  0.696975  1
  Gd  Gd5  1  0.696975  0.696975  0.303025  1
  Zn  Zn6  1  0.122500  0.122500  0.122500  1
  Zn  Zn7  1  0.877500  0.877500  0.877500  1
  Zn  Zn8  1  0.122500  0.122500  0.632503  1
  Zn  Zn9  1  0.122500  0.632503  0.122500  1
  Zn  Zn10  1  0.877500  0.877500  0.367497  1
  Zn  Zn11  1  0.877500  0.367497  0.877500  1
  Zn  Zn12  1  0.632503  0.122500  0.122500  1
  Zn  Zn13  1  0.367497  0.877500  0.877500  1
  Zn  Zn14  1  0.500000  0.000000  0.000000  1
  Zn  Zn15  1  0.000000  0.500000  0.500000  1
  Zn  Zn16  1  0.000000  0.500000  0.000000  1
  Zn  Zn17  1  0.500000  0.000000  0.500000  1
  Zn  Zn18  1  0.000000  0.000000  0.500000  1
  Zn  Zn19  1  0.500000  0.500000  0.000000  1
  Zn  Zn20  1  0.327183  0.327183  0.327183  1
  Zn  Zn21  1  0.672817  0.672817  0.672817  1
  Zn  Zn22  1  0.327183  0.327183  0.018451  1
  Zn  Zn23  1  0.327183  0.018451  0.327183  1
  Zn  Zn24  1  0.672817  0.672817  0.981549  1
  Zn  Zn25  1  0.672817  0.981549  0.672817  1
  Zn  Zn26  1  0.018451  0.327183  0.327183  1
  Zn  Zn27  1  0.981549  0.672817  0.672817  1
  Ag  Ag28  1  0.000000  0.000000  0.000000  1
  C  C29  1  0.500000  0.500000  0.500000  1
