# generated using pymatgen
data_Tb8Lu4InGaCo4
_symmetry_space_group_name_H-M   'P 1'
_cell_length_a   8.30201578
_cell_length_b   8.30199881
_cell_length_c   8.30201669
_cell_angle_alpha   111.61339357
_cell_angle_beta   109.89057409
_cell_angle_gamma   106.94385681
_symmetry_Int_Tables_number   1
_chemical_formula_structural   Tb8Lu4InGaCo4
_chemical_formula_sum   'Tb8 Lu4 In1 Ga1 Co4'
_cell_volume   439.73783878
_cell_formula_units_Z   1
loop_
 _symmetry_equiv_pos_site_id
 _symmetry_equiv_pos_as_xyz
  1  'x, y, z'
loop_
 _atom_site_type_symbol
 _atom_site_label
 _atom_site_symmetry_multiplicity
 _atom_site_fract_x
 _atom_site_fract_y
 _atom_site_fract_z
 _atom_site_occupancy
  Tb  Tb0  1  0.433490  0.227999  0.205493  1
  Tb  Tb1  1  0.566510  0.772001  0.794507  1
  Tb  Tb2  1  0.022506  0.227999  0.794509  1
  Tb  Tb3  1  0.977494  0.772001  0.205491  1
  Tb  Tb4  1  0.185038  0.284091  0.469129  1
  Tb  Tb5  1  0.814962  0.715909  0.530871  1
  Tb  Tb6  1  0.185038  0.715909  0.900949  1
  Tb  Tb7  1  0.814962  0.284091  0.099051  1
  Lu  Lu8  1  0.318046  0.625361  0.307315  1
  Lu  Lu9  1  0.681954  0.374639  0.692685  1
  Lu  Lu10  1  0.318048  0.010729  0.692681  1
  Lu  Lu11  1  0.681952  0.989271  0.307319  1
  In  In12  1  0.500000  0.500000  0.000000  1
  Ga  Ga13  1  0.000000  0.000000  0.000000  1
  Co  Co14  1  0.375872  0.000000  0.375872  1
  Co  Co15  1  0.624128  0.000000  0.624128  1
  Co  Co16  1  0.113239  0.613239  0.500000  1
  Co  Co17  1  0.886761  0.386761  0.500000  1
