# generated using pymatgen
data_Dy7HoSc12Si15Sn
_symmetry_space_group_name_H-M   'P 1'
_cell_length_a   7.12868104
_cell_length_b   7.41630957
_cell_length_c   14.06777509
_cell_angle_alpha   89.99956169
_cell_angle_beta   89.58243554
_cell_angle_gamma   90.02420887
_symmetry_Int_Tables_number   1
_chemical_formula_structural   Dy7HoSc12Si15Sn
_chemical_formula_sum   'Dy7 Ho1 Sc12 Si15 Sn1'
_cell_volume   743.72242569
_cell_formula_units_Z   1
loop_
 _symmetry_equiv_pos_site_id
 _symmetry_equiv_pos_as_xyz
  1  'x, y, z'
loop_
 _atom_site_type_symbol
 _atom_site_label
 _atom_site_symmetry_multiplicity
 _atom_site_fract_x
 _atom_site_fract_y
 _atom_site_fract_z
 _atom_site_occupancy
  Dy  Dy0  1  0.011667  0.175969  0.096482  1
  Dy  Dy1  1  0.988229  0.824699  0.904422  1
  Dy  Dy2  1  0.488999  0.676050  0.904364  1
  Dy  Dy3  1  0.989078  0.830362  0.598392  1
  Dy  Dy4  1  0.510967  0.323923  0.096763  1
  Dy  Dy5  1  0.005826  0.169597  0.399116  1
  Dy  Dy6  1  0.513074  0.320358  0.399522  1
  Ho  Ho7  1  0.501193  0.684482  0.600064  1
  Sc  Sc8  1  0.162564  0.502403  0.755085  1
  Sc  Sc9  1  0.837059  0.497556  0.249138  1
  Sc  Sc10  1  0.337295  0.002707  0.249314  1
  Sc  Sc11  1  0.664092  0.997272  0.751761  1
  Sc  Sc12  1  0.343247  0.162499  0.630845  1
  Sc  Sc13  1  0.663920  0.825042  0.372607  1
  Sc  Sc14  1  0.163458  0.683401  0.369253  1
  Sc  Sc15  1  0.667730  0.823001  0.124128  1
  Sc  Sc16  1  0.823158  0.323710  0.626641  1
  Sc  Sc17  1  0.330683  0.175877  0.875547  1
  Sc  Sc18  1  0.831257  0.323385  0.875606  1
  Sc  Sc19  1  0.168663  0.676713  0.124988  1
  Si  Si20  1  0.035038  0.118498  0.751251  1
  Si  Si21  1  0.963094  0.885207  0.246809  1
  Si  Si22  1  0.465272  0.615332  0.248526  1
  Si  Si23  1  0.533127  0.385646  0.752212  1
  Si  Si24  1  0.286717  0.869883  0.752430  1
  Si  Si25  1  0.712265  0.126758  0.247425  1
  Si  Si26  1  0.211926  0.372577  0.249070  1
  Si  Si27  1  0.789518  0.628193  0.751597  1
  Si  Si28  1  0.830108  0.539019  0.458687  1
  Si  Si29  1  0.338209  0.963923  0.460340  1
  Si  Si30  1  0.842013  0.534621  0.039441  1
  Si  Si31  1  0.662316  0.037115  0.537884  1
  Si  Si32  1  0.157130  0.464814  0.961576  1
  Si  Si33  1  0.657170  0.035281  0.960805  1
  Si  Si34  1  0.341547  0.965305  0.039753  1
  Sn  Sn35  1  0.172393  0.458822  0.538155  1
