# generated using pymatgen
data_Tm16Cd4Ni3Ru
_symmetry_space_group_name_H-M   'P 1'
_cell_length_a   9.45635229
_cell_length_b   9.45635338
_cell_length_c   9.45635305
_cell_angle_alpha   59.49508490
_cell_angle_beta   59.49507878
_cell_angle_gamma   59.49508764
_symmetry_Int_Tables_number   1
_chemical_formula_structural   Tm16Cd4Ni3Ru
_chemical_formula_sum   'Tm16 Cd4 Ni3 Ru1'
_cell_volume   591.07139652
_cell_formula_units_Z   1
loop_
 _symmetry_equiv_pos_site_id
 _symmetry_equiv_pos_as_xyz
  1  'x, y, z'
loop_
 _atom_site_type_symbol
 _atom_site_label
 _atom_site_symmetry_multiplicity
 _atom_site_fract_x
 _atom_site_fract_y
 _atom_site_fract_z
 _atom_site_occupancy
  Tm  Tm0  1  0.346956  0.346956  0.346956  1
  Tm  Tm1  1  0.351185  0.351185  0.954264  1
  Tm  Tm2  1  0.351185  0.954264  0.351185  1
  Tm  Tm3  1  0.954264  0.351185  0.351185  1
  Tm  Tm4  1  0.809479  0.188025  0.188025  1
  Tm  Tm5  1  0.186440  0.811583  0.811583  1
  Tm  Tm6  1  0.188025  0.809479  0.188025  1
  Tm  Tm7  1  0.811583  0.186440  0.811583  1
  Tm  Tm8  1  0.188025  0.188025  0.809479  1
  Tm  Tm9  1  0.811583  0.811583  0.186440  1
  Tm  Tm10  1  0.935371  0.566115  0.566115  1
  Tm  Tm11  1  0.559975  0.938164  0.938164  1
  Tm  Tm12  1  0.566115  0.935371  0.566115  1
  Tm  Tm13  1  0.938164  0.559975  0.938164  1
  Tm  Tm14  1  0.566115  0.566115  0.935371  1
  Tm  Tm15  1  0.938164  0.938164  0.559975  1
  Cd  Cd16  1  0.580319  0.580319  0.580319  1
  Cd  Cd17  1  0.579931  0.579931  0.255569  1
  Cd  Cd18  1  0.579931  0.255569  0.579931  1
  Cd  Cd19  1  0.255569  0.579931  0.579931  1
  Ni  Ni20  1  0.141361  0.141361  0.575228  1
  Ni  Ni21  1  0.141361  0.575228  0.141361  1
  Ni  Ni22  1  0.575228  0.141361  0.141361  1
  Ru  Ru23  1  0.143676  0.143676  0.143676  1
