# generated using pymatgen
data_Pr2Nd6Si12PdRh3
_symmetry_space_group_name_H-M   'P 1'
_cell_length_a   8.27901100
_cell_length_b   8.27901188
_cell_length_c   8.47492600
_cell_angle_alpha   90.00000000
_cell_angle_beta   90.00000000
_cell_angle_gamma   120.00000845
_symmetry_Int_Tables_number   1
_chemical_formula_structural   Pr2Nd6Si12PdRh3
_chemical_formula_sum   'Pr2 Nd6 Si12 Pd1 Rh3'
_cell_volume   503.06427277
_cell_formula_units_Z   1
loop_
 _symmetry_equiv_pos_site_id
 _symmetry_equiv_pos_as_xyz
  1  'x, y, z'
loop_
 _atom_site_type_symbol
 _atom_site_label
 _atom_site_symmetry_multiplicity
 _atom_site_fract_x
 _atom_site_fract_y
 _atom_site_fract_z
 _atom_site_occupancy
  Pr  Pr0  1  0.000000  0.000000  0.749970  1
  Pr  Pr1  1  0.000000  0.000000  0.249484  1
  Nd  Nd2  1  0.496933  0.503067  0.752704  1
  Nd  Nd3  1  0.500306  0.499694  0.247694  1
  Nd  Nd4  1  0.006135  0.503067  0.752704  1
  Nd  Nd5  1  0.999388  0.499694  0.247694  1
  Nd  Nd6  1  0.496933  0.993865  0.752704  1
  Nd  Nd7  1  0.500306  0.000612  0.247694  1
  Si  Si8  1  0.832799  0.167201  0.002147  1
  Si  Si9  1  0.166662  0.833338  0.997833  1
  Si  Si10  1  0.334403  0.167201  0.002147  1
  Si  Si11  1  0.167506  0.832494  0.502410  1
  Si  Si12  1  0.666675  0.833338  0.997833  1
  Si  Si13  1  0.835408  0.164592  0.497393  1
  Si  Si14  1  0.832799  0.665597  0.002147  1
  Si  Si15  1  0.664988  0.832494  0.502410  1
  Si  Si16  1  0.166662  0.333325  0.997833  1
  Si  Si17  1  0.329185  0.164592  0.497393  1
  Si  Si18  1  0.167506  0.335012  0.502410  1
  Si  Si19  1  0.835408  0.670815  0.497393  1
  Pd  Pd20  1  0.666667  0.333333  0.507905  1
  Rh  Rh21  1  0.666667  0.333333  0.992208  1
  Rh  Rh22  1  0.333333  0.666667  0.007977  1
  Rh  Rh23  1  0.333333  0.666667  0.491915  1
