# generated using pymatgen
data_La2Th(ZnNi)3
_symmetry_space_group_name_H-M   'P 1'
_cell_length_a   7.33022583
_cell_length_b   7.25222828
_cell_length_c   3.86885500
_cell_angle_alpha   90.00000000
_cell_angle_beta   90.00000000
_cell_angle_gamma   119.64863494
_symmetry_Int_Tables_number   1
_chemical_formula_structural   La2Th(ZnNi)3
_chemical_formula_sum   'La2 Th1 Zn3 Ni3'
_cell_volume   178.74285897
_cell_formula_units_Z   1
loop_
 _symmetry_equiv_pos_site_id
 _symmetry_equiv_pos_as_xyz
  1  'x, y, z'
loop_
 _atom_site_type_symbol
 _atom_site_label
 _atom_site_symmetry_multiplicity
 _atom_site_fract_x
 _atom_site_fract_y
 _atom_site_fract_z
 _atom_site_occupancy
  La  La0  1  0.416334  0.417813  0.000000  1
  La  La1  1  0.583666  0.001478  0.000000  1
  Th  Th2  1  0.000000  0.582235  0.000000  1
  Zn  Zn3  1  0.229778  0.996764  0.500000  1
  Zn  Zn4  1  0.770222  0.766986  0.500000  1
  Zn  Zn5  1  0.000000  0.227754  0.500000  1
  Ni  Ni6  1  0.000000  0.990909  0.000000  1
  Ni  Ni7  1  0.688645  0.352353  0.500000  1
  Ni  Ni8  1  0.311355  0.663708  0.500000  1
