# generated using pymatgen
data_NdDyNi12P5
_symmetry_space_group_name_H-M   'P 1'
_cell_length_a   3.66195400
_cell_length_b   10.73375031
_cell_length_c   13.12151444
_cell_angle_alpha   71.68148174
_cell_angle_beta   90.00000000
_cell_angle_gamma   90.00000000
_symmetry_Int_Tables_number   1
_chemical_formula_structural   NdDyNi12P5
_chemical_formula_sum   'Nd2 Dy2 Ni24 P10'
_cell_volume   489.62408236
_cell_formula_units_Z   2
loop_
 _symmetry_equiv_pos_site_id
 _symmetry_equiv_pos_as_xyz
  1  'x, y, z'
loop_
 _atom_site_type_symbol
 _atom_site_label
 _atom_site_symmetry_multiplicity
 _atom_site_fract_x
 _atom_site_fract_y
 _atom_site_fract_z
 _atom_site_occupancy
  Nd  Nd0  1  0.250000  0.245377  0.187685  1
  Nd  Nd1  1  0.750000  0.754623  0.812315  1
  Dy  Dy2  1  0.250000  0.280427  0.682143  1
  Dy  Dy3  1  0.750000  0.719573  0.317857  1
  Ni  Ni4  1  0.250000  0.836966  0.139727  1
  Ni  Ni5  1  0.750000  0.163034  0.860273  1
  Ni  Ni6  1  0.250000  0.288319  0.439599  1
  Ni  Ni7  1  0.750000  0.711681  0.560401  1
  Ni  Ni8  1  0.250000  0.069711  0.015705  1
  Ni  Ni9  1  0.750000  0.930289  0.984295  1
  Ni  Ni10  1  0.250000  0.064361  0.446918  1
  Ni  Ni11  1  0.750000  0.935639  0.553082  1
  Ni  Ni12  1  0.250000  0.595708  0.695628  1
  Ni  Ni13  1  0.750000  0.404292  0.304372  1
  Ni  Ni14  1  0.250000  0.583033  0.008225  1
  Ni  Ni15  1  0.750000  0.416967  0.991775  1
  Ni  Ni16  1  0.250000  0.579644  0.508813  1
  Ni  Ni17  1  0.750000  0.420356  0.491187  1
  Ni  Ni18  1  0.250000  0.298070  0.916375  1
  Ni  Ni19  1  0.750000  0.701930  0.083625  1
  Ni  Ni20  1  0.250000  0.995283  0.659592  1
  Ni  Ni21  1  0.750000  0.004717  0.340408  1
  Ni  Ni22  1  0.250000  0.837282  0.436864  1
  Ni  Ni23  1  0.750000  0.162718  0.563136  1
  Ni  Ni24  1  0.250000  0.991433  0.848294  1
  Ni  Ni25  1  0.750000  0.008567  0.151706  1
  Ni  Ni26  1  0.250000  0.566532  0.204323  1
  Ni  Ni27  1  0.750000  0.433468  0.795677  1
  P  P28  1  0.250000  0.509228  0.870741  1
  P  P29  1  0.750000  0.490772  0.129259  1
  P  P30  1  0.250000  0.800748  0.984254  1
  P  P31  1  0.750000  0.199252  0.015746  1
  P  P32  1  0.250000  0.497874  0.377413  1
  P  P33  1  0.750000  0.502126  0.622587  1
  P  P34  1  0.250000  0.812295  0.610469  1
  P  P35  1  0.750000  0.187705  0.389531  1
  P  P36  1  0.250000  0.945320  0.260662  1
  P  P37  1  0.750000  0.054680  0.739338  1
