# generated using pymatgen
data_Li3Tm4MgPb4
_symmetry_space_group_name_H-M   'P 1'
_cell_length_a   7.18181650
_cell_length_b   4.79703900
_cell_length_c   8.34899305
_cell_angle_alpha   90.00000000
_cell_angle_beta   90.35539271
_cell_angle_gamma   90.00000000
_symmetry_Int_Tables_number   1
_chemical_formula_structural   Li3Tm4MgPb4
_chemical_formula_sum   'Li3 Tm4 Mg1 Pb4'
_cell_volume   287.62941546
_cell_formula_units_Z   1
loop_
 _symmetry_equiv_pos_site_id
 _symmetry_equiv_pos_as_xyz
  1  'x, y, z'
loop_
 _atom_site_type_symbol
 _atom_site_label
 _atom_site_symmetry_multiplicity
 _atom_site_fract_x
 _atom_site_fract_y
 _atom_site_fract_z
 _atom_site_occupancy
  Li  Li0  1  0.192548  0.750000  0.080390  1
  Li  Li1  1  0.691485  0.750000  0.422100  1
  Li  Li2  1  0.304174  0.249999  0.580984  1
  Tm  Tm3  1  0.493811  0.249999  0.231453  1
  Tm  Tm4  1  0.002707  0.249999  0.274208  1
  Tm  Tm5  1  0.009515  0.750000  0.721045  1
  Tm  Tm6  1  0.502546  0.750000  0.770461  1
  Mg  Mg7  1  0.797076  0.249999  0.916620  1
  Pb  Pb8  1  0.758605  0.750000  0.099588  1
  Pb  Pb9  1  0.265630  0.750000  0.412438  1
  Pb  Pb10  1  0.738943  0.249999  0.578015  1
  Pb  Pb11  1  0.242963  0.249999  0.912703  1
