# generated using pymatgen
data_Sr21Ga8SnBi6
_symmetry_space_group_name_H-M   'P 1'
_cell_length_a   12.19281292
_cell_length_b   12.19281377
_cell_length_c   12.19281300
_cell_angle_alpha   60.00000480
_cell_angle_beta   60.00000250
_cell_angle_gamma   59.99999927
_symmetry_Int_Tables_number   1
_chemical_formula_structural   Sr21Ga8SnBi6
_chemical_formula_sum   'Sr21 Ga8 Sn1 Bi6'
_cell_volume   1281.73070337
_cell_formula_units_Z   1
loop_
 _symmetry_equiv_pos_site_id
 _symmetry_equiv_pos_as_xyz
  1  'x, y, z'
loop_
 _atom_site_type_symbol
 _atom_site_label
 _atom_site_symmetry_multiplicity
 _atom_site_fract_x
 _atom_site_fract_y
 _atom_site_fract_z
 _atom_site_occupancy
  Sr  Sr0  1  0.866863  0.866863  0.399411  1
  Sr  Sr1  1  0.600589  0.133137  0.133137  1
  Sr  Sr2  1  0.866863  0.399411  0.866863  1
  Sr  Sr3  1  0.133137  0.133137  0.133137  1
  Sr  Sr4  1  0.399411  0.866863  0.866863  1
  Sr  Sr5  1  0.866863  0.866863  0.866863  1
  Sr  Sr6  1  0.178172  0.821828  0.500000  1
  Sr  Sr7  1  0.821828  0.500000  0.500000  1
  Sr  Sr8  1  0.133137  0.133137  0.600589  1
  Sr  Sr9  1  0.821828  0.178172  0.500000  1
  Sr  Sr10  1  0.178172  0.500000  0.500000  1
  Sr  Sr11  1  0.133137  0.600589  0.133137  1
  Sr  Sr12  1  0.500000  0.500000  0.178172  1
  Sr  Sr13  1  0.500000  0.178172  0.821828  1
  Sr  Sr14  1  0.500000  0.821828  0.178172  1
  Sr  Sr15  1  0.500000  0.500000  0.821828  1
  Sr  Sr16  1  0.500000  0.178172  0.500000  1
  Sr  Sr17  1  0.178172  0.500000  0.821828  1
  Sr  Sr18  1  0.000000  0.000000  0.000000  1
  Sr  Sr19  1  0.500000  0.821828  0.500000  1
  Sr  Sr20  1  0.821828  0.500000  0.178172  1
  Ga  Ga21  1  0.693401  0.919797  0.693401  1
  Ga  Ga22  1  0.693401  0.693401  0.919797  1
  Ga  Ga23  1  0.693401  0.693401  0.693401  1
  Ga  Ga24  1  0.306599  0.080203  0.306599  1
  Ga  Ga25  1  0.919797  0.693401  0.693401  1
  Ga  Ga26  1  0.306599  0.306599  0.080203  1
  Ga  Ga27  1  0.080203  0.306599  0.306599  1
  Ga  Ga28  1  0.306599  0.306599  0.306599  1
  Sn  Sn29  1  0.500000  0.500000  0.500000  1
  Bi  Bi30  1  0.791313  0.208687  0.791313  1
  Bi  Bi31  1  0.791313  0.208687  0.208687  1
  Bi  Bi32  1  0.208687  0.791313  0.208687  1
  Bi  Bi33  1  0.208687  0.791313  0.791313  1
  Bi  Bi34  1  0.791313  0.791313  0.208687  1
  Bi  Bi35  1  0.208687  0.208687  0.791313  1
