# generated using pymatgen
data_Ba2Cd(SeO3)3
_symmetry_space_group_name_H-M   'P 1'
_cell_length_a   7.87047997
_cell_length_b   8.08089679
_cell_length_c   9.41625577
_cell_angle_alpha   103.27476929
_cell_angle_beta   105.21881650
_cell_angle_gamma   94.44120828
_symmetry_Int_Tables_number   1
_chemical_formula_structural   Ba2Cd(SeO3)3
_chemical_formula_sum   'Ba4 Cd2 Se6 O18'
_cell_volume   556.35596684
_cell_formula_units_Z   2
loop_
 _symmetry_equiv_pos_site_id
 _symmetry_equiv_pos_as_xyz
  1  'x, y, z'
loop_
 _atom_site_type_symbol
 _atom_site_label
 _atom_site_symmetry_multiplicity
 _atom_site_fract_x
 _atom_site_fract_y
 _atom_site_fract_z
 _atom_site_occupancy
  Ba  Ba0  1  0.379638  0.517851  0.190991  1
  Ba  Ba1  1  0.247531  0.089784  0.384497  1
  Ba  Ba2  1  0.752469  0.910217  0.615502  1
  Ba  Ba3  1  0.620362  0.482148  0.809009  1
  Cd  Cd4  1  0.916300  0.654846  0.249882  1
  Cd  Cd5  1  0.083700  0.345154  0.750118  1
  Se  Se6  1  0.900979  0.209173  0.043393  1
  Se  Se7  1  0.643159  0.916590  0.212862  1
  Se  Se8  1  0.755465  0.359063  0.414414  1
  Se  Se9  1  0.244533  0.640936  0.585586  1
  Se  Se10  1  0.356841  0.083411  0.787138  1
  Se  Se11  1  0.099021  0.790828  0.956607  1
  O  O12  1  0.816584  0.403327  0.070235  1
  O  O13  1  0.635209  0.710015  0.102282  1
  O  O14  1  0.079360  0.814570  0.138550  1
  O  O15  1  0.114230  0.257437  0.161872  1
  O  O16  1  0.503226  0.879579  0.320085  1
  O  O17  1  0.529978  0.293034  0.351314  1
  O  O18  1  0.850870  0.939940  0.345649  1
  O  O19  1  0.196400  0.646069  0.395681  1
  O  O20  1  0.763520  0.576959  0.418331  1
  O  O21  1  0.236479  0.423041  0.581668  1
  O  O22  1  0.803600  0.353931  0.604319  1
  O  O23  1  0.149131  0.060061  0.654352  1
  O  O24  1  0.470022  0.706966  0.648686  1
  O  O25  1  0.496774  0.120422  0.679915  1
  O  O26  1  0.885768  0.742564  0.838127  1
  O  O27  1  0.920640  0.185429  0.861451  1
  O  O28  1  0.364791  0.289985  0.897718  1
  O  O29  1  0.183416  0.596672  0.929764  1
