# generated using pymatgen
data_Er11Lu5Cd4Ru3Pt
_symmetry_space_group_name_H-M   'P 1'
_cell_length_a   9.52364776
_cell_length_b   9.56091898
_cell_length_c   9.56182802
_cell_angle_alpha   59.55251080
_cell_angle_beta   59.44186056
_cell_angle_gamma   59.44014942
_symmetry_Int_Tables_number   1
_chemical_formula_structural   Er11Lu5Cd4Ru3Pt
_chemical_formula_sum   'Er11 Lu5 Cd4 Ru3 Pt1'
_cell_volume   608.33411063
_cell_formula_units_Z   1
loop_
 _symmetry_equiv_pos_site_id
 _symmetry_equiv_pos_as_xyz
  1  'x, y, z'
loop_
 _atom_site_type_symbol
 _atom_site_label
 _atom_site_symmetry_multiplicity
 _atom_site_fract_x
 _atom_site_fract_y
 _atom_site_fract_z
 _atom_site_occupancy
  Er  Er0  1  0.185525  0.810894  0.810930  1
  Er  Er1  1  0.187476  0.811031  0.188803  1
  Er  Er2  1  0.813070  0.189787  0.805127  1
  Er  Er3  1  0.187435  0.188843  0.811041  1
  Er  Er4  1  0.813084  0.805121  0.189766  1
  Er  Er5  1  0.938469  0.560308  0.560269  1
  Er  Er6  1  0.557768  0.937759  0.937806  1
  Er  Er7  1  0.557800  0.939086  0.564667  1
  Er  Er8  1  0.937768  0.560267  0.938555  1
  Er  Er9  1  0.557822  0.564676  0.939079  1
  Er  Er10  1  0.937733  0.938583  0.560270  1
  Lu  Lu11  1  0.346531  0.350594  0.350549  1
  Lu  Lu12  1  0.345676  0.350091  0.957520  1
  Lu  Lu13  1  0.345734  0.957485  0.350031  1
  Lu  Lu14  1  0.964196  0.344893  0.344834  1
  Lu  Lu15  1  0.814694  0.189140  0.189142  1
  Cd  Cd16  1  0.579792  0.580517  0.580564  1
  Cd  Cd17  1  0.580957  0.580285  0.258145  1
  Cd  Cd18  1  0.580762  0.258094  0.580469  1
  Cd  Cd19  1  0.256505  0.581200  0.581177  1
  Ru  Ru20  1  0.145156  0.139188  0.139165  1
  Ru  Ru21  1  0.145738  0.142394  0.575529  1
  Ru  Ru22  1  0.145706  0.575583  0.142389  1
  Pt  Pt23  1  0.574605  0.144183  0.144172  1
