# generated using pymatgen
data_LiScH6Os
_symmetry_space_group_name_H-M   'P 1'
_cell_length_a   4.65344648
_cell_length_b   4.65344727
_cell_length_c   4.65344700
_cell_angle_alpha   60.00000901
_cell_angle_beta   60.00000338
_cell_angle_gamma   59.99999967
_symmetry_Int_Tables_number   1
_chemical_formula_structural   LiScH6Os
_chemical_formula_sum   'Li1 Sc1 H6 Os1'
_cell_volume   71.25401379
_cell_formula_units_Z   1
loop_
 _symmetry_equiv_pos_site_id
 _symmetry_equiv_pos_as_xyz
  1  'x, y, z'
loop_
 _atom_site_type_symbol
 _atom_site_label
 _atom_site_symmetry_multiplicity
 _atom_site_fract_x
 _atom_site_fract_y
 _atom_site_fract_z
 _atom_site_occupancy
  Li  Li0  1  0.250001  0.250001  0.250001  1
  Sc  Sc1  1  0.750000  0.750000  0.750000  1
  H  H2  1  0.259513  0.740487  0.259513  1
  H  H3  1  0.740487  0.259513  0.259513  1
  H  H4  1  0.740487  0.740487  0.259513  1
  H  H5  1  0.259513  0.259513  0.740487  1
  H  H6  1  0.740487  0.259513  0.740487  1
  H  H7  1  0.259513  0.740487  0.740487  1
  Os  Os8  1  0.000000  0.000000  0.000000  1
