# generated using pymatgen
data_Ho7(ErPt6)3
_symmetry_space_group_name_H-M   'P 1'
_cell_length_a   9.74456808
_cell_length_b   9.74923208
_cell_length_c   5.76365600
_cell_angle_alpha   90.00000000
_cell_angle_beta   90.00000000
_cell_angle_gamma   90.01463712
_symmetry_Int_Tables_number   1
_chemical_formula_structural   Ho7(ErPt6)3
_chemical_formula_sum   'Ho7 Er3 Pt18'
_cell_volume   547.55915061
_cell_formula_units_Z   1
loop_
 _symmetry_equiv_pos_site_id
 _symmetry_equiv_pos_as_xyz
  1  'x, y, z'
loop_
 _atom_site_type_symbol
 _atom_site_label
 _atom_site_symmetry_multiplicity
 _atom_site_fract_x
 _atom_site_fract_y
 _atom_site_fract_z
 _atom_site_occupancy
  Ho  Ho0  1  0.452661  0.808908  0.000000  1
  Ho  Ho1  1  0.547328  0.191127  0.000000  1
  Ho  Ho2  1  0.191069  0.547262  0.000000  1
  Ho  Ho3  1  0.808979  0.452657  0.000000  1
  Ho  Ho4  1  0.308798  0.047399  0.500000  1
  Ho  Ho5  1  0.691123  0.952689  0.500000  1
  Ho  Ho6  1  0.952690  0.691041  0.500000  1
  Er  Er7  1  0.499988  0.499958  0.500000  1
  Er  Er8  1  0.047313  0.308879  0.500000  1
  Er  Er9  1  0.000040  0.000050  0.000000  1
  Pt  Pt10  1  0.191911  0.808000  0.251291  1
  Pt  Pt11  1  0.808487  0.192029  0.748604  1
  Pt  Pt12  1  0.808487  0.192029  0.251396  1
  Pt  Pt13  1  0.191911  0.808000  0.748709  1
  Pt  Pt14  1  0.441133  0.781224  0.500000  1
  Pt  Pt15  1  0.558882  0.218760  0.500000  1
  Pt  Pt16  1  0.218402  0.558530  0.500000  1
  Pt  Pt17  1  0.781670  0.441110  0.500000  1
  Pt  Pt18  1  0.307637  0.308062  0.248953  1
  Pt  Pt19  1  0.691913  0.691891  0.751267  1
  Pt  Pt20  1  0.691913  0.691891  0.248733  1
  Pt  Pt21  1  0.307637  0.308062  0.751047  1
  Pt  Pt22  1  0.281337  0.058878  0.000000  1
  Pt  Pt23  1  0.718725  0.941235  0.000000  1
  Pt  Pt24  1  0.941171  0.718746  0.000000  1
  Pt  Pt25  1  0.058730  0.281316  0.000000  1
  Pt  Pt26  1  0.000119  0.000346  0.500000  1
  Pt  Pt27  1  0.499948  0.499922  0.000000  1
