# generated using pymatgen
data_La7Yb(GePd)8
_symmetry_space_group_name_H-M   'P 1'
_cell_length_a   4.53225000
_cell_length_b   7.79314810
_cell_length_c   14.85822250
_cell_angle_alpha   90.05620582
_cell_angle_beta   90.00000000
_cell_angle_gamma   90.00000000
_symmetry_Int_Tables_number   1
_chemical_formula_structural   La7Yb(GePd)8
_chemical_formula_sum   'La7 Yb1 Ge8 Pd8'
_cell_volume   524.79952819
_cell_formula_units_Z   1
loop_
 _symmetry_equiv_pos_site_id
 _symmetry_equiv_pos_as_xyz
  1  'x, y, z'
loop_
 _atom_site_type_symbol
 _atom_site_label
 _atom_site_symmetry_multiplicity
 _atom_site_fract_x
 _atom_site_fract_y
 _atom_site_fract_z
 _atom_site_occupancy
  La  La0  1  0.000000  0.215833  0.752851  1
  La  La1  1  0.000000  0.201806  0.247889  1
  La  La2  1  0.500000  0.783043  0.746623  1
  La  La3  1  0.000000  0.285467  0.498573  1
  La  La4  1  0.500000  0.715179  0.003370  1
  La  La5  1  0.000000  0.296397  0.001859  1
  La  La6  1  0.500000  0.705815  0.496764  1
  Yb  Yb7  1  0.500000  0.784500  0.252769  1
  Ge  Ge8  1  0.000000  0.590555  0.858456  1
  Ge  Ge9  1  0.000000  0.592035  0.149268  1
  Ge  Ge10  1  0.500000  0.411955  0.644618  1
  Ge  Ge11  1  0.500000  0.413397  0.350280  1
  Ge  Ge12  1  0.000000  0.911335  0.402498  1
  Ge  Ge13  1  0.000000  0.914179  0.592434  1
  Ge  Ge14  1  0.500000  0.086059  0.096175  1
  Ge  Ge15  1  0.500000  0.087102  0.906863  1
  Pd  Pd16  1  0.000000  0.922903  0.889305  1
  Pd  Pd17  1  0.000000  0.916956  0.113636  1
  Pd  Pd18  1  0.500000  0.078652  0.610288  1
  Pd  Pd19  1  0.500000  0.077600  0.386543  1
  Pd  Pd20  1  0.000000  0.584571  0.342207  1
  Pd  Pd21  1  0.000000  0.582300  0.647388  1
  Pd  Pd22  1  0.500000  0.422060  0.159441  1
  Pd  Pd23  1  0.500000  0.420300  0.849903  1
