# generated using pymatgen
data_Ac2Si3Rh
_symmetry_space_group_name_H-M   'P 1'
_cell_length_a   8.45551300
_cell_length_b   8.45551270
_cell_length_c   9.10138000
_cell_angle_alpha   90.00000000
_cell_angle_beta   90.00000000
_cell_angle_gamma   119.99999727
_symmetry_Int_Tables_number   1
_chemical_formula_structural   Ac2Si3Rh
_chemical_formula_sum   'Ac8 Si12 Rh4'
_cell_volume   563.53098310
_cell_formula_units_Z   4
loop_
 _symmetry_equiv_pos_site_id
 _symmetry_equiv_pos_as_xyz
  1  'x, y, z'
loop_
 _atom_site_type_symbol
 _atom_site_label
 _atom_site_symmetry_multiplicity
 _atom_site_fract_x
 _atom_site_fract_y
 _atom_site_fract_z
 _atom_site_occupancy
  Ac  Ac0  1  0.000000  0.000000  0.250000  1
  Ac  Ac1  1  0.000000  0.000000  0.750000  1
  Ac  Ac2  1  0.500293  0.499707  0.250000  1
  Ac  Ac3  1  0.500293  0.000587  0.250000  1
  Ac  Ac4  1  0.999413  0.499707  0.250000  1
  Ac  Ac5  1  0.499707  0.500293  0.750000  1
  Ac  Ac6  1  0.499707  0.999413  0.750000  1
  Ac  Ac7  1  0.000587  0.500293  0.750000  1
  Si  Si8  1  0.166663  0.833337  0.500586  1
  Si  Si9  1  0.166663  0.333325  0.500586  1
  Si  Si10  1  0.666675  0.833337  0.500586  1
  Si  Si11  1  0.833337  0.166663  0.499414  1
  Si  Si12  1  0.833337  0.666675  0.499414  1
  Si  Si13  1  0.333325  0.166663  0.499414  1
  Si  Si14  1  0.833337  0.166663  0.000586  1
  Si  Si15  1  0.833337  0.666675  0.000586  1
  Si  Si16  1  0.333325  0.166663  0.000586  1
  Si  Si17  1  0.166663  0.833337  0.999414  1
  Si  Si18  1  0.166663  0.333325  0.999414  1
  Si  Si19  1  0.666675  0.833337  0.999414  1
  Rh  Rh20  1  0.333333  0.666667  0.497266  1
  Rh  Rh21  1  0.666667  0.333333  0.502734  1
  Rh  Rh22  1  0.666667  0.333333  0.997266  1
  Rh  Rh23  1  0.333333  0.666667  0.002734  1
