# generated using pymatgen
data_Sc2GaIr2Pt3
_symmetry_space_group_name_H-M   'P 1'
_cell_length_a   5.56989270
_cell_length_b   5.56989246
_cell_length_c   4.09130000
_cell_angle_alpha   90.00000000
_cell_angle_beta   90.00000000
_cell_angle_gamma   95.67517054
_symmetry_Int_Tables_number   1
_chemical_formula_structural   Sc2GaIr2Pt3
_chemical_formula_sum   'Sc2 Ga1 Ir2 Pt3'
_cell_volume   126.30514556
_cell_formula_units_Z   1
loop_
 _symmetry_equiv_pos_site_id
 _symmetry_equiv_pos_as_xyz
  1  'x, y, z'
loop_
 _atom_site_type_symbol
 _atom_site_label
 _atom_site_symmetry_multiplicity
 _atom_site_fract_x
 _atom_site_fract_y
 _atom_site_fract_z
 _atom_site_occupancy
  Sc  Sc0  1  0.725517  0.274483  0.500000  1
  Sc  Sc1  1  0.274483  0.725517  0.500000  1
  Ga  Ga2  1  0.000000  0.000000  0.000000  1
  Ir  Ir3  1  0.219893  0.219893  0.500000  1
  Ir  Ir4  1  0.780107  0.780107  0.500000  1
  Pt  Pt5  1  0.500000  0.500000  0.000000  1
  Pt  Pt6  1  0.000000  0.500000  0.000000  1
  Pt  Pt7  1  0.500000  0.000000  0.000000  1
