# generated using pymatgen
data_K5CePaF13
_symmetry_space_group_name_H-M   'P 1'
_cell_length_a   7.34999264
_cell_length_b   7.34999145
_cell_length_c   9.57671800
_cell_angle_alpha   83.21706022
_cell_angle_beta   83.21706132
_cell_angle_gamma   51.31296626
_symmetry_Int_Tables_number   1
_chemical_formula_structural   K5CePaF13
_chemical_formula_sum   'K5 Ce1 Pa1 F13'
_cell_volume   400.35290511
_cell_formula_units_Z   1
loop_
 _symmetry_equiv_pos_site_id
 _symmetry_equiv_pos_as_xyz
  1  'x, y, z'
loop_
 _atom_site_type_symbol
 _atom_site_label
 _atom_site_symmetry_multiplicity
 _atom_site_fract_x
 _atom_site_fract_y
 _atom_site_fract_z
 _atom_site_occupancy
  K  K0  1  0.223468  0.223468  0.840235  1
  K  K1  1  0.778905  0.778905  0.143162  1
  K  K2  1  0.499930  0.499930  0.977556  1
  K  K3  1  0.662018  0.662018  0.582684  1
  K  K4  1  0.342607  0.342607  0.437257  1
  Ce  Ce5  1  0.925869  0.925869  0.744066  1
  Pa  Pa6  1  0.072325  0.072325  0.263943  1
  F  F7  1  0.048594  0.595558  0.641754  1
  F  F8  1  0.595558  0.048594  0.641754  1
  F  F9  1  0.957604  0.398102  0.351391  1
  F  F10  1  0.398102  0.957604  0.351391  1
  F  F11  1  0.644302  0.080471  0.926399  1
  F  F12  1  0.080471  0.644302  0.926399  1
  F  F13  1  0.338687  0.919936  0.086766  1
  F  F14  1  0.919936  0.338687  0.086766  1
  F  F15  1  0.285845  0.827414  0.753657  1
  F  F16  1  0.827414  0.285845  0.753657  1
  F  F17  1  0.725032  0.168030  0.251429  1
  F  F18  1  0.168030  0.725032  0.251429  1
  F  F19  1  0.005301  0.005301  0.488310  1
