# generated using pymatgen
data_Sm10B2Br15
_symmetry_space_group_name_H-M   'P 1'
_cell_length_a   9.27393284
_cell_length_b   10.04766845
_cell_length_c   10.89784508
_cell_angle_alpha   91.00494666
_cell_angle_beta   114.60719088
_cell_angle_gamma   110.85533469
_symmetry_Int_Tables_number   1
_chemical_formula_structural   Sm10B2Br15
_chemical_formula_sum   'Sm10 B2 Br15'
_cell_volume   846.18195277
_cell_formula_units_Z   1
loop_
 _symmetry_equiv_pos_site_id
 _symmetry_equiv_pos_as_xyz
  1  'x, y, z'
loop_
 _atom_site_type_symbol
 _atom_site_label
 _atom_site_symmetry_multiplicity
 _atom_site_fract_x
 _atom_site_fract_y
 _atom_site_fract_z
 _atom_site_occupancy
  Sm  Sm0  1  0.800552  0.409161  0.276492  1
  Sm  Sm1  1  0.199448  0.590839  0.723508  1
  Sm  Sm2  1  0.674665  0.745908  0.820998  1
  Sm  Sm3  1  0.325335  0.254092  0.179002  1
  Sm  Sm4  1  0.525625  0.703956  0.095913  1
  Sm  Sm5  1  0.474375  0.296044  0.904087  1
  Sm  Sm6  1  0.585712  0.039692  0.324404  1
  Sm  Sm7  1  0.414288  0.960308  0.675596  1
  Sm  Sm8  1  0.724398  0.075139  0.048628  1
  Sm  Sm9  1  0.275602  0.924861  0.951372  1
  B  B10  1  0.467282  0.819008  0.876716  1
  B  B11  1  0.532718  0.180992  0.123284  1
  Br  Br12  1  0.000000  0.000000  0.000000  1
  Br  Br13  1  0.638244  0.882847  0.584066  1
  Br  Br14  1  0.361756  0.117153  0.415934  1
  Br  Br15  1  0.884111  0.299366  0.528720  1
  Br  Br16  1  0.115889  0.700634  0.471280  1
  Br  Br17  1  0.289398  0.761370  0.180051  1
  Br  Br18  1  0.710602  0.238630  0.819949  1
  Br  Br19  1  0.056352  0.342607  0.227069  1
  Br  Br20  1  0.163856  0.057857  0.702274  1
  Br  Br21  1  0.836144  0.942143  0.297726  1
  Br  Br22  1  0.229880  0.409826  0.943095  1
  Br  Br23  1  0.770120  0.590174  0.056905  1
  Br  Br24  1  0.408326  0.462556  0.658966  1
  Br  Br25  1  0.591674  0.537444  0.341034  1
  Br  Br26  1  0.943648  0.657393  0.772931  1
