# generated using pymatgen
data_Ho2Hg13(As2Cl3)4
_symmetry_space_group_name_H-M   'P 1'
_cell_length_a   12.51251800
_cell_length_b   12.51232735
_cell_length_c   12.51261900
_cell_angle_alpha   89.94701927
_cell_angle_beta   90.00000000
_cell_angle_gamma   90.00000000
_symmetry_Int_Tables_number   1
_chemical_formula_structural   Ho2Hg13(As2Cl3)4
_chemical_formula_sum   'Ho4 Hg26 As16 Cl24'
_cell_volume   1958.98381698
_cell_formula_units_Z   2
loop_
 _symmetry_equiv_pos_site_id
 _symmetry_equiv_pos_as_xyz
  1  'x, y, z'
loop_
 _atom_site_type_symbol
 _atom_site_label
 _atom_site_symmetry_multiplicity
 _atom_site_fract_x
 _atom_site_fract_y
 _atom_site_fract_z
 _atom_site_occupancy
  Ho  Ho0  1  0.500000  0.500000  0.500000  1
  Ho  Ho1  1  0.000000  0.500000  0.000000  1
  Ho  Ho2  1  0.500000  0.000000  0.000000  1
  Ho  Ho3  1  0.000000  0.000000  0.500000  1
  Hg  Hg4  1  0.000000  0.500000  0.500000  1
  Hg  Hg5  1  0.500000  0.500000  0.000000  1
  Hg  Hg6  1  0.782914  0.292519  0.469260  1
  Hg  Hg7  1  0.282914  0.707481  0.030740  1
  Hg  Hg8  1  0.217805  0.206709  0.969419  1
  Hg  Hg9  1  0.717805  0.793291  0.530581  1
  Hg  Hg10  1  0.293951  0.468867  0.783009  1
  Hg  Hg11  1  0.708265  0.030238  0.282148  1
  Hg  Hg12  1  0.208265  0.969762  0.217852  1
  Hg  Hg13  1  0.793951  0.531133  0.716991  1
  Hg  Hg14  1  0.469569  0.782631  0.292405  1
  Hg  Hg15  1  0.030800  0.282101  0.706623  1
  Hg  Hg16  1  0.969569  0.217369  0.207595  1
  Hg  Hg17  1  0.530800  0.717899  0.793377  1
  Hg  Hg18  1  0.217086  0.707481  0.530740  1
  Hg  Hg19  1  0.717086  0.292519  0.969260  1
  Hg  Hg20  1  0.782195  0.793291  0.030581  1
  Hg  Hg21  1  0.282195  0.206709  0.469419  1
  Hg  Hg22  1  0.706049  0.531133  0.216991  1
  Hg  Hg23  1  0.291735  0.969762  0.717852  1
  Hg  Hg24  1  0.791735  0.030238  0.782148  1
  Hg  Hg25  1  0.206049  0.468867  0.283009  1
  Hg  Hg26  1  0.530431  0.217369  0.707595  1
  Hg  Hg27  1  0.969200  0.717899  0.293377  1
  Hg  Hg28  1  0.030431  0.782631  0.792405  1
  Hg  Hg29  1  0.469200  0.282101  0.206623  1
  As  As30  1  0.838150  0.338084  0.661870  1
  As  As31  1  0.338150  0.661916  0.838130  1
  As  As32  1  0.162141  0.162096  0.162179  1
  As  As33  1  0.662141  0.837904  0.337821  1
  As  As34  1  0.161850  0.661916  0.338130  1
  As  As35  1  0.661850  0.338084  0.161870  1
  As  As36  1  0.837859  0.837904  0.837821  1
  As  As37  1  0.337859  0.162096  0.662179  1
  As  As38  1  0.776107  0.223938  0.275974  1
  As  As39  1  0.276107  0.776062  0.224026  1
  As  As40  1  0.224145  0.275716  0.775851  1
  As  As41  1  0.724145  0.724284  0.724149  1
  As  As42  1  0.223893  0.776062  0.724026  1
  As  As43  1  0.723893  0.223938  0.775974  1
  As  As44  1  0.775855  0.724284  0.224149  1
  As  As45  1  0.275855  0.275716  0.275851  1
  Cl  Cl46  1  0.535117  0.294922  0.462105  1
  Cl  Cl47  1  0.035117  0.705078  0.037895  1
  Cl  Cl48  1  0.464259  0.203962  0.961427  1
  Cl  Cl49  1  0.964259  0.796038  0.538573  1
  Cl  Cl50  1  0.296093  0.461224  0.536156  1
  Cl  Cl51  1  0.705109  0.037861  0.034759  1
  Cl  Cl52  1  0.205109  0.962139  0.465241  1
  Cl  Cl53  1  0.796093  0.538776  0.963844  1
  Cl  Cl54  1  0.460413  0.535286  0.296055  1
  Cl  Cl55  1  0.037001  0.035492  0.705120  1
  Cl  Cl56  1  0.960413  0.464714  0.203945  1
  Cl  Cl57  1  0.537001  0.964508  0.794880  1
  Cl  Cl58  1  0.464883  0.705078  0.537895  1
  Cl  Cl59  1  0.964883  0.294922  0.962105  1
  Cl  Cl60  1  0.535741  0.796038  0.038573  1
  Cl  Cl61  1  0.035741  0.203962  0.461427  1
  Cl  Cl62  1  0.703907  0.538776  0.463844  1
  Cl  Cl63  1  0.294891  0.962139  0.965241  1
  Cl  Cl64  1  0.794891  0.037861  0.534759  1
  Cl  Cl65  1  0.203907  0.461224  0.036156  1
  Cl  Cl66  1  0.539587  0.464714  0.703945  1
  Cl  Cl67  1  0.962999  0.964508  0.294880  1
  Cl  Cl68  1  0.039587  0.535286  0.796055  1
  Cl  Cl69  1  0.462999  0.035492  0.205120  1
