# generated using pymatgen
data_Tb2V3P7Rh9
_symmetry_space_group_name_H-M   'P 1'
_cell_length_a   3.85933411
_cell_length_b   9.55970107
_cell_length_c   9.55445029
_cell_angle_alpha   120.01202572
_cell_angle_beta   89.99935097
_cell_angle_gamma   90.00142329
_symmetry_Int_Tables_number   1
_chemical_formula_structural   Tb2V3P7Rh9
_chemical_formula_sum   'Tb2 V3 P7 Rh9'
_cell_volume   305.23925614
_cell_formula_units_Z   1
loop_
 _symmetry_equiv_pos_site_id
 _symmetry_equiv_pos_as_xyz
  1  'x, y, z'
loop_
 _atom_site_type_symbol
 _atom_site_label
 _atom_site_symmetry_multiplicity
 _atom_site_fract_x
 _atom_site_fract_y
 _atom_site_fract_z
 _atom_site_occupancy
  Tb  Tb0  1  0.261682  0.666277  0.333329  1
  Tb  Tb1  1  0.761369  0.333095  0.666437  1
  V  V2  1  0.762231  0.093101  0.877068  1
  V  V3  1  0.762150  0.124089  0.217189  1
  V  V4  1  0.762098  0.782637  0.906674  1
  P  P5  1  0.262739  0.000296  0.000297  1
  P  P6  1  0.761937  0.884683  0.596393  1
  P  P7  1  0.761933  0.403435  0.288103  1
  P  P8  1  0.761950  0.711865  0.115669  1
  P  P9  1  0.261604  0.116720  0.411988  1
  P  P10  1  0.261521  0.587885  0.704164  1
  P  P11  1  0.261574  0.295660  0.883245  1
  Rh  Rh12  1  0.262023  0.885155  0.158084  1
  Rh  Rh13  1  0.262026  0.841910  0.727135  1
  Rh  Rh14  1  0.262032  0.273241  0.114540  1
  Rh  Rh15  1  0.761827  0.612655  0.561251  1
  Rh  Rh16  1  0.761874  0.438704  0.050880  1
  Rh  Rh17  1  0.761872  0.948763  0.387448  1
  Rh  Rh18  1  0.261812  0.367494  0.436691  1
  Rh  Rh19  1  0.261885  0.563465  0.931284  1
  Rh  Rh20  1  0.261863  0.068870  0.632130  1
