# generated using pymatgen
data_SmDy(SeO3)3
_symmetry_space_group_name_H-M   'P 1'
_cell_length_a   7.18947886
_cell_length_b   8.24002023
_cell_length_c   9.16312010
_cell_angle_alpha   71.05465711
_cell_angle_beta   70.12055796
_cell_angle_gamma   66.13844103
_symmetry_Int_Tables_number   1
_chemical_formula_structural   SmDy(SeO3)3
_chemical_formula_sum   'Sm2 Dy2 Se6 O18'
_cell_volume   455.67246533
_cell_formula_units_Z   2
loop_
 _symmetry_equiv_pos_site_id
 _symmetry_equiv_pos_as_xyz
  1  'x, y, z'
loop_
 _atom_site_type_symbol
 _atom_site_label
 _atom_site_symmetry_multiplicity
 _atom_site_fract_x
 _atom_site_fract_y
 _atom_site_fract_z
 _atom_site_occupancy
  Sm  Sm0  1  0.333353  0.728950  0.591563  1
  Sm  Sm1  1  0.666647  0.271050  0.408437  1
  Dy  Dy2  1  0.740729  0.735859  0.800400  1
  Dy  Dy3  1  0.259271  0.264141  0.199600  1
  Se  Se4  1  0.425954  0.779280  0.195610  1
  Se  Se5  1  0.574046  0.220720  0.804390  1
  Se  Se6  1  0.149258  0.748328  0.967065  1
  Se  Se7  1  0.850742  0.251672  0.032935  1
  Se  Se8  1  0.886963  0.756994  0.418065  1
  Se  Se9  1  0.113037  0.243006  0.581935  1
  O  O10  1  0.645551  0.793165  0.049591  1
  O  O11  1  0.354449  0.206835  0.950409  1
  O  O12  1  0.363050  0.946391  0.298654  1
  O  O13  1  0.636950  0.053609  0.701346  1
  O  O14  1  0.514688  0.598860  0.347746  1
  O  O15  1  0.485312  0.401140  0.652254  1
  O  O16  1  0.170117  0.563890  0.120377  1
  O  O17  1  0.829883  0.436110  0.879623  1
  O  O18  1  0.405500  0.711057  0.850743  1
  O  O19  1  0.594500  0.288943  0.149257  1
  O  O20  1  0.342587  0.249453  0.434700  1
  O  O21  1  0.657413  0.750547  0.565300  1
  O  O22  1  0.971241  0.292220  0.441905  1
  O  O23  1  0.028759  0.707780  0.558095  1
  O  O24  1  0.153536  0.019049  0.657020  1
  O  O25  1  0.846464  0.980951  0.342980  1
  O  O26  1  0.937257  0.303166  0.163190  1
  O  O27  1  0.062743  0.696834  0.836810  1
