# generated using pymatgen
data_Ho4Si4OsRuRh2
_symmetry_space_group_name_H-M   'P 1'
_cell_length_a   4.30089900
_cell_length_b   6.92226441
_cell_length_c   7.22458186
_cell_angle_alpha   89.92863777
_cell_angle_beta   90.00000000
_cell_angle_gamma   90.00000000
_symmetry_Int_Tables_number   1
_chemical_formula_structural   Ho4Si4OsRuRh2
_chemical_formula_sum   'Ho4 Si4 Os1 Ru1 Rh2'
_cell_volume   215.08979590
_cell_formula_units_Z   1
loop_
 _symmetry_equiv_pos_site_id
 _symmetry_equiv_pos_as_xyz
  1  'x, y, z'
loop_
 _atom_site_type_symbol
 _atom_site_label
 _atom_site_symmetry_multiplicity
 _atom_site_fract_x
 _atom_site_fract_y
 _atom_site_fract_z
 _atom_site_occupancy
  Ho  Ho0  1  0.250000  0.489090  0.688459  1
  Ho  Ho1  1  0.750000  0.511974  0.310658  1
  Ho  Ho2  1  0.250000  0.995896  0.814667  1
  Ho  Ho3  1  0.750000  0.004633  0.185868  1
  Si  Si4  1  0.250000  0.299326  0.114382  1
  Si  Si5  1  0.750000  0.700991  0.883786  1
  Si  Si6  1  0.250000  0.800870  0.401779  1
  Si  Si7  1  0.750000  0.197911  0.600003  1
  Os  Os8  1  0.750000  0.844019  0.568719  1
  Ru  Ru9  1  0.250000  0.154592  0.432101  1
  Rh  Rh10  1  0.750000  0.345800  0.933958  1
  Rh  Rh11  1  0.250000  0.654899  0.065621  1
