# generated using pymatgen
data_Y5Mg3(Ni4P3)4
_symmetry_space_group_name_H-M   'P 1'
_cell_length_a   12.25144800
_cell_length_b   12.25144833
_cell_length_c   3.79796400
_cell_angle_alpha   90.00000000
_cell_angle_beta   90.00000000
_cell_angle_gamma   120.00000452
_symmetry_Int_Tables_number   1
_chemical_formula_structural   Y5Mg3(Ni4P3)4
_chemical_formula_sum   'Y5 Mg3 Ni16 P12'
_cell_volume   493.69224966
_cell_formula_units_Z   1
loop_
 _symmetry_equiv_pos_site_id
 _symmetry_equiv_pos_as_xyz
  1  'x, y, z'
loop_
 _atom_site_type_symbol
 _atom_site_label
 _atom_site_symmetry_multiplicity
 _atom_site_fract_x
 _atom_site_fract_y
 _atom_site_fract_z
 _atom_site_occupancy
  Y  Y0  1  0.186234  0.186234  0.500000  1
  Y  Y1  1  0.813766  0.000000  0.500000  1
  Y  Y2  1  0.000000  0.813766  0.500000  1
  Y  Y3  1  0.333333  0.666667  0.000000  1
  Y  Y4  1  0.666667  0.333333  0.000000  1
  Mg  Mg5  1  0.562840  0.562840  0.000000  1
  Mg  Mg6  1  0.437160  0.000000  0.000000  1
  Mg  Mg7  1  0.000000  0.437160  0.000000  1
  Ni  Ni8  1  0.718949  0.718949  0.500000  1
  Ni  Ni9  1  0.281051  0.000000  0.500000  1
  Ni  Ni10  1  0.000000  0.281051  0.500000  1
  Ni  Ni11  1  0.183466  0.379285  0.000000  1
  Ni  Ni12  1  0.620715  0.804181  0.000000  1
  Ni  Ni13  1  0.195819  0.816534  0.000000  1
  Ni  Ni14  1  0.804181  0.620715  0.000000  1
  Ni  Ni15  1  0.816534  0.195819  0.000000  1
  Ni  Ni16  1  0.379285  0.183466  0.000000  1
  Ni  Ni17  1  0.363998  0.485372  0.500000  1
  Ni  Ni18  1  0.514628  0.878627  0.500000  1
  Ni  Ni19  1  0.121373  0.636002  0.500000  1
  Ni  Ni20  1  0.878627  0.514628  0.500000  1
  Ni  Ni21  1  0.636002  0.121373  0.500000  1
  Ni  Ni22  1  0.485372  0.363998  0.500000  1
  Ni  Ni23  1  0.000000  0.000000  0.000000  1
  P  P24  1  0.822458  0.822458  0.000000  1
  P  P25  1  0.177542  0.000000  0.000000  1
  P  P26  1  0.000000  0.177542  0.000000  1
  P  P27  1  0.172910  0.477075  0.500000  1
  P  P28  1  0.522925  0.695835  0.500000  1
  P  P29  1  0.304165  0.827090  0.500000  1
  P  P30  1  0.695835  0.522925  0.500000  1
  P  P31  1  0.827090  0.304165  0.500000  1
  P  P32  1  0.477075  0.172910  0.500000  1
  P  P33  1  0.358307  0.358307  0.000000  1
  P  P34  1  0.641693  0.000000  0.000000  1
  P  P35  1  0.000000  0.641693  0.000000  1
