# generated using pymatgen
data_Sm4Er(SiHg)2
_symmetry_space_group_name_H-M   'P 1'
_cell_length_a   8.95790751
_cell_length_b   8.95790598
_cell_length_c   7.65186600
_cell_angle_alpha   90.00000000
_cell_angle_beta   90.00000000
_cell_angle_gamma   129.53054061
_symmetry_Int_Tables_number   1
_chemical_formula_structural   Sm4Er(SiHg)2
_chemical_formula_sum   'Sm8 Er2 Si4 Hg4'
_cell_volume   473.58239898
_cell_formula_units_Z   2
loop_
 _symmetry_equiv_pos_site_id
 _symmetry_equiv_pos_as_xyz
  1  'x, y, z'
loop_
 _atom_site_type_symbol
 _atom_site_label
 _atom_site_symmetry_multiplicity
 _atom_site_fract_x
 _atom_site_fract_y
 _atom_site_fract_z
 _atom_site_occupancy
  Sm  Sm0  1  0.055697  0.310191  0.323646  1
  Sm  Sm1  1  0.944303  0.689809  0.676354  1
  Sm  Sm2  1  0.444303  0.189809  0.823646  1
  Sm  Sm3  1  0.810191  0.555697  0.176354  1
  Sm  Sm4  1  0.555697  0.810191  0.176354  1
  Sm  Sm5  1  0.189809  0.444303  0.823646  1
  Sm  Sm6  1  0.689809  0.944303  0.676354  1
  Sm  Sm7  1  0.310191  0.055697  0.323646  1
  Er  Er8  1  0.000000  0.000000  0.000000  1
  Er  Er9  1  0.500000  0.500000  0.500000  1
  Si  Si10  1  0.381862  0.381862  0.120906  1
  Si  Si11  1  0.618138  0.618138  0.879094  1
  Si  Si12  1  0.118138  0.118138  0.620906  1
  Si  Si13  1  0.881862  0.881862  0.379094  1
  Hg  Hg14  1  0.781986  0.218014  0.000000  1
  Hg  Hg15  1  0.218015  0.781986  0.000000  1
  Hg  Hg16  1  0.718014  0.281986  0.500000  1
  Hg  Hg17  1  0.281986  0.718014  0.500000  1
