# generated using pymatgen
data_Tb2Nd2Sm2NiBr10
_symmetry_space_group_name_H-M   'P 1'
_cell_length_a   7.44721627
_cell_length_b   9.40290668
_cell_length_c   9.48358007
_cell_angle_alpha   108.37673088
_cell_angle_beta   96.04669410
_cell_angle_gamma   105.76199657
_symmetry_Int_Tables_number   1
_chemical_formula_structural   Tb2Nd2Sm2NiBr10
_chemical_formula_sum   'Tb2 Nd2 Sm2 Ni1 Br10'
_cell_volume   593.12062386
_cell_formula_units_Z   1
loop_
 _symmetry_equiv_pos_site_id
 _symmetry_equiv_pos_as_xyz
  1  'x, y, z'
loop_
 _atom_site_type_symbol
 _atom_site_label
 _atom_site_symmetry_multiplicity
 _atom_site_fract_x
 _atom_site_fract_y
 _atom_site_fract_z
 _atom_site_occupancy
  Tb  Tb0  1  0.352942  0.131026  0.171546  1
  Tb  Tb1  1  0.647058  0.868974  0.828454  1
  Nd  Nd2  1  0.128664  0.046210  0.754536  1
  Nd  Nd3  1  0.871336  0.953790  0.245464  1
  Sm  Sm4  1  0.971342  0.295725  0.093632  1
  Sm  Sm5  1  0.028658  0.704275  0.906368  1
  Ni  Ni6  1  0.000000  0.000000  0.000000  1
  Br  Br7  1  0.550893  0.173977  0.918887  1
  Br  Br8  1  0.449107  0.826023  0.081113  1
  Br  Br9  1  0.356700  0.448369  0.268060  1
  Br  Br10  1  0.643300  0.551631  0.731940  1
  Br  Br11  1  0.257200  0.082925  0.446743  1
  Br  Br12  1  0.742800  0.917075  0.553257  1
  Br  Br13  1  0.773114  0.255092  0.340552  1
  Br  Br14  1  0.226886  0.744908  0.659448  1
  Br  Br15  1  0.084864  0.369532  0.828005  1
  Br  Br16  1  0.915136  0.630468  0.171995  1
