# generated using pymatgen
data_Rb2Bi(TeO4)3
_symmetry_space_group_name_H-M   'P 1'
_cell_length_a   7.52664152
_cell_length_b   7.52664077
_cell_length_c   7.52420785
_cell_angle_alpha   59.04903180
_cell_angle_beta   59.04903476
_cell_angle_gamma   59.02358536
_symmetry_Int_Tables_number   1
_chemical_formula_structural   Rb2Bi(TeO4)3
_chemical_formula_sum   'Rb2 Bi1 Te3 O12'
_cell_volume   294.80860346
_cell_formula_units_Z   1
loop_
 _symmetry_equiv_pos_site_id
 _symmetry_equiv_pos_as_xyz
  1  'x, y, z'
loop_
 _atom_site_type_symbol
 _atom_site_label
 _atom_site_symmetry_multiplicity
 _atom_site_fract_x
 _atom_site_fract_y
 _atom_site_fract_z
 _atom_site_occupancy
  Rb  Rb0  1  0.114432  0.135708  0.620795  1
  Rb  Rb1  1  0.864292  0.885568  0.379205  1
  Bi  Bi2  1  0.497166  0.502834  0.000000  1
  Te  Te3  1  0.498109  0.001879  0.999858  1
  Te  Te4  1  0.998121  0.501891  0.000142  1
  Te  Te5  1  0.498185  0.501815  0.500000  1
  O  O6  1  0.813089  0.816594  0.920068  1
  O  O7  1  0.418467  0.419594  0.353831  1
  O  O8  1  0.418300  0.856176  0.917251  1
  O  O9  1  0.813006  0.420873  0.314826  1
  O  O10  1  0.851351  0.421422  0.919263  1
  O  O11  1  0.418349  0.816206  0.314468  1
  O  O12  1  0.183406  0.186911  0.079932  1
  O  O13  1  0.580406  0.581533  0.646169  1
  O  O14  1  0.578578  0.148649  0.080737  1
  O  O15  1  0.183794  0.581651  0.685532  1
  O  O16  1  0.143824  0.581700  0.082749  1
  O  O17  1  0.579127  0.186994  0.685174  1
