# generated using pymatgen
data_Y4Al15(SiIr2)3
_symmetry_space_group_name_H-M   'P 1'
_cell_length_a   7.53969082
_cell_length_b   7.52227105
_cell_length_c   9.33350772
_cell_angle_alpha   89.99774569
_cell_angle_beta   89.91238498
_cell_angle_gamma   119.72677802
_symmetry_Int_Tables_number   1
_chemical_formula_structural   Y4Al15(SiIr2)3
_chemical_formula_sum   'Y4 Al15 Si3 Ir6'
_cell_volume   459.69148598
_cell_formula_units_Z   1
loop_
 _symmetry_equiv_pos_site_id
 _symmetry_equiv_pos_as_xyz
  1  'x, y, z'
loop_
 _atom_site_type_symbol
 _atom_site_label
 _atom_site_symmetry_multiplicity
 _atom_site_fract_x
 _atom_site_fract_y
 _atom_site_fract_z
 _atom_site_occupancy
  Y  Y0  1  0.993619  0.669276  0.248340  1
  Y  Y1  1  0.005209  0.325232  0.753023  1
  Y  Y2  1  0.679280  0.999775  0.248019  1
  Y  Y3  1  0.325510  0.005822  0.749658  1
  Al  Al4  1  0.998197  0.668408  0.922206  1
  Al  Al5  1  0.999094  0.664009  0.575044  1
  Al  Al6  1  0.336105  0.000199  0.424741  1
  Al  Al7  1  0.001526  0.336429  0.428639  1
  Al  Al8  1  0.663231  0.998937  0.575125  1
  Al  Al9  1  0.659007  0.993874  0.922567  1
  Al  Al10  1  0.335875  0.000309  0.075911  1
  Al  Al11  1  0.335796  0.335386  0.557161  1
  Al  Al12  1  0.664914  0.665465  0.442916  1
  Al  Al13  1  0.664406  0.665034  0.058307  1
  Al  Al14  1  0.338892  0.335464  0.942613  1
  Al  Al15  1  0.334711  0.546480  0.250401  1
  Al  Al16  1  0.665305  0.451267  0.750265  1
  Al  Al17  1  0.546362  0.335814  0.250326  1
  Al  Al18  1  0.450532  0.663239  0.749424  1
  Si  Si19  1  0.132214  0.127985  0.250889  1
  Si  Si20  1  0.870960  0.872281  0.749711  1
  Si  Si21  1  0.001145  0.338109  0.072683  1
  Ir  Ir22  1  0.679258  0.328742  0.001716  1
  Ir  Ir23  1  0.320087  0.663556  0.000293  1
  Ir  Ir24  1  0.328066  0.671062  0.499411  1
  Ir  Ir25  1  0.671839  0.328732  0.499249  1
  Ir  Ir26  1  0.999266  0.008543  0.001974  1
  Ir  Ir27  1  0.999595  0.000572  0.499389  1
