# generated using pymatgen
data_Mg2Zr(TaOs2)3
_symmetry_space_group_name_H-M   'P 1'
_cell_length_a   4.50167300
_cell_length_b   6.37641000
_cell_length_c   13.47963900
_cell_angle_alpha   90.00000000
_cell_angle_beta   89.99726524
_cell_angle_gamma   90.00000000
_symmetry_Int_Tables_number   1
_chemical_formula_structural   Mg2Zr(TaOs2)3
_chemical_formula_sum   'Mg4 Zr2 Ta6 Os12'
_cell_volume   386.92646910
_cell_formula_units_Z   2
loop_
 _symmetry_equiv_pos_site_id
 _symmetry_equiv_pos_as_xyz
  1  'x, y, z'
loop_
 _atom_site_type_symbol
 _atom_site_label
 _atom_site_symmetry_multiplicity
 _atom_site_fract_x
 _atom_site_fract_y
 _atom_site_fract_z
 _atom_site_occupancy
  Mg  Mg0  1  0.999801  0.000000  0.335807  1
  Mg  Mg1  1  0.499985  0.500000  0.501347  1
  Mg  Mg2  1  0.000185  0.000000  0.665298  1
  Mg  Mg3  1  0.500167  0.500000  0.830851  1
  Zr  Zr4  1  0.999999  0.000000  0.996862  1
  Zr  Zr5  1  0.499850  0.500000  0.169821  1
  Ta  Ta6  1  0.999985  0.500000  0.992000  1
  Ta  Ta7  1  0.499876  0.000000  0.174657  1
  Ta  Ta8  1  0.999845  0.500000  0.343957  1
  Ta  Ta9  1  0.500005  0.000000  0.502614  1
  Ta  Ta10  1  0.000142  0.500000  0.664029  1
  Ta  Ta11  1  0.500145  0.000000  0.822697  1
  Os  Os12  1  0.500000  0.250983  0.000250  1
  Os  Os13  1  0.500000  0.749017  0.000250  1
  Os  Os14  1  0.999850  0.249041  0.166440  1
  Os  Os15  1  0.999850  0.750959  0.166440  1
  Os  Os16  1  0.499820  0.249518  0.333664  1
  Os  Os17  1  0.499820  0.750482  0.333664  1
  Os  Os18  1  0.999997  0.249393  0.500508  1
  Os  Os19  1  0.999997  0.750608  0.500508  1
  Os  Os20  1  0.500177  0.250587  0.666175  1
  Os  Os21  1  0.500177  0.749413  0.666175  1
  Os  Os22  1  0.000163  0.250482  0.832992  1
  Os  Os23  1  0.000163  0.749518  0.832992  1
