# generated using pymatgen
data_Dy16Lu4Si15Ge
_symmetry_space_group_name_H-M   'P 1'
_cell_length_a   7.39211956
_cell_length_b   7.64163932
_cell_length_c   14.58853400
_cell_angle_alpha   89.66881112
_cell_angle_beta   89.67006446
_cell_angle_gamma   90.18499623
_symmetry_Int_Tables_number   1
_chemical_formula_structural   Dy16Lu4Si15Ge
_chemical_formula_sum   'Dy16 Lu4 Si15 Ge1'
_cell_volume   824.04400294
_cell_formula_units_Z   1
loop_
 _symmetry_equiv_pos_site_id
 _symmetry_equiv_pos_as_xyz
  1  'x, y, z'
loop_
 _atom_site_type_symbol
 _atom_site_label
 _atom_site_symmetry_multiplicity
 _atom_site_fract_x
 _atom_site_fract_y
 _atom_site_fract_z
 _atom_site_occupancy
  Dy  Dy0  1  0.974406  0.818673  0.098584  1
  Dy  Dy1  1  0.470835  0.682602  0.400986  1
  Dy  Dy2  1  0.524174  0.316511  0.901035  1
  Dy  Dy3  1  0.029273  0.183498  0.599148  1
  Dy  Dy4  1  0.029410  0.179669  0.901636  1
  Dy  Dy5  1  0.528903  0.317571  0.598893  1
  Dy  Dy6  1  0.472370  0.684036  0.100121  1
  Dy  Dy7  1  0.970074  0.816878  0.400640  1
  Dy  Dy8  1  0.680399  0.821781  0.877142  1
  Dy  Dy9  1  0.181095  0.679421  0.622568  1
  Dy  Dy10  1  0.818499  0.323226  0.123184  1
  Dy  Dy11  1  0.315709  0.177994  0.376963  1
  Dy  Dy12  1  0.319870  0.178456  0.123626  1
  Dy  Dy13  1  0.818111  0.321008  0.377153  1
  Dy  Dy14  1  0.182571  0.678346  0.876812  1
  Dy  Dy15  1  0.683278  0.821515  0.622661  1
  Lu  Lu16  1  0.647368  0.990287  0.249867  1
  Lu  Lu17  1  0.148232  0.510851  0.249419  1
  Lu  Lu18  1  0.851093  0.487894  0.749195  1
  Lu  Lu19  1  0.352780  0.010493  0.750264  1
  Si  Si20  1  0.767413  0.630891  0.250027  1
  Si  Si21  1  0.266464  0.870034  0.250347  1
  Si  Si22  1  0.733109  0.129067  0.750044  1
  Si  Si23  1  0.232512  0.370115  0.749956  1
  Si  Si24  1  0.018305  0.103251  0.249950  1
  Si  Si25  1  0.519747  0.397440  0.250663  1
  Si  Si26  1  0.480161  0.603088  0.749718  1
  Si  Si27  1  0.980777  0.897045  0.749783  1
  Si  Si28  1  0.355383  0.973363  0.541671  1
  Si  Si29  1  0.648375  0.028732  0.040825  1
  Si  Si30  1  0.145681  0.472429  0.458748  1
  Si  Si31  1  0.153735  0.471462  0.041887  1
  Si  Si32  1  0.643827  0.027215  0.458206  1
  Si  Si33  1  0.352737  0.970991  0.959956  1
  Si  Si34  1  0.854000  0.527553  0.540946  1
  Ge  Ge35  1  0.849321  0.526614  0.957382  1
