# generated using pymatgen
data_Li8La7SmSn8
_symmetry_space_group_name_H-M   'P 1'
_cell_length_a   9.65204100
_cell_length_b   9.65204151
_cell_length_c   7.88143400
_cell_angle_alpha   90.00000000
_cell_angle_beta   90.00000000
_cell_angle_gamma   120.00000169
_symmetry_Int_Tables_number   1
_chemical_formula_structural   Li8La7SmSn8
_chemical_formula_sum   'Li8 La7 Sm1 Sn8'
_cell_volume   635.87859535
_cell_formula_units_Z   1
loop_
 _symmetry_equiv_pos_site_id
 _symmetry_equiv_pos_as_xyz
  1  'x, y, z'
loop_
 _atom_site_type_symbol
 _atom_site_label
 _atom_site_symmetry_multiplicity
 _atom_site_fract_x
 _atom_site_fract_y
 _atom_site_fract_z
 _atom_site_occupancy
  Li  Li0  1  0.833824  0.166176  0.711174  1
  Li  Li1  1  0.833824  0.667649  0.711174  1
  Li  Li2  1  0.332351  0.166176  0.711174  1
  Li  Li3  1  0.165649  0.834351  0.207803  1
  Li  Li4  1  0.165649  0.331296  0.207803  1
  Li  Li5  1  0.668704  0.834351  0.207803  1
  Li  Li6  1  0.666667  0.333333  0.334268  1
  Li  Li7  1  0.333333  0.666667  0.836743  1
  La  La8  1  0.487616  0.512384  0.504609  1
  La  La9  1  0.487616  0.975233  0.504609  1
  La  La10  1  0.024767  0.512384  0.504609  1
  La  La11  1  0.512477  0.487523  0.004557  1
  La  La12  1  0.512477  0.024954  0.004557  1
  La  La13  1  0.975046  0.487523  0.004557  1
  La  La14  1  0.000000  0.000000  0.499031  1
  Sm  Sm15  1  0.000000  0.000000  0.998046  1
  Sn  Sn16  1  0.833932  0.166068  0.273174  1
  Sn  Sn17  1  0.833932  0.667863  0.273174  1
  Sn  Sn18  1  0.332137  0.166068  0.273174  1
  Sn  Sn19  1  0.165242  0.834758  0.777616  1
  Sn  Sn20  1  0.165242  0.330484  0.777616  1
  Sn  Sn21  1  0.669516  0.834758  0.777616  1
  Sn  Sn22  1  0.666667  0.333333  0.725318  1
  Sn  Sn23  1  0.333333  0.666667  0.227814  1
