# generated using pymatgen
data_Hf18Cr2Re6GeRh
_symmetry_space_group_name_H-M   'P 1'
_cell_length_a   8.60931200
_cell_length_b   8.60931122
_cell_length_c   8.50958000
_cell_angle_alpha   90.00000000
_cell_angle_beta   90.00000000
_cell_angle_gamma   120.00000300
_symmetry_Int_Tables_number   1
_chemical_formula_structural   Hf18Cr2Re6GeRh
_chemical_formula_sum   'Hf18 Cr2 Re6 Ge1 Rh1'
_cell_volume   546.23006251
_cell_formula_units_Z   1
loop_
 _symmetry_equiv_pos_site_id
 _symmetry_equiv_pos_as_xyz
  1  'x, y, z'
loop_
 _atom_site_type_symbol
 _atom_site_label
 _atom_site_symmetry_multiplicity
 _atom_site_fract_x
 _atom_site_fract_y
 _atom_site_fract_z
 _atom_site_occupancy
  Hf  Hf0  1  0.195754  0.804246  0.447521  1
  Hf  Hf1  1  0.195754  0.391507  0.447521  1
  Hf  Hf2  1  0.608493  0.804246  0.447521  1
  Hf  Hf3  1  0.809348  0.190652  0.547936  1
  Hf  Hf4  1  0.809348  0.618696  0.547936  1
  Hf  Hf5  1  0.381304  0.190652  0.547936  1
  Hf  Hf6  1  0.809348  0.190652  0.952064  1
  Hf  Hf7  1  0.809348  0.618696  0.952064  1
  Hf  Hf8  1  0.381304  0.190652  0.952064  1
  Hf  Hf9  1  0.195754  0.804246  0.052479  1
  Hf  Hf10  1  0.195754  0.391507  0.052479  1
  Hf  Hf11  1  0.608493  0.804246  0.052479  1
  Hf  Hf12  1  0.542272  0.457728  0.250000  1
  Hf  Hf13  1  0.542272  0.084544  0.250000  1
  Hf  Hf14  1  0.915456  0.457728  0.250000  1
  Hf  Hf15  1  0.459614  0.540386  0.750000  1
  Hf  Hf16  1  0.459614  0.919227  0.750000  1
  Hf  Hf17  1  0.080773  0.540386  0.750000  1
  Cr  Cr18  1  0.000000  0.000000  0.499057  1
  Cr  Cr19  1  0.000000  0.000000  0.000943  1
  Re  Re20  1  0.891939  0.108061  0.250000  1
  Re  Re21  1  0.891939  0.783880  0.250000  1
  Re  Re22  1  0.216120  0.108061  0.250000  1
  Re  Re23  1  0.107967  0.892033  0.750000  1
  Re  Re24  1  0.107967  0.215934  0.750000  1
  Re  Re25  1  0.784066  0.892033  0.750000  1
  Ge  Ge26  1  0.666667  0.333333  0.750000  1
  Rh  Rh27  1  0.333333  0.666667  0.250000  1
