# generated using pymatgen
data_KMn6(PS8)2
_symmetry_space_group_name_H-M   'P 1'
_cell_length_a   6.68463977
_cell_length_b   6.68464002
_cell_length_c   13.32688400
_cell_angle_alpha   90.19261369
_cell_angle_beta   89.80738630
_cell_angle_gamma   119.99556267
_symmetry_Int_Tables_number   1
_chemical_formula_structural   KMn6(PS8)2
_chemical_formula_sum   'K1 Mn6 P2 S16'
_cell_volume   515.74072632
_cell_formula_units_Z   1
loop_
 _symmetry_equiv_pos_site_id
 _symmetry_equiv_pos_as_xyz
  1  'x, y, z'
loop_
 _atom_site_type_symbol
 _atom_site_label
 _atom_site_symmetry_multiplicity
 _atom_site_fract_x
 _atom_site_fract_y
 _atom_site_fract_z
 _atom_site_occupancy
  K  K0  1  0.000000  0.000000  0.000000  1
  Mn  Mn1  1  0.500532  0.001809  0.723713  1
  Mn  Mn2  1  0.499468  0.998191  0.276287  1
  Mn  Mn3  1  0.998191  0.499468  0.723713  1
  Mn  Mn4  1  0.001809  0.500532  0.276287  1
  Mn  Mn5  1  0.999692  0.000308  0.723093  1
  Mn  Mn6  1  0.000308  0.999692  0.276907  1
  P  P7  1  0.501015  0.498985  0.723347  1
  P  P8  1  0.498985  0.501015  0.276653  1
  S  S9  1  0.830433  0.659922  0.180332  1
  S  S10  1  0.828601  0.661929  0.628085  1
  S  S11  1  0.832233  0.167767  0.176800  1
  S  S12  1  0.832928  0.167072  0.624581  1
  S  S13  1  0.338238  0.661762  0.179796  1
  S  S14  1  0.336618  0.663382  0.630013  1
  S  S15  1  0.340078  0.169567  0.180332  1
  S  S16  1  0.338071  0.171399  0.628085  1
  S  S17  1  0.659922  0.830433  0.819668  1
  S  S18  1  0.661929  0.828601  0.371915  1
  S  S19  1  0.661762  0.338238  0.820204  1
  S  S20  1  0.663382  0.336618  0.369987  1
  S  S21  1  0.167767  0.832233  0.823200  1
  S  S22  1  0.167072  0.832928  0.375419  1
  S  S23  1  0.169567  0.340078  0.819668  1
  S  S24  1  0.171399  0.338071  0.371915  1
