# generated using pymatgen
data_Er20Ir5Pt5Au2
_symmetry_space_group_name_H-M   'P 1'
_cell_length_a   11.00376513
_cell_length_b   10.99147309
_cell_length_c   6.32526625
_cell_angle_alpha   89.94366755
_cell_angle_beta   89.68507940
_cell_angle_gamma   90.37491951
_symmetry_Int_Tables_number   1
_chemical_formula_structural   Er20Ir5Pt5Au2
_chemical_formula_sum   'Er20 Ir5 Pt5 Au2'
_cell_volume   764.99736714
_cell_formula_units_Z   1
loop_
 _symmetry_equiv_pos_site_id
 _symmetry_equiv_pos_as_xyz
  1  'x, y, z'
loop_
 _atom_site_type_symbol
 _atom_site_label
 _atom_site_symmetry_multiplicity
 _atom_site_fract_x
 _atom_site_fract_y
 _atom_site_fract_z
 _atom_site_occupancy
  Er  Er0  1  0.295322  0.086154  0.371208  1
  Er  Er1  1  0.295588  0.908784  0.872100  1
  Er  Er2  1  0.697685  0.088065  0.865426  1
  Er  Er3  1  0.697439  0.910738  0.364755  1
  Er  Er4  1  0.576648  0.791042  0.872278  1
  Er  Er5  1  0.580377  0.206357  0.374498  1
  Er  Er6  1  0.408640  0.792299  0.378308  1
  Er  Er7  1  0.410260  0.204279  0.873514  1
  Er  Er8  1  0.208227  0.416457  0.626974  1
  Er  Er9  1  0.208356  0.589413  0.120315  1
  Er  Er10  1  0.794913  0.418176  0.125951  1
  Er  Er11  1  0.795626  0.582274  0.626648  1
  Er  Er12  1  0.917465  0.702842  0.136683  1
  Er  Er13  1  0.917172  0.297876  0.636276  1
  Er  Er14  1  0.095408  0.701500  0.625765  1
  Er  Er15  1  0.091883  0.299336  0.127321  1
  Er  Er16  1  0.004912  0.999013  0.500762  1
  Er  Er17  1  0.005824  0.001598  0.999895  1
  Er  Er18  1  0.498424  0.499460  0.999592  1
  Er  Er19  1  0.499901  0.502910  0.500639  1
  Ir  Ir20  1  0.348000  0.652896  0.750864  1
  Ir  Ir21  1  0.498909  0.000378  0.117242  1
  Ir  Ir22  1  0.498910  0.999908  0.616311  1
  Ir  Ir23  1  0.000603  0.501034  0.883551  1
  Ir  Ir24  1  0.000626  0.499585  0.382829  1
  Pt  Pt25  1  0.154429  0.155317  0.749230  1
  Pt  Pt26  1  0.154076  0.846669  0.249954  1
  Pt  Pt27  1  0.654020  0.347412  0.749342  1
  Pt  Pt28  1  0.655905  0.652918  0.247857  1
  Pt  Pt29  1  0.346969  0.345292  0.251792  1
  Au  Au30  1  0.844286  0.155551  0.250800  1
  Au  Au31  1  0.843195  0.844465  0.751322  1
