# generated using pymatgen
data_Y3Er2Bi3C
_symmetry_space_group_name_H-M   'P 1'
_cell_length_a   9.14146300
_cell_length_b   9.14146498
_cell_length_c   6.48258700
_cell_angle_alpha   90.00016588
_cell_angle_beta   90.00016328
_cell_angle_gamma   119.99779870
_symmetry_Int_Tables_number   1
_chemical_formula_structural   Y3Er2Bi3C
_chemical_formula_sum   'Y6 Er4 Bi6 C2'
_cell_volume   469.15907838
_cell_formula_units_Z   2
loop_
 _symmetry_equiv_pos_site_id
 _symmetry_equiv_pos_as_xyz
  1  'x, y, z'
loop_
 _atom_site_type_symbol
 _atom_site_label
 _atom_site_symmetry_multiplicity
 _atom_site_fract_x
 _atom_site_fract_y
 _atom_site_fract_z
 _atom_site_occupancy
  Y  Y0  1  0.666768  0.333546  0.500226  1
  Y  Y1  1  0.333546  0.666768  0.500226  1
  Y  Y2  1  0.333544  0.666789  0.999778  1
  Y  Y3  1  0.666789  0.333544  0.999778  1
  Y  Y4  1  0.789773  0.999644  0.749989  1
  Y  Y5  1  0.999644  0.789773  0.749989  1
  Er  Er6  1  0.795604  0.795604  0.250000  1
  Er  Er7  1  0.205387  0.000621  0.249998  1
  Er  Er8  1  0.000621  0.205387  0.249998  1
  Er  Er9  1  0.204003  0.204003  0.750004  1
  Bi  Bi10  1  0.401129  0.401129  0.249993  1
  Bi  Bi11  1  0.599812  0.000018  0.250006  1
  Bi  Bi12  1  0.000018  0.599812  0.250006  1
  Bi  Bi13  1  0.598615  0.598615  0.750010  1
  Bi  Bi14  1  0.400651  0.000905  0.749998  1
  Bi  Bi15  1  0.000905  0.400651  0.749998  1
  C  C16  1  0.001595  0.001595  0.497603  1
  C  C17  1  0.001597  0.001597  0.002397  1
