# generated using pymatgen
data_Pr2Pa4Mn3(Co5P4)3
_symmetry_space_group_name_H-M   'P 1'
_cell_length_a   3.76450700
_cell_length_b   10.50772300
_cell_length_c   12.33491800
_cell_angle_alpha   90.00000000
_cell_angle_beta   90.00000000
_cell_angle_gamma   90.00000000
_symmetry_Int_Tables_number   1
_chemical_formula_structural   Pr2Pa4Mn3(Co5P4)3
_chemical_formula_sum   'Pr2 Pa4 Mn3 Co15 P12'
_cell_volume   487.92491075
_cell_formula_units_Z   1
loop_
 _symmetry_equiv_pos_site_id
 _symmetry_equiv_pos_as_xyz
  1  'x, y, z'
loop_
 _atom_site_type_symbol
 _atom_site_label
 _atom_site_symmetry_multiplicity
 _atom_site_fract_x
 _atom_site_fract_y
 _atom_site_fract_z
 _atom_site_occupancy
  Pr  Pr0  1  0.000000  0.500000  0.517003  1
  Pr  Pr1  1  0.500000  0.000000  0.482310  1
  Pa  Pa2  1  0.500000  0.819200  0.207428  1
  Pa  Pa3  1  0.500000  0.180800  0.207428  1
  Pa  Pa4  1  0.000000  0.677822  0.794140  1
  Pa  Pa5  1  0.000000  0.322178  0.794140  1
  Mn  Mn6  1  0.500000  0.500000  0.152287  1
  Mn  Mn7  1  0.000000  0.000000  0.845567  1
  Mn  Mn8  1  0.000000  0.500000  0.986264  1
  Co  Co9  1  0.500000  0.500000  0.710155  1
  Co  Co10  1  0.000000  0.000000  0.289301  1
  Co  Co11  1  0.500000  0.000000  0.015975  1
  Co  Co12  1  0.500000  0.329840  0.995051  1
  Co  Co13  1  0.500000  0.670160  0.995051  1
  Co  Co14  1  0.000000  0.166483  0.005122  1
  Co  Co15  1  0.000000  0.833517  0.005122  1
  Co  Co16  1  0.500000  0.297575  0.425108  1
  Co  Co17  1  0.500000  0.702425  0.425108  1
  Co  Co18  1  0.000000  0.202799  0.574417  1
  Co  Co19  1  0.000000  0.797201  0.574417  1
  Co  Co20  1  0.500000  0.876088  0.716421  1
  Co  Co21  1  0.500000  0.123912  0.716421  1
  Co  Co22  1  0.000000  0.624120  0.283423  1
  Co  Co23  1  0.000000  0.375880  0.283423  1
  P  P24  1  0.500000  0.500000  0.888632  1
  P  P25  1  0.000000  0.000000  0.112998  1
  P  P26  1  0.500000  0.500000  0.335435  1
  P  P27  1  0.000000  0.000000  0.662929  1
  P  P28  1  0.500000  0.308018  0.613946  1
  P  P29  1  0.500000  0.691982  0.613946  1
  P  P30  1  0.000000  0.191553  0.386423  1
  P  P31  1  0.000000  0.808447  0.386423  1
  P  P32  1  0.500000  0.847713  0.895368  1
  P  P33  1  0.500000  0.152287  0.895368  1
  P  P34  1  0.000000  0.652920  0.103726  1
  P  P35  1  0.000000  0.347080  0.103726  1
