# generated using pymatgen
data_Nd(LuSi2)2
_symmetry_space_group_name_H-M   'P 1'
_cell_length_a   3.89421141
_cell_length_b   4.18037799
_cell_length_c   9.11167400
_cell_angle_alpha   76.73844326
_cell_angle_beta   77.66110586
_cell_angle_gamma   89.99999724
_symmetry_Int_Tables_number   1
_chemical_formula_structural   Nd(LuSi2)2
_chemical_formula_sum   'Nd1 Lu2 Si4'
_cell_volume   140.85336411
_cell_formula_units_Z   1
loop_
 _symmetry_equiv_pos_site_id
 _symmetry_equiv_pos_as_xyz
  1  'x, y, z'
loop_
 _atom_site_type_symbol
 _atom_site_label
 _atom_site_symmetry_multiplicity
 _atom_site_fract_x
 _atom_site_fract_y
 _atom_site_fract_z
 _atom_site_occupancy
  Nd  Nd0  1  0.000053  0.000053  0.999898  1
  Lu  Lu1  1  0.684016  0.184016  0.631966  1
  Lu  Lu2  1  0.315969  0.815969  0.368063  1
  Si  Si3  1  0.848893  0.348893  0.302213  1
  Si  Si4  1  0.151088  0.651088  0.697822  1
  Si  Si5  1  0.568745  0.568745  0.862508  1
  Si  Si6  1  0.431236  0.431236  0.137530  1
