# generated using pymatgen
data_TbTmPa2(Al3Ir)6
_symmetry_space_group_name_H-M   'P 1'
_cell_length_a   7.59348613
_cell_length_b   7.60053403
_cell_length_c   9.36041100
_cell_angle_alpha   90.00000000
_cell_angle_beta   90.00000000
_cell_angle_gamma   119.69248500
_symmetry_Int_Tables_number   1
_chemical_formula_structural   TbTmPa2(Al3Ir)6
_chemical_formula_sum   'Tb1 Tm1 Pa2 Al18 Ir6'
_cell_volume   469.29756153
_cell_formula_units_Z   1
loop_
 _symmetry_equiv_pos_site_id
 _symmetry_equiv_pos_as_xyz
  1  'x, y, z'
loop_
 _atom_site_type_symbol
 _atom_site_label
 _atom_site_symmetry_multiplicity
 _atom_site_fract_x
 _atom_site_fract_y
 _atom_site_fract_z
 _atom_site_occupancy
  Tb  Tb0  1  0.669528  0.993509  0.250000  1
  Tm  Tm1  1  0.330126  0.006528  0.750000  1
  Pa  Pa2  1  0.997809  0.671051  0.250000  1
  Pa  Pa3  1  0.002170  0.328866  0.750000  1
  Al  Al4  1  0.130939  0.127361  0.250000  1
  Al  Al5  1  0.869805  0.872800  0.750000  1
  Al  Al6  1  0.000784  0.331782  0.077597  1
  Al  Al7  1  0.000000  0.668950  0.921752  1
  Al  Al8  1  0.000000  0.668950  0.578248  1
  Al  Al9  1  0.337908  0.003197  0.426167  1
  Al  Al10  1  0.000784  0.331782  0.422403  1
  Al  Al11  1  0.661321  0.996756  0.575164  1
  Al  Al12  1  0.661321  0.996756  0.924836  1
  Al  Al13  1  0.337908  0.003197  0.073833  1
  Al  Al14  1  0.335197  0.332974  0.554261  1
  Al  Al15  1  0.664826  0.666454  0.446566  1
  Al  Al16  1  0.664826  0.666454  0.053434  1
  Al  Al17  1  0.335197  0.332974  0.945739  1
  Al  Al18  1  0.340845  0.547578  0.250000  1
  Al  Al19  1  0.658493  0.451545  0.750000  1
  Al  Al20  1  0.548492  0.340639  0.250000  1
  Al  Al21  1  0.451242  0.659629  0.750000  1
  Ir  Ir22  1  0.675950  0.329787  0.999301  1
  Ir  Ir23  1  0.323781  0.670199  0.000069  1
  Ir  Ir24  1  0.323781  0.670199  0.499931  1
  Ir  Ir25  1  0.675950  0.329787  0.500699  1
  Ir  Ir26  1  0.000508  0.000149  0.999572  1
  Ir  Ir27  1  0.000508  0.000149  0.500428  1
