# generated using pymatgen
data_ZrTiBe9Tc
_symmetry_space_group_name_H-M   'P 1'
_cell_length_a   7.54096662
_cell_length_b   7.54096689
_cell_length_c   7.54096660
_cell_angle_alpha   34.59449434
_cell_angle_beta   34.59449476
_cell_angle_gamma   34.59449171
_symmetry_Int_Tables_number   1
_chemical_formula_structural   ZrTiBe9Tc
_chemical_formula_sum   'Zr1 Ti1 Be9 Tc1'
_cell_volume   123.34224470
_cell_formula_units_Z   1
loop_
 _symmetry_equiv_pos_site_id
 _symmetry_equiv_pos_as_xyz
  1  'x, y, z'
loop_
 _atom_site_type_symbol
 _atom_site_label
 _atom_site_symmetry_multiplicity
 _atom_site_fract_x
 _atom_site_fract_y
 _atom_site_fract_z
 _atom_site_occupancy
  Zr  Zr0  1  0.996391  0.996391  0.996391  1
  Ti  Ti1  1  0.144284  0.144284  0.144284  1
  Be  Be2  1  0.414145  0.917077  0.414145  1
  Be  Be3  1  0.414145  0.414145  0.917077  1
  Be  Be4  1  0.917077  0.414145  0.414145  1
  Be  Be5  1  0.588246  0.077571  0.588246  1
  Be  Be6  1  0.588246  0.588246  0.077571  1
  Be  Be7  1  0.077571  0.588246  0.588246  1
  Be  Be8  1  0.667506  0.667506  0.667506  1
  Be  Be9  1  0.336404  0.336404  0.336404  1
  Be  Be10  1  0.500051  0.500051  0.500051  1
  Tc  Tc11  1  0.855935  0.855935  0.855935  1
