# generated using pymatgen
data_Tl2V2CdO7
_symmetry_space_group_name_H-M   'P 1'
_cell_length_a   9.04415500
_cell_length_b   9.04415500
_cell_length_c   6.03620600
_cell_angle_alpha   90.00000000
_cell_angle_beta   90.00000000
_cell_angle_gamma   90.00000000
_symmetry_Int_Tables_number   1
_chemical_formula_structural   Tl2V2CdO7
_chemical_formula_sum   'Tl4 V4 Cd2 O14'
_cell_volume   493.74197074
_cell_formula_units_Z   2
loop_
 _symmetry_equiv_pos_site_id
 _symmetry_equiv_pos_as_xyz
  1  'x, y, z'
loop_
 _atom_site_type_symbol
 _atom_site_label
 _atom_site_symmetry_multiplicity
 _atom_site_fract_x
 _atom_site_fract_y
 _atom_site_fract_z
 _atom_site_occupancy
  Tl  Tl0  1  0.324582  0.175418  0.483857  1
  Tl  Tl1  1  0.675418  0.824582  0.483857  1
  Tl  Tl2  1  0.824582  0.324582  0.516143  1
  Tl  Tl3  1  0.175418  0.675418  0.516143  1
  V  V4  1  0.138627  0.361373  0.058287  1
  V  V5  1  0.861373  0.638627  0.058287  1
  V  V6  1  0.638627  0.138627  0.941713  1
  V  V7  1  0.361373  0.861373  0.941713  1
  Cd  Cd8  1  0.000000  0.000000  0.000000  1
  Cd  Cd9  1  0.500000  0.500000  0.000000  1
  O  O10  1  0.000000  0.500000  0.135788  1
  O  O11  1  0.089362  0.192626  0.179478  1
  O  O12  1  0.307374  0.410637  0.179478  1
  O  O13  1  0.692625  0.589362  0.179478  1
  O  O14  1  0.910637  0.807374  0.179478  1
  O  O15  1  0.652219  0.152219  0.219026  1
  O  O16  1  0.347780  0.847780  0.219026  1
  O  O17  1  0.152219  0.347780  0.780975  1
  O  O18  1  0.847780  0.652219  0.780975  1
  O  O19  1  0.807374  0.089362  0.820522  1
  O  O20  1  0.589362  0.307374  0.820522  1
  O  O21  1  0.410637  0.692625  0.820522  1
  O  O22  1  0.192626  0.910637  0.820522  1
  O  O23  1  0.500000  0.000000  0.864212  1
