# generated using pymatgen
data_Hf3Ti9Sn9Au
_symmetry_space_group_name_H-M   'P 1'
_cell_length_a   9.37223500
_cell_length_b   9.38997604
_cell_length_c   5.74297849
_cell_angle_alpha   90.09195632
_cell_angle_beta   90.00000000
_cell_angle_gamma   119.93752366
_symmetry_Int_Tables_number   1
_chemical_formula_structural   Hf3Ti9Sn9Au
_chemical_formula_sum   'Hf3 Ti9 Sn9 Au1'
_cell_volume   437.97346303
_cell_formula_units_Z   1
loop_
 _symmetry_equiv_pos_site_id
 _symmetry_equiv_pos_as_xyz
  1  'x, y, z'
loop_
 _atom_site_type_symbol
 _atom_site_label
 _atom_site_symmetry_multiplicity
 _atom_site_fract_x
 _atom_site_fract_y
 _atom_site_fract_z
 _atom_site_occupancy
  Hf  Hf0  1  0.849397  0.698794  0.743979  1
  Hf  Hf1  1  0.140963  0.840535  0.255447  1
  Hf  Hf2  1  0.699572  0.840535  0.255447  1
  Ti  Ti3  1  0.314658  0.146681  0.752902  1
  Ti  Ti4  1  0.832023  0.146681  0.752902  1
  Ti  Ti5  1  0.160175  0.320350  0.241077  1
  Ti  Ti6  1  0.501067  0.002135  0.504322  1
  Ti  Ti7  1  0.493772  0.495633  0.000548  1
  Ti  Ti8  1  0.001860  0.495633  0.000548  1
  Ti  Ti9  1  0.000128  0.499012  0.499801  1
  Ti  Ti10  1  0.501619  0.003238  0.000056  1
  Ti  Ti11  1  0.498884  0.499012  0.499801  1
  Sn  Sn12  1  0.198801  0.397603  0.742651  1
  Sn  Sn13  1  0.798281  0.202401  0.253060  1
  Sn  Sn14  1  0.404120  0.202401  0.253060  1
  Sn  Sn15  1  0.584199  0.791565  0.753391  1
  Sn  Sn16  1  0.207366  0.791565  0.753391  1
  Sn  Sn17  1  0.787090  0.574179  0.245522  1
  Sn  Sn18  1  0.666843  0.333684  0.752310  1
  Sn  Sn19  1  0.334534  0.669069  0.250575  1
  Sn  Sn20  1  0.008582  0.017164  0.992027  1
  Au  Au21  1  0.016065  0.032130  0.497184  1
