# generated using pymatgen
data_Tb4Dy15TmIr12
_symmetry_space_group_name_H-M   'P 1'
_cell_length_a   10.88679600
_cell_length_b   10.88472505
_cell_length_c   6.32568200
_cell_angle_alpha   90.00000000
_cell_angle_beta   90.00000000
_cell_angle_gamma   89.99433608
_symmetry_Int_Tables_number   1
_chemical_formula_structural   Tb4Dy15TmIr12
_chemical_formula_sum   'Tb4 Dy15 Tm1 Ir12'
_cell_volume   749.59192909
_cell_formula_units_Z   1
loop_
 _symmetry_equiv_pos_site_id
 _symmetry_equiv_pos_as_xyz
  1  'x, y, z'
loop_
 _atom_site_type_symbol
 _atom_site_label
 _atom_site_symmetry_multiplicity
 _atom_site_fract_x
 _atom_site_fract_y
 _atom_site_fract_z
 _atom_site_occupancy
  Tb  Tb0  1  0.288804  0.087538  0.378090  1
  Tb  Tb1  1  0.290624  0.911125  0.878139  1
  Tb  Tb2  1  0.709376  0.088875  0.878139  1
  Tb  Tb3  1  0.711196  0.912462  0.378090  1
  Dy  Dy4  1  0.588783  0.791147  0.878998  1
  Dy  Dy5  1  0.587255  0.209241  0.378582  1
  Dy  Dy6  1  0.412745  0.790759  0.378582  1
  Dy  Dy7  1  0.411217  0.208853  0.878998  1
  Dy  Dy8  1  0.208964  0.412997  0.621251  1
  Dy  Dy9  1  0.208568  0.588610  0.120808  1
  Dy  Dy10  1  0.791432  0.411390  0.120808  1
  Dy  Dy11  1  0.791036  0.587003  0.621251  1
  Dy  Dy12  1  0.911849  0.708685  0.121207  1
  Dy  Dy13  1  0.913433  0.289213  0.621262  1
  Dy  Dy14  1  0.086567  0.710787  0.621262  1
  Dy  Dy15  1  0.088151  0.291315  0.121207  1
  Dy  Dy16  1  0.000000  0.000000  0.000694  1
  Dy  Dy17  1  0.500000  0.500000  0.000263  1
  Dy  Dy18  1  0.500000  0.500000  0.500330  1
  Tm  Tm19  1  0.000000  0.000000  0.500448  1
  Ir  Ir20  1  0.848006  0.153654  0.251003  1
  Ir  Ir21  1  0.847235  0.847055  0.750048  1
  Ir  Ir22  1  0.152765  0.152945  0.750048  1
  Ir  Ir23  1  0.151994  0.846346  0.251003  1
  Ir  Ir24  1  0.654157  0.346484  0.749240  1
  Ir  Ir25  1  0.653875  0.653787  0.250373  1
  Ir  Ir26  1  0.346125  0.346213  0.250373  1
  Ir  Ir27  1  0.345843  0.653516  0.749240  1
  Ir  Ir28  1  0.500000  0.000000  0.126025  1
  Ir  Ir29  1  0.500000  0.000000  0.624361  1
  Ir  Ir30  1  0.000000  0.500000  0.874074  1
  Ir  Ir31  1  0.000000  0.500000  0.375803  1
