# generated using pymatgen
data_Dy2Pa(SnRh)3
_symmetry_space_group_name_H-M   'P 1'
_cell_length_a   7.54972659
_cell_length_b   7.54972610
_cell_length_c   3.85691500
_cell_angle_alpha   90.00000000
_cell_angle_beta   90.00000000
_cell_angle_gamma   119.00852010
_symmetry_Int_Tables_number   1
_chemical_formula_structural   Dy2Pa(SnRh)3
_chemical_formula_sum   'Dy2 Pa1 Sn3 Rh3'
_cell_volume   192.25867392
_cell_formula_units_Z   1
loop_
 _symmetry_equiv_pos_site_id
 _symmetry_equiv_pos_as_xyz
  1  'x, y, z'
loop_
 _atom_site_type_symbol
 _atom_site_label
 _atom_site_symmetry_multiplicity
 _atom_site_fract_x
 _atom_site_fract_y
 _atom_site_fract_z
 _atom_site_occupancy
  Dy  Dy0  1  0.595418  0.999896  0.500000  1
  Dy  Dy1  1  0.999896  0.595418  0.500000  1
  Pa  Pa2  1  0.412952  0.412952  0.500000  1
  Sn  Sn3  1  0.755391  0.755391  0.000000  1
  Sn  Sn4  1  0.258996  0.985797  0.000000  1
  Sn  Sn5  1  0.985797  0.258996  0.000000  1
  Rh  Rh6  1  0.638454  0.336634  0.000000  1
  Rh  Rh7  1  0.336634  0.638454  0.000000  1
  Rh  Rh8  1  0.016462  0.016462  0.500000  1
