# generated using pymatgen
data_LiPm4(CuO4)3
_symmetry_space_group_name_H-M   'P 1'
_cell_length_a   5.35461885
_cell_length_b   5.56000175
_cell_length_c   7.70198523
_cell_angle_alpha   90.40762337
_cell_angle_beta   90.01767360
_cell_angle_gamma   89.63638205
_symmetry_Int_Tables_number   1
_chemical_formula_structural   LiPm4(CuO4)3
_chemical_formula_sum   'Li1 Pm4 Cu3 O12'
_cell_volume   229.29068955
_cell_formula_units_Z   1
loop_
 _symmetry_equiv_pos_site_id
 _symmetry_equiv_pos_as_xyz
  1  'x, y, z'
loop_
 _atom_site_type_symbol
 _atom_site_label
 _atom_site_symmetry_multiplicity
 _atom_site_fract_x
 _atom_site_fract_y
 _atom_site_fract_z
 _atom_site_occupancy
  Li  Li0  1  0.500001  0.000000  0.000000  1
  Pm  Pm1  1  0.989680  0.058597  0.242979  1
  Pm  Pm2  1  0.518228  0.564646  0.242479  1
  Pm  Pm3  1  0.481774  0.435354  0.757521  1
  Pm  Pm4  1  0.010321  0.941402  0.757021  1
  Cu  Cu5  1  0.000000  0.500000  0.000000  1
  Cu  Cu6  1  0.500001  0.000000  0.500000  1
  Cu  Cu7  1  0.000000  0.500000  0.500000  1
  O  O8  1  0.718150  0.305045  0.038107  1
  O  O9  1  0.805686  0.782609  0.038955  1
  O  O10  1  0.086044  0.482425  0.258904  1
  O  O11  1  0.424357  0.984865  0.262689  1
  O  O12  1  0.711057  0.297168  0.450547  1
  O  O13  1  0.794797  0.793911  0.451585  1
  O  O14  1  0.205202  0.206088  0.548415  1
  O  O15  1  0.288943  0.702830  0.549453  1
  O  O16  1  0.575645  0.015135  0.737311  1
  O  O17  1  0.913956  0.517574  0.741096  1
  O  O18  1  0.194313  0.217390  0.961045  1
  O  O19  1  0.281850  0.694953  0.961893  1
