# generated using pymatgen
data_NdNiBr
_symmetry_space_group_name_H-M   'P 1'
_cell_length_a   4.09350000
_cell_length_b   4.09350137
_cell_length_c   11.70127300
_cell_angle_alpha   90.00000000
_cell_angle_beta   90.00000000
_cell_angle_gamma   120.00000506
_symmetry_Int_Tables_number   1
_chemical_formula_structural   NdNiBr
_chemical_formula_sum   'Nd2 Ni2 Br2'
_cell_volume   169.80616617
_cell_formula_units_Z   2
loop_
 _symmetry_equiv_pos_site_id
 _symmetry_equiv_pos_as_xyz
  1  'x, y, z'
loop_
 _atom_site_type_symbol
 _atom_site_label
 _atom_site_symmetry_multiplicity
 _atom_site_fract_x
 _atom_site_fract_y
 _atom_site_fract_z
 _atom_site_occupancy
  Nd  Nd0  1  0.000000  0.000000  0.161403  1
  Nd  Nd1  1  0.000000  0.000000  0.838597  1
  Ni  Ni2  1  0.666665  0.333333  0.013509  1
  Ni  Ni3  1  0.333334  0.666668  0.986492  1
  Br  Br4  1  0.333334  0.666668  0.328113  1
  Br  Br5  1  0.666665  0.333333  0.671888  1
