# generated using pymatgen
data_Dy4Ga4RuAu3
_symmetry_space_group_name_H-M   'P 1'
_cell_length_a   4.48783000
_cell_length_b   7.04631439
_cell_length_c   7.79107519
_cell_angle_alpha   89.55397698
_cell_angle_beta   90.00000000
_cell_angle_gamma   90.00000000
_symmetry_Int_Tables_number   1
_chemical_formula_structural   Dy4Ga4RuAu3
_chemical_formula_sum   'Dy4 Ga4 Ru1 Au3'
_cell_volume   246.36706539
_cell_formula_units_Z   1
loop_
 _symmetry_equiv_pos_site_id
 _symmetry_equiv_pos_as_xyz
  1  'x, y, z'
loop_
 _atom_site_type_symbol
 _atom_site_label
 _atom_site_symmetry_multiplicity
 _atom_site_fract_x
 _atom_site_fract_y
 _atom_site_fract_z
 _atom_site_occupancy
  Dy  Dy0  1  0.250000  0.000519  0.292082  1
  Dy  Dy1  1  0.250000  0.487890  0.214682  1
  Dy  Dy2  1  0.750000  0.019974  0.695172  1
  Dy  Dy3  1  0.750000  0.506061  0.791506  1
  Ga  Ga4  1  0.250000  0.304398  0.572608  1
  Ga  Ga5  1  0.250000  0.811393  0.918200  1
  Ga  Ga6  1  0.750000  0.674284  0.420801  1
  Ga  Ga7  1  0.750000  0.200102  0.091163  1
  Ru  Ru8  1  0.750000  0.278034  0.413474  1
  Au  Au9  1  0.250000  0.213662  0.909520  1
  Au  Au10  1  0.250000  0.722047  0.589414  1
  Au  Au11  1  0.750000  0.781636  0.091377  1
