# generated using pymatgen
data_La3Pr3(RhBr3)2
_symmetry_space_group_name_H-M   'P 1'
_cell_length_a   10.58686155
_cell_length_b   10.60925973
_cell_length_c   10.60925922
_cell_angle_alpha   108.67760840
_cell_angle_beta   109.49174049
_cell_angle_gamma   110.33596972
_symmetry_Int_Tables_number   1
_chemical_formula_structural   La3Pr3(RhBr3)2
_chemical_formula_sum   'La6 Pr6 Rh4 Br12'
_cell_volume   916.12563920
_cell_formula_units_Z   2
loop_
 _symmetry_equiv_pos_site_id
 _symmetry_equiv_pos_as_xyz
  1  'x, y, z'
loop_
 _atom_site_type_symbol
 _atom_site_label
 _atom_site_symmetry_multiplicity
 _atom_site_fract_x
 _atom_site_fract_y
 _atom_site_fract_z
 _atom_site_occupancy
  La  La0  1  0.468681  0.484459  0.233649  1
  La  La1  1  0.742561  0.229581  0.263552  1
  La  La2  1  0.757439  0.020991  0.487020  1
  La  La3  1  0.229327  0.466211  0.487826  1
  La  La4  1  0.270673  0.758500  0.236885  1
  La  La5  1  0.031319  0.264967  0.015777  1
  Pr  Pr6  1  0.017008  0.028225  0.262346  1
  Pr  Pr7  1  0.482992  0.745338  0.011216  1
  Pr  Pr8  1  0.482015  0.237410  0.470366  1
  Pr  Pr9  1  0.017985  0.488352  0.755395  1
  Pr  Pr10  1  0.266014  0.015147  0.031125  1
  Pr  Pr11  1  0.233986  0.265110  0.749134  1
  Rh  Rh12  1  0.249919  0.251644  0.248970  1
  Rh  Rh13  1  0.501595  0.000086  0.250954  1
  Rh  Rh14  1  0.998405  0.249359  0.498491  1
  Rh  Rh15  1  0.250081  0.499051  0.001725  1
  Br  Br16  1  0.250223  0.756284  0.745741  1
  Br  Br17  1  0.512424  0.504047  0.756486  1
  Br  Br18  1  0.987576  0.744060  0.991622  1
  Br  Br19  1  0.744154  0.251882  0.753953  1
  Br  Br20  1  0.997707  0.989539  0.745819  1
  Br  Br21  1  0.249777  0.995518  0.506061  1
  Br  Br22  1  0.755846  0.509797  0.507728  1
  Br  Br23  1  0.502293  0.248112  0.991831  1
  Br  Br24  1  0.755884  0.746403  0.247671  1
  Br  Br25  1  0.744116  0.991787  0.990520  1
  Br  Br26  1  0.994871  0.503612  0.249400  1
  Br  Br27  1  0.505129  0.754529  0.508740  1
