# generated using pymatgen
data_ErNp3F15
_symmetry_space_group_name_H-M   'P 1'
_cell_length_a   8.58289094
_cell_length_b   8.58288991
_cell_length_c   8.59702366
_cell_angle_alpha   79.46245251
_cell_angle_beta   79.46243990
_cell_angle_gamma   100.02397940
_symmetry_Int_Tables_number   1
_chemical_formula_structural   ErNp3F15
_chemical_formula_sum   'Er2 Np6 F30'
_cell_volume   597.85452436
_cell_formula_units_Z   2
loop_
 _symmetry_equiv_pos_site_id
 _symmetry_equiv_pos_as_xyz
  1  'x, y, z'
loop_
 _atom_site_type_symbol
 _atom_site_label
 _atom_site_symmetry_multiplicity
 _atom_site_fract_x
 _atom_site_fract_y
 _atom_site_fract_z
 _atom_site_occupancy
  Er  Er0  1  0.177288  0.822712  0.250000  1
  Er  Er1  1  0.822712  0.177288  0.750000  1
  Np  Np2  1  0.748733  0.251267  0.250000  1
  Np  Np3  1  0.251267  0.748733  0.750000  1
  Np  Np4  1  0.756686  0.677631  0.674254  1
  Np  Np5  1  0.322369  0.243314  0.825746  1
  Np  Np6  1  0.243314  0.322369  0.325746  1
  Np  Np7  1  0.677631  0.756686  0.174254  1
  F  F8  1  0.322471  0.347282  0.050449  1
  F  F9  1  0.945773  0.813963  0.158336  1
  F  F10  1  0.843571  0.446980  0.682159  1
  F  F11  1  0.446980  0.843571  0.182159  1
  F  F12  1  0.813963  0.945773  0.658336  1
  F  F13  1  0.347282  0.322471  0.550448  1
  F  F14  1  0.677529  0.652718  0.949551  1
  F  F15  1  0.054227  0.186037  0.841664  1
  F  F16  1  0.156429  0.553020  0.317841  1
  F  F17  1  0.553020  0.156429  0.817841  1
  F  F18  1  0.186037  0.054227  0.341664  1
  F  F19  1  0.652718  0.677529  0.449551  1
  F  F20  1  0.777498  0.277096  0.990657  1
  F  F21  1  0.012859  0.278706  0.215934  1
  F  F22  1  0.780400  0.511687  0.221857  1
  F  F23  1  0.511687  0.780400  0.721857  1
  F  F24  1  0.278706  0.012859  0.715934  1
  F  F25  1  0.277096  0.777498  0.490657  1
  F  F26  1  0.222502  0.722904  0.009343  1
  F  F27  1  0.987141  0.721294  0.784066  1
  F  F28  1  0.219600  0.488313  0.778143  1
  F  F29  1  0.488313  0.219600  0.278143  1
  F  F30  1  0.721294  0.987141  0.284066  1
  F  F31  1  0.722904  0.222502  0.509343  1
  F  F32  1  0.466890  0.533110  0.250000  1
  F  F33  1  0.751816  0.966392  0.964820  1
  F  F34  1  0.033608  0.248184  0.535180  1
  F  F35  1  0.248184  0.033608  0.035180  1
  F  F36  1  0.966392  0.751816  0.464820  1
  F  F37  1  0.533110  0.466890  0.750000  1
