# generated using pymatgen
data_Hf8Mg(In2Co)7
_symmetry_space_group_name_H-M   'P 1'
_cell_length_a   9.45346538
_cell_length_b   9.45343007
_cell_length_c   9.45303900
_cell_angle_alpha   60.00094480
_cell_angle_beta   60.00122218
_cell_angle_gamma   60.00041127
_symmetry_Int_Tables_number   1
_chemical_formula_structural   Hf8Mg(In2Co)7
_chemical_formula_sum   'Hf8 Mg1 In14 Co7'
_cell_volume   597.37269518
_cell_formula_units_Z   1
loop_
 _symmetry_equiv_pos_site_id
 _symmetry_equiv_pos_as_xyz
  1  'x, y, z'
loop_
 _atom_site_type_symbol
 _atom_site_label
 _atom_site_symmetry_multiplicity
 _atom_site_fract_x
 _atom_site_fract_y
 _atom_site_fract_z
 _atom_site_occupancy
  Hf  Hf0  1  0.119295  0.642219  0.119241  1
  Hf  Hf1  1  0.357781  0.880706  0.880754  1
  Hf  Hf2  1  0.880760  0.880755  0.880700  1
  Hf  Hf3  1  0.642219  0.119294  0.119246  1
  Hf  Hf4  1  0.880755  0.880760  0.357785  1
  Hf  Hf5  1  0.119240  0.119245  0.119300  1
  Hf  Hf6  1  0.880705  0.357781  0.880759  1
  Hf  Hf7  1  0.119245  0.119240  0.642215  1
  Mg  Mg8  1  0.500000  0.500000  0.500000  1
  In  In9  1  0.500028  0.841851  0.158134  1
  In  In10  1  0.500049  0.841852  0.499991  1
  In  In11  1  0.499951  0.158148  0.500009  1
  In  In12  1  0.500004  0.499996  0.841863  1
  In  In13  1  0.158149  0.499972  0.500013  1
  In  In14  1  0.841861  0.158139  0.500003  1
  In  In15  1  0.158139  0.841861  0.499997  1
  In  In16  1  0.499972  0.158149  0.841866  1
  In  In17  1  0.158147  0.499951  0.841892  1
  In  In18  1  0.499996  0.500004  0.158137  1
  In  In19  1  0.841851  0.500028  0.499987  1
  In  In20  1  0.841853  0.500049  0.158108  1
  In  In21  1  0.250003  0.250003  0.249997  1
  In  In22  1  0.749997  0.749997  0.750003  1
  Co  Co23  1  0.783622  0.783621  0.216379  1
  Co  Co24  1  0.000000  0.000000  0.000000  1
  Co  Co25  1  0.216454  0.783546  0.216456  1
  Co  Co26  1  0.216505  0.783495  0.783494  1
  Co  Co27  1  0.216378  0.216379  0.783621  1
  Co  Co28  1  0.783546  0.216454  0.783544  1
  Co  Co29  1  0.783495  0.216505  0.216506  1
