# generated using pymatgen
data_NdBe(GaCu2)4
_symmetry_space_group_name_H-M   'P 1'
_cell_length_a   8.26114443
_cell_length_b   8.26114411
_cell_length_c   8.26114461
_cell_angle_alpha   120.34584581
_cell_angle_beta   120.34584622
_cell_angle_gamma   89.40201549
_symmetry_Int_Tables_number   1
_chemical_formula_structural   NdBe(GaCu2)4
_chemical_formula_sum   'Nd2 Be2 Ga8 Cu16'
_cell_volume   396.55532206
_cell_formula_units_Z   2
loop_
 _symmetry_equiv_pos_site_id
 _symmetry_equiv_pos_as_xyz
  1  'x, y, z'
loop_
 _atom_site_type_symbol
 _atom_site_label
 _atom_site_symmetry_multiplicity
 _atom_site_fract_x
 _atom_site_fract_y
 _atom_site_fract_z
 _atom_site_occupancy
  Nd  Nd0  1  0.750000  0.750000  0.000000  1
  Nd  Nd1  1  0.250000  0.250000  0.000000  1
  Be  Be2  1  0.499999  0.000000  0.499999  1
  Be  Be3  1  0.000000  0.499999  0.499999  1
  Ga  Ga4  1  0.802643  0.302642  0.860549  1
  Ga  Ga5  1  0.442093  0.942094  0.139452  1
  Ga  Ga6  1  0.697359  0.557907  0.500000  1
  Ga  Ga7  1  0.057906  0.197358  0.500000  1
  Ga  Ga8  1  0.197359  0.697359  0.139452  1
  Ga  Ga9  1  0.557906  0.057906  0.860549  1
  Ga  Ga10  1  0.942094  0.802642  0.500000  1
  Ga  Ga11  1  0.302642  0.442094  0.500000  1
  Cu  Cu12  1  0.207292  0.060107  0.267398  1
  Cu  Cu13  1  0.792706  0.939894  0.732603  1
  Cu  Cu14  1  0.292707  0.560106  0.852813  1
  Cu  Cu15  1  0.707291  0.439893  0.147186  1
  Cu  Cu16  1  0.439895  0.292707  0.732603  1
  Cu  Cu17  1  0.560106  0.707291  0.267398  1
  Cu  Cu18  1  0.939894  0.207292  0.147188  1
  Cu  Cu19  1  0.060107  0.792707  0.852814  1
  Cu  Cu20  1  0.289051  0.789050  0.727928  1
  Cu  Cu21  1  0.061122  0.561123  0.272073  1
  Cu  Cu22  1  0.210950  0.938878  0.499999  1
  Cu  Cu23  1  0.438879  0.710951  0.500002  1
  Cu  Cu24  1  0.710951  0.210950  0.272073  1
  Cu  Cu25  1  0.938878  0.438879  0.727928  1
  Cu  Cu26  1  0.561123  0.289051  0.500002  1
  Cu  Cu27  1  0.789050  0.061122  0.499999  1
