# generated using pymatgen
data_Y4Er2Ir5Rh13
_symmetry_space_group_name_H-M   'P 1'
_cell_length_a   5.27663243
_cell_length_b   5.27663399
_cell_length_c   17.53948900
_cell_angle_alpha   90.02306323
_cell_angle_beta   89.97693676
_cell_angle_gamma   120.03646331
_symmetry_Int_Tables_number   1
_chemical_formula_structural   Y4Er2Ir5Rh13
_chemical_formula_sum   'Y4 Er2 Ir5 Rh13'
_cell_volume   422.76754975
_cell_formula_units_Z   1
loop_
 _symmetry_equiv_pos_site_id
 _symmetry_equiv_pos_as_xyz
  1  'x, y, z'
loop_
 _atom_site_type_symbol
 _atom_site_label
 _atom_site_symmetry_multiplicity
 _atom_site_fract_x
 _atom_site_fract_y
 _atom_site_fract_z
 _atom_site_occupancy
  Y  Y0  1  0.666384  0.333616  0.458411  1
  Y  Y1  1  0.332719  0.667281  0.541607  1
  Y  Y2  1  0.333336  0.666664  0.750358  1
  Y  Y3  1  0.666667  0.333333  0.250958  1
  Er  Er4  1  0.333455  0.666545  0.959064  1
  Er  Er5  1  0.666697  0.333303  0.041207  1
  Ir  Ir6  1  0.167310  0.832690  0.372803  1
  Ir  Ir7  1  0.167649  0.335220  0.373087  1
  Ir  Ir8  1  0.664780  0.832351  0.373087  1
  Ir  Ir9  1  0.834003  0.165997  0.627775  1
  Ir  Ir10  1  0.000300  0.999700  0.999977  1
  Rh  Rh11  1  0.834020  0.663868  0.626523  1
  Rh  Rh12  1  0.336132  0.165980  0.626523  1
  Rh  Rh13  1  0.832563  0.167437  0.876048  1
  Rh  Rh14  1  0.832940  0.665196  0.875730  1
  Rh  Rh15  1  0.334804  0.167060  0.875730  1
  Rh  Rh16  1  0.167294  0.832706  0.123829  1
  Rh  Rh17  1  0.167244  0.335285  0.123630  1
  Rh  Rh18  1  0.664715  0.832756  0.123630  1
  Rh  Rh19  1  0.333424  0.666576  0.249138  1
  Rh  Rh20  1  0.666507  0.333493  0.750701  1
  Rh  Rh21  1  0.999595  0.000405  0.249324  1
  Rh  Rh22  1  0.999743  0.000257  0.750643  1
  Rh  Rh23  1  0.997719  0.002281  0.500215  1
