# generated using pymatgen
data_Nd4AlZn3Ga4
_symmetry_space_group_name_H-M   'P 1'
_cell_length_a   4.50976000
_cell_length_b   7.61938402
_cell_length_c   7.78687231
_cell_angle_alpha   90.06850271
_cell_angle_beta   90.00000000
_cell_angle_gamma   90.00000000
_symmetry_Int_Tables_number   1
_chemical_formula_structural   Nd4AlZn3Ga4
_chemical_formula_sum   'Nd4 Al1 Zn3 Ga4'
_cell_volume   267.56914822
_cell_formula_units_Z   1
loop_
 _symmetry_equiv_pos_site_id
 _symmetry_equiv_pos_as_xyz
  1  'x, y, z'
loop_
 _atom_site_type_symbol
 _atom_site_label
 _atom_site_symmetry_multiplicity
 _atom_site_fract_x
 _atom_site_fract_y
 _atom_site_fract_z
 _atom_site_occupancy
  Nd  Nd0  1  0.750000  0.505371  0.242393  1
  Nd  Nd1  1  0.250000  0.996711  0.743951  1
  Nd  Nd2  1  0.750000  0.995692  0.258365  1
  Nd  Nd3  1  0.250000  0.502728  0.756858  1
  Al  Al4  1  0.250000  0.253958  0.083934  1
  Zn  Zn5  1  0.750000  0.780034  0.915260  1
  Zn  Zn6  1  0.250000  0.759549  0.418362  1
  Zn  Zn7  1  0.750000  0.285998  0.581360  1
  Ga  Ga8  1  0.750000  0.717956  0.583733  1
  Ga  Ga9  1  0.750000  0.221516  0.914448  1
  Ga  Ga10  1  0.250000  0.235274  0.419025  1
  Ga  Ga11  1  0.250000  0.745213  0.082311  1
