# generated using pymatgen
data_Ho16Er4Si15Rh
_symmetry_space_group_name_H-M   'P 1'
_cell_length_a   7.40100144
_cell_length_b   7.64629584
_cell_length_c   14.52490053
_cell_angle_alpha   89.72089991
_cell_angle_beta   89.70025014
_cell_angle_gamma   90.19526097
_symmetry_Int_Tables_number   1
_chemical_formula_structural   Ho16Er4Si15Rh
_chemical_formula_sum   'Ho16 Er4 Si15 Rh1'
_cell_volume   821.94185678
_cell_formula_units_Z   1
loop_
 _symmetry_equiv_pos_site_id
 _symmetry_equiv_pos_as_xyz
  1  'x, y, z'
loop_
 _atom_site_type_symbol
 _atom_site_label
 _atom_site_symmetry_multiplicity
 _atom_site_fract_x
 _atom_site_fract_y
 _atom_site_fract_z
 _atom_site_occupancy
  Ho  Ho0  1  0.974599  0.816397  0.097433  1
  Ho  Ho1  1  0.472674  0.682169  0.401787  1
  Ho  Ho2  1  0.527984  0.322752  0.900963  1
  Ho  Ho3  1  0.027810  0.183604  0.599093  1
  Ho  Ho4  1  0.026672  0.184752  0.902056  1
  Ho  Ho5  1  0.528154  0.318433  0.598457  1
  Ho  Ho6  1  0.475378  0.681270  0.098600  1
  Ho  Ho7  1  0.971752  0.817648  0.401138  1
  Ho  Ho8  1  0.682813  0.811960  0.881907  1
  Ho  Ho9  1  0.178416  0.681044  0.622139  1
  Ho  Ho10  1  0.818060  0.333181  0.118671  1
  Ho  Ho11  1  0.317322  0.178044  0.376002  1
  Ho  Ho12  1  0.321695  0.179151  0.123582  1
  Ho  Ho13  1  0.820135  0.319569  0.377215  1
  Ho  Ho14  1  0.175610  0.675492  0.878180  1
  Ho  Ho15  1  0.682232  0.819294  0.622770  1
  Er  Er16  1  0.649361  0.992273  0.248885  1
  Er  Er17  1  0.149205  0.510640  0.247654  1
  Er  Er18  1  0.847071  0.488185  0.757552  1
  Er  Er19  1  0.351339  0.010592  0.751837  1
  Si  Si20  1  0.766582  0.629772  0.251818  1
  Si  Si21  1  0.267710  0.871421  0.250679  1
  Si  Si22  1  0.731262  0.124851  0.748688  1
  Si  Si23  1  0.233301  0.372036  0.746771  1
  Si  Si24  1  0.020151  0.105997  0.249079  1
  Si  Si25  1  0.523221  0.396383  0.251420  1
  Si  Si26  1  0.472463  0.605630  0.746955  1
  Si  Si27  1  0.977086  0.897557  0.748599  1
  Si  Si28  1  0.352800  0.971600  0.539806  1
  Si  Si29  1  0.647925  0.028063  0.041617  1
  Si  Si30  1  0.148788  0.470246  0.460073  1
  Si  Si31  1  0.155699  0.471804  0.041166  1
  Si  Si32  1  0.645418  0.028590  0.459640  1
  Si  Si33  1  0.352012  0.969627  0.960854  1
  Si  Si34  1  0.853111  0.528845  0.539051  1
  Rh  Rh35  1  0.854192  0.521129  0.957865  1
