# generated using pymatgen
data_Hf11Zr(TcIr)6
_symmetry_space_group_name_H-M   'P 1'
_cell_length_a   4.61822200
_cell_length_b   6.48779600
_cell_length_c   13.92963300
_cell_angle_alpha   89.99989765
_cell_angle_beta   89.99986798
_cell_angle_gamma   89.99994869
_symmetry_Int_Tables_number   1
_chemical_formula_structural   Hf11Zr(TcIr)6
_chemical_formula_sum   'Hf11 Zr1 Tc6 Ir6'
_cell_volume   417.36080922
_cell_formula_units_Z   1
loop_
 _symmetry_equiv_pos_site_id
 _symmetry_equiv_pos_as_xyz
  1  'x, y, z'
loop_
 _atom_site_type_symbol
 _atom_site_label
 _atom_site_symmetry_multiplicity
 _atom_site_fract_x
 _atom_site_fract_y
 _atom_site_fract_z
 _atom_site_occupancy
  Hf  Hf0  1  0.500000  0.249851  0.999979  1
  Hf  Hf1  1  0.499999  0.750169  0.000496  1
  Hf  Hf2  1  0.999973  0.250293  0.166622  1
  Hf  Hf3  1  0.999974  0.749891  0.166620  1
  Hf  Hf4  1  0.499979  0.249705  0.333336  1
  Hf  Hf5  1  0.499977  0.750055  0.333336  1
  Hf  Hf6  1  0.000000  0.250290  0.500049  1
  Hf  Hf7  1  0.000000  0.749893  0.500051  1
  Hf  Hf8  1  0.500020  0.249848  0.666687  1
  Hf  Hf9  1  0.500020  0.750173  0.666168  1
  Hf  Hf10  1  0.000029  0.250083  0.833331  1
  Zr  Zr11  1  0.000028  0.749839  0.833330  1
  Tc  Tc12  1  0.000001  0.499423  0.000598  1
  Tc  Tc13  1  0.499976  0.999857  0.166843  1
  Tc  Tc14  1  0.999973  0.499980  0.333339  1
  Tc  Tc15  1  0.500001  0.999857  0.499815  1
  Tc  Tc16  1  0.000023  0.499419  0.666063  1
  Tc  Tc17  1  0.500022  0.001351  0.833339  1
  Ir  Ir18  1  0.000000  0.001255  0.000812  1
  Ir  Ir19  1  0.499977  0.500029  0.166659  1
  Ir  Ir20  1  0.999974  0.999929  0.333325  1
  Ir  Ir21  1  0.500001  0.500028  0.500018  1
  Ir  Ir22  1  0.000026  0.001258  0.665862  1
  Ir  Ir23  1  0.500022  0.497522  0.833323  1
