# generated using pymatgen
data_Nd3Ho2Mg(P2Ru3)6
_symmetry_space_group_name_H-M   'P 1'
_cell_length_a   12.69532848
_cell_length_b   12.52944310
_cell_length_c   4.00579600
_cell_angle_alpha   90.00000000
_cell_angle_beta   90.00000000
_cell_angle_gamma   119.56868695
_symmetry_Int_Tables_number   1
_chemical_formula_structural   Nd3Ho2Mg(P2Ru3)6
_chemical_formula_sum   'Nd3 Ho2 Mg1 P12 Ru18'
_cell_volume   554.19976850
_cell_formula_units_Z   1
loop_
 _symmetry_equiv_pos_site_id
 _symmetry_equiv_pos_as_xyz
  1  'x, y, z'
loop_
 _atom_site_type_symbol
 _atom_site_label
 _atom_site_symmetry_multiplicity
 _atom_site_fract_x
 _atom_site_fract_y
 _atom_site_fract_z
 _atom_site_occupancy
  Nd  Nd0  1  0.000000  0.181157  0.500000  1
  Nd  Nd1  1  0.815819  0.815770  0.500000  1
  Nd  Nd2  1  0.184181  0.999950  0.500000  1
  Ho  Ho3  1  0.659900  0.328590  0.000000  1
  Ho  Ho4  1  0.340100  0.668691  0.000000  1
  Mg  Mg5  1  0.000000  0.561608  0.000000  1
  P  P6  1  0.000000  0.807948  0.000000  1
  P  P7  1  0.186850  0.187213  0.000000  1
  P  P8  1  0.813150  0.000363  0.000000  1
  P  P9  1  0.692328  0.174099  0.500000  1
  P  P10  1  0.816592  0.517328  0.500000  1
  P  P11  1  0.475742  0.306231  0.500000  1
  P  P12  1  0.183408  0.700736  0.500000  1
  P  P13  1  0.524258  0.830488  0.500000  1
  P  P14  1  0.307672  0.481770  0.500000  1
  P  P15  1  0.000000  0.362314  0.000000  1
  P  P16  1  0.623987  0.624251  0.000000  1
  P  P17  1  0.376013  0.000263  0.000000  1
  Ru  Ru18  1  0.444880  0.445574  0.000000  1
  Ru  Ru19  1  0.555120  0.000695  0.000000  1
  Ru  Ru20  1  0.000000  0.712020  0.500000  1
  Ru  Ru21  1  0.284827  0.286697  0.500000  1
  Ru  Ru22  1  0.715173  0.001870  0.500000  1
  Ru  Ru23  1  0.802666  0.185595  0.000000  1
  Ru  Ru24  1  0.812557  0.616205  0.000000  1
  Ru  Ru25  1  0.377313  0.192844  0.000000  1
  Ru  Ru26  1  0.187443  0.803648  0.000000  1
  Ru  Ru27  1  0.622687  0.815531  0.000000  1
  Ru  Ru28  1  0.197334  0.382930  0.000000  1
  Ru  Ru29  1  0.874498  0.366808  0.500000  1
  Ru  Ru30  1  0.629825  0.508336  0.500000  1
  Ru  Ru31  1  0.493843  0.128893  0.500000  1
  Ru  Ru32  1  0.370175  0.878511  0.500000  1
  Ru  Ru33  1  0.506157  0.635051  0.500000  1
  Ru  Ru34  1  0.125502  0.492310  0.500000  1
  Ru  Ru35  1  0.000000  0.997712  0.000000  1
