# generated using pymatgen
data_Y6CoPd
_symmetry_space_group_name_H-M   'P 1'
_cell_length_a   6.42000207
_cell_length_b   7.07471961
_cell_length_c   9.55765500
_cell_angle_alpha   90.00000000
_cell_angle_beta   90.00000000
_cell_angle_gamma   90.25603020
_symmetry_Int_Tables_number   1
_chemical_formula_structural   Y6CoPd
_chemical_formula_sum   'Y12 Co2 Pd2'
_cell_volume   434.10162755
_cell_formula_units_Z   2
loop_
 _symmetry_equiv_pos_site_id
 _symmetry_equiv_pos_as_xyz
  1  'x, y, z'
loop_
 _atom_site_type_symbol
 _atom_site_label
 _atom_site_symmetry_multiplicity
 _atom_site_fract_x
 _atom_site_fract_y
 _atom_site_fract_z
 _atom_site_occupancy
  Y  Y0  1  0.624214  0.044793  0.250000  1
  Y  Y1  1  0.375786  0.955207  0.750000  1
  Y  Y2  1  0.147259  0.477911  0.750000  1
  Y  Y3  1  0.852741  0.522089  0.250000  1
  Y  Y4  1  0.180350  0.185831  0.063656  1
  Y  Y5  1  0.819650  0.814169  0.936344  1
  Y  Y6  1  0.670975  0.329550  0.935155  1
  Y  Y7  1  0.819650  0.814169  0.563656  1
  Y  Y8  1  0.329025  0.670450  0.064845  1
  Y  Y9  1  0.180350  0.185831  0.436344  1
  Y  Y10  1  0.329025  0.670450  0.435155  1
  Y  Y11  1  0.670975  0.329550  0.564845  1
  Co  Co12  1  0.445936  0.384817  0.250000  1
  Co  Co13  1  0.554064  0.615183  0.750000  1
  Pd  Pd14  1  0.947778  0.111522  0.750000  1
  Pd  Pd15  1  0.052222  0.888478  0.250000  1
