# generated using pymatgen
data_Mg3ScFe2(B2Rh5)2
_symmetry_space_group_name_H-M   'P 1'
_cell_length_a   9.39912164
_cell_length_b   2.95836400
_cell_length_c   9.39912164
_cell_angle_alpha   90.00000000
_cell_angle_beta   90.28287282
_cell_angle_gamma   90.00000000
_symmetry_Int_Tables_number   1
_chemical_formula_structural   Mg3ScFe2(B2Rh5)2
_chemical_formula_sum   'Mg3 Sc1 Fe2 B4 Rh10'
_cell_volume   261.34900805
_cell_formula_units_Z   1
loop_
 _symmetry_equiv_pos_site_id
 _symmetry_equiv_pos_as_xyz
  1  'x, y, z'
loop_
 _atom_site_type_symbol
 _atom_site_label
 _atom_site_symmetry_multiplicity
 _atom_site_fract_x
 _atom_site_fract_y
 _atom_site_fract_z
 _atom_site_occupancy
  Mg  Mg0  1  0.823538  0.000000  0.325023  1
  Mg  Mg1  1  0.174977  0.000000  0.676462  1
  Mg  Mg2  1  0.678309  0.000000  0.821691  1
  Sc  Sc3  1  0.324818  0.000000  0.175182  1
  Fe  Fe4  1  0.998566  0.000000  0.999280  1
  Fe  Fe5  1  0.500720  0.000000  0.501434  1
  B  B6  1  0.627112  0.000000  0.126887  1
  B  B7  1  0.123630  0.000000  0.376369  1
  B  B8  1  0.873485  0.000000  0.626516  1
  B  B9  1  0.373112  0.000000  0.872889  1
  Rh  Rh10  1  0.501125  0.499999  0.998875  1
  Rh  Rh11  1  0.785179  0.499999  0.071424  1
  Rh  Rh12  1  0.072280  0.499999  0.215036  1
  Rh  Rh13  1  0.569257  0.499999  0.284261  1
  Rh  Rh14  1  0.284964  0.499999  0.427720  1
  Rh  Rh15  1  0.999857  0.499999  0.500143  1
  Rh  Rh16  1  0.715019  0.499999  0.570265  1
  Rh  Rh17  1  0.428576  0.499999  0.714821  1
  Rh  Rh18  1  0.929734  0.499999  0.784981  1
  Rh  Rh19  1  0.215739  0.499999  0.930742  1
