# generated using pymatgen
data_Mg4Ga3SiPt4
_symmetry_space_group_name_H-M   'P 1'
_cell_length_a   6.48270226
_cell_length_b   4.07969700
_cell_length_c   7.79322525
_cell_angle_alpha   90.00000000
_cell_angle_beta   89.24559126
_cell_angle_gamma   90.00000000
_symmetry_Int_Tables_number   1
_chemical_formula_structural   Mg4Ga3SiPt4
_chemical_formula_sum   'Mg4 Ga3 Si1 Pt4'
_cell_volume   206.09315414
_cell_formula_units_Z   1
loop_
 _symmetry_equiv_pos_site_id
 _symmetry_equiv_pos_as_xyz
  1  'x, y, z'
loop_
 _atom_site_type_symbol
 _atom_site_label
 _atom_site_symmetry_multiplicity
 _atom_site_fract_x
 _atom_site_fract_y
 _atom_site_fract_z
 _atom_site_occupancy
  Mg  Mg0  1  0.970381  0.750000  0.166949  1
  Mg  Mg1  1  0.468758  0.750000  0.331137  1
  Mg  Mg2  1  0.528386  0.250001  0.667675  1
  Mg  Mg3  1  0.028173  0.250001  0.831141  1
  Ga  Ga4  1  0.659204  0.250001  0.055448  1
  Ga  Ga5  1  0.158052  0.250001  0.443981  1
  Ga  Ga6  1  0.850963  0.750000  0.555531  1
  Si  Si7  1  0.346117  0.750000  0.948329  1
  Pt  Pt8  1  0.272388  0.250001  0.122581  1
  Pt  Pt9  1  0.772993  0.250001  0.363997  1
  Pt  Pt10  1  0.232468  0.750000  0.649695  1
  Pt  Pt11  1  0.712118  0.750000  0.863534  1
