# generated using pymatgen
data_Ho10Lu2InCo4Pd
_symmetry_space_group_name_H-M   'P 1'
_cell_length_a   8.26245199
_cell_length_b   8.27008580
_cell_length_c   8.26245328
_cell_angle_alpha   110.91099732
_cell_angle_beta   110.65450547
_cell_angle_gamma   106.84318152
_symmetry_Int_Tables_number   1
_chemical_formula_structural   Ho10Lu2InCo4Pd
_chemical_formula_sum   'Ho10 Lu2 In1 Co4 Pd1'
_cell_volume   434.13318156
_cell_formula_units_Z   1
loop_
 _symmetry_equiv_pos_site_id
 _symmetry_equiv_pos_as_xyz
  1  'x, y, z'
loop_
 _atom_site_type_symbol
 _atom_site_label
 _atom_site_symmetry_multiplicity
 _atom_site_fract_x
 _atom_site_fract_y
 _atom_site_fract_z
 _atom_site_occupancy
  Ho  Ho0  1  0.416535  0.216308  0.197895  1
  Ho  Ho1  1  0.583465  0.783692  0.802105  1
  Ho  Ho2  1  0.018413  0.216308  0.799774  1
  Ho  Ho3  1  0.981587  0.783692  0.200226  1
  Ho  Ho4  1  0.185522  0.289989  0.478319  1
  Ho  Ho5  1  0.814478  0.710011  0.521681  1
  Ho  Ho6  1  0.188329  0.710011  0.895534  1
  Ho  Ho7  1  0.811671  0.289989  0.104466  1
  Ho  Ho8  1  0.314837  0.619962  0.305125  1
  Ho  Ho9  1  0.685163  0.380038  0.694875  1
  Lu  Lu10  1  0.316050  0.009284  0.693233  1
  Lu  Lu11  1  0.683950  0.990716  0.306767  1
  In  In12  1  0.500000  0.500000  0.000000  1
  Co  Co13  1  0.378824  0.000000  0.378824  1
  Co  Co14  1  0.621176  0.000000  0.621176  1
  Co  Co15  1  0.112422  0.613540  0.501117  1
  Co  Co16  1  0.887578  0.386460  0.498883  1
  Pd  Pd17  1  0.000000  0.000000  0.000000  1
