# generated using pymatgen
data_TbHo4Bi(SbO7)2
_symmetry_space_group_name_H-M   'P 1'
_cell_length_a   6.48699632
_cell_length_b   6.48699616
_cell_length_c   7.54803906
_cell_angle_alpha   90.13657944
_cell_angle_beta   89.86342038
_cell_angle_gamma   108.99269282
_symmetry_Int_Tables_number   1
_chemical_formula_structural   TbHo4Bi(SbO7)2
_chemical_formula_sum   'Tb1 Ho4 Bi1 Sb2 O14'
_cell_volume   300.33690607
_cell_formula_units_Z   1
loop_
 _symmetry_equiv_pos_site_id
 _symmetry_equiv_pos_as_xyz
  1  'x, y, z'
loop_
 _atom_site_type_symbol
 _atom_site_label
 _atom_site_symmetry_multiplicity
 _atom_site_fract_x
 _atom_site_fract_y
 _atom_site_fract_z
 _atom_site_occupancy
  Tb  Tb0  1  0.500000  0.500000  0.000000  1
  Ho  Ho1  1  0.532388  0.000215  0.751429  1
  Ho  Ho2  1  0.000215  0.532388  0.248571  1
  Ho  Ho3  1  0.467612  0.999785  0.248571  1
  Ho  Ho4  1  0.999785  0.467612  0.751429  1
  Bi  Bi5  1  0.500000  0.500000  0.500000  1
  Sb  Sb6  1  0.000000  0.000000  0.500000  1
  Sb  Sb7  1  0.000000  0.000000  0.000000  1
  O  O8  1  0.679329  0.934755  0.469276  1
  O  O9  1  0.934755  0.679329  0.530724  1
  O  O10  1  0.678147  0.928873  0.029830  1
  O  O11  1  0.928873  0.678147  0.970170  1
  O  O12  1  0.320671  0.065245  0.530724  1
  O  O13  1  0.065245  0.320671  0.469276  1
  O  O14  1  0.321853  0.071127  0.970170  1
  O  O15  1  0.071127  0.321853  0.029830  1
  O  O16  1  0.930076  0.069924  0.749977  1
  O  O17  1  0.069924  0.930076  0.250023  1
  O  O18  1  0.365025  0.634975  0.757962  1
  O  O19  1  0.634975  0.365025  0.242038  1
  O  O20  1  0.640588  0.359412  0.756640  1
  O  O21  1  0.359412  0.640588  0.243360  1
