# generated using pymatgen
data_Li3Sm2Gd(WO6)2
_symmetry_space_group_name_H-M   'P 1'
_cell_length_a   10.82464814
_cell_length_b   10.81536740
_cell_length_c   10.81979547
_cell_angle_alpha   109.46114530
_cell_angle_beta   109.49589472
_cell_angle_gamma   109.45742469
_symmetry_Int_Tables_number   1
_chemical_formula_structural   Li3Sm2Gd(WO6)2
_chemical_formula_sum   'Li12 Sm8 Gd4 W8 O48'
_cell_volume   975.09713007
_cell_formula_units_Z   4
loop_
 _symmetry_equiv_pos_site_id
 _symmetry_equiv_pos_as_xyz
  1  'x, y, z'
loop_
 _atom_site_type_symbol
 _atom_site_label
 _atom_site_symmetry_multiplicity
 _atom_site_fract_x
 _atom_site_fract_y
 _atom_site_fract_z
 _atom_site_occupancy
  Li  Li0  1  0.749877  0.374905  0.125133  1
  Li  Li1  1  0.875256  0.750227  0.125133  1
  Li  Li2  1  0.125135  0.374954  0.249925  1
  Li  Li3  1  0.624790  0.874971  0.249925  1
  Li  Li4  1  0.249912  0.124634  0.374416  1
  Li  Li5  1  0.624505  0.249782  0.374416  1
  Li  Li6  1  0.374988  0.749948  0.624814  1
  Li  Li7  1  0.749826  0.874865  0.624815  1
  Li  Li8  1  0.374982  0.125041  0.750181  1
  Li  Li9  1  0.875198  0.625141  0.750181  1
  Li  Li10  1  0.125472  0.250160  0.875537  1
  Li  Li11  1  0.250065  0.625376  0.875537  1
  Sm  Sm12  1  0.125338  0.749978  0.374614  1
  Sm  Sm13  1  0.749277  0.624637  0.374615  1
  Sm  Sm14  1  0.875028  0.249824  0.624524  1
  Sm  Sm15  1  0.249496  0.374700  0.624525  1
  Sm  Sm16  1  0.624978  0.374978  0.749956  1
  Sm  Sm17  1  0.125325  0.875325  0.750650  1
  Sm  Sm18  1  0.750223  0.125080  0.875408  1
  Sm  Sm19  1  0.625186  0.750328  0.875408  1
  Gd  Gd20  1  0.374904  0.250105  0.125218  1
  Gd  Gd21  1  0.250314  0.875113  0.125218  1
  Gd  Gd22  1  0.875109  0.125109  0.250217  1
  Gd  Gd23  1  0.374864  0.624865  0.249729  1
  W  W24  1  0.000755  0.000344  0.001112  1
  W  W25  1  0.000737  0.500498  0.000150  1
  W  W26  1  0.499413  0.499652  0.000150  1
  W  W27  1  0.500358  0.000768  0.001112  1
  W  W28  1  0.499885  0.999473  0.499279  1
  W  W29  1  0.999619  0.499611  0.499474  1
  W  W30  1  0.999855  0.999863  0.499474  1
  W  W31  1  0.499394  0.499806  0.499279  1
  O  O32  1  0.327250  0.407874  0.026172  1
  O  O33  1  0.198920  0.618298  0.026172  1
  O  O34  1  0.698313  0.173084  0.081798  1
  O  O35  1  0.883486  0.908715  0.081799  1
  O  O36  1  0.618338  0.920328  0.092980  1
  O  O37  1  0.974644  0.172652  0.092980  1
  O  O38  1  0.591254  0.418363  0.116741  1
  O  O39  1  0.025486  0.698378  0.116741  1
  O  O40  1  0.199147  0.080755  0.172931  1
  O  O41  1  0.473786  0.092177  0.172932  1
  O  O42  1  0.118511  0.525772  0.198262  1
  O  O43  1  0.579751  0.672489  0.198262  1
  O  O44  1  0.327104  0.419273  0.300939  1
  O  O45  1  0.473834  0.881666  0.300939  1
  O  O46  1  0.908121  0.525079  0.326954  1
  O  O47  1  0.918834  0.801876  0.326954  1
  O  O48  1  0.579657  0.407268  0.381501  1
  O  O49  1  0.301844  0.974234  0.381502  1
  O  O50  1  0.827410  0.025665  0.407231  1
  O  O51  1  0.079821  0.381566  0.407231  1
  O  O52  1  0.826894  0.301567  0.418285  1
  O  O53  1  0.091391  0.116719  0.418286  1
  O  O54  1  0.591215  0.672847  0.474482  1
  O  O55  1  0.383266  0.801636  0.474482  1
  O  O56  1  0.616765  0.197527  0.524566  1
  O  O57  1  0.407801  0.327039  0.524566  1
  O  O58  1  0.172807  0.697441  0.580754  1
  O  O59  1  0.907946  0.883313  0.580754  1
  O  O60  1  0.918887  0.616610  0.591757  1
  O  O61  1  0.172870  0.975147  0.591758  1
  O  O62  1  0.697734  0.024813  0.616578  1
  O  O63  1  0.418845  0.591765  0.616578  1
  O  O64  1  0.080880  0.197684  0.672713  1
  O  O65  1  0.091832  0.475029  0.672713  1
  O  O66  1  0.524403  0.116386  0.697107  1
  O  O67  1  0.672704  0.580720  0.697107  1
  O  O68  1  0.418881  0.327121  0.802242  1
  O  O69  1  0.883362  0.475121  0.802242  1
  O  O70  1  0.803085  0.919426  0.827492  1
  O  O71  1  0.524407  0.908066  0.827493  1
  O  O72  1  0.975401  0.302397  0.883298  1
  O  O73  1  0.407897  0.580901  0.883299  1
  O  O74  1  0.383516  0.081700  0.908854  1
  O  O75  1  0.025337  0.827154  0.908855  1
  O  O76  1  0.118299  0.092901  0.920629  1
  O  O77  1  0.302330  0.827727  0.920629  1
  O  O78  1  0.802977  0.383588  0.975668  1
  O  O79  1  0.672692  0.592079  0.975668  1
