# generated using pymatgen
data_Tb7Tm13Si15Os
_symmetry_space_group_name_H-M   'P 1'
_cell_length_a   7.33227000
_cell_length_b   7.69225783
_cell_length_c   14.42917123
_cell_angle_alpha   89.96206219
_cell_angle_beta   89.97192003
_cell_angle_gamma   90.05311740
_symmetry_Int_Tables_number   1
_chemical_formula_structural   Tb7Tm13Si15Os
_chemical_formula_sum   'Tb7 Tm13 Si15 Os1'
_cell_volume   813.82932471
_cell_formula_units_Z   1
loop_
 _symmetry_equiv_pos_site_id
 _symmetry_equiv_pos_as_xyz
  1  'x, y, z'
loop_
 _atom_site_type_symbol
 _atom_site_label
 _atom_site_symmetry_multiplicity
 _atom_site_fract_x
 _atom_site_fract_y
 _atom_site_fract_z
 _atom_site_occupancy
  Tb  Tb0  1  0.023593  0.819872  0.903105  1
  Tb  Tb1  1  0.475995  0.317059  0.097107  1
  Tb  Tb2  1  0.975833  0.181202  0.403128  1
  Tb  Tb3  1  0.476293  0.317356  0.403642  1
  Tb  Tb4  1  0.976540  0.181079  0.097130  1
  Tb  Tb5  1  0.520520  0.671856  0.903350  1
  Tb  Tb6  1  0.023836  0.819559  0.596456  1
  Tm  Tm7  1  0.670472  0.185759  0.625890  1
  Tm  Tm8  1  0.191522  0.325851  0.873191  1
  Tm  Tm9  1  0.319501  0.820134  0.124376  1
  Tm  Tm10  1  0.817666  0.676116  0.375939  1
  Tm  Tm11  1  0.319805  0.819861  0.375943  1
  Tm  Tm12  1  0.817857  0.676438  0.124150  1
  Tm  Tm13  1  0.670083  0.185718  0.873645  1
  Tm  Tm14  1  0.192388  0.326447  0.626126  1
  Tm  Tm15  1  0.521361  0.671702  0.597975  1
  Tm  Tm16  1  0.840845  0.510194  0.749737  1
  Tm  Tm17  1  0.354046  0.990674  0.749653  1
  Tm  Tm18  1  0.151150  0.486761  0.250109  1
  Tm  Tm19  1  0.651192  0.011774  0.250135  1
  Si  Si20  1  0.648254  0.967873  0.461452  1
  Si  Si21  1  0.149901  0.530139  0.039703  1
  Si  Si22  1  0.347139  0.025929  0.961467  1
  Si  Si23  1  0.852998  0.471472  0.539245  1
  Si  Si24  1  0.348106  0.023741  0.539233  1
  Si  Si25  1  0.854525  0.470149  0.960971  1
  Si  Si26  1  0.648240  0.969235  0.038888  1
  Si  Si27  1  0.149077  0.529984  0.460038  1
  Si  Si28  1  0.979571  0.104056  0.749654  1
  Si  Si29  1  0.522538  0.607733  0.250168  1
  Si  Si30  1  0.020516  0.890936  0.250070  1
  Si  Si31  1  0.737513  0.875613  0.749569  1
  Si  Si32  1  0.228613  0.633948  0.749389  1
  Si  Si33  1  0.270645  0.128684  0.250249  1
  Si  Si34  1  0.772457  0.370436  0.250061  1
  Os  Os35  1  0.479404  0.404660  0.749056  1
