# generated using pymatgen
data_Hf16Co3Ir5
_symmetry_space_group_name_H-M   'P 1'
_cell_length_a   8.60832483
_cell_length_b   8.64822527
_cell_length_c   8.64822500
_cell_angle_alpha   59.99999722
_cell_angle_beta   59.84655053
_cell_angle_gamma   59.84654962
_symmetry_Int_Tables_number   1
_chemical_formula_structural   Hf16Co3Ir5
_chemical_formula_sum   'Hf16 Co3 Ir5'
_cell_volume   454.19924670
_cell_formula_units_Z   1
loop_
 _symmetry_equiv_pos_site_id
 _symmetry_equiv_pos_as_xyz
  1  'x, y, z'
loop_
 _atom_site_type_symbol
 _atom_site_label
 _atom_site_symmetry_multiplicity
 _atom_site_fract_x
 _atom_site_fract_y
 _atom_site_fract_z
 _atom_site_occupancy
  Hf  Hf0  1  0.058655  0.647115  0.647115  1
  Hf  Hf1  1  0.647504  0.078835  0.636831  1
  Hf  Hf2  1  0.647504  0.636831  0.078835  1
  Hf  Hf3  1  0.647504  0.636831  0.636831  1
  Hf  Hf4  1  0.806865  0.804431  0.194352  1
  Hf  Hf5  1  0.191800  0.205123  0.801539  1
  Hf  Hf6  1  0.806865  0.194352  0.804431  1
  Hf  Hf7  1  0.191800  0.801539  0.205123  1
  Hf  Hf8  1  0.191800  0.801539  0.801539  1
  Hf  Hf9  1  0.806865  0.194352  0.194352  1
  Hf  Hf10  1  0.440206  0.435798  0.061998  1
  Hf  Hf11  1  0.067770  0.062869  0.434680  1
  Hf  Hf12  1  0.440206  0.061998  0.435798  1
  Hf  Hf13  1  0.067770  0.434680  0.062869  1
  Hf  Hf14  1  0.067770  0.434680  0.434680  1
  Hf  Hf15  1  0.440206  0.061998  0.061998  1
  Co  Co16  1  0.850720  0.429412  0.859934  1
  Co  Co17  1  0.850720  0.859934  0.429412  1
  Co  Co18  1  0.850720  0.859934  0.859934  1
  Ir  Ir19  1  0.755342  0.414886  0.414886  1
  Ir  Ir20  1  0.412479  0.753359  0.417080  1
  Ir  Ir21  1  0.412479  0.417080  0.753359  1
  Ir  Ir22  1  0.412479  0.417080  0.417080  1
  Ir  Ir23  1  0.433971  0.855343  0.855343  1
