# generated using pymatgen
data_TbNd3Ge4F28
_symmetry_space_group_name_H-M   'P 1'
_cell_length_a   5.52367515
_cell_length_b   8.95587607
_cell_length_c   11.98870900
_cell_angle_alpha   61.94700746
_cell_angle_beta   89.94939128
_cell_angle_gamma   89.96864381
_symmetry_Int_Tables_number   1
_chemical_formula_structural   TbNd3Ge4F28
_chemical_formula_sum   'Tb1 Nd3 Ge4 F28'
_cell_volume   523.39499207
_cell_formula_units_Z   1
loop_
 _symmetry_equiv_pos_site_id
 _symmetry_equiv_pos_as_xyz
  1  'x, y, z'
loop_
 _atom_site_type_symbol
 _atom_site_label
 _atom_site_symmetry_multiplicity
 _atom_site_fract_x
 _atom_site_fract_y
 _atom_site_fract_z
 _atom_site_occupancy
  Tb  Tb0  1  0.237940  0.808280  0.763798  1
  Nd  Nd1  1  0.259869  0.807829  0.263568  1
  Nd  Nd2  1  0.740428  0.188949  0.736073  1
  Nd  Nd3  1  0.760002  0.191043  0.235957  1
  Ge  Ge4  1  0.756900  0.725208  0.038498  1
  Ge  Ge5  1  0.243064  0.278281  0.956226  1
  Ge  Ge6  1  0.255759  0.271710  0.459610  1
  Ge  Ge7  1  0.740667  0.726473  0.545484  1
  F  F8  1  0.934234  0.708799  0.428215  1
  F  F9  1  0.071001  0.291214  0.578554  1
  F  F10  1  0.430249  0.294177  0.075586  1
  F  F11  1  0.565469  0.708249  0.920895  1
  F  F12  1  0.488504  0.728025  0.127381  1
  F  F13  1  0.513541  0.271978  0.870400  1
  F  F14  1  0.983184  0.269825  0.373795  1
  F  F15  1  0.007307  0.730327  0.635498  1
  F  F16  1  0.945936  0.737790  0.160692  1
  F  F17  1  0.058765  0.264799  0.833549  1
  F  F18  1  0.438999  0.259491  0.336036  1
  F  F19  1  0.546877  0.742467  0.665479  1
  F  F20  1  0.769428  0.495575  0.131763  1
  F  F21  1  0.234900  0.509444  0.863356  1
  F  F22  1  0.266239  0.502423  0.366725  1
  F  F23  1  0.730155  0.496739  0.637935  1
  F  F24  1  0.964615  0.287451  0.036693  1
  F  F25  1  0.034800  0.716792  0.955640  1
  F  F26  1  0.466011  0.716535  0.462200  1
  F  F27  1  0.535688  0.282652  0.538759  1
  F  F28  1  0.737726  0.956524  0.454938  1
  F  F29  1  0.260336  0.041274  0.549356  1
  F  F30  1  0.237382  0.047143  0.046023  1
  F  F31  1  0.761939  0.955742  0.951542  1
  F  F32  1  0.607227  0.963690  0.225425  1
  F  F33  1  0.399092  0.024602  0.772676  1
  F  F34  1  0.106350  0.035386  0.273894  1
  F  F35  1  0.909417  0.963115  0.727788  1
