# generated using pymatgen
data_Zr9Ti7(Si4W)4
_symmetry_space_group_name_H-M   'P 1'
_cell_length_a   6.82082789
_cell_length_b   6.81890374
_cell_length_c   12.56747985
_cell_angle_alpha   90.14626969
_cell_angle_beta   89.85927417
_cell_angle_gamma   90.00723735
_symmetry_Int_Tables_number   1
_chemical_formula_structural   Zr9Ti7(Si4W)4
_chemical_formula_sum   'Zr9 Ti7 Si16 W4'
_cell_volume   584.51696388
_cell_formula_units_Z   1
loop_
 _symmetry_equiv_pos_site_id
 _symmetry_equiv_pos_as_xyz
  1  'x, y, z'
loop_
 _atom_site_type_symbol
 _atom_site_label
 _atom_site_symmetry_multiplicity
 _atom_site_fract_x
 _atom_site_fract_y
 _atom_site_fract_z
 _atom_site_occupancy
  Zr  Zr0  1  0.152854  0.001932  0.873982  1
  Zr  Zr1  1  0.002475  0.658449  0.032173  1
  Zr  Zr2  1  0.996441  0.341864  0.528700  1
  Zr  Zr3  1  0.657583  0.002875  0.969878  1
  Zr  Zr4  1  0.158449  0.498228  0.779897  1
  Zr  Zr5  1  0.841509  0.502942  0.280544  1
  Zr  Zr6  1  0.499414  0.159990  0.221284  1
  Zr  Zr7  1  0.501639  0.840880  0.718159  1
  Zr  Zr8  1  0.341384  0.997687  0.469119  1
  Ti  Ti9  1  0.346675  0.505479  0.375910  1
  Ti  Ti10  1  0.846639  0.995228  0.373960  1
  Ti  Ti11  1  0.006495  0.153201  0.125589  1
  Ti  Ti12  1  0.993924  0.847255  0.625558  1
  Ti  Ti13  1  0.653109  0.493918  0.875893  1
  Ti  Ti14  1  0.505353  0.348574  0.622651  1
  Ti  Ti15  1  0.497260  0.651584  0.125849  1
  Si  Si16  1  0.043423  0.706097  0.435781  1
  Si  Si17  1  0.952471  0.301626  0.936641  1
  Si  Si18  1  0.705063  0.044368  0.563441  1
  Si  Si19  1  0.206201  0.455769  0.186442  1
  Si  Si20  1  0.794589  0.543135  0.684506  1
  Si  Si21  1  0.461234  0.207871  0.812194  1
  Si  Si22  1  0.544411  0.794509  0.314766  1
  Si  Si23  1  0.298860  0.953973  0.069256  1
  Si  Si24  1  0.858237  0.788816  0.820674  1
  Si  Si25  1  0.131626  0.207011  0.322938  1
  Si  Si26  1  0.793665  0.869183  0.177775  1
  Si  Si27  1  0.291707  0.632005  0.572254  1
  Si  Si28  1  0.707244  0.367261  0.073778  1
  Si  Si29  1  0.631360  0.293060  0.426680  1
  Si  Si30  1  0.370976  0.698892  0.930432  1
  Si  Si31  1  0.207944  0.134542  0.672665  1
  W  W32  1  0.667934  0.668746  0.499601  1
  W  W33  1  0.829276  0.170727  0.748204  1
  W  W34  1  0.168776  0.830935  0.251433  1
  W  W35  1  0.333801  0.331383  0.001399  1
