# generated using pymatgen
data_Sc4MnB12Ru
_symmetry_space_group_name_H-M   'P 1'
_cell_length_a   3.42671900
_cell_length_b   8.84443323
_cell_length_c   11.15181217
_cell_angle_alpha   90.01319952
_cell_angle_beta   90.00000000
_cell_angle_gamma   90.00000000
_symmetry_Int_Tables_number   1
_chemical_formula_structural   Sc4MnB12Ru
_chemical_formula_sum   'Sc8 Mn2 B24 Ru2'
_cell_volume   337.98228253
_cell_formula_units_Z   2
loop_
 _symmetry_equiv_pos_site_id
 _symmetry_equiv_pos_as_xyz
  1  'x, y, z'
loop_
 _atom_site_type_symbol
 _atom_site_label
 _atom_site_symmetry_multiplicity
 _atom_site_fract_x
 _atom_site_fract_y
 _atom_site_fract_z
 _atom_site_occupancy
  Sc  Sc0  1  0.000000  0.816726  0.088361  1
  Sc  Sc1  1  0.000000  0.183274  0.911639  1
  Sc  Sc2  1  0.000000  0.324962  0.416655  1
  Sc  Sc3  1  0.000000  0.675038  0.583345  1
  Sc  Sc4  1  0.000000  0.445772  0.130551  1
  Sc  Sc5  1  0.000000  0.554228  0.869449  1
  Sc  Sc6  1  0.000000  0.940460  0.371631  1
  Sc  Sc7  1  0.000000  0.059540  0.628369  1
  Mn  Mn8  1  0.000000  0.638953  0.319680  1
  Mn  Mn9  1  0.000000  0.361047  0.680320  1
  B  B10  1  0.500000  0.053082  0.064992  1
  B  B11  1  0.500000  0.946918  0.935008  1
  B  B12  1  0.500000  0.553870  0.433919  1
  B  B13  1  0.500000  0.446130  0.566081  1
  B  B14  1  0.500000  0.252682  0.079013  1
  B  B15  1  0.500000  0.747318  0.920987  1
  B  B16  1  0.500000  0.749608  0.419544  1
  B  B17  1  0.500000  0.250392  0.580456  1
  B  B18  1  0.500000  0.295265  0.237146  1
  B  B19  1  0.500000  0.704735  0.762854  1
  B  B20  1  0.500000  0.791862  0.264809  1
  B  B21  1  0.500000  0.208138  0.735191  1
  B  B22  1  0.500000  0.130205  0.318267  1
  B  B23  1  0.500000  0.869795  0.681733  1
  B  B24  1  0.500000  0.630008  0.184339  1
  B  B25  1  0.500000  0.369992  0.815661  1
  B  B26  1  0.500000  0.482390  0.288722  1
  B  B27  1  0.500000  0.517610  0.711278  1
  B  B28  1  0.500000  0.978393  0.212952  1
  B  B29  1  0.500000  0.021607  0.787048  1
  B  B30  1  0.500000  0.100689  0.472879  1
  B  B31  1  0.500000  0.899311  0.527121  1
  B  B32  1  0.500000  0.600305  0.027819  1
  B  B33  1  0.500000  0.399695  0.972181  1
  Ru  Ru34  1  0.000000  0.138889  0.179799  1
  Ru  Ru35  1  0.000000  0.861111  0.820201  1
