# generated using pymatgen
data_Tb3LuHf2(SnRh)6
_symmetry_space_group_name_H-M   'P 1'
_cell_length_a   7.51197703
_cell_length_b   7.46724463
_cell_length_c   7.58966300
_cell_angle_alpha   90.00000000
_cell_angle_beta   90.00000000
_cell_angle_gamma   119.80776253
_symmetry_Int_Tables_number   1
_chemical_formula_structural   Tb3LuHf2(SnRh)6
_chemical_formula_sum   'Tb3 Lu1 Hf2 Sn6 Rh6'
_cell_volume   369.40755827
_cell_formula_units_Z   1
loop_
 _symmetry_equiv_pos_site_id
 _symmetry_equiv_pos_as_xyz
  1  'x, y, z'
loop_
 _atom_site_type_symbol
 _atom_site_label
 _atom_site_symmetry_multiplicity
 _atom_site_fract_x
 _atom_site_fract_y
 _atom_site_fract_z
 _atom_site_occupancy
  Tb  Tb0  1  0.000087  0.404187  0.250000  1
  Tb  Tb1  1  0.589466  0.593295  0.250000  1
  Tb  Tb2  1  0.410488  0.003715  0.250000  1
  Lu  Lu3  1  0.000516  0.401534  0.750000  1
  Hf  Hf4  1  0.605561  0.601435  0.750000  1
  Hf  Hf5  1  0.393900  0.995005  0.750000  1
  Sn  Sn6  1  0.263056  0.263694  0.509886  1
  Sn  Sn7  1  0.999604  0.733622  0.499777  1
  Sn  Sn8  1  0.999604  0.733622  0.000223  1
  Sn  Sn9  1  0.737054  0.001215  0.509956  1
  Sn  Sn10  1  0.737054  0.001215  0.990044  1
  Sn  Sn11  1  0.263056  0.263694  0.990114  1
  Rh  Rh12  1  0.342053  0.674094  0.532800  1
  Rh  Rh13  1  0.658164  0.332242  0.533854  1
  Rh  Rh14  1  0.342053  0.674094  0.967200  1
  Rh  Rh15  1  0.000032  0.988470  0.750000  1
  Rh  Rh16  1  0.000090  0.002628  0.250000  1
  Rh  Rh17  1  0.658164  0.332242  0.966146  1
