# generated using pymatgen
data_HoScCo12Si4P3
_symmetry_space_group_name_H-M   'P 1'
_cell_length_a   9.03855300
_cell_length_b   9.03855231
_cell_length_c   3.55487800
_cell_angle_alpha   90.00000000
_cell_angle_beta   90.00000000
_cell_angle_gamma   119.99999888
_symmetry_Int_Tables_number   1
_chemical_formula_structural   HoScCo12Si4P3
_chemical_formula_sum   'Ho1 Sc1 Co12 Si4 P3'
_cell_volume   251.50876345
_cell_formula_units_Z   1
loop_
 _symmetry_equiv_pos_site_id
 _symmetry_equiv_pos_as_xyz
  1  'x, y, z'
loop_
 _atom_site_type_symbol
 _atom_site_label
 _atom_site_symmetry_multiplicity
 _atom_site_fract_x
 _atom_site_fract_y
 _atom_site_fract_z
 _atom_site_occupancy
  Ho  Ho0  1  0.666667  0.333333  0.000000  1
  Sc  Sc1  1  0.000000  0.000000  0.500000  1
  Co  Co2  1  0.769151  0.046088  0.000000  1
  Co  Co3  1  0.953912  0.723063  0.000000  1
  Co  Co4  1  0.276937  0.230849  0.000000  1
  Co  Co5  1  0.486226  0.539484  0.000000  1
  Co  Co6  1  0.460516  0.946742  0.000000  1
  Co  Co7  1  0.053258  0.513774  0.000000  1
  Co  Co8  1  0.715573  0.610219  0.500000  1
  Co  Co9  1  0.389781  0.105355  0.500000  1
  Co  Co10  1  0.894645  0.284427  0.500000  1
  Co  Co11  1  0.570073  0.798410  0.500000  1
  Co  Co12  1  0.201590  0.771665  0.500000  1
  Co  Co13  1  0.228335  0.429927  0.500000  1
  Si  Si14  1  0.738781  0.783519  0.000000  1
  Si  Si15  1  0.216481  0.955262  0.000000  1
  Si  Si16  1  0.044738  0.261219  0.000000  1
  Si  Si17  1  0.333333  0.666667  0.000000  1
  P  P18  1  0.443345  0.375144  0.500000  1
  P  P19  1  0.624856  0.068200  0.500000  1
  P  P20  1  0.931800  0.556655  0.500000  1
