# generated using pymatgen
data_CeInAg5
_symmetry_space_group_name_H-M   'P 1'
_cell_length_a   5.70401300
_cell_length_b   9.13551800
_cell_length_c   11.79232000
_cell_angle_alpha   90.00000000
_cell_angle_beta   90.00000000
_cell_angle_gamma   90.00000000
_symmetry_Int_Tables_number   1
_chemical_formula_structural   CeInAg5
_chemical_formula_sum   'Ce4 In4 Ag20'
_cell_volume   614.48734053
_cell_formula_units_Z   4
loop_
 _symmetry_equiv_pos_site_id
 _symmetry_equiv_pos_as_xyz
  1  'x, y, z'
loop_
 _atom_site_type_symbol
 _atom_site_label
 _atom_site_symmetry_multiplicity
 _atom_site_fract_x
 _atom_site_fract_y
 _atom_site_fract_z
 _atom_site_occupancy
  Ce  Ce0  1  0.750000  0.739378  0.439285  1
  Ce  Ce1  1  0.250000  0.260622  0.560715  1
  Ce  Ce2  1  0.250000  0.760622  0.939285  1
  Ce  Ce3  1  0.750000  0.239378  0.060715  1
  In  In4  1  0.750000  0.862391  0.136208  1
  In  In5  1  0.250000  0.137609  0.863792  1
  In  In6  1  0.250000  0.637609  0.636208  1
  In  In7  1  0.750000  0.362391  0.363792  1
  Ag  Ag8  1  0.484154  0.928673  0.690557  1
  Ag  Ag9  1  0.515846  0.071327  0.309443  1
  Ag  Ag10  1  0.515846  0.571327  0.190557  1
  Ag  Ag11  1  0.984154  0.071327  0.309443  1
  Ag  Ag12  1  0.484154  0.428673  0.809443  1
  Ag  Ag13  1  0.015846  0.928673  0.690557  1
  Ag  Ag14  1  0.015846  0.428673  0.809443  1
  Ag  Ag15  1  0.984154  0.571327  0.190557  1
  Ag  Ag16  1  0.750000  0.590943  0.984291  1
  Ag  Ag17  1  0.250000  0.409057  0.015709  1
  Ag  Ag18  1  0.250000  0.909057  0.484291  1
  Ag  Ag19  1  0.750000  0.090943  0.515709  1
  Ag  Ag20  1  0.750000  0.941271  0.913782  1
  Ag  Ag21  1  0.250000  0.058729  0.086218  1
  Ag  Ag22  1  0.250000  0.558729  0.413782  1
  Ag  Ag23  1  0.750000  0.441271  0.586218  1
  Ag  Ag24  1  0.750000  0.687254  0.751303  1
  Ag  Ag25  1  0.250000  0.312746  0.248697  1
  Ag  Ag26  1  0.250000  0.812746  0.251303  1
  Ag  Ag27  1  0.750000  0.187254  0.748697  1
