# generated using pymatgen
data_Ce2DyEr2Ir3
_symmetry_space_group_name_H-M   'P 1'
_cell_length_a   11.01345500
_cell_length_b   10.96588800
_cell_length_c   6.31055900
_cell_angle_alpha   90.00000000
_cell_angle_beta   90.00000000
_cell_angle_gamma   90.00000000
_symmetry_Int_Tables_number   1
_chemical_formula_structural   Ce2DyEr2Ir3
_chemical_formula_sum   'Ce8 Dy4 Er8 Ir12'
_cell_volume   762.14081321
_cell_formula_units_Z   4
loop_
 _symmetry_equiv_pos_site_id
 _symmetry_equiv_pos_as_xyz
  1  'x, y, z'
loop_
 _atom_site_type_symbol
 _atom_site_label
 _atom_site_symmetry_multiplicity
 _atom_site_fract_x
 _atom_site_fract_y
 _atom_site_fract_z
 _atom_site_occupancy
  Ce  Ce0  1  0.591918  0.791914  0.883825  1
  Ce  Ce1  1  0.591918  0.208086  0.383825  1
  Ce  Ce2  1  0.408082  0.791914  0.383825  1
  Ce  Ce3  1  0.408082  0.208086  0.883825  1
  Ce  Ce4  1  0.207310  0.408511  0.616404  1
  Ce  Ce5  1  0.207310  0.591489  0.116404  1
  Ce  Ce6  1  0.792690  0.408511  0.116404  1
  Ce  Ce7  1  0.792690  0.591489  0.616404  1
  Dy  Dy8  1  0.286644  0.088095  0.377635  1
  Dy  Dy9  1  0.286644  0.911905  0.877635  1
  Dy  Dy10  1  0.713356  0.088095  0.877635  1
  Dy  Dy11  1  0.713356  0.911905  0.377635  1
  Er  Er12  1  0.913656  0.711906  0.120602  1
  Er  Er13  1  0.913656  0.288094  0.620602  1
  Er  Er14  1  0.086344  0.711906  0.620602  1
  Er  Er15  1  0.086344  0.288094  0.120602  1
  Er  Er16  1  0.000000  0.000000  0.499402  1
  Er  Er17  1  0.000000  0.000000  0.999402  1
  Er  Er18  1  0.500000  0.500000  0.003576  1
  Er  Er19  1  0.500000  0.500000  0.503576  1
  Ir  Ir20  1  0.849627  0.153654  0.249726  1
  Ir  Ir21  1  0.849627  0.846346  0.749726  1
  Ir  Ir22  1  0.150373  0.153654  0.749726  1
  Ir  Ir23  1  0.150373  0.846346  0.249726  1
  Ir  Ir24  1  0.655927  0.345430  0.750993  1
  Ir  Ir25  1  0.655927  0.654570  0.250993  1
  Ir  Ir26  1  0.344073  0.345430  0.250993  1
  Ir  Ir27  1  0.344073  0.654570  0.750993  1
  Ir  Ir28  1  0.500000  0.000000  0.118600  1
  Ir  Ir29  1  0.500000  0.000000  0.618600  1
  Ir  Ir30  1  0.000000  0.500000  0.880050  1
  Ir  Ir31  1  0.000000  0.500000  0.380050  1
