# generated using pymatgen
data_Zr2SiB2Ru5
_symmetry_space_group_name_H-M   'P 1'
_cell_length_a   9.36272800
_cell_length_b   9.36272800
_cell_length_c   3.03952500
_cell_angle_alpha   90.00000000
_cell_angle_beta   90.00000000
_cell_angle_gamma   90.00000000
_symmetry_Int_Tables_number   1
_chemical_formula_structural   Zr2SiB2Ru5
_chemical_formula_sum   'Zr4 Si2 B4 Ru10'
_cell_volume   266.44681501
_cell_formula_units_Z   2
loop_
 _symmetry_equiv_pos_site_id
 _symmetry_equiv_pos_as_xyz
  1  'x, y, z'
loop_
 _atom_site_type_symbol
 _atom_site_label
 _atom_site_symmetry_multiplicity
 _atom_site_fract_x
 _atom_site_fract_y
 _atom_site_fract_z
 _atom_site_occupancy
  Zr  Zr0  1  0.675278  0.175278  0.000000  1
  Zr  Zr1  1  0.324722  0.824722  0.000000  1
  Zr  Zr2  1  0.175278  0.324722  0.000000  1
  Zr  Zr3  1  0.824722  0.675278  0.000000  1
  Si  Si4  1  0.000000  0.000000  0.000000  1
  Si  Si5  1  0.500000  0.500000  0.000000  1
  B  B6  1  0.123988  0.623988  0.000000  1
  B  B7  1  0.876012  0.376012  0.000000  1
  B  B8  1  0.623988  0.876012  0.000000  1
  B  B9  1  0.376012  0.123988  0.000000  1
  Ru  Ru10  1  0.210848  0.068364  0.500000  1
  Ru  Ru11  1  0.789152  0.931636  0.500000  1
  Ru  Ru12  1  0.068364  0.789152  0.500000  1
  Ru  Ru13  1  0.710848  0.431636  0.500000  1
  Ru  Ru14  1  0.931636  0.210848  0.500000  1
  Ru  Ru15  1  0.289152  0.568364  0.500000  1
  Ru  Ru16  1  0.568364  0.710848  0.500000  1
  Ru  Ru17  1  0.431636  0.289152  0.500000  1
  Ru  Ru18  1  0.500000  0.000000  0.500000  1
  Ru  Ru19  1  0.000000  0.500000  0.500000  1
