# generated using pymatgen
data_Sr6AcPr(Si3Pd)4
_symmetry_space_group_name_H-M   'P 1'
_cell_length_a   8.41357100
_cell_length_b   8.41357192
_cell_length_c   9.01862100
_cell_angle_alpha   90.00000000
_cell_angle_beta   90.00000000
_cell_angle_gamma   120.00000030
_symmetry_Int_Tables_number   1
_chemical_formula_structural   Sr6AcPr(Si3Pd)4
_chemical_formula_sum   'Sr6 Ac1 Pr1 Si12 Pd4'
_cell_volume   552.88084338
_cell_formula_units_Z   1
loop_
 _symmetry_equiv_pos_site_id
 _symmetry_equiv_pos_as_xyz
  1  'x, y, z'
loop_
 _atom_site_type_symbol
 _atom_site_label
 _atom_site_symmetry_multiplicity
 _atom_site_fract_x
 _atom_site_fract_y
 _atom_site_fract_z
 _atom_site_occupancy
  Sr  Sr0  1  0.499773  0.500227  0.750000  1
  Sr  Sr1  1  0.500236  0.499764  0.250000  1
  Sr  Sr2  1  0.000455  0.500227  0.750000  1
  Sr  Sr3  1  0.999528  0.499764  0.250000  1
  Sr  Sr4  1  0.499773  0.999545  0.750000  1
  Sr  Sr5  1  0.500236  0.000472  0.250000  1
  Ac  Ac6  1  0.000000  0.000000  0.750000  1
  Pr  Pr7  1  0.000000  0.000000  0.250000  1
  Si  Si8  1  0.835762  0.164238  0.003559  1
  Si  Si9  1  0.164231  0.835769  0.003855  1
  Si  Si10  1  0.328477  0.164238  0.003559  1
  Si  Si11  1  0.164231  0.835769  0.496145  1
  Si  Si12  1  0.671539  0.835769  0.003855  1
  Si  Si13  1  0.835762  0.164238  0.496441  1
  Si  Si14  1  0.835762  0.671523  0.003559  1
  Si  Si15  1  0.671539  0.835769  0.496145  1
  Si  Si16  1  0.164231  0.328461  0.003855  1
  Si  Si17  1  0.328477  0.164238  0.496441  1
  Si  Si18  1  0.164231  0.328461  0.496145  1
  Si  Si19  1  0.835762  0.671523  0.496441  1
  Pd  Pd20  1  0.666667  0.333333  0.000060  1
  Pd  Pd21  1  0.333333  0.666667  0.001819  1
  Pd  Pd22  1  0.333333  0.666667  0.498181  1
  Pd  Pd23  1  0.666667  0.333333  0.499940  1
