# generated using pymatgen
data_Mg5P12Ru9Rh10
_symmetry_space_group_name_H-M   'P 1'
_cell_length_a   12.50108600
_cell_length_b   12.50108509
_cell_length_c   3.89271000
_cell_angle_alpha   90.00000000
_cell_angle_beta   90.00000000
_cell_angle_gamma   120.00000241
_symmetry_Int_Tables_number   1
_chemical_formula_structural   Mg5P12Ru9Rh10
_chemical_formula_sum   'Mg5 P12 Ru9 Rh10'
_cell_volume   526.83925390
_cell_formula_units_Z   1
loop_
 _symmetry_equiv_pos_site_id
 _symmetry_equiv_pos_as_xyz
  1  'x, y, z'
loop_
 _atom_site_type_symbol
 _atom_site_label
 _atom_site_symmetry_multiplicity
 _atom_site_fract_x
 _atom_site_fract_y
 _atom_site_fract_z
 _atom_site_occupancy
  Mg  Mg0  1  0.000000  0.180032  0.500000  1
  Mg  Mg1  1  0.819968  0.819968  0.500000  1
  Mg  Mg2  1  0.180032  0.000000  0.500000  1
  Mg  Mg3  1  0.666667  0.333333  0.000000  1
  Mg  Mg4  1  0.333333  0.666667  0.000000  1
  P  P5  1  0.000000  0.820803  0.000000  1
  P  P6  1  0.179197  0.179197  0.000000  1
  P  P7  1  0.820803  0.000000  0.000000  1
  P  P8  1  0.686743  0.167524  0.500000  1
  P  P9  1  0.832476  0.519220  0.500000  1
  P  P10  1  0.480780  0.313257  0.500000  1
  P  P11  1  0.167524  0.686743  0.500000  1
  P  P12  1  0.519220  0.832476  0.500000  1
  P  P13  1  0.313257  0.480780  0.500000  1
  P  P14  1  0.000000  0.370941  0.000000  1
  P  P15  1  0.629059  0.629059  0.000000  1
  P  P16  1  0.370941  0.000000  0.000000  1
  Ru  Ru17  1  0.000000  0.720551  0.500000  1
  Ru  Ru18  1  0.279449  0.279449  0.500000  1
  Ru  Ru19  1  0.720551  0.000000  0.500000  1
  Ru  Ru20  1  0.869041  0.359210  0.500000  1
  Ru  Ru21  1  0.640790  0.509832  0.500000  1
  Ru  Ru22  1  0.490168  0.130959  0.500000  1
  Ru  Ru23  1  0.359210  0.869041  0.500000  1
  Ru  Ru24  1  0.509832  0.640790  0.500000  1
  Ru  Ru25  1  0.130959  0.490168  0.500000  1
  Rh  Rh26  1  0.000000  0.551769  0.000000  1
  Rh  Rh27  1  0.448231  0.448231  0.000000  1
  Rh  Rh28  1  0.551769  0.000000  0.000000  1
  Rh  Rh29  1  0.813124  0.184679  0.000000  1
  Rh  Rh30  1  0.815321  0.628446  0.000000  1
  Rh  Rh31  1  0.371554  0.186876  0.000000  1
  Rh  Rh32  1  0.184679  0.813124  0.000000  1
  Rh  Rh33  1  0.628446  0.815321  0.000000  1
  Rh  Rh34  1  0.186876  0.371554  0.000000  1
  Rh  Rh35  1  0.000000  0.000000  0.000000  1
