# generated using pymatgen
data_Cs4TiSiSe6
_symmetry_space_group_name_H-M   'P 1'
_cell_length_a   8.24814258
_cell_length_b   8.24814335
_cell_length_c   10.65398304
_cell_angle_alpha   58.88516108
_cell_angle_beta   58.88515867
_cell_angle_gamma   54.35222699
_symmetry_Int_Tables_number   1
_chemical_formula_structural   Cs4TiSiSe6
_chemical_formula_sum   'Cs4 Ti1 Si1 Se6'
_cell_volume   479.43284818
_cell_formula_units_Z   1
loop_
 _symmetry_equiv_pos_site_id
 _symmetry_equiv_pos_as_xyz
  1  'x, y, z'
loop_
 _atom_site_type_symbol
 _atom_site_label
 _atom_site_symmetry_multiplicity
 _atom_site_fract_x
 _atom_site_fract_y
 _atom_site_fract_z
 _atom_site_occupancy
  Cs  Cs0  1  0.586774  0.586774  0.131653  1
  Cs  Cs1  1  0.417849  0.417849  0.862624  1
  Cs  Cs2  1  0.807501  0.807501  0.316579  1
  Cs  Cs3  1  0.197224  0.197224  0.682128  1
  Ti  Ti4  1  0.107390  0.107390  0.333646  1
  Si  Si5  1  0.887368  0.887368  0.673412  1
  Se  Se6  1  0.112385  0.112385  0.108979  1
  Se  Se7  1  0.892891  0.892891  0.879388  1
  Se  Se8  1  0.289577  0.289577  0.273158  1
  Se  Se9  1  0.716918  0.716918  0.719671  1
  Se  Se10  1  0.236608  0.747514  0.509382  1
  Se  Se11  1  0.747514  0.236608  0.509382  1
