# generated using pymatgen
data_HoTh2Mg2InAu3
_symmetry_space_group_name_H-M   'P 1'
_cell_length_a   7.60821875
_cell_length_b   7.68860861
_cell_length_c   4.27423100
_cell_angle_alpha   90.00000000
_cell_angle_beta   90.00000000
_cell_angle_gamma   120.35014277
_symmetry_Int_Tables_number   1
_chemical_formula_structural   HoTh2Mg2InAu3
_chemical_formula_sum   'Ho1 Th2 Mg2 In1 Au3'
_cell_volume   215.76262623
_cell_formula_units_Z   1
loop_
 _symmetry_equiv_pos_site_id
 _symmetry_equiv_pos_as_xyz
  1  'x, y, z'
loop_
 _atom_site_type_symbol
 _atom_site_label
 _atom_site_symmetry_multiplicity
 _atom_site_fract_x
 _atom_site_fract_y
 _atom_site_fract_z
 _atom_site_occupancy
  Ho  Ho0  1  0.000000  0.585249  0.500000  1
  Th  Th1  1  0.413646  0.414434  0.500000  1
  Th  Th2  1  0.586354  0.000787  0.500000  1
  Mg  Mg3  1  0.760857  0.755626  0.000000  1
  Mg  Mg4  1  0.239143  0.994768  0.000000  1
  In  In5  1  0.000000  0.250213  0.000000  1
  Au  Au6  1  0.663486  0.339314  0.000000  1
  Au  Au7  1  0.336514  0.675828  0.000000  1
  Au  Au8  1  0.000000  0.983781  0.500000  1
