# generated using pymatgen
data_Cs8Ga11H
_symmetry_space_group_name_H-M   'P 1'
_cell_length_a   10.04924116
_cell_length_b   10.04924085
_cell_length_c   18.06778758
_cell_angle_alpha   89.99999958
_cell_angle_beta   106.14673279
_cell_angle_gamma   59.99999558
_symmetry_Int_Tables_number   1
_chemical_formula_structural   Cs8Ga11H
_chemical_formula_sum   'Cs16 Ga22 H2'
_cell_volume   1496.47589581
_cell_formula_units_Z   2
loop_
 _symmetry_equiv_pos_site_id
 _symmetry_equiv_pos_as_xyz
  1  'x, y, z'
loop_
 _atom_site_type_symbol
 _atom_site_label
 _atom_site_symmetry_multiplicity
 _atom_site_fract_x
 _atom_site_fract_y
 _atom_site_fract_z
 _atom_site_occupancy
  Cs  Cs0  1  0.970602  0.692673  0.067560  1
  Cs  Cs1  1  0.760234  0.336724  0.067560  1
  Cs  Cs2  1  0.404283  0.903042  0.067560  1
  Cs  Cs3  1  0.148468  0.925766  0.222702  1
  Cs  Cs4  1  0.851533  0.574234  0.277298  1
  Cs  Cs5  1  0.595717  0.807326  0.432440  1
  Cs  Cs6  1  0.239767  0.596957  0.432440  1
  Cs  Cs7  1  0.029398  0.163276  0.432440  1
  Cs  Cs8  1  0.970602  0.836724  0.567560  1
  Cs  Cs9  1  0.760234  0.403042  0.567560  1
  Cs  Cs10  1  0.404283  0.192673  0.567560  1
  Cs  Cs11  1  0.148467  0.425766  0.722702  1
  Cs  Cs12  1  0.851533  0.074233  0.777298  1
  Cs  Cs13  1  0.595717  0.096958  0.932440  1
  Cs  Cs14  1  0.239767  0.663276  0.932440  1
  Cs  Cs15  1  0.029398  0.307326  0.932440  1
  Ga  Ga16  1  0.411158  0.294421  0.116735  1
  Ga  Ga17  1  0.698051  0.026034  0.168641  1
  Ga  Ga18  1  0.444556  0.529411  0.168641  1
  Ga  Ga19  1  0.194673  0.275915  0.168641  1
  Ga  Ga20  1  0.688662  0.250001  0.250000  1
  Ga  Ga21  1  0.500000  0.061337  0.250000  1
  Ga  Ga22  1  0.311338  0.438663  0.250000  1
  Ga  Ga23  1  0.805326  0.970588  0.331359  1
  Ga  Ga24  1  0.555444  0.473967  0.331359  1
  Ga  Ga25  1  0.301949  0.224085  0.331359  1
  Ga  Ga26  1  0.588842  0.205578  0.383264  1
  Ga  Ga27  1  0.411158  0.794421  0.616736  1
  Ga  Ga28  1  0.698051  0.775915  0.668641  1
  Ga  Ga29  1  0.444556  0.526033  0.668641  1
  Ga  Ga30  1  0.194674  0.029411  0.668641  1
  Ga  Ga31  1  0.688662  0.561338  0.750000  1
  Ga  Ga32  1  0.500000  0.938662  0.750000  1
  Ga  Ga33  1  0.311338  0.750000  0.750000  1
  Ga  Ga34  1  0.805327  0.724085  0.831359  1
  Ga  Ga35  1  0.555444  0.470588  0.831359  1
  Ga  Ga36  1  0.301949  0.973966  0.831359  1
  Ga  Ga37  1  0.588842  0.705579  0.883264  1
  H  H38  1  0.000000  0.000000  0.000000  1
  H  H39  1  0.000000  0.500000  0.500000  1
