# generated using pymatgen
data_Hf18MnRe6SiMo2
_symmetry_space_group_name_H-M   'P 1'
_cell_length_a   8.59366400
_cell_length_b   8.59366371
_cell_length_c   8.56055600
_cell_angle_alpha   90.00000000
_cell_angle_beta   90.00000000
_cell_angle_gamma   120.00000112
_symmetry_Int_Tables_number   1
_chemical_formula_structural   Hf18MnRe6SiMo2
_chemical_formula_sum   'Hf18 Mn1 Re6 Si1 Mo2'
_cell_volume   547.50655547
_cell_formula_units_Z   1
loop_
 _symmetry_equiv_pos_site_id
 _symmetry_equiv_pos_as_xyz
  1  'x, y, z'
loop_
 _atom_site_type_symbol
 _atom_site_label
 _atom_site_symmetry_multiplicity
 _atom_site_fract_x
 _atom_site_fract_y
 _atom_site_fract_z
 _atom_site_occupancy
  Hf  Hf0  1  0.202629  0.797371  0.443341  1
  Hf  Hf1  1  0.202629  0.405260  0.443341  1
  Hf  Hf2  1  0.594740  0.797371  0.443341  1
  Hf  Hf3  1  0.805893  0.194107  0.547980  1
  Hf  Hf4  1  0.805893  0.611786  0.547980  1
  Hf  Hf5  1  0.388214  0.194107  0.547980  1
  Hf  Hf6  1  0.805893  0.194107  0.952020  1
  Hf  Hf7  1  0.805893  0.611786  0.952020  1
  Hf  Hf8  1  0.388214  0.194107  0.952020  1
  Hf  Hf9  1  0.202629  0.797371  0.056659  1
  Hf  Hf10  1  0.202629  0.405260  0.056659  1
  Hf  Hf11  1  0.594740  0.797371  0.056659  1
  Hf  Hf12  1  0.538939  0.461061  0.250000  1
  Hf  Hf13  1  0.538939  0.077875  0.250000  1
  Hf  Hf14  1  0.922125  0.461061  0.250000  1
  Hf  Hf15  1  0.461602  0.538398  0.750000  1
  Hf  Hf16  1  0.461602  0.923205  0.750000  1
  Hf  Hf17  1  0.076795  0.538398  0.750000  1
  Mn  Mn18  1  0.333333  0.666667  0.250000  1
  Re  Re19  1  0.888606  0.111394  0.250000  1
  Re  Re20  1  0.888606  0.777210  0.250000  1
  Re  Re21  1  0.222790  0.111394  0.250000  1
  Re  Re22  1  0.111411  0.888589  0.750000  1
  Re  Re23  1  0.111411  0.222822  0.750000  1
  Re  Re24  1  0.777178  0.888589  0.750000  1
  Si  Si25  1  0.666667  0.333333  0.750000  1
  Mo  Mo26  1  0.000000  0.000000  0.499469  1
  Mo  Mo27  1  0.000000  0.000000  0.000531  1
