# generated using pymatgen
data_Er4VSi8Tc5
_symmetry_space_group_name_H-M   'P 1'
_cell_length_a   6.79000379
_cell_length_b   6.65731076
_cell_length_c   6.78508636
_cell_angle_alpha   70.45522525
_cell_angle_beta   89.97914989
_cell_angle_gamma   90.16127864
_symmetry_Int_Tables_number   1
_chemical_formula_structural   Er4VSi8Tc5
_chemical_formula_sum   'Er4 V1 Si8 Tc5'
_cell_volume   289.03358404
_cell_formula_units_Z   1
loop_
 _symmetry_equiv_pos_site_id
 _symmetry_equiv_pos_as_xyz
  1  'x, y, z'
loop_
 _atom_site_type_symbol
 _atom_site_label
 _atom_site_symmetry_multiplicity
 _atom_site_fract_x
 _atom_site_fract_y
 _atom_site_fract_z
 _atom_site_occupancy
  Er  Er0  1  0.668820  0.440328  0.192879  1
  Er  Er1  1  0.169315  0.057918  0.809823  1
  Er  Er2  1  0.332303  0.559033  0.810056  1
  Er  Er3  1  0.831261  0.940317  0.193256  1
  V  V4  1  0.342423  0.744320  0.242990  1
  Si  Si5  1  0.450950  0.121989  0.098751  1
  Si  Si6  1  0.950778  0.379230  0.897734  1
  Si  Si7  1  0.547757  0.873809  0.903568  1
  Si  Si8  1  0.048279  0.625644  0.098432  1
  Si  Si9  1  0.861425  0.132585  0.510817  1
  Si  Si10  1  0.360732  0.368784  0.487790  1
  Si  Si11  1  0.137522  0.869938  0.490533  1
  Si  Si12  1  0.636880  0.629456  0.509585  1
  Tc  Tc13  1  0.500391  0.996480  0.496882  1
  Tc  Tc14  1  0.002414  0.502035  0.499409  1
  Tc  Tc15  1  0.156433  0.246381  0.233910  1
  Tc  Tc16  1  0.656610  0.254056  0.763746  1
  Tc  Tc17  1  0.845708  0.757696  0.759838  1
