# generated using pymatgen
data_Tb15Sm(ErPb4)4
_symmetry_space_group_name_H-M   'P 1'
_cell_length_a   8.22637918
_cell_length_b   8.30670395
_cell_length_c   15.70826898
_cell_angle_alpha   90.02184562
_cell_angle_beta   89.69211010
_cell_angle_gamma   89.91494323
_symmetry_Int_Tables_number   1
_chemical_formula_structural   Tb15Sm(ErPb4)4
_chemical_formula_sum   'Tb15 Sm1 Er4 Pb16'
_cell_volume   1073.39360456
_cell_formula_units_Z   1
loop_
 _symmetry_equiv_pos_site_id
 _symmetry_equiv_pos_as_xyz
  1  'x, y, z'
loop_
 _atom_site_type_symbol
 _atom_site_label
 _atom_site_symmetry_multiplicity
 _atom_site_fract_x
 _atom_site_fract_y
 _atom_site_fract_z
 _atom_site_occupancy
  Tb  Tb0  1  0.624049  0.157676  0.621281  1
  Tb  Tb1  1  0.121587  0.341437  0.879812  1
  Tb  Tb2  1  0.378017  0.842358  0.120887  1
  Tb  Tb3  1  0.875474  0.657780  0.378070  1
  Tb  Tb4  1  0.376152  0.842460  0.378609  1
  Tb  Tb5  1  0.878542  0.657975  0.120954  1
  Tb  Tb6  1  0.621296  0.157942  0.879409  1
  Tb  Tb7  1  0.122842  0.342032  0.621376  1
  Tb  Tb8  1  0.463623  0.675282  0.599576  1
  Tb  Tb9  1  0.960376  0.824918  0.899029  1
  Tb  Tb10  1  0.538652  0.324537  0.100673  1
  Tb  Tb11  1  0.036778  0.176550  0.399777  1
  Tb  Tb12  1  0.535519  0.324234  0.400356  1
  Tb  Tb13  1  0.038748  0.175288  0.100850  1
  Tb  Tb14  1  0.462000  0.675259  0.900422  1
  Sm  Sm15  1  0.967025  0.822325  0.598405  1
  Er  Er16  1  0.790132  0.495769  0.750542  1
  Er  Er17  1  0.290578  0.004603  0.750628  1
  Er  Er18  1  0.209465  0.504075  0.249811  1
  Er  Er19  1  0.709263  0.995743  0.249261  1
  Pb  Pb20  1  0.717454  0.967624  0.455312  1
  Pb  Pb21  1  0.220156  0.532064  0.043849  1
  Pb  Pb22  1  0.279380  0.031502  0.956623  1
  Pb  Pb23  1  0.780887  0.464719  0.542857  1
  Pb  Pb24  1  0.285008  0.037140  0.542806  1
  Pb  Pb25  1  0.779998  0.467483  0.956812  1
  Pb  Pb26  1  0.720096  0.967515  0.043392  1
  Pb  Pb27  1  0.217247  0.535045  0.456846  1
  Pb  Pb28  1  0.427414  0.374506  0.750208  1
  Pb  Pb29  1  0.927252  0.125831  0.750360  1
  Pb  Pb30  1  0.571941  0.625316  0.249678  1
  Pb  Pb31  1  0.072385  0.874542  0.249856  1
  Pb  Pb32  1  0.650003  0.844749  0.749989  1
  Pb  Pb33  1  0.152746  0.653501  0.751108  1
  Pb  Pb34  1  0.349171  0.155314  0.250330  1
  Pb  Pb35  1  0.848739  0.344909  0.250246  1
