# generated using pymatgen
data_LaEr2ThCdIr
_symmetry_space_group_name_H-M   'P 1'
_cell_length_a   9.82923593
_cell_length_b   9.83650888
_cell_length_c   9.83650969
_cell_angle_alpha   59.95109215
_cell_angle_beta   60.02445835
_cell_angle_gamma   60.02445930
_symmetry_Int_Tables_number   1
_chemical_formula_structural   LaEr2ThCdIr
_chemical_formula_sum   'La4 Er8 Th4 Cd4 Ir4'
_cell_volume   672.49077618
_cell_formula_units_Z   4
loop_
 _symmetry_equiv_pos_site_id
 _symmetry_equiv_pos_as_xyz
  1  'x, y, z'
loop_
 _atom_site_type_symbol
 _atom_site_label
 _atom_site_symmetry_multiplicity
 _atom_site_fract_x
 _atom_site_fract_y
 _atom_site_fract_z
 _atom_site_occupancy
  La  La0  1  0.815049  0.184951  0.815049  1
  La  La1  1  0.184951  0.815049  0.184951  1
  La  La2  1  0.815049  0.815049  0.184951  1
  La  La3  1  0.184951  0.184951  0.815049  1
  Er  Er4  1  0.067057  0.432943  0.432943  1
  Er  Er5  1  0.432943  0.067057  0.067057  1
  Er  Er6  1  0.435504  0.064496  0.435504  1
  Er  Er7  1  0.064496  0.435504  0.064496  1
  Er  Er8  1  0.435504  0.435504  0.064496  1
  Er  Er9  1  0.064496  0.064496  0.435504  1
  Er  Er10  1  0.197476  0.802524  0.802524  1
  Er  Er11  1  0.802524  0.197476  0.197476  1
  Th  Th12  1  0.601665  0.597900  0.597900  1
  Th  Th13  1  0.597900  0.601665  0.202534  1
  Th  Th14  1  0.597900  0.202534  0.601665  1
  Th  Th15  1  0.202534  0.597900  0.597900  1
  Cd  Cd16  1  0.835365  0.827697  0.827697  1
  Cd  Cd17  1  0.827697  0.835365  0.509239  1
  Cd  Cd18  1  0.827697  0.509239  0.835365  1
  Cd  Cd19  1  0.509239  0.827697  0.827697  1
  Ir  Ir20  1  0.396186  0.391284  0.391284  1
  Ir  Ir21  1  0.391284  0.396186  0.821247  1
  Ir  Ir22  1  0.391284  0.821247  0.396186  1
  Ir  Ir23  1  0.821247  0.391284  0.391284  1
