# generated using pymatgen
data_Pr16Dy4Si15Ru
_symmetry_space_group_name_H-M   'P 1'
_cell_length_a   7.86536447
_cell_length_b   7.83911814
_cell_length_c   15.30852236
_cell_angle_alpha   90.22839327
_cell_angle_beta   89.84713608
_cell_angle_gamma   90.15995682
_symmetry_Int_Tables_number   1
_chemical_formula_structural   Pr16Dy4Si15Ru
_chemical_formula_sum   'Pr16 Dy4 Si15 Ru1'
_cell_volume   943.87103485
_cell_formula_units_Z   1
loop_
 _symmetry_equiv_pos_site_id
 _symmetry_equiv_pos_as_xyz
  1  'x, y, z'
loop_
 _atom_site_type_symbol
 _atom_site_label
 _atom_site_symmetry_multiplicity
 _atom_site_fract_x
 _atom_site_fract_y
 _atom_site_fract_z
 _atom_site_occupancy
  Pr  Pr0  1  0.375412  0.013879  0.448009  1
  Pr  Pr1  1  0.484613  0.881532  0.695570  1
  Pr  Pr2  1  0.513485  0.121361  0.196152  1
  Pr  Pr3  1  0.878553  0.485613  0.303099  1
  Pr  Pr4  1  0.124212  0.505024  0.800451  1
  Pr  Pr5  1  0.622808  0.986977  0.945581  1
  Pr  Pr6  1  0.008893  0.380201  0.554965  1
  Pr  Pr7  1  0.986014  0.622300  0.053677  1
  Pr  Pr8  1  0.132225  0.980680  0.873741  1
  Pr  Pr9  1  0.522365  0.627670  0.127683  1
  Pr  Pr10  1  0.468724  0.362691  0.631418  1
  Pr  Pr11  1  0.625662  0.520620  0.872615  1
  Pr  Pr12  1  0.375885  0.477892  0.371852  1
  Pr  Pr13  1  0.875236  0.025938  0.378209  1
  Pr  Pr14  1  0.976619  0.125035  0.122576  1
  Pr  Pr15  1  0.029948  0.883947  0.624844  1
  Dy  Dy16  1  0.306530  0.306882  0.999292  1
  Dy  Dy17  1  0.190809  0.808163  0.250382  1
  Dy  Dy18  1  0.822781  0.189818  0.749276  1
  Dy  Dy19  1  0.693974  0.690874  0.501546  1
  Si  Si20  1  0.328195  0.687659  0.956754  1
  Si  Si21  1  0.669085  0.311816  0.458720  1
  Si  Si22  1  0.689179  0.329455  0.043773  1
  Si  Si23  1  0.311504  0.671279  0.541967  1
  Si  Si24  1  0.813307  0.827546  0.209164  1
  Si  Si25  1  0.173038  0.188826  0.291873  1
  Si  Si26  1  0.828497  0.808806  0.793297  1
  Si  Si27  1  0.285897  0.921198  0.062208  1
  Si  Si28  1  0.580457  0.785047  0.313981  1
  Si  Si29  1  0.422847  0.210969  0.815476  1
  Si  Si30  1  0.776898  0.584374  0.686470  1
  Si  Si31  1  0.213415  0.421326  0.186566  1
  Si  Si32  1  0.708368  0.074474  0.561749  1
  Si  Si33  1  0.919629  0.285393  0.937826  1
  Si  Si34  1  0.081004  0.717794  0.437105  1
  Ru  Ru35  1  0.183933  0.176936  0.702130  1
