# generated using pymatgen
data_Pa4FeSn2Rh3
_symmetry_space_group_name_H-M   'P 1'
_cell_length_a   7.61663928
_cell_length_b   7.61663928
_cell_length_c   3.58492400
_cell_angle_alpha   90.00000000
_cell_angle_beta   90.00000000
_cell_angle_gamma   90.46711528
_symmetry_Int_Tables_number   1
_chemical_formula_structural   Pa4FeSn2Rh3
_chemical_formula_sum   'Pa4 Fe1 Sn2 Rh3'
_cell_volume   207.96597970
_cell_formula_units_Z   1
loop_
 _symmetry_equiv_pos_site_id
 _symmetry_equiv_pos_as_xyz
  1  'x, y, z'
loop_
 _atom_site_type_symbol
 _atom_site_label
 _atom_site_symmetry_multiplicity
 _atom_site_fract_x
 _atom_site_fract_y
 _atom_site_fract_z
 _atom_site_occupancy
  Pa  Pa0  1  0.339983  0.171477  0.500000  1
  Pa  Pa1  1  0.671477  0.839983  0.500000  1
  Pa  Pa2  1  0.167342  0.667342  0.500000  1
  Pa  Pa3  1  0.813813  0.313813  0.500000  1
  Fe  Fe4  1  0.637362  0.137362  0.000000  1
  Sn  Sn5  1  0.999940  0.001580  0.000000  1
  Sn  Sn6  1  0.501580  0.499940  0.000000  1
  Rh  Rh7  1  0.866495  0.633192  0.000000  1
  Rh  Rh8  1  0.368815  0.868815  0.000000  1
  Rh  Rh9  1  0.133192  0.366495  0.000000  1
