# generated using pymatgen
data_LiEr16In3Pt4
_symmetry_space_group_name_H-M   'P 1'
_cell_length_a   9.59258139
_cell_length_b   9.66256795
_cell_length_c   9.59258100
_cell_angle_alpha   60.23930856
_cell_angle_beta   59.99999791
_cell_angle_gamma   60.23931319
_symmetry_Int_Tables_number   1
_chemical_formula_structural   LiEr16In3Pt4
_chemical_formula_sum   'Li1 Er16 In3 Pt4'
_cell_volume   630.97189096
_cell_formula_units_Z   1
loop_
 _symmetry_equiv_pos_site_id
 _symmetry_equiv_pos_as_xyz
  1  'x, y, z'
loop_
 _atom_site_type_symbol
 _atom_site_label
 _atom_site_symmetry_multiplicity
 _atom_site_fract_x
 _atom_site_fract_y
 _atom_site_fract_z
 _atom_site_occupancy
  Li  Li0  1  0.426975  0.719073  0.426975  1
  Er  Er1  1  0.189094  0.191167  0.809869  1
  Er  Er2  1  0.436351  0.063282  0.064016  1
  Er  Er3  1  0.436351  0.063282  0.436351  1
  Er  Er4  1  0.063797  0.435519  0.063797  1
  Er  Er5  1  0.648358  0.054926  0.648358  1
  Er  Er6  1  0.186497  0.814169  0.812837  1
  Er  Er7  1  0.064016  0.063282  0.436351  1
  Er  Er8  1  0.809869  0.191167  0.189094  1
  Er  Er9  1  0.812837  0.814169  0.186497  1
  Er  Er10  1  0.649910  0.648610  0.051569  1
  Er  Er11  1  0.649910  0.648610  0.649910  1
  Er  Er12  1  0.063797  0.435519  0.436888  1
  Er  Er13  1  0.051569  0.648610  0.649910  1
  Er  Er14  1  0.809869  0.191167  0.809869  1
  Er  Er15  1  0.436888  0.435519  0.063797  1
  Er  Er16  1  0.186497  0.814169  0.186497  1
  In  In17  1  0.416075  0.420702  0.747147  1
  In  In18  1  0.747147  0.420702  0.416075  1
  In  In19  1  0.416075  0.420702  0.416075  1
  Pt  Pt20  1  0.856795  0.429615  0.856795  1
  Pt  Pt21  1  0.856293  0.858680  0.428734  1
  Pt  Pt22  1  0.428734  0.858680  0.856293  1
  Pt  Pt23  1  0.856293  0.858680  0.856293  1
