# generated using pymatgen
data_TbNd8Ho11Pb16
_symmetry_space_group_name_H-M   'P 1'
_cell_length_a   8.27816925
_cell_length_b   8.36553805
_cell_length_c   15.79433900
_cell_angle_alpha   90.00325329
_cell_angle_beta   90.09855951
_cell_angle_gamma   90.06285468
_symmetry_Int_Tables_number   1
_chemical_formula_structural   TbNd8Ho11Pb16
_chemical_formula_sum   'Tb1 Nd8 Ho11 Pb16'
_cell_volume   1093.77685887
_cell_formula_units_Z   1
loop_
 _symmetry_equiv_pos_site_id
 _symmetry_equiv_pos_as_xyz
  1  'x, y, z'
loop_
 _atom_site_type_symbol
 _atom_site_label
 _atom_site_symmetry_multiplicity
 _atom_site_fract_x
 _atom_site_fract_y
 _atom_site_fract_z
 _atom_site_occupancy
  Tb  Tb0  1  0.131381  0.340963  0.621414  1
  Nd  Nd1  1  0.472817  0.678275  0.598269  1
  Nd  Nd2  1  0.975016  0.821896  0.902968  1
  Nd  Nd3  1  0.525788  0.322269  0.097538  1
  Nd  Nd4  1  0.026959  0.176920  0.401345  1
  Nd  Nd5  1  0.525789  0.322479  0.401711  1
  Nd  Nd6  1  0.025301  0.177711  0.097637  1
  Nd  Nd7  1  0.474991  0.678333  0.902620  1
  Nd  Nd8  1  0.973892  0.822240  0.598083  1
  Ho  Ho9  1  0.632624  0.158865  0.622523  1
  Ho  Ho10  1  0.132815  0.341623  0.877836  1
  Ho  Ho11  1  0.366888  0.841644  0.122193  1
  Ho  Ho12  1  0.867462  0.658106  0.377845  1
  Ho  Ho13  1  0.368194  0.841546  0.377150  1
  Ho  Ho14  1  0.867169  0.658434  0.122292  1
  Ho  Ho15  1  0.632860  0.158317  0.878262  1
  Ho  Ho16  1  0.798564  0.494728  0.750112  1
  Ho  Ho17  1  0.299110  0.005143  0.750124  1
  Ho  Ho18  1  0.201374  0.505262  0.249590  1
  Ho  Ho19  1  0.701438  0.995136  0.250189  1
  Pb  Pb20  1  0.707746  0.960460  0.456862  1
  Pb  Pb21  1  0.206884  0.539928  0.043105  1
  Pb  Pb22  1  0.292884  0.040322  0.956908  1
  Pb  Pb23  1  0.789889  0.461489  0.543327  1
  Pb  Pb24  1  0.293554  0.038205  0.543078  1
  Pb  Pb25  1  0.793234  0.460265  0.956736  1
  Pb  Pb26  1  0.706911  0.959657  0.043519  1
  Pb  Pb27  1  0.207559  0.540264  0.455812  1
  Pb  Pb28  1  0.436486  0.371329  0.750643  1
  Pb  Pb29  1  0.936241  0.127663  0.750549  1
  Pb  Pb30  1  0.563732  0.628563  0.249635  1
  Pb  Pb31  1  0.063427  0.871306  0.249956  1
  Pb  Pb32  1  0.663724  0.849789  0.750441  1
  Pb  Pb33  1  0.163243  0.650664  0.750459  1
  Pb  Pb34  1  0.336858  0.150499  0.249522  1
  Pb  Pb35  1  0.837193  0.349707  0.249748  1
