# generated using pymatgen
data_PrNd(Tm2Rh9)2
_symmetry_space_group_name_H-M   'P 1'
_cell_length_a   5.26896300
_cell_length_b   5.26896155
_cell_length_c   17.49462300
_cell_angle_alpha   90.00000000
_cell_angle_beta   90.00000000
_cell_angle_gamma   119.99999028
_symmetry_Int_Tables_number   1
_chemical_formula_structural   PrNd(Tm2Rh9)2
_chemical_formula_sum   'Pr1 Nd1 Tm4 Rh18'
_cell_volume   420.61566245
_cell_formula_units_Z   1
loop_
 _symmetry_equiv_pos_site_id
 _symmetry_equiv_pos_as_xyz
  1  'x, y, z'
loop_
 _atom_site_type_symbol
 _atom_site_label
 _atom_site_symmetry_multiplicity
 _atom_site_fract_x
 _atom_site_fract_y
 _atom_site_fract_z
 _atom_site_occupancy
  Pr  Pr0  1  0.333333  0.666667  0.750000  1
  Nd  Nd1  1  0.666667  0.333333  0.250000  1
  Tm  Tm2  1  0.333333  0.666667  0.541145  1
  Tm  Tm3  1  0.666667  0.333333  0.040422  1
  Tm  Tm4  1  0.666667  0.333333  0.459578  1
  Tm  Tm5  1  0.333333  0.666667  0.958855  1
  Rh  Rh6  1  0.167438  0.334877  0.124053  1
  Rh  Rh7  1  0.832525  0.665052  0.624412  1
  Rh  Rh8  1  0.665123  0.832562  0.124053  1
  Rh  Rh9  1  0.167438  0.832562  0.124053  1
  Rh  Rh10  1  0.832525  0.167475  0.624412  1
  Rh  Rh11  1  0.334948  0.167475  0.624412  1
  Rh  Rh12  1  0.832525  0.665052  0.875588  1
  Rh  Rh13  1  0.832525  0.167475  0.875588  1
  Rh  Rh14  1  0.334948  0.167475  0.875588  1
  Rh  Rh15  1  0.665123  0.832562  0.375947  1
  Rh  Rh16  1  0.167438  0.832562  0.375947  1
  Rh  Rh17  1  0.167438  0.334877  0.375947  1
  Rh  Rh18  1  0.000000  0.000000  0.250000  1
  Rh  Rh19  1  0.000000  0.000000  0.750000  1
  Rh  Rh20  1  0.333333  0.666667  0.250000  1
  Rh  Rh21  1  0.666667  0.333333  0.750000  1
  Rh  Rh22  1  0.000000  0.000000  0.999844  1
  Rh  Rh23  1  0.000000  0.000000  0.500156  1
