# generated using pymatgen
data_Lu10ZnSb5
_symmetry_space_group_name_H-M   'P 1'
_cell_length_a   7.90893400
_cell_length_b   9.10020000
_cell_length_c   11.57637900
_cell_angle_alpha   90.00000000
_cell_angle_beta   90.00000000
_cell_angle_gamma   90.00000000
_symmetry_Int_Tables_number   1
_chemical_formula_structural   Lu10ZnSb5
_chemical_formula_sum   'Lu20 Zn2 Sb10'
_cell_volume   833.18535034
_cell_formula_units_Z   2
loop_
 _symmetry_equiv_pos_site_id
 _symmetry_equiv_pos_as_xyz
  1  'x, y, z'
loop_
 _atom_site_type_symbol
 _atom_site_label
 _atom_site_symmetry_multiplicity
 _atom_site_fract_x
 _atom_site_fract_y
 _atom_site_fract_z
 _atom_site_occupancy
  Lu  Lu0  1  0.188752  0.566725  0.442036  1
  Lu  Lu1  1  0.688752  0.933275  0.057964  1
  Lu  Lu2  1  0.806878  0.048970  0.560196  1
  Lu  Lu3  1  0.306878  0.451030  0.939804  1
  Lu  Lu4  1  0.806878  0.451030  0.560196  1
  Lu  Lu5  1  0.306878  0.048970  0.939804  1
  Lu  Lu6  1  0.188752  0.933275  0.442036  1
  Lu  Lu7  1  0.688752  0.566725  0.057964  1
  Lu  Lu8  1  0.037972  0.750000  0.992300  1
  Lu  Lu9  1  0.537972  0.750000  0.507700  1
  Lu  Lu10  1  0.974614  0.250000  0.008780  1
  Lu  Lu11  1  0.474614  0.250000  0.491220  1
  Lu  Lu12  1  0.179949  0.750000  0.714542  1
  Lu  Lu13  1  0.679949  0.750000  0.785458  1
  Lu  Lu14  1  0.810210  0.250000  0.281161  1
  Lu  Lu15  1  0.310210  0.250000  0.218839  1
  Lu  Lu16  1  0.852763  0.750000  0.292820  1
  Lu  Lu17  1  0.352763  0.750000  0.207180  1
  Lu  Lu18  1  0.152963  0.250000  0.715683  1
  Lu  Lu19  1  0.652963  0.250000  0.784317  1
  Zn  Zn20  1  0.913352  0.750000  0.539112  1
  Zn  Zn21  1  0.413352  0.750000  0.960888  1
  Sb  Sb22  1  0.938675  0.498676  0.823726  1
  Sb  Sb23  1  0.438675  0.001324  0.676274  1
  Sb  Sb24  1  0.060255  0.998233  0.175681  1
  Sb  Sb25  1  0.560255  0.501767  0.324319  1
  Sb  Sb26  1  0.060255  0.501767  0.175681  1
  Sb  Sb27  1  0.560255  0.998233  0.324319  1
  Sb  Sb28  1  0.938675  0.001324  0.823726  1
  Sb  Sb29  1  0.438675  0.498676  0.676274  1
  Sb  Sb30  1  0.089059  0.250000  0.459274  1
  Sb  Sb31  1  0.589059  0.250000  0.040726  1
