# generated using pymatgen
data_TaTi2V2Si3C
_symmetry_space_group_name_H-M   'P 1'
_cell_length_a   7.40027200
_cell_length_b   7.38349951
_cell_length_c   5.02585900
_cell_angle_alpha   90.00000000
_cell_angle_beta   90.00000000
_cell_angle_gamma   120.07517303
_symmetry_Int_Tables_number   1
_chemical_formula_structural   TaTi2V2Si3C
_chemical_formula_sum   'Ta2 Ti4 V4 Si6 C2'
_cell_volume   237.64101083
_cell_formula_units_Z   2
loop_
 _symmetry_equiv_pos_site_id
 _symmetry_equiv_pos_as_xyz
  1  'x, y, z'
loop_
 _atom_site_type_symbol
 _atom_site_label
 _atom_site_symmetry_multiplicity
 _atom_site_fract_x
 _atom_site_fract_y
 _atom_site_fract_z
 _atom_site_occupancy
  Ta  Ta0  1  0.235621  0.000000  0.250000  1
  Ta  Ta1  1  0.764379  0.000000  0.750000  1
  Ti  Ti2  1  0.999917  0.236868  0.250000  1
  Ti  Ti3  1  0.000083  0.763132  0.750000  1
  Ti  Ti4  1  0.763049  0.763132  0.250000  1
  Ti  Ti5  1  0.236951  0.236868  0.750000  1
  V  V6  1  0.333216  0.666433  0.000000  1
  V  V7  1  0.666784  0.333567  0.000000  1
  V  V8  1  0.666784  0.333567  0.500000  1
  V  V9  1  0.333216  0.666433  0.500000  1
  Si  Si10  1  0.591900  0.000000  0.250000  1
  Si  Si11  1  0.408100  0.000000  0.750000  1
  Si  Si12  1  0.998029  0.586968  0.250000  1
  Si  Si13  1  0.001971  0.413032  0.750000  1
  Si  Si14  1  0.411060  0.413032  0.250000  1
  Si  Si15  1  0.588940  0.586968  0.750000  1
  C  C16  1  0.000000  0.000000  0.000000  1
  C  C17  1  0.000000  0.000000  0.500000  1
