# generated using pymatgen
data_Ba4ZrTcO8
_symmetry_space_group_name_H-M   'P 1'
_cell_length_a   7.40786825
_cell_length_b   7.40786712
_cell_length_c   5.88708100
_cell_angle_alpha   90.00000000
_cell_angle_beta   90.00000000
_cell_angle_gamma   133.12486787
_symmetry_Int_Tables_number   1
_chemical_formula_structural   Ba4ZrTcO8
_chemical_formula_sum   'Ba4 Zr1 Tc1 O8'
_cell_volume   235.79216421
_cell_formula_units_Z   1
loop_
 _symmetry_equiv_pos_site_id
 _symmetry_equiv_pos_as_xyz
  1  'x, y, z'
loop_
 _atom_site_type_symbol
 _atom_site_label
 _atom_site_symmetry_multiplicity
 _atom_site_fract_x
 _atom_site_fract_y
 _atom_site_fract_z
 _atom_site_occupancy
  Ba  Ba0  1  0.646533  0.353467  0.000000  1
  Ba  Ba1  1  0.145361  0.854639  0.500000  1
  Ba  Ba2  1  0.854639  0.145361  0.500000  1
  Ba  Ba3  1  0.353467  0.646533  0.000000  1
  Zr  Zr4  1  0.500000  0.500000  0.500000  1
  Tc  Tc5  1  0.000000  0.000000  0.000000  1
  O  O6  1  0.753676  0.753676  0.755272  1
  O  O7  1  0.246324  0.246324  0.244728  1
  O  O8  1  0.246324  0.246324  0.755272  1
  O  O9  1  0.753676  0.753676  0.244728  1
  O  O10  1  0.847218  0.152782  0.000000  1
  O  O11  1  0.342482  0.657518  0.500000  1
  O  O12  1  0.657518  0.342482  0.500000  1
  O  O13  1  0.152782  0.847218  0.000000  1
