# generated using pymatgen
data_Zr3Co6B2Ir
_symmetry_space_group_name_H-M   'P 1'
_cell_length_a   4.95691305
_cell_length_b   4.95383929
_cell_length_c   14.13534300
_cell_angle_alpha   90.00000000
_cell_angle_beta   90.00000000
_cell_angle_gamma   120.01200829
_symmetry_Int_Tables_number   1
_chemical_formula_structural   Zr3Co6B2Ir
_chemical_formula_sum   'Zr6 Co12 B4 Ir2'
_cell_volume   300.56446473
_cell_formula_units_Z   2
loop_
 _symmetry_equiv_pos_site_id
 _symmetry_equiv_pos_as_xyz
  1  'x, y, z'
loop_
 _atom_site_type_symbol
 _atom_site_label
 _atom_site_symmetry_multiplicity
 _atom_site_fract_x
 _atom_site_fract_y
 _atom_site_fract_z
 _atom_site_occupancy
  Zr  Zr0  1  0.333345  0.666728  0.250000  1
  Zr  Zr1  1  0.666655  0.333272  0.750000  1
  Zr  Zr2  1  0.333329  0.666672  0.037401  1
  Zr  Zr3  1  0.666671  0.333328  0.537401  1
  Zr  Zr4  1  0.666671  0.333328  0.962599  1
  Zr  Zr5  1  0.333329  0.666672  0.462599  1
  Co  Co6  1  0.834178  0.668408  0.148724  1
  Co  Co7  1  0.165819  0.834151  0.648676  1
  Co  Co8  1  0.668371  0.834145  0.648686  1
  Co  Co9  1  0.331629  0.165855  0.148686  1
  Co  Co10  1  0.834181  0.165849  0.148676  1
  Co  Co11  1  0.165822  0.331592  0.851276  1
  Co  Co12  1  0.165819  0.834151  0.851324  1
  Co  Co13  1  0.165822  0.331592  0.648724  1
  Co  Co14  1  0.668371  0.834145  0.851314  1
  Co  Co15  1  0.331629  0.165855  0.351314  1
  Co  Co16  1  0.834178  0.668408  0.351276  1
  Co  Co17  1  0.834181  0.165849  0.351324  1
  B  B18  1  0.999939  0.999967  0.250000  1
  B  B19  1  0.000061  0.000033  0.750000  1
  B  B20  1  0.333242  0.666505  0.750000  1
  B  B21  1  0.666758  0.333495  0.250000  1
  Ir  Ir22  1  0.000000  0.000000  0.000000  1
  Ir  Ir23  1  0.000000  0.000000  0.500000  1
