# generated using pymatgen
data_CeY3Tm2(Al3Ru)8
_symmetry_space_group_name_H-M   'P 1'
_cell_length_a   8.80977900
_cell_length_b   8.80294324
_cell_length_c   9.58281400
_cell_angle_alpha   90.00000000
_cell_angle_beta   90.00000000
_cell_angle_gamma   120.02567951
_symmetry_Int_Tables_number   1
_chemical_formula_structural   CeY3Tm2(Al3Ru)8
_chemical_formula_sum   'Ce1 Y3 Tm2 Al24 Ru8'
_cell_volume   643.43423990
_cell_formula_units_Z   1
loop_
 _symmetry_equiv_pos_site_id
 _symmetry_equiv_pos_as_xyz
  1  'x, y, z'
loop_
 _atom_site_type_symbol
 _atom_site_label
 _atom_site_symmetry_multiplicity
 _atom_site_fract_x
 _atom_site_fract_y
 _atom_site_fract_z
 _atom_site_occupancy
  Ce  Ce0  1  0.193910  0.387820  0.250000  1
  Y  Y1  1  0.808038  0.616076  0.750000  1
  Y  Y2  1  0.386645  0.193382  0.750000  1
  Y  Y3  1  0.806737  0.193382  0.750000  1
  Tm  Tm4  1  0.192995  0.804563  0.250000  1
  Tm  Tm5  1  0.611568  0.804563  0.250000  1
  Al  Al6  1  0.334489  0.668977  0.485071  1
  Al  Al7  1  0.666979  0.333956  0.983688  1
  Al  Al8  1  0.666979  0.333956  0.516312  1
  Al  Al9  1  0.334489  0.668977  0.014929  1
  Al  Al10  1  0.162984  0.325967  0.577423  1
  Al  Al11  1  0.674450  0.836860  0.575484  1
  Al  Al12  1  0.162410  0.836860  0.575484  1
  Al  Al13  1  0.836056  0.161389  0.077891  1
  Al  Al14  1  0.836056  0.161389  0.422109  1
  Al  Al15  1  0.837526  0.675053  0.077231  1
  Al  Al16  1  0.325333  0.161389  0.077891  1
  Al  Al17  1  0.674450  0.836860  0.924516  1
  Al  Al18  1  0.162984  0.325967  0.922577  1
  Al  Al19  1  0.837526  0.675053  0.422769  1
  Al  Al20  1  0.998894  0.997788  0.250000  1
  Al  Al21  1  0.000593  0.001186  0.750000  1
  Al  Al22  1  0.560194  0.120388  0.250000  1
  Al  Al23  1  0.439864  0.561528  0.750000  1
  Al  Al24  1  0.121664  0.561528  0.750000  1
  Al  Al25  1  0.875168  0.438773  0.250000  1
  Al  Al26  1  0.563606  0.438773  0.250000  1
  Al  Al27  1  0.438409  0.876819  0.750000  1
  Al  Al28  1  0.162410  0.836860  0.924516  1
  Al  Al29  1  0.325333  0.161389  0.422109  1
  Ru  Ru30  1  0.999784  0.999569  0.500557  1
  Ru  Ru31  1  0.999784  0.999569  0.999443  1
  Ru  Ru32  1  0.499887  0.999773  0.499587  1
  Ru  Ru33  1  0.499132  0.500960  0.002311  1
  Ru  Ru34  1  0.001828  0.500960  0.002311  1
  Ru  Ru35  1  0.001828  0.500960  0.497689  1
  Ru  Ru36  1  0.499132  0.500960  0.497689  1
  Ru  Ru37  1  0.499887  0.999773  0.000413  1
