# generated using pymatgen
data_LaNd2RuO7
_symmetry_space_group_name_H-M   'P 1'
_cell_length_a   6.65834687
_cell_length_b   6.65834716
_cell_length_c   7.64100100
_cell_angle_alpha   90.00000000
_cell_angle_beta   90.00000000
_cell_angle_gamma   111.27803007
_symmetry_Int_Tables_number   1
_chemical_formula_structural   LaNd2RuO7
_chemical_formula_sum   'La2 Nd4 Ru2 O14'
_cell_volume   315.66032869
_cell_formula_units_Z   2
loop_
 _symmetry_equiv_pos_site_id
 _symmetry_equiv_pos_as_xyz
  1  'x, y, z'
loop_
 _atom_site_type_symbol
 _atom_site_label
 _atom_site_symmetry_multiplicity
 _atom_site_fract_x
 _atom_site_fract_y
 _atom_site_fract_z
 _atom_site_occupancy
  La  La0  1  0.000000  0.000000  0.500000  1
  La  La1  1  0.000000  0.000000  0.000000  1
  Nd  Nd2  1  0.470575  0.911471  0.750000  1
  Nd  Nd3  1  0.529425  0.088529  0.250000  1
  Nd  Nd4  1  0.911471  0.470575  0.750000  1
  Nd  Nd5  1  0.088529  0.529425  0.250000  1
  Ru  Ru6  1  0.500000  0.500000  0.500000  1
  Ru  Ru7  1  0.500000  0.500000  0.000000  1
  O  O8  1  0.583061  0.583061  0.750000  1
  O  O9  1  0.416939  0.416939  0.250000  1
  O  O10  1  0.838558  0.104014  0.750000  1
  O  O11  1  0.161442  0.895986  0.250000  1
  O  O12  1  0.104014  0.838558  0.750000  1
  O  O13  1  0.895986  0.161442  0.250000  1
  O  O14  1  0.443802  0.190317  0.960062  1
  O  O15  1  0.556198  0.809683  0.460062  1
  O  O16  1  0.190317  0.443802  0.960062  1
  O  O17  1  0.809683  0.556198  0.460062  1
  O  O18  1  0.443802  0.190317  0.539938  1
  O  O19  1  0.556198  0.809683  0.039938  1
  O  O20  1  0.809683  0.556198  0.039938  1
  O  O21  1  0.190317  0.443802  0.539938  1
