# generated using pymatgen
data_Cu3Br4
_symmetry_space_group_name_H-M   'P 1'
_cell_length_a   6.88236504
_cell_length_b   6.88236477
_cell_length_c   6.88236474
_cell_angle_alpha   132.10977359
_cell_angle_beta   132.10977186
_cell_angle_gamma   70.05570574
_symmetry_Int_Tables_number   1
_chemical_formula_structural   Cu3Br4
_chemical_formula_sum   'Cu3 Br4'
_cell_volume   175.89156963
_cell_formula_units_Z   1
loop_
 _symmetry_equiv_pos_site_id
 _symmetry_equiv_pos_as_xyz
  1  'x, y, z'
loop_
 _atom_site_type_symbol
 _atom_site_label
 _atom_site_symmetry_multiplicity
 _atom_site_fract_x
 _atom_site_fract_y
 _atom_site_fract_z
 _atom_site_occupancy
  Cu  Cu0  1  0.250000  0.750000  0.500000  1
  Cu  Cu1  1  0.750000  0.250000  0.500000  1
  Cu  Cu2  1  0.500000  0.500000  0.000000  1
  Br  Br3  1  0.631810  0.631810  0.509295  1
  Br  Br4  1  0.877485  0.368190  0.000000  1
  Br  Br5  1  0.122515  0.122515  0.490705  1
  Br  Br6  1  0.368190  0.877485  0.000000  1
