# generated using pymatgen
data_Er5TmCrB14Os
_symmetry_space_group_name_H-M   'P 1'
_cell_length_a   7.99464149
_cell_length_b   7.99464125
_cell_length_c   9.27577436
_cell_angle_alpha   89.96898571
_cell_angle_beta   90.03101321
_cell_angle_gamma   155.00258162
_symmetry_Int_Tables_number   1
_chemical_formula_structural   Er5TmCrB14Os
_chemical_formula_sum   'Er5 Tm1 Cr1 B14 Os1'
_cell_volume   250.52690557
_cell_formula_units_Z   1
loop_
 _symmetry_equiv_pos_site_id
 _symmetry_equiv_pos_as_xyz
  1  'x, y, z'
loop_
 _atom_site_type_symbol
 _atom_site_label
 _atom_site_symmetry_multiplicity
 _atom_site_fract_x
 _atom_site_fract_y
 _atom_site_fract_z
 _atom_site_occupancy
  Er  Er0  1  0.755730  0.244270  0.250047  1
  Er  Er1  1  0.242305  0.757695  0.749931  1
  Er  Er2  1  0.105691  0.894309  0.441387  1
  Er  Er3  1  0.105666  0.894334  0.058681  1
  Er  Er4  1  0.894356  0.105644  0.937963  1
  Tm  Tm5  1  0.894464  0.105536  0.561592  1
  Cr  Cr6  1  0.052347  0.947653  0.749876  1
  B  B7  1  0.544383  0.455617  0.250079  1
  B  B8  1  0.456677  0.543323  0.749686  1
  B  B9  1  0.520673  0.479327  0.904206  1
  B  B10  1  0.479869  0.520131  0.094653  1
  B  B11  1  0.479816  0.520184  0.405622  1
  B  B12  1  0.520575  0.479425  0.595504  1
  B  B13  1  0.631481  0.368519  0.848494  1
  B  B14  1  0.368033  0.631967  0.149620  1
  B  B15  1  0.727904  0.272096  0.966361  1
  B  B16  1  0.272959  0.727041  0.034126  1
  B  B17  1  0.273128  0.726872  0.466015  1
  B  B18  1  0.728139  0.271861  0.533718  1
  B  B19  1  0.631482  0.368518  0.651501  1
  B  B20  1  0.368045  0.631955  0.350732  1
  Os  Os21  1  0.946277  0.053723  0.250207  1
