# generated using pymatgen
data_Yb3Pr17(Ir3Ru)3
_symmetry_space_group_name_H-M   'P 1'
_cell_length_a   11.24668600
_cell_length_b   11.23852300
_cell_length_c   6.59833100
_cell_angle_alpha   90.00000000
_cell_angle_beta   90.00000000
_cell_angle_gamma   89.99681990
_symmetry_Int_Tables_number   1
_chemical_formula_structural   Yb3Pr17(Ir3Ru)3
_chemical_formula_sum   'Yb3 Pr17 Ir9 Ru3'
_cell_volume   834.00356348
_cell_formula_units_Z   1
loop_
 _symmetry_equiv_pos_site_id
 _symmetry_equiv_pos_as_xyz
  1  'x, y, z'
loop_
 _atom_site_type_symbol
 _atom_site_label
 _atom_site_symmetry_multiplicity
 _atom_site_fract_x
 _atom_site_fract_y
 _atom_site_fract_z
 _atom_site_occupancy
  Yb  Yb0  1  0.000000  0.000000  0.499849  1
  Yb  Yb1  1  0.000000  0.000000  0.000043  1
  Yb  Yb2  1  0.500000  0.500000  0.999739  1
  Pr  Pr3  1  0.289318  0.087823  0.383558  1
  Pr  Pr4  1  0.290205  0.913284  0.883473  1
  Pr  Pr5  1  0.709795  0.086716  0.883473  1
  Pr  Pr6  1  0.710682  0.912177  0.383558  1
  Pr  Pr7  1  0.587517  0.790955  0.882756  1
  Pr  Pr8  1  0.588704  0.206244  0.382614  1
  Pr  Pr9  1  0.411296  0.793756  0.382614  1
  Pr  Pr10  1  0.412483  0.209045  0.882756  1
  Pr  Pr11  1  0.207463  0.410380  0.618327  1
  Pr  Pr12  1  0.210342  0.588355  0.115964  1
  Pr  Pr13  1  0.789658  0.411645  0.115964  1
  Pr  Pr14  1  0.792537  0.589620  0.618327  1
  Pr  Pr15  1  0.912603  0.711070  0.115967  1
  Pr  Pr16  1  0.911623  0.288062  0.617332  1
  Pr  Pr17  1  0.088377  0.711938  0.617332  1
  Pr  Pr18  1  0.087397  0.288930  0.115967  1
  Pr  Pr19  1  0.500000  0.500000  0.499722  1
  Ir  Ir20  1  0.846327  0.154472  0.249372  1
  Ir  Ir21  1  0.846051  0.845629  0.750675  1
  Ir  Ir22  1  0.153949  0.154371  0.750675  1
  Ir  Ir23  1  0.153673  0.845528  0.249372  1
  Ir  Ir24  1  0.654236  0.346621  0.748555  1
  Ir  Ir25  1  0.653696  0.653860  0.251347  1
  Ir  Ir26  1  0.346304  0.346140  0.251347  1
  Ir  Ir27  1  0.345764  0.653379  0.748555  1
  Ir  Ir28  1  0.000000  0.500000  0.382758  1
  Ru  Ru29  1  0.500000  0.000000  0.114479  1
  Ru  Ru30  1  0.500000  0.000000  0.616280  1
  Ru  Ru31  1  0.000000  0.500000  0.887251  1
