# generated using pymatgen
data_Ba4Eu2(VH9)3
_symmetry_space_group_name_H-M   'P 1'
_cell_length_a   9.15305100
_cell_length_b   9.02961676
_cell_length_c   5.30408000
_cell_angle_alpha   90.00000000
_cell_angle_beta   90.00000000
_cell_angle_gamma   120.45324845
_symmetry_Int_Tables_number   1
_chemical_formula_structural   Ba4Eu2(VH9)3
_chemical_formula_sum   'Ba4 Eu2 V3 H27'
_cell_volume   377.89765782
_cell_formula_units_Z   1
loop_
 _symmetry_equiv_pos_site_id
 _symmetry_equiv_pos_as_xyz
  1  'x, y, z'
loop_
 _atom_site_type_symbol
 _atom_site_label
 _atom_site_symmetry_multiplicity
 _atom_site_fract_x
 _atom_site_fract_y
 _atom_site_fract_z
 _atom_site_occupancy
  Ba  Ba0  1  0.264657  0.000000  0.500000  1
  Ba  Ba1  1  0.999755  0.590980  0.000000  1
  Ba  Ba2  1  0.408774  0.409020  0.000000  1
  Ba  Ba3  1  0.598569  0.000000  0.000000  1
  Eu  Eu4  1  0.998152  0.263953  0.500000  1
  Eu  Eu5  1  0.734199  0.736047  0.500000  1
  V  V6  1  0.676654  0.341560  0.500000  1
  V  V7  1  0.335093  0.658440  0.500000  1
  V  V8  1  0.989070  0.000000  0.000000  1
  H  H9  1  0.798536  0.313686  0.730029  1
  H  H10  1  0.697514  0.489084  0.732579  1
  H  H11  1  0.538175  0.224811  0.743646  1
  H  H12  1  0.208430  0.510916  0.267421  1
  H  H13  1  0.538175  0.224811  0.256354  1
  H  H14  1  0.798536  0.313686  0.269971  1
  H  H15  1  0.697514  0.489084  0.267421  1
  H  H16  1  0.313363  0.775189  0.743646  1
  H  H17  1  0.484849  0.686314  0.730029  1
  H  H18  1  0.178432  0.000000  0.000000  1
  H  H19  1  0.793832  0.809017  0.000000  1
  H  H20  1  0.984815  0.190983  0.000000  1
  H  H21  1  0.859851  0.000000  0.242469  1
  H  H22  1  0.125740  0.141653  0.773365  1
  H  H23  1  0.984088  0.858347  0.773365  1
  H  H24  1  0.984088  0.858347  0.226635  1
  H  H25  1  0.125740  0.141653  0.226635  1
  H  H26  1  0.859851  0.000000  0.757531  1
  H  H27  1  0.139742  0.637493  0.500000  1
  H  H28  1  0.503924  0.863212  0.500000  1
  H  H29  1  0.356325  0.482371  0.500000  1
  H  H30  1  0.502249  0.362507  0.500000  1
  H  H31  1  0.873954  0.517629  0.500000  1
  H  H32  1  0.640713  0.136788  0.500000  1
  H  H33  1  0.208430  0.510916  0.732579  1
  H  H34  1  0.313363  0.775189  0.256354  1
  H  H35  1  0.484849  0.686314  0.269971  1
