# generated using pymatgen
data_Tb3PrCdRh
_symmetry_space_group_name_H-M   'P 1'
_cell_length_a   9.66296883
_cell_length_b   9.65824748
_cell_length_c   9.65824600
_cell_angle_alpha   60.03234573
_cell_angle_beta   59.98382277
_cell_angle_gamma   59.98382644
_symmetry_Int_Tables_number   1
_chemical_formula_structural   Tb3PrCdRh
_chemical_formula_sum   'Tb12 Pr4 Cd4 Rh4'
_cell_volume   637.37048546
_cell_formula_units_Z   4
loop_
 _symmetry_equiv_pos_site_id
 _symmetry_equiv_pos_as_xyz
  1  'x, y, z'
loop_
 _atom_site_type_symbol
 _atom_site_label
 _atom_site_symmetry_multiplicity
 _atom_site_fract_x
 _atom_site_fract_y
 _atom_site_fract_z
 _atom_site_occupancy
  Tb  Tb0  1  0.352305  0.348960  0.348960  1
  Tb  Tb1  1  0.348960  0.352305  0.949772  1
  Tb  Tb2  1  0.348960  0.949772  0.352305  1
  Tb  Tb3  1  0.949772  0.348960  0.348960  1
  Tb  Tb4  1  0.813900  0.186100  0.186100  1
  Tb  Tb5  1  0.186100  0.813901  0.813900  1
  Tb  Tb6  1  0.188103  0.811897  0.188102  1
  Tb  Tb7  1  0.811897  0.188103  0.811897  1
  Tb  Tb8  1  0.188103  0.188103  0.811897  1
  Tb  Tb9  1  0.811898  0.811898  0.188102  1
  Tb  Tb10  1  0.943082  0.556918  0.556918  1
  Tb  Tb11  1  0.556918  0.943082  0.943082  1
  Pr  Pr12  1  0.563689  0.936311  0.563689  1
  Pr  Pr13  1  0.936311  0.563689  0.936311  1
  Pr  Pr14  1  0.563689  0.563689  0.936311  1
  Pr  Pr15  1  0.936311  0.936311  0.563689  1
  Cd  Cd16  1  0.583139  0.578371  0.578371  1
  Cd  Cd17  1  0.578371  0.583139  0.260117  1
  Cd  Cd18  1  0.578371  0.260117  0.583139  1
  Cd  Cd19  1  0.260117  0.578371  0.578371  1
  Rh  Rh20  1  0.147363  0.140506  0.140506  1
  Rh  Rh21  1  0.140506  0.147363  0.571627  1
  Rh  Rh22  1  0.140506  0.571627  0.147363  1
  Rh  Rh23  1  0.571627  0.140506  0.140506  1
