# generated using pymatgen
data_Ti24GeS7
_symmetry_space_group_name_H-M   'P 1'
_cell_length_a   9.84929290
_cell_length_b   9.87148376
_cell_length_c   4.99057900
_cell_angle_alpha   89.71504886
_cell_angle_beta   90.12083015
_cell_angle_gamma   90.02190799
_symmetry_Int_Tables_number   1
_chemical_formula_structural   Ti24GeS7
_chemical_formula_sum   'Ti24 Ge1 S7'
_cell_volume   485.21258473
_cell_formula_units_Z   1
loop_
 _symmetry_equiv_pos_site_id
 _symmetry_equiv_pos_as_xyz
  1  'x, y, z'
loop_
 _atom_site_type_symbol
 _atom_site_label
 _atom_site_symmetry_multiplicity
 _atom_site_fract_x
 _atom_site_fract_y
 _atom_site_fract_z
 _atom_site_occupancy
  Ti  Ti0  1  0.214842  0.682029  0.985756  1
  Ti  Ti1  1  0.788777  0.321044  0.984450  1
  Ti  Ti2  1  0.180895  0.283951  0.486769  1
  Ti  Ti3  1  0.821020  0.715305  0.483928  1
  Ti  Ti4  1  0.284087  0.818701  0.516570  1
  Ti  Ti5  1  0.719430  0.176559  0.509391  1
  Ti  Ti6  1  0.313258  0.214290  0.017945  1
  Ti  Ti7  1  0.680860  0.784136  0.017717  1
  Ti  Ti8  1  0.641237  0.537891  0.718692  1
  Ti  Ti9  1  0.354681  0.480523  0.719999  1
  Ti  Ti10  1  0.028198  0.859613  0.218723  1
  Ti  Ti11  1  0.971678  0.138301  0.218868  1
  Ti  Ti12  1  0.861427  0.970403  0.780601  1
  Ti  Ti13  1  0.139021  0.026058  0.780119  1
  Ti  Ti14  1  0.471840  0.639746  0.281056  1
  Ti  Ti15  1  0.528746  0.363421  0.279354  1
  Ti  Ti16  1  0.105869  0.585207  0.459035  1
  Ti  Ti17  1  0.893698  0.414282  0.461310  1
  Ti  Ti18  1  0.085109  0.394253  0.957873  1
  Ti  Ti19  1  0.915228  0.606937  0.959453  1
  Ti  Ti20  1  0.393339  0.914345  0.041795  1
  Ti  Ti21  1  0.608423  0.080959  0.042605  1
  Ti  Ti22  1  0.412457  0.100753  0.538857  1
  Ti  Ti23  1  0.586340  0.892106  0.541554  1
  Ge  Ge24  1  0.538900  0.295652  0.784061  1
  S  S25  1  0.708588  0.539507  0.212981  1
  S  S26  1  0.291843  0.459535  0.212275  1
  S  S27  1  0.039862  0.792006  0.712408  1
  S  S28  1  0.961033  0.206857  0.713032  1
  S  S29  1  0.793411  0.958721  0.287345  1
  S  S30  1  0.206001  0.038123  0.287060  1
  S  S31  1  0.459908  0.708782  0.788417  1
