# generated using pymatgen
data_Pu8Si13Ni3
_symmetry_space_group_name_H-M   'P 1'
_cell_length_a   8.01381900
_cell_length_b   8.01381976
_cell_length_c   8.04875800
_cell_angle_alpha   90.00000000
_cell_angle_beta   90.00000000
_cell_angle_gamma   119.99999274
_symmetry_Int_Tables_number   1
_chemical_formula_structural   Pu8Si13Ni3
_chemical_formula_sum   'Pu8 Si13 Ni3'
_cell_volume   447.65004534
_cell_formula_units_Z   1
loop_
 _symmetry_equiv_pos_site_id
 _symmetry_equiv_pos_as_xyz
  1  'x, y, z'
loop_
 _atom_site_type_symbol
 _atom_site_label
 _atom_site_symmetry_multiplicity
 _atom_site_fract_x
 _atom_site_fract_y
 _atom_site_fract_z
 _atom_site_occupancy
  Pu  Pu0  1  0.499688  0.999379  0.249493  1
  Pu  Pu1  1  0.499706  0.999409  0.750566  1
  Pu  Pu2  1  0.000621  0.500312  0.249493  1
  Pu  Pu3  1  0.000591  0.500294  0.750566  1
  Pu  Pu4  1  0.499688  0.500312  0.249493  1
  Pu  Pu5  1  0.499706  0.500294  0.750566  1
  Pu  Pu6  1  0.000000  0.000000  0.247524  1
  Pu  Pu7  1  0.000000  0.000000  0.752426  1
  Si  Si8  1  0.170545  0.341090  0.999996  1
  Si  Si9  1  0.829952  0.659906  0.000055  1
  Si  Si10  1  0.658910  0.829455  0.999996  1
  Si  Si11  1  0.826746  0.653492  0.500045  1
  Si  Si12  1  0.340094  0.170048  0.000055  1
  Si  Si13  1  0.163516  0.327031  0.499895  1
  Si  Si14  1  0.170545  0.829455  0.999996  1
  Si  Si15  1  0.346508  0.173254  0.500045  1
  Si  Si16  1  0.829952  0.170048  0.000055  1
  Si  Si17  1  0.672969  0.836484  0.499895  1
  Si  Si18  1  0.826746  0.173254  0.500045  1
  Si  Si19  1  0.163516  0.836484  0.499895  1
  Si  Si20  1  0.333333  0.666667  0.500365  1
  Ni  Ni21  1  0.333333  0.666667  0.999691  1
  Ni  Ni22  1  0.666667  0.333333  0.999795  1
  Ni  Ni23  1  0.666667  0.333333  0.500052  1
