# generated using pymatgen
data_Li2Nb2(OF2)3
_symmetry_space_group_name_H-M   'P 1'
_cell_length_a   5.69099800
_cell_length_b   5.69099727
_cell_length_c   21.35527500
_cell_angle_alpha   90.00000000
_cell_angle_beta   90.00000000
_cell_angle_gamma   120.00000423
_symmetry_Int_Tables_number   1
_chemical_formula_structural   Li2Nb2(OF2)3
_chemical_formula_sum   'Li6 Nb6 O9 F18'
_cell_volume   598.98037299
_cell_formula_units_Z   3
loop_
 _symmetry_equiv_pos_site_id
 _symmetry_equiv_pos_as_xyz
  1  'x, y, z'
loop_
 _atom_site_type_symbol
 _atom_site_label
 _atom_site_symmetry_multiplicity
 _atom_site_fract_x
 _atom_site_fract_y
 _atom_site_fract_z
 _atom_site_occupancy
  Li  Li0  1  0.446380  0.451925  0.141855  1
  Li  Li1  1  0.994456  0.548075  0.524811  1
  Li  Li2  1  0.451925  0.446380  0.858145  1
  Li  Li3  1  0.548075  0.994456  0.475189  1
  Li  Li4  1  0.553620  0.005544  0.191478  1
  Li  Li5  1  0.005544  0.553620  0.808522  1
  Nb  Nb6  1  0.782611  0.114211  0.045978  1
  Nb  Nb7  1  0.668399  0.885789  0.620689  1
  Nb  Nb8  1  0.217389  0.331601  0.287356  1
  Nb  Nb9  1  0.885789  0.668399  0.379311  1
  Nb  Nb10  1  0.331601  0.217389  0.712644  1
  Nb  Nb11  1  0.114211  0.782611  0.954022  1
  O  O12  1  0.098489  0.000000  0.333333  1
  O  O13  1  0.901511  0.901511  0.000000  1
  O  O14  1  0.506933  0.582629  0.674910  1
  O  O15  1  0.582629  0.506933  0.325090  1
  O  O16  1  0.417371  0.924304  0.008244  1
  O  O17  1  0.000000  0.098489  0.666667  1
  O  O18  1  0.924304  0.417371  0.991756  1
  O  O19  1  0.075696  0.493067  0.341577  1
  O  O20  1  0.493067  0.075696  0.658423  1
  F  F21  1  0.360712  0.705505  0.557617  1
  F  F22  1  0.156901  0.875974  0.762157  1
  F  F23  1  0.280928  0.124026  0.904510  1
  F  F24  1  0.829821  0.633179  0.882720  1
  F  F25  1  0.655206  0.294495  0.109050  1
  F  F26  1  0.633179  0.829821  0.117280  1
  F  F27  1  0.196642  0.366821  0.783947  1
  F  F28  1  0.170179  0.803358  0.450613  1
  F  F29  1  0.639288  0.344794  0.775716  1
  F  F30  1  0.719072  0.843099  0.428824  1
  F  F31  1  0.366821  0.196642  0.216053  1
  F  F32  1  0.124026  0.280928  0.095490  1
  F  F33  1  0.875974  0.156901  0.237843  1
  F  F34  1  0.344794  0.639288  0.224284  1
  F  F35  1  0.294495  0.655206  0.890950  1
  F  F36  1  0.705505  0.360712  0.442383  1
  F  F37  1  0.803358  0.170179  0.549387  1
  F  F38  1  0.843099  0.719072  0.571176  1
