# generated using pymatgen
data_Y6Lu2Cu3Si12Rh
_symmetry_space_group_name_H-M   'P 1'
_cell_length_a   8.01962200
_cell_length_b   8.03176958
_cell_length_c   8.09387889
_cell_angle_alpha   90.03636610
_cell_angle_beta   90.00000000
_cell_angle_gamma   119.94997320
_symmetry_Int_Tables_number   1
_chemical_formula_structural   Y6Lu2Cu3Si12Rh
_chemical_formula_sum   'Y6 Lu2 Cu3 Si12 Rh1'
_cell_volume   451.72181525
_cell_formula_units_Z   1
loop_
 _symmetry_equiv_pos_site_id
 _symmetry_equiv_pos_as_xyz
  1  'x, y, z'
loop_
 _atom_site_type_symbol
 _atom_site_label
 _atom_site_symmetry_multiplicity
 _atom_site_fract_x
 _atom_site_fract_y
 _atom_site_fract_z
 _atom_site_occupancy
  Y  Y0  1  0.000037  0.000073  0.250198  1
  Y  Y1  1  0.000073  0.000146  0.750031  1
  Y  Y2  1  0.998972  0.499543  0.251513  1
  Y  Y3  1  0.500572  0.499543  0.251513  1
  Y  Y4  1  0.500260  0.000521  0.748871  1
  Y  Y5  1  0.500469  0.000938  0.251388  1
  Lu  Lu6  1  0.501207  0.498907  0.747654  1
  Lu  Lu7  1  0.997700  0.498907  0.747654  1
  Cu  Cu8  1  0.332623  0.665247  0.994634  1
  Cu  Cu9  1  0.332713  0.665427  0.504853  1
  Cu  Cu10  1  0.667262  0.334523  0.995216  1
  Si  Si11  1  0.169195  0.338388  0.997699  1
  Si  Si12  1  0.661363  0.830249  0.998843  1
  Si  Si13  1  0.168205  0.336409  0.502219  1
  Si  Si14  1  0.338343  0.169415  0.999199  1
  Si  Si15  1  0.168887  0.830249  0.998843  1
  Si  Si16  1  0.663540  0.831726  0.501288  1
  Si  Si17  1  0.830827  0.661655  0.998181  1
  Si  Si18  1  0.336384  0.168507  0.501070  1
  Si  Si19  1  0.168186  0.831726  0.501288  1
  Si  Si20  1  0.832318  0.664637  0.502017  1
  Si  Si21  1  0.831072  0.169415  0.999199  1
  Si  Si22  1  0.832123  0.168507  0.501070  1
  Rh  Rh23  1  0.667671  0.335341  0.505559  1
