# generated using pymatgen
data_BBr(OF2)2
_symmetry_space_group_name_H-M   'P 1'
_cell_length_a   5.31088556
_cell_length_b   5.31088458
_cell_length_c   10.05902451
_cell_angle_alpha   83.08202115
_cell_angle_beta   83.08202294
_cell_angle_gamma   114.90335434
_symmetry_Int_Tables_number   1
_chemical_formula_structural   BBr(OF2)2
_chemical_formula_sum   'B2 Br2 O4 F8'
_cell_volume   250.80741649
_cell_formula_units_Z   2
loop_
 _symmetry_equiv_pos_site_id
 _symmetry_equiv_pos_as_xyz
  1  'x, y, z'
loop_
 _atom_site_type_symbol
 _atom_site_label
 _atom_site_symmetry_multiplicity
 _atom_site_fract_x
 _atom_site_fract_y
 _atom_site_fract_z
 _atom_site_occupancy
  B  B0  1  0.583994  0.439069  0.518965  1
  B  B1  1  0.439069  0.583994  0.018965  1
  Br  Br2  1  0.919672  0.057895  0.742588  1
  Br  Br3  1  0.057895  0.919672  0.242588  1
  O  O4  1  0.295655  0.885234  0.319266  1
  O  O5  1  0.130045  0.945968  0.803538  1
  O  O6  1  0.945968  0.130045  0.303538  1
  O  O7  1  0.885234  0.295655  0.819266  1
  F  F8  1  0.652728  0.499448  0.370859  1
  F  F9  1  0.499448  0.652728  0.870859  1
  F  F10  1  0.296101  0.397206  0.554744  1
  F  F11  1  0.605286  0.193107  0.568124  1
  F  F12  1  0.672743  0.765848  0.067218  1
  F  F13  1  0.765848  0.672743  0.567218  1
  F  F14  1  0.397206  0.296101  0.054744  1
  F  F15  1  0.193107  0.605286  0.068124  1
