# generated using pymatgen
data_Sm8Hf11Si16Ag
_symmetry_space_group_name_H-M   'P 1'
_cell_length_a   7.35683681
_cell_length_b   7.35683768
_cell_length_c   13.41130730
_cell_angle_alpha   89.78894201
_cell_angle_beta   90.21105905
_cell_angle_gamma   89.70610569
_symmetry_Int_Tables_number   1
_chemical_formula_structural   Sm8Hf11Si16Ag
_chemical_formula_sum   'Sm8 Hf11 Si16 Ag1'
_cell_volume   725.84146335
_cell_formula_units_Z   1
loop_
 _symmetry_equiv_pos_site_id
 _symmetry_equiv_pos_as_xyz
  1  'x, y, z'
loop_
 _atom_site_type_symbol
 _atom_site_label
 _atom_site_symmetry_multiplicity
 _atom_site_fract_x
 _atom_site_fract_y
 _atom_site_fract_z
 _atom_site_occupancy
  Sm  Sm0  1  0.997469  0.344390  0.211192  1
  Sm  Sm1  1  0.005288  0.656166  0.716209  1
  Sm  Sm2  1  0.156045  0.494932  0.464955  1
  Sm  Sm3  1  0.498745  0.847824  0.032923  1
  Sm  Sm4  1  0.847824  0.498745  0.967077  1
  Sm  Sm5  1  0.494932  0.156045  0.535045  1
  Sm  Sm6  1  0.344390  0.997469  0.788808  1
  Sm  Sm7  1  0.656166  0.005288  0.283791  1
  Hf  Hf8  1  0.824681  0.824681  0.500000  1
  Hf  Hf9  1  0.323117  0.676456  0.249522  1
  Hf  Hf10  1  0.676456  0.323117  0.750478  1
  Hf  Hf11  1  0.147031  0.994386  0.374168  1
  Hf  Hf12  1  0.855586  0.003940  0.878132  1
  Hf  Hf13  1  0.505441  0.648414  0.626051  1
  Hf  Hf14  1  0.354134  0.490459  0.877938  1
  Hf  Hf15  1  0.490459  0.354134  0.122062  1
  Hf  Hf16  1  0.648414  0.505441  0.373949  1
  Hf  Hf17  1  0.994386  0.147031  0.625832  1
  Hf  Hf18  1  0.003940  0.855586  0.121868  1
  Si  Si19  1  0.362155  0.296548  0.315297  1
  Si  Si20  1  0.636912  0.703978  0.818414  1
  Si  Si21  1  0.206287  0.863527  0.567255  1
  Si  Si22  1  0.130841  0.777664  0.929715  1
  Si  Si23  1  0.777664  0.130841  0.070285  1
  Si  Si24  1  0.863527  0.206287  0.432745  1
  Si  Si25  1  0.296548  0.362155  0.684703  1
  Si  Si26  1  0.703978  0.636912  0.181586  1
  Si  Si27  1  0.293183  0.050748  0.190023  1
  Si  Si28  1  0.707189  0.950693  0.686585  1
  Si  Si29  1  0.450382  0.792936  0.435799  1
  Si  Si30  1  0.211795  0.565898  0.064565  1
  Si  Si31  1  0.565898  0.211795  0.935435  1
  Si  Si32  1  0.792936  0.450382  0.564201  1
  Si  Si33  1  0.050748  0.293183  0.809977  1
  Si  Si34  1  0.950693  0.707189  0.313415  1
  Ag  Ag35  1  0.174760  0.174760  0.000000  1
