# generated using pymatgen
data_Y4Mg3Co4P12Rh13
_symmetry_space_group_name_H-M   'P 1'
_cell_length_a   3.84769600
_cell_length_b   10.83370896
_cell_length_c   12.58651277
_cell_angle_alpha   89.50461139
_cell_angle_beta   90.00000000
_cell_angle_gamma   90.00000000
_symmetry_Int_Tables_number   1
_chemical_formula_structural   Y4Mg3Co4P12Rh13
_chemical_formula_sum   'Y4 Mg3 Co4 P12 Rh13'
_cell_volume   524.64689137
_cell_formula_units_Z   1
loop_
 _symmetry_equiv_pos_site_id
 _symmetry_equiv_pos_as_xyz
  1  'x, y, z'
loop_
 _atom_site_type_symbol
 _atom_site_label
 _atom_site_symmetry_multiplicity
 _atom_site_fract_x
 _atom_site_fract_y
 _atom_site_fract_z
 _atom_site_occupancy
  Y  Y0  1  0.250000  0.919697  0.208255  1
  Y  Y1  1  0.750000  0.080014  0.791182  1
  Y  Y2  1  0.750000  0.419636  0.290454  1
  Y  Y3  1  0.250000  0.581116  0.709766  1
  Mg  Mg4  1  0.250000  0.794196  0.488291  1
  Mg  Mg5  1  0.750000  0.204958  0.512614  1
  Mg  Mg6  1  0.750000  0.294590  0.012357  1
  Co  Co7  1  0.250000  0.033928  0.436960  1
  Co  Co8  1  0.750000  0.962811  0.566345  1
  Co  Co9  1  0.750000  0.537829  0.063861  1
  Co  Co10  1  0.250000  0.464091  0.937151  1
  P  P11  1  0.250000  0.071806  0.611451  1
  P  P12  1  0.750000  0.927460  0.390116  1
  P  P13  1  0.750000  0.575274  0.894298  1
  P  P14  1  0.250000  0.428607  0.109755  1
  P  P15  1  0.250000  0.230275  0.361916  1
  P  P16  1  0.750000  0.767163  0.637468  1
  P  P17  1  0.750000  0.729960  0.131112  1
  P  P18  1  0.250000  0.269812  0.862162  1
  P  P19  1  0.250000  0.901335  0.892041  1
  P  P20  1  0.750000  0.092480  0.113827  1
  P  P21  1  0.750000  0.407296  0.613762  1
  P  P22  1  0.250000  0.594355  0.384123  1
  Rh  Rh23  1  0.250000  0.709441  0.983744  1
  Rh  Rh24  1  0.250000  0.095379  0.979047  1
  Rh  Rh25  1  0.750000  0.904142  0.020207  1
  Rh  Rh26  1  0.750000  0.597158  0.519548  1
  Rh  Rh27  1  0.250000  0.403003  0.477140  1
  Rh  Rh28  1  0.250000  0.275355  0.674142  1
  Rh  Rh29  1  0.750000  0.726604  0.323007  1
  Rh  Rh30  1  0.750000  0.770541  0.824872  1
  Rh  Rh31  1  0.250000  0.227562  0.173410  1
  Rh  Rh32  1  0.250000  0.615833  0.195424  1
  Rh  Rh33  1  0.750000  0.386226  0.805140  1
  Rh  Rh34  1  0.750000  0.118259  0.304400  1
  Rh  Rh35  1  0.250000  0.881809  0.700653  1
