# generated using pymatgen
data_KRb7Ti4Cr4(PO4)12
_symmetry_space_group_name_H-M   'P 1'
_cell_length_a   9.94820100
_cell_length_b   9.94820100
_cell_length_c   9.94820100
_cell_angle_alpha   90.00000000
_cell_angle_beta   90.00000000
_cell_angle_gamma   90.00000000
_symmetry_Int_Tables_number   1
_chemical_formula_structural   KRb7Ti4Cr4(PO4)12
_chemical_formula_sum   'K1 Rb7 Ti4 Cr4 P12 O48'
_cell_volume   984.54065511
_cell_formula_units_Z   1
loop_
 _symmetry_equiv_pos_site_id
 _symmetry_equiv_pos_as_xyz
  1  'x, y, z'
loop_
 _atom_site_type_symbol
 _atom_site_label
 _atom_site_symmetry_multiplicity
 _atom_site_fract_x
 _atom_site_fract_y
 _atom_site_fract_z
 _atom_site_occupancy
  K  K0  1  0.045063  0.545063  0.954937  1
  Rb  Rb1  1  0.316206  0.183544  0.816490  1
  Rb  Rb2  1  0.183510  0.816206  0.316456  1
  Rb  Rb3  1  0.683544  0.683510  0.683794  1
  Rb  Rb4  1  0.816619  0.316619  0.183381  1
  Rb  Rb5  1  0.541579  0.958322  0.041592  1
  Rb  Rb6  1  0.958408  0.041579  0.541678  1
  Rb  Rb7  1  0.458322  0.458408  0.458421  1
  Ti  Ti8  1  0.163245  0.163557  0.163521  1
  Ti  Ti9  1  0.836479  0.663245  0.336443  1
  Ti  Ti10  1  0.663557  0.336479  0.836755  1
  Ti  Ti11  1  0.336571  0.836571  0.663429  1
  Cr  Cr12  1  0.394536  0.605247  0.104489  1
  Cr  Cr13  1  0.895511  0.894536  0.894753  1
  Cr  Cr14  1  0.105247  0.395511  0.605464  1
  Cr  Cr15  1  0.605089  0.105089  0.394911  1
  P  P16  1  0.206910  0.874523  0.976862  1
  P  P17  1  0.023138  0.706910  0.625477  1
  P  P18  1  0.374523  0.523138  0.793090  1
  P  P19  1  0.707934  0.624262  0.022840  1
  P  P20  1  0.522887  0.792819  0.375130  1
  P  P21  1  0.875229  0.976931  0.207188  1
  P  P22  1  0.792812  0.375229  0.523069  1
  P  P23  1  0.977160  0.207934  0.875738  1
  P  P24  1  0.624870  0.022887  0.707181  1
  P  P25  1  0.292819  0.124870  0.477113  1
  P  P26  1  0.476931  0.292812  0.124771  1
  P  P27  1  0.124262  0.477160  0.292066  1
  O  O28  1  0.225390  0.012413  0.049373  1
  O  O29  1  0.950627  0.725390  0.487587  1
  O  O30  1  0.512413  0.450627  0.774610  1
  O  O31  1  0.728429  0.486421  0.950654  1
  O  O32  1  0.450254  0.772806  0.512859  1
  O  O33  1  0.012792  0.049669  0.227254  1
  O  O34  1  0.772746  0.512792  0.450331  1
  O  O35  1  0.049346  0.228429  0.013579  1
  O  O36  1  0.487141  0.950254  0.727194  1
  O  O37  1  0.272806  0.987141  0.549746  1
  O  O38  1  0.549669  0.272746  0.987208  1
  O  O39  1  0.986421  0.549346  0.271571  1
  O  O40  1  0.248912  0.895826  0.827708  1
  O  O41  1  0.172292  0.748912  0.604174  1
  O  O42  1  0.395826  0.672292  0.751088  1
  O  O43  1  0.748628  0.604101  0.172527  1
  O  O44  1  0.672164  0.750978  0.395996  1
  O  O45  1  0.896112  0.827760  0.249537  1
  O  O46  1  0.750463  0.396112  0.672240  1
  O  O47  1  0.827473  0.248628  0.895899  1
  O  O48  1  0.604004  0.172164  0.749022  1
  O  O49  1  0.250978  0.104004  0.327836  1
  O  O50  1  0.327760  0.250463  0.103888  1
  O  O51  1  0.104101  0.327473  0.251372  1
  O  O52  1  0.301060  0.776166  0.047822  1
  O  O53  1  0.952178  0.801060  0.723834  1
  O  O54  1  0.276166  0.452178  0.698940  1
  O  O55  1  0.802088  0.723065  0.952234  1
  O  O56  1  0.452212  0.699667  0.275505  1
  O  O57  1  0.775489  0.047684  0.300016  1
  O  O58  1  0.699984  0.275489  0.452316  1
  O  O59  1  0.047766  0.302088  0.776935  1
  O  O60  1  0.724495  0.952212  0.800333  1
  O  O61  1  0.199667  0.224495  0.547788  1
  O  O62  1  0.547684  0.199984  0.224511  1
  O  O63  1  0.223065  0.547766  0.197912  1
  O  O64  1  0.060434  0.825083  0.986163  1
  O  O65  1  0.013837  0.560434  0.674917  1
  O  O66  1  0.325083  0.513837  0.939566  1
  O  O67  1  0.560764  0.671115  0.012332  1
  O  O68  1  0.512884  0.939909  0.328217  1
  O  O69  1  0.828542  0.986420  0.060002  1
  O  O70  1  0.939998  0.328542  0.513580  1
  O  O71  1  0.987668  0.060764  0.828885  1
  O  O72  1  0.671783  0.012884  0.560091  1
  O  O73  1  0.439909  0.171783  0.487116  1
  O  O74  1  0.486420  0.439998  0.171458  1
  O  O75  1  0.171115  0.487668  0.439236  1
