# generated using pymatgen
data_Fe4SnPbCl16
_symmetry_space_group_name_H-M   'P 1'
_cell_length_a   7.43384080
_cell_length_b   7.58446431
_cell_length_c   13.92685900
_cell_angle_alpha   86.74038610
_cell_angle_beta   89.81017345
_cell_angle_gamma   89.71227898
_symmetry_Int_Tables_number   1
_chemical_formula_structural   Fe4SnPbCl16
_chemical_formula_sum   'Fe4 Sn1 Pb1 Cl16'
_cell_volume   783.93612673
_cell_formula_units_Z   1
loop_
 _symmetry_equiv_pos_site_id
 _symmetry_equiv_pos_as_xyz
  1  'x, y, z'
loop_
 _atom_site_type_symbol
 _atom_site_label
 _atom_site_symmetry_multiplicity
 _atom_site_fract_x
 _atom_site_fract_y
 _atom_site_fract_z
 _atom_site_occupancy
  Fe  Fe0  1  0.935347  0.437354  0.537947  1
  Fe  Fe1  1  0.436963  0.859598  0.238904  1
  Fe  Fe2  1  0.557386  0.852832  0.744613  1
  Fe  Fe3  1  0.072908  0.439225  0.038528  1
  Sn  Sn4  1  0.253825  0.002015  0.004644  1
  Pb  Pb5  1  0.738499  0.997140  0.503072  1
  Cl  Cl6  1  0.936413  0.464669  0.173018  1
  Cl  Cl7  1  0.065393  0.466768  0.673335  1
  Cl  Cl8  1  0.648280  0.348783  0.558584  1
  Cl  Cl9  1  0.356296  0.333736  0.059063  1
  Cl  Cl10  1  0.943216  0.685340  0.443983  1
  Cl  Cl11  1  0.072901  0.688160  0.946384  1
  Cl  Cl12  1  0.424543  0.842282  0.600382  1
  Cl  Cl13  1  0.560222  0.844768  0.091623  1
  Cl  Cl14  1  0.056469  0.212641  0.461122  1
  Cl  Cl15  1  0.953034  0.219121  0.958216  1
  Cl  Cl16  1  0.153693  0.940127  0.198058  1
  Cl  Cl17  1  0.837547  0.940030  0.703858  1
  Cl  Cl18  1  0.445674  0.612870  0.321876  1
  Cl  Cl19  1  0.558197  0.603849  0.825644  1
  Cl  Cl20  1  0.568741  0.077422  0.313219  1
  Cl  Cl21  1  0.424454  0.068469  0.821931  1
