# generated using pymatgen
data_Zr4Cd3Co2
_symmetry_space_group_name_H-M   'P 1'
_cell_length_a   3.25651100
_cell_length_b   7.21383337
_cell_length_c   7.94737043
_cell_angle_alpha   72.11964829
_cell_angle_beta   90.00000000
_cell_angle_gamma   90.00000000
_symmetry_Int_Tables_number   1
_chemical_formula_structural   Zr4Cd3Co2
_chemical_formula_sum   'Zr4 Cd3 Co2'
_cell_volume   177.68144049
_cell_formula_units_Z   1
loop_
 _symmetry_equiv_pos_site_id
 _symmetry_equiv_pos_as_xyz
  1  'x, y, z'
loop_
 _atom_site_type_symbol
 _atom_site_label
 _atom_site_symmetry_multiplicity
 _atom_site_fract_x
 _atom_site_fract_y
 _atom_site_fract_z
 _atom_site_occupancy
  Zr  Zr0  1  0.500000  0.601825  0.170434  1
  Zr  Zr1  1  0.500000  0.398175  0.829566  1
  Zr  Zr2  1  0.500000  0.083497  0.289365  1
  Zr  Zr3  1  0.500000  0.916503  0.710635  1
  Cd  Cd4  1  0.000000  0.701356  0.495883  1
  Cd  Cd5  1  0.000000  0.000000  0.000000  1
  Cd  Cd6  1  0.000000  0.298644  0.504117  1
  Co  Co7  1  0.000000  0.662037  0.875862  1
  Co  Co8  1  0.000000  0.337963  0.124138  1
