# generated using pymatgen
data_YPa3FeO10
_symmetry_space_group_name_H-M   'P 1'
_cell_length_a   6.54727161
_cell_length_b   6.54727134
_cell_length_c   6.59335477
_cell_angle_alpha   99.73761228
_cell_angle_beta   99.43347029
_cell_angle_gamma   131.65296207
_symmetry_Int_Tables_number   1
_chemical_formula_structural   YPa3FeO10
_chemical_formula_sum   'Y1 Pa3 Fe1 O10'
_cell_volume   192.93160744
_cell_formula_units_Z   1
loop_
 _symmetry_equiv_pos_site_id
 _symmetry_equiv_pos_as_xyz
  1  'x, y, z'
loop_
 _atom_site_type_symbol
 _atom_site_label
 _atom_site_symmetry_multiplicity
 _atom_site_fract_x
 _atom_site_fract_y
 _atom_site_fract_z
 _atom_site_occupancy
  Y  Y0  1  0.002134  0.995885  0.998019  1
  Pa  Pa1  1  0.794766  0.402273  0.197038  1
  Pa  Pa2  1  0.197102  0.599470  0.796573  1
  Pa  Pa3  1  0.607171  0.800623  0.407794  1
  Fe  Fe4  1  0.398687  0.203044  0.601731  1
  O  O5  1  0.755512  0.249733  0.495310  1
  O  O6  1  0.154913  0.460297  0.104530  1
  O  O7  1  0.542786  0.654528  0.698060  1
  O  O8  1  0.940122  0.839179  0.300380  1
  O  O9  1  0.357472  0.046352  0.901142  1
  O  O10  1  0.854790  0.543670  0.901142  1
  O  O11  1  0.245578  0.739798  0.495310  1
  O  O12  1  0.644234  0.949618  0.104530  1
  O  O13  1  0.043533  0.155275  0.698060  1
  O  O14  1  0.461200  0.360257  0.300380  1
