# generated using pymatgen
data_Ce2YIn3Ir2Rh
_symmetry_space_group_name_H-M   'P 1'
_cell_length_a   7.71058824
_cell_length_b   7.71100504
_cell_length_c   3.89714400
_cell_angle_alpha   90.00000000
_cell_angle_beta   90.00000000
_cell_angle_gamma   121.14127422
_symmetry_Int_Tables_number   1
_chemical_formula_structural   Ce2YIn3Ir2Rh
_chemical_formula_sum   'Ce2 Y1 In3 Ir2 Rh1'
_cell_volume   198.31945611
_cell_formula_units_Z   1
loop_
 _symmetry_equiv_pos_site_id
 _symmetry_equiv_pos_as_xyz
  1  'x, y, z'
loop_
 _atom_site_type_symbol
 _atom_site_label
 _atom_site_symmetry_multiplicity
 _atom_site_fract_x
 _atom_site_fract_y
 _atom_site_fract_z
 _atom_site_occupancy
  Ce  Ce0  1  0.585783  0.999186  0.000000  1
  Ce  Ce1  1  0.999175  0.585823  0.000000  1
  Y  Y2  1  0.408906  0.408942  0.000000  1
  In  In3  1  0.009188  0.254688  0.500000  1
  In  In4  1  0.736638  0.736689  0.500000  1
  In  In5  1  0.254797  0.009251  0.500000  1
  Ir  Ir6  1  0.330352  0.683256  0.500000  1
  Ir  Ir7  1  0.683215  0.330229  0.500000  1
  Rh  Rh8  1  0.991945  0.991937  0.000000  1
