# generated using pymatgen
data_YZrNbFe9
_symmetry_space_group_name_H-M   'P 1'
_cell_length_a   4.96743343
_cell_length_b   4.96743314
_cell_length_c   8.42348914
_cell_angle_alpha   72.85109432
_cell_angle_beta   72.85109387
_cell_angle_gamma   60.00001085
_symmetry_Int_Tables_number   1
_chemical_formula_structural   YZrNbFe9
_chemical_formula_sum   'Y1 Zr1 Nb1 Fe9'
_cell_volume   169.25150337
_cell_formula_units_Z   1
loop_
 _symmetry_equiv_pos_site_id
 _symmetry_equiv_pos_as_xyz
  1  'x, y, z'
loop_
 _atom_site_type_symbol
 _atom_site_label
 _atom_site_symmetry_multiplicity
 _atom_site_fract_x
 _atom_site_fract_y
 _atom_site_fract_z
 _atom_site_occupancy
  Y  Y0  1  0.000454  0.000454  0.998639  1
  Zr  Zr1  1  0.856400  0.856400  0.430801  1
  Nb  Nb2  1  0.142905  0.142905  0.571285  1
  Fe  Fe3  1  0.083209  0.586591  0.743608  1
  Fe  Fe4  1  0.586591  0.586591  0.743608  1
  Fe  Fe5  1  0.586591  0.083209  0.743608  1
  Fe  Fe6  1  0.917311  0.413309  0.256073  1
  Fe  Fe7  1  0.413309  0.413309  0.256073  1
  Fe  Fe8  1  0.413309  0.917311  0.256073  1
  Fe  Fe9  1  0.333161  0.333161  0.000517  1
  Fe  Fe10  1  0.666924  0.666924  0.999229  1
  Fe  Fe11  1  0.499837  0.499837  0.500489  1
