# generated using pymatgen
data_Pr4InB4Ir9
_symmetry_space_group_name_H-M   'P 1'
_cell_length_a   11.11204613
_cell_length_b   11.11204675
_cell_length_c   11.11204757
_cell_angle_alpha   29.37921148
_cell_angle_beta   29.37921616
_cell_angle_gamma   29.37921513
_symmetry_Int_Tables_number   1
_chemical_formula_structural   Pr4InB4Ir9
_chemical_formula_sum   'Pr4 In1 B4 Ir9'
_cell_volume   292.24458893
_cell_formula_units_Z   1
loop_
 _symmetry_equiv_pos_site_id
 _symmetry_equiv_pos_as_xyz
  1  'x, y, z'
loop_
 _atom_site_type_symbol
 _atom_site_label
 _atom_site_symmetry_multiplicity
 _atom_site_fract_x
 _atom_site_fract_y
 _atom_site_fract_z
 _atom_site_occupancy
  Pr  Pr0  1  0.148258  0.148258  0.148258  1
  Pr  Pr1  1  0.950976  0.950976  0.950976  1
  Pr  Pr2  1  0.851742  0.851742  0.851742  1
  Pr  Pr3  1  0.049024  0.049024  0.049024  1
  In  In4  1  0.500000  0.500000  0.500000  1
  B  B5  1  0.616979  0.616979  0.616979  1
  B  B6  1  0.716545  0.716545  0.716545  1
  B  B7  1  0.383021  0.383021  0.383021  1
  B  B8  1  0.283455  0.283455  0.283455  1
  Ir  Ir9  1  0.405345  0.906989  0.405345  1
  Ir  Ir10  1  0.906989  0.405345  0.405345  1
  Ir  Ir11  1  0.500000  0.500000  0.000000  1
  Ir  Ir12  1  0.500000  0.000000  0.500000  1
  Ir  Ir13  1  0.000000  0.500000  0.500000  1
  Ir  Ir14  1  0.594655  0.093011  0.594655  1
  Ir  Ir15  1  0.594655  0.594655  0.093011  1
  Ir  Ir16  1  0.093011  0.594655  0.594655  1
  Ir  Ir17  1  0.405345  0.405345  0.906989  1
