# generated using pymatgen
data_Pr4AlSi6Rh
_symmetry_space_group_name_H-M   'P 1'
_cell_length_a   8.28618200
_cell_length_b   8.28618190
_cell_length_c   4.31116100
_cell_angle_alpha   90.00000000
_cell_angle_beta   90.00000000
_cell_angle_gamma   120.00000039
_symmetry_Int_Tables_number   1
_chemical_formula_structural   Pr4AlSi6Rh
_chemical_formula_sum   'Pr4 Al1 Si6 Rh1'
_cell_volume   256.35028394
_cell_formula_units_Z   1
loop_
 _symmetry_equiv_pos_site_id
 _symmetry_equiv_pos_as_xyz
  1  'x, y, z'
loop_
 _atom_site_type_symbol
 _atom_site_label
 _atom_site_symmetry_multiplicity
 _atom_site_fract_x
 _atom_site_fract_y
 _atom_site_fract_z
 _atom_site_occupancy
  Pr  Pr0  1  0.000000  0.000000  0.500000  1
  Pr  Pr1  1  0.004314  0.502157  0.500000  1
  Pr  Pr2  1  0.497843  0.502157  0.500000  1
  Pr  Pr3  1  0.497843  0.995686  0.500000  1
  Al  Al4  1  0.666667  0.333333  0.000000  1
  Si  Si5  1  0.322128  0.161065  0.000000  1
  Si  Si6  1  0.838935  0.161065  0.000000  1
  Si  Si7  1  0.838935  0.677872  0.000000  1
  Si  Si8  1  0.170571  0.341143  0.000000  1
  Si  Si9  1  0.170571  0.829429  0.000000  1
  Si  Si10  1  0.658857  0.829429  0.000000  1
  Rh  Rh11  1  0.333333  0.666667  0.000000  1
