# generated using pymatgen
data_Sm(Tc2Ge)2
_symmetry_space_group_name_H-M   'P 1'
_cell_length_a   7.52341178
_cell_length_b   7.52341140
_cell_length_c   4.09849600
_cell_angle_alpha   90.00000000
_cell_angle_beta   90.00000000
_cell_angle_gamma   148.04812362
_symmetry_Int_Tables_number   1
_chemical_formula_structural   Sm(Tc2Ge)2
_chemical_formula_sum   'Sm1 Tc4 Ge2'
_cell_volume   122.76641261
_cell_formula_units_Z   1
loop_
 _symmetry_equiv_pos_site_id
 _symmetry_equiv_pos_as_xyz
  1  'x, y, z'
loop_
 _atom_site_type_symbol
 _atom_site_label
 _atom_site_symmetry_multiplicity
 _atom_site_fract_x
 _atom_site_fract_y
 _atom_site_fract_z
 _atom_site_occupancy
  Sm  Sm0  1  0.000000  0.000000  0.000000  1
  Tc  Tc1  1  0.698136  0.301866  0.000000  1
  Tc  Tc2  1  0.301866  0.698136  0.000000  1
  Tc  Tc3  1  0.807859  0.192142  0.499999  1
  Tc  Tc4  1  0.192142  0.807859  0.499999  1
  Ge  Ge5  1  0.588118  0.411884  0.499999  1
  Ge  Ge6  1  0.411884  0.588118  0.499999  1
