# generated using pymatgen
data_Er4Zn2As4Ir7
_symmetry_space_group_name_H-M   'P 1'
_cell_length_a   7.25133616
_cell_length_b   7.25133696
_cell_length_c   7.25852027
_cell_angle_alpha   108.92999973
_cell_angle_beta   108.92999951
_cell_angle_gamma   110.51985335
_symmetry_Int_Tables_number   1
_chemical_formula_structural   Er4Zn2As4Ir7
_chemical_formula_sum   'Er4 Zn2 As4 Ir7'
_cell_volume   293.87282218
_cell_formula_units_Z   1
loop_
 _symmetry_equiv_pos_site_id
 _symmetry_equiv_pos_as_xyz
  1  'x, y, z'
loop_
 _atom_site_type_symbol
 _atom_site_label
 _atom_site_symmetry_multiplicity
 _atom_site_fract_x
 _atom_site_fract_y
 _atom_site_fract_z
 _atom_site_occupancy
  Er  Er0  1  0.995221  0.995221  0.490044  1
  Er  Er1  1  0.994269  0.494269  0.988539  1
  Er  Er2  1  0.494269  0.994269  0.988539  1
  Er  Er3  1  0.494823  0.494823  0.490044  1
  Zn  Zn4  1  0.698370  0.995929  0.694299  1
  Zn  Zn5  1  0.995929  0.698370  0.694299  1
  As  As6  1  0.684010  0.684010  0.993466  1
  As  As7  1  0.328962  0.996863  0.325826  1
  As  As8  1  0.996863  0.328962  0.325826  1
  As  As9  1  0.309456  0.309456  0.993466  1
  Ir  Ir10  1  0.748918  0.248918  0.497834  1
  Ir  Ir11  1  0.745445  0.500027  0.245470  1
  Ir  Ir12  1  0.499571  0.247601  0.747172  1
  Ir  Ir13  1  0.247601  0.499571  0.747172  1
  Ir  Ir14  1  0.248918  0.748918  0.497834  1
  Ir  Ir15  1  0.500027  0.745445  0.245470  1
  Ir  Ir16  1  0.017349  0.017349  0.034698  1
