# generated using pymatgen
data_Y3Sc7Si20Ir7Rh
_symmetry_space_group_name_H-M   'P 1'
_cell_length_a   12.46401226
_cell_length_b   12.46575907
_cell_length_c   4.14264100
_cell_angle_alpha   90.00000000
_cell_angle_beta   90.00000000
_cell_angle_gamma   90.12439011
_symmetry_Int_Tables_number   1
_chemical_formula_structural   Y3Sc7Si20Ir7Rh
_chemical_formula_sum   'Y3 Sc7 Si20 Ir7 Rh1'
_cell_volume   643.65459219
_cell_formula_units_Z   1
loop_
 _symmetry_equiv_pos_site_id
 _symmetry_equiv_pos_as_xyz
  1  'x, y, z'
loop_
 _atom_site_type_symbol
 _atom_site_label
 _atom_site_symmetry_multiplicity
 _atom_site_fract_x
 _atom_site_fract_y
 _atom_site_fract_z
 _atom_site_occupancy
  Y  Y0  1  0.115905  0.615690  0.500000  1
  Y  Y1  1  0.884310  0.384368  0.500000  1
  Y  Y2  1  0.615691  0.884229  0.500000  1
  Sc  Sc3  1  0.384044  0.115908  0.500000  1
  Sc  Sc4  1  0.673140  0.173835  0.500000  1
  Sc  Sc5  1  0.326249  0.826916  0.500000  1
  Sc  Sc6  1  0.175106  0.325422  0.500000  1
  Sc  Sc7  1  0.826106  0.674096  0.500000  1
  Sc  Sc8  1  0.000486  0.000376  0.000000  1
  Sc  Sc9  1  0.500045  0.499343  0.000000  1
  Si  Si10  1  0.566156  0.067583  0.000000  1
  Si  Si11  1  0.432352  0.933867  0.000000  1
  Si  Si12  1  0.067610  0.432122  0.000000  1
  Si  Si13  1  0.932420  0.567883  0.000000  1
  Si  Si14  1  0.200165  0.165294  0.000000  1
  Si  Si15  1  0.800407  0.834451  0.000000  1
  Si  Si16  1  0.166140  0.801741  0.000000  1
  Si  Si17  1  0.699060  0.333499  0.000000  1
  Si  Si18  1  0.835299  0.198960  0.000000  1
  Si  Si19  1  0.300521  0.665822  0.000000  1
  Si  Si20  1  0.665376  0.699174  0.000000  1
  Si  Si21  1  0.334574  0.298897  0.000000  1
  Si  Si22  1  0.007440  0.151964  0.500000  1
  Si  Si23  1  0.992365  0.849975  0.500000  1
  Si  Si24  1  0.152542  0.993537  0.500000  1
  Si  Si25  1  0.505769  0.347477  0.500000  1
  Si  Si26  1  0.849281  0.007947  0.500000  1
  Si  Si27  1  0.491096  0.650607  0.500000  1
  Si  Si28  1  0.650247  0.507624  0.500000  1
  Si  Si29  1  0.349532  0.491710  0.500000  1
  Ir  Ir30  1  0.979852  0.756689  0.000000  1
  Ir  Ir31  1  0.246294  0.981375  0.000000  1
  Ir  Ir32  1  0.518896  0.253677  0.000000  1
  Ir  Ir33  1  0.755048  0.020482  0.000000  1
  Ir  Ir34  1  0.479518  0.744942  0.000000  1
  Ir  Ir35  1  0.743795  0.519993  0.000000  1
  Ir  Ir36  1  0.256344  0.479152  0.000000  1
  Rh  Rh37  1  0.020816  0.243373  0.000000  1
