# generated using pymatgen
data_Lu20SnBi10Sb
_symmetry_space_group_name_H-M   'P 1'
_cell_length_a   8.08485676
_cell_length_b   9.38206400
_cell_length_c   11.75865900
_cell_angle_alpha   90.00000000
_cell_angle_beta   89.86749779
_cell_angle_gamma   90.00000000
_symmetry_Int_Tables_number   1
_chemical_formula_structural   Lu20SnBi10Sb
_chemical_formula_sum   'Lu20 Sn1 Bi10 Sb1'
_cell_volume   891.92298408
_cell_formula_units_Z   1
loop_
 _symmetry_equiv_pos_site_id
 _symmetry_equiv_pos_as_xyz
  1  'x, y, z'
loop_
 _atom_site_type_symbol
 _atom_site_label
 _atom_site_symmetry_multiplicity
 _atom_site_fract_x
 _atom_site_fract_y
 _atom_site_fract_z
 _atom_site_occupancy
  Lu  Lu0  1  0.189547  0.569517  0.442402  1
  Lu  Lu1  1  0.691413  0.936735  0.059143  1
  Lu  Lu2  1  0.807048  0.062610  0.559871  1
  Lu  Lu3  1  0.310715  0.430550  0.942796  1
  Lu  Lu4  1  0.807048  0.437390  0.559871  1
  Lu  Lu5  1  0.310715  0.069450  0.942796  1
  Lu  Lu6  1  0.189547  0.930483  0.442402  1
  Lu  Lu7  1  0.691413  0.563265  0.059143  1
  Lu  Lu8  1  0.022808  0.750000  0.990351  1
  Lu  Lu9  1  0.529349  0.750000  0.510245  1
  Lu  Lu10  1  0.973719  0.250000  0.010917  1
  Lu  Lu11  1  0.476451  0.250000  0.489220  1
  Lu  Lu12  1  0.184522  0.750000  0.714265  1
  Lu  Lu13  1  0.691573  0.750000  0.780075  1
  Lu  Lu14  1  0.809081  0.250000  0.280665  1
  Lu  Lu15  1  0.316084  0.250000  0.213302  1
  Lu  Lu16  1  0.853494  0.750000  0.285263  1
  Lu  Lu17  1  0.353443  0.750000  0.216824  1
  Lu  Lu18  1  0.147449  0.250000  0.718296  1
  Lu  Lu19  1  0.645868  0.250000  0.785528  1
  Sn  Sn20  1  0.903232  0.750000  0.542297  1
  Bi  Bi21  1  0.936263  0.496414  0.825465  1
  Bi  Bi22  1  0.435248  0.003141  0.675548  1
  Bi  Bi23  1  0.064589  0.996877  0.175798  1
  Bi  Bi24  1  0.563240  0.502793  0.323931  1
  Bi  Bi25  1  0.064589  0.503123  0.175798  1
  Bi  Bi26  1  0.563240  0.997207  0.323931  1
  Bi  Bi27  1  0.936263  0.003586  0.825465  1
  Bi  Bi28  1  0.435248  0.496859  0.675548  1
  Bi  Bi29  1  0.403475  0.750000  0.955028  1
  Bi  Bi30  1  0.095173  0.250000  0.456020  1
  Sb  Sb31  1  0.598155  0.250000  0.041796  1
