# generated using pymatgen
data_TiMn5(GaRh2)6
_symmetry_space_group_name_H-M   'P 1'
_cell_length_a   4.31504100
_cell_length_b   6.08152200
_cell_length_c   12.91571700
_cell_angle_alpha   90.00000000
_cell_angle_beta   89.99989809
_cell_angle_gamma   90.00000000
_symmetry_Int_Tables_number   1
_chemical_formula_structural   TiMn5(GaRh2)6
_chemical_formula_sum   'Ti1 Mn5 Ga6 Rh12'
_cell_volume   338.93446214
_cell_formula_units_Z   1
loop_
 _symmetry_equiv_pos_site_id
 _symmetry_equiv_pos_as_xyz
  1  'x, y, z'
loop_
 _atom_site_type_symbol
 _atom_site_label
 _atom_site_symmetry_multiplicity
 _atom_site_fract_x
 _atom_site_fract_y
 _atom_site_fract_z
 _atom_site_occupancy
  Ti  Ti0  1  0.000000  0.500000  0.000000  1
  Mn  Mn1  1  0.499779  0.000000  0.168004  1
  Mn  Mn2  1  0.999784  0.500000  0.333800  1
  Mn  Mn3  1  0.499999  0.000000  0.500000  1
  Mn  Mn4  1  0.000216  0.500000  0.666200  1
  Mn  Mn5  1  0.500221  0.000000  0.831995  1
  Ga  Ga6  1  0.000000  0.000000  0.000000  1
  Ga  Ga7  1  0.499775  0.500000  0.168521  1
  Ga  Ga8  1  0.999766  0.000000  0.334673  1
  Ga  Ga9  1  0.499999  0.500000  0.500000  1
  Ga  Ga10  1  0.000234  0.000000  0.665326  1
  Ga  Ga11  1  0.500225  0.500000  0.831478  1
  Rh  Rh12  1  0.499999  0.250561  0.000000  1
  Rh  Rh13  1  0.499999  0.749439  0.000000  1
  Rh  Rh14  1  0.999792  0.251270  0.165175  1
  Rh  Rh15  1  0.999792  0.748730  0.165175  1
  Rh  Rh16  1  0.499793  0.249148  0.333028  1
  Rh  Rh17  1  0.499793  0.750852  0.333028  1
  Rh  Rh18  1  0.000000  0.250076  0.500000  1
  Rh  Rh19  1  0.000000  0.749924  0.500000  1
  Rh  Rh20  1  0.500207  0.249148  0.666972  1
  Rh  Rh21  1  0.500207  0.750852  0.666972  1
  Rh  Rh22  1  0.000208  0.251270  0.834825  1
  Rh  Rh23  1  0.000208  0.748730  0.834825  1
