# generated using pymatgen
data_Nd2NpSe5
_symmetry_space_group_name_H-M   'P 1'
_cell_length_a   7.91308400
_cell_length_b   8.40772500
_cell_length_c   12.44953400
_cell_angle_alpha   90.00000000
_cell_angle_beta   90.00000000
_cell_angle_gamma   90.00000000
_symmetry_Int_Tables_number   1
_chemical_formula_structural   Nd2NpSe5
_chemical_formula_sum   'Nd8 Np4 Se20'
_cell_volume   828.28037200
_cell_formula_units_Z   4
loop_
 _symmetry_equiv_pos_site_id
 _symmetry_equiv_pos_as_xyz
  1  'x, y, z'
loop_
 _atom_site_type_symbol
 _atom_site_label
 _atom_site_symmetry_multiplicity
 _atom_site_fract_x
 _atom_site_fract_y
 _atom_site_fract_z
 _atom_site_occupancy
  Nd  Nd0  1  0.525903  0.498856  0.322252  1
  Nd  Nd1  1  0.974097  0.001144  0.822252  1
  Nd  Nd2  1  0.474097  0.998856  0.677748  1
  Nd  Nd3  1  0.025903  0.501144  0.177748  1
  Nd  Nd4  1  0.474097  0.501144  0.677748  1
  Nd  Nd5  1  0.025903  0.998856  0.177748  1
  Nd  Nd6  1  0.525903  0.001144  0.322252  1
  Nd  Nd7  1  0.974097  0.498856  0.822252  1
  Np  Np8  1  0.064389  0.750000  0.495491  1
  Np  Np9  1  0.435611  0.750000  0.995491  1
  Np  Np10  1  0.935611  0.250000  0.504509  1
  Np  Np11  1  0.564389  0.250000  0.004509  1
  Se  Se12  1  0.832979  0.959594  0.594945  1
  Se  Se13  1  0.667021  0.540406  0.094945  1
  Se  Se14  1  0.167021  0.459594  0.405055  1
  Se  Se15  1  0.332979  0.040406  0.905055  1
  Se  Se16  1  0.167021  0.040406  0.405055  1
  Se  Se17  1  0.332979  0.459594  0.905055  1
  Se  Se18  1  0.832979  0.540406  0.594945  1
  Se  Se19  1  0.667021  0.959594  0.094945  1
  Se  Se20  1  0.831260  0.750000  0.314362  1
  Se  Se21  1  0.668740  0.750000  0.814362  1
  Se  Se22  1  0.168740  0.250000  0.685638  1
  Se  Se23  1  0.331260  0.250000  0.185638  1
  Se  Se24  1  0.454196  0.750000  0.499490  1
  Se  Se25  1  0.045804  0.750000  0.999490  1
  Se  Se26  1  0.545804  0.250000  0.500510  1
  Se  Se27  1  0.954196  0.250000  0.000510  1
  Se  Se28  1  0.192970  0.750000  0.714131  1
  Se  Se29  1  0.307030  0.750000  0.214131  1
  Se  Se30  1  0.807030  0.250000  0.285869  1
  Se  Se31  1  0.692970  0.250000  0.785869  1
