# generated using pymatgen
data_Tb9HoInBi5
_symmetry_space_group_name_H-M   'P 1'
_cell_length_a   9.19196935
_cell_length_b   9.20550914
_cell_length_c   6.48982713
_cell_angle_alpha   90.00968393
_cell_angle_beta   89.97735802
_cell_angle_gamma   120.03661754
_symmetry_Int_Tables_number   1
_chemical_formula_structural   Tb9HoInBi5
_chemical_formula_sum   'Tb9 Ho1 In1 Bi5'
_cell_volume   475.40061741
_cell_formula_units_Z   1
loop_
 _symmetry_equiv_pos_site_id
 _symmetry_equiv_pos_as_xyz
  1  'x, y, z'
loop_
 _atom_site_type_symbol
 _atom_site_label
 _atom_site_symmetry_multiplicity
 _atom_site_fract_x
 _atom_site_fract_y
 _atom_site_fract_z
 _atom_site_occupancy
  Tb  Tb0  1  0.671665  0.334352  0.000489  1
  Tb  Tb1  1  0.328300  0.662692  0.000442  1
  Tb  Tb2  1  0.328492  0.662797  0.499604  1
  Tb  Tb3  1  0.759059  0.757815  0.749957  1
  Tb  Tb4  1  0.240903  0.998722  0.749939  1
  Tb  Tb5  1  0.999916  0.240325  0.749874  1
  Tb  Tb6  1  0.235251  0.242939  0.250071  1
  Tb  Tb7  1  0.764728  0.007764  0.250045  1
  Tb  Tb8  1  0.999936  0.755194  0.250067  1
  Ho  Ho9  1  0.671878  0.334395  0.499384  1
  In  In10  1  0.999531  0.394038  0.250464  1
  Bi  Bi11  1  0.391949  0.389278  0.749686  1
  Bi  Bi12  1  0.608489  0.998200  0.749703  1
  Bi  Bi13  1  0.999539  0.608574  0.749622  1
  Bi  Bi14  1  0.610205  0.611154  0.250306  1
  Bi  Bi15  1  0.390157  0.001761  0.250347  1
