# generated using pymatgen
data_Gd4SiNi4Sn3
_symmetry_space_group_name_H-M   'P 1'
_cell_length_a   7.31178200
_cell_length_b   4.41569800
_cell_length_c   7.47288300
_cell_angle_alpha   90.00000000
_cell_angle_beta   90.00000000
_cell_angle_gamma   90.00000000
_symmetry_Int_Tables_number   1
_chemical_formula_structural   Gd4SiNi4Sn3
_chemical_formula_sum   'Gd4 Si1 Ni4 Sn3'
_cell_volume   241.27414235
_cell_formula_units_Z   1
loop_
 _symmetry_equiv_pos_site_id
 _symmetry_equiv_pos_as_xyz
  1  'x, y, z'
loop_
 _atom_site_type_symbol
 _atom_site_label
 _atom_site_symmetry_multiplicity
 _atom_site_fract_x
 _atom_site_fract_y
 _atom_site_fract_z
 _atom_site_occupancy
  Gd  Gd0  1  0.987983  0.750000  0.197892  1
  Gd  Gd1  1  0.487983  0.750000  0.302109  1
  Gd  Gd2  1  0.512017  0.250001  0.697891  1
  Gd  Gd3  1  0.012017  0.250001  0.802108  1
  Si  Si4  1  0.310561  0.750000  0.910225  1
  Ni  Ni5  1  0.318473  0.250001  0.082168  1
  Ni  Ni6  1  0.818473  0.250001  0.417833  1
  Ni  Ni7  1  0.181527  0.750000  0.582167  1
  Ni  Ni8  1  0.681527  0.750000  0.917832  1
  Sn  Sn9  1  0.689439  0.250001  0.089775  1
  Sn  Sn10  1  0.189439  0.250001  0.410226  1
  Sn  Sn11  1  0.810560  0.750000  0.589774  1
