# generated using pymatgen
data_Ca2Cr3Co9As7
_symmetry_space_group_name_H-M   'P 1'
_cell_length_a   9.45932600
_cell_length_b   9.45932583
_cell_length_c   3.73465100
_cell_angle_alpha   90.00000000
_cell_angle_beta   90.00000000
_cell_angle_gamma   119.99999360
_symmetry_Int_Tables_number   1
_chemical_formula_structural   Ca2Cr3Co9As7
_chemical_formula_sum   'Ca2 Cr3 Co9 As7'
_cell_volume   289.40168902
_cell_formula_units_Z   1
loop_
 _symmetry_equiv_pos_site_id
 _symmetry_equiv_pos_as_xyz
  1  'x, y, z'
loop_
 _atom_site_type_symbol
 _atom_site_label
 _atom_site_symmetry_multiplicity
 _atom_site_fract_x
 _atom_site_fract_y
 _atom_site_fract_z
 _atom_site_occupancy
  Ca  Ca0  1  0.333333  0.666667  0.000000  1
  Ca  Ca1  1  0.666667  0.333333  0.500000  1
  Cr  Cr2  1  0.226992  0.123710  0.500000  1
  Cr  Cr3  1  0.876290  0.103282  0.500000  1
  Cr  Cr4  1  0.896718  0.773008  0.500000  1
  Co  Co5  1  0.120027  0.277548  0.000000  1
  Co  Co6  1  0.722452  0.842479  0.000000  1
  Co  Co7  1  0.157521  0.879973  0.000000  1
  Co  Co8  1  0.427712  0.372032  0.000000  1
  Co  Co9  1  0.627968  0.055681  0.000000  1
  Co  Co10  1  0.944319  0.572288  0.000000  1
  Co  Co11  1  0.048714  0.432713  0.500000  1
  Co  Co12  1  0.567287  0.616001  0.500000  1
  Co  Co13  1  0.383999  0.951286  0.500000  1
  As  As14  1  0.291151  0.412815  0.500000  1
  As  As15  1  0.587185  0.878336  0.500000  1
  As  As16  1  0.121664  0.708849  0.500000  1
  As  As17  1  0.414335  0.115467  0.000000  1
  As  As18  1  0.884533  0.298869  0.000000  1
  As  As19  1  0.701131  0.585665  0.000000  1
  As  As20  1  0.000000  0.000000  0.000000  1
