# generated using pymatgen
data_La6Mg4Cd19As
_symmetry_space_group_name_H-M   'P 1'
_cell_length_a   10.15791747
_cell_length_b   10.15791714
_cell_length_c   10.17013267
_cell_angle_alpha   60.03972494
_cell_angle_beta   60.03972655
_cell_angle_gamma   60.00000401
_symmetry_Int_Tables_number   1
_chemical_formula_structural   La6Mg4Cd19As
_chemical_formula_sum   'La6 Mg4 Cd19 As1'
_cell_volume   742.47441455
_cell_formula_units_Z   1
loop_
 _symmetry_equiv_pos_site_id
 _symmetry_equiv_pos_as_xyz
  1  'x, y, z'
loop_
 _atom_site_type_symbol
 _atom_site_label
 _atom_site_symmetry_multiplicity
 _atom_site_fract_x
 _atom_site_fract_y
 _atom_site_fract_z
 _atom_site_occupancy
  La  La0  1  0.790616  0.790616  0.208702  1
  La  La1  1  0.210067  0.790616  0.208702  1
  La  La2  1  0.790616  0.210067  0.208702  1
  La  La3  1  0.209384  0.209384  0.791298  1
  La  La4  1  0.789933  0.209384  0.791298  1
  La  La5  1  0.209384  0.789933  0.791298  1
  Mg  Mg6  1  0.000000  0.000000  0.500000  1
  Mg  Mg7  1  0.500000  0.000000  0.500000  1
  Mg  Mg8  1  0.000000  0.500000  0.500000  1
  Mg  Mg9  1  0.500000  0.500000  0.500000  1
  Cd  Cd10  1  0.830306  0.830306  0.509084  1
  Cd  Cd11  1  0.831004  0.508730  0.829265  1
  Cd  Cd12  1  0.508730  0.831004  0.829265  1
  Cd  Cd13  1  0.831004  0.831004  0.829265  1
  Cd  Cd14  1  0.169694  0.169694  0.490916  1
  Cd  Cd15  1  0.168996  0.491270  0.170735  1
  Cd  Cd16  1  0.491270  0.168996  0.170735  1
  Cd  Cd17  1  0.168996  0.168996  0.170735  1
  Cd  Cd18  1  0.620446  0.620446  0.138660  1
  Cd  Cd19  1  0.621506  0.137671  0.619316  1
  Cd  Cd20  1  0.137671  0.621506  0.619316  1
  Cd  Cd21  1  0.621506  0.621506  0.619316  1
  Cd  Cd22  1  0.379554  0.379554  0.861340  1
  Cd  Cd23  1  0.378494  0.862329  0.380684  1
  Cd  Cd24  1  0.862329  0.378494  0.380684  1
  Cd  Cd25  1  0.378494  0.378494  0.380684  1
  Cd  Cd26  1  0.500000  0.500000  0.000000  1
  Cd  Cd27  1  0.000000  0.500000  0.000000  1
  Cd  Cd28  1  0.500000  0.000000  0.000000  1
  As  As29  1  0.000000  0.000000  0.000000  1
