# generated using pymatgen
data_Sr3(TbPb2)2
_symmetry_space_group_name_H-M   'P 1'
_cell_length_a   8.24023900
_cell_length_b   8.93075400
_cell_length_c   16.77372900
_cell_angle_alpha   90.00000000
_cell_angle_beta   90.00000000
_cell_angle_gamma   90.00000000
_symmetry_Int_Tables_number   1
_chemical_formula_structural   Sr3(TbPb2)2
_chemical_formula_sum   'Sr12 Tb8 Pb16'
_cell_volume   1234.40467295
_cell_formula_units_Z   4
loop_
 _symmetry_equiv_pos_site_id
 _symmetry_equiv_pos_as_xyz
  1  'x, y, z'
loop_
 _atom_site_type_symbol
 _atom_site_label
 _atom_site_symmetry_multiplicity
 _atom_site_fract_x
 _atom_site_fract_y
 _atom_site_fract_z
 _atom_site_occupancy
  Sr  Sr0  1  0.501454  0.683722  0.591195  1
  Sr  Sr1  1  0.001454  0.816278  0.908805  1
  Sr  Sr2  1  0.498546  0.316278  0.091195  1
  Sr  Sr3  1  0.998546  0.183722  0.408805  1
  Sr  Sr4  1  0.498546  0.316278  0.408805  1
  Sr  Sr5  1  0.998546  0.183722  0.091195  1
  Sr  Sr6  1  0.501454  0.683722  0.908805  1
  Sr  Sr7  1  0.001454  0.816278  0.591195  1
  Sr  Sr8  1  0.827082  0.515920  0.750000  1
  Sr  Sr9  1  0.327082  0.984080  0.750000  1
  Sr  Sr10  1  0.172918  0.484080  0.250000  1
  Sr  Sr11  1  0.672918  0.015920  0.250000  1
  Tb  Tb12  1  0.674015  0.164414  0.621057  1
  Tb  Tb13  1  0.174015  0.335586  0.878943  1
  Tb  Tb14  1  0.325985  0.835586  0.121057  1
  Tb  Tb15  1  0.825985  0.664414  0.378943  1
  Tb  Tb16  1  0.325985  0.835586  0.378943  1
  Tb  Tb17  1  0.825985  0.664414  0.121057  1
  Tb  Tb18  1  0.674015  0.164414  0.878943  1
  Tb  Tb19  1  0.174015  0.335586  0.621057  1
  Pb  Pb20  1  0.670743  0.957134  0.459925  1
  Pb  Pb21  1  0.170743  0.542866  0.040075  1
  Pb  Pb22  1  0.329257  0.042866  0.959925  1
  Pb  Pb23  1  0.829257  0.457134  0.540075  1
  Pb  Pb24  1  0.329257  0.042866  0.540075  1
  Pb  Pb25  1  0.829257  0.457134  0.959925  1
  Pb  Pb26  1  0.670743  0.957134  0.040075  1
  Pb  Pb27  1  0.170743  0.542866  0.459925  1
  Pb  Pb28  1  0.467554  0.354667  0.750000  1
  Pb  Pb29  1  0.967554  0.145333  0.750000  1
  Pb  Pb30  1  0.532446  0.645333  0.250000  1
  Pb  Pb31  1  0.032446  0.854667  0.250000  1
  Pb  Pb32  1  0.718723  0.885017  0.750000  1
  Pb  Pb33  1  0.218723  0.614983  0.750000  1
  Pb  Pb34  1  0.281277  0.114983  0.250000  1
  Pb  Pb35  1  0.781277  0.385017  0.250000  1
