# generated using pymatgen
data_Tb5ErCo17P12Os
_symmetry_space_group_name_H-M   'P 1'
_cell_length_a   3.70309300
_cell_length_b   10.50840205
_cell_length_c   12.22204606
_cell_angle_alpha   89.98866730
_cell_angle_beta   90.00000000
_cell_angle_gamma   90.00000000
_symmetry_Int_Tables_number   1
_chemical_formula_structural   Tb5ErCo17P12Os
_chemical_formula_sum   'Tb5 Er1 Co17 P12 Os1'
_cell_volume   475.60368098
_cell_formula_units_Z   1
loop_
 _symmetry_equiv_pos_site_id
 _symmetry_equiv_pos_as_xyz
  1  'x, y, z'
loop_
 _atom_site_type_symbol
 _atom_site_label
 _atom_site_symmetry_multiplicity
 _atom_site_fract_x
 _atom_site_fract_y
 _atom_site_fract_z
 _atom_site_occupancy
  Tb  Tb0  1  0.750000  0.250134  0.475261  1
  Tb  Tb1  1  0.250000  0.749931  0.521219  1
  Tb  Tb2  1  0.250000  0.932586  0.793102  1
  Tb  Tb3  1  0.250000  0.567351  0.792837  1
  Tb  Tb4  1  0.750000  0.067021  0.205982  1
  Er  Er5  1  0.750000  0.433369  0.205862  1
  Co  Co6  1  0.750000  0.749781  0.159982  1
  Co  Co7  1  0.250000  0.251031  0.295663  1
  Co  Co8  1  0.750000  0.749843  0.704896  1
  Co  Co9  1  0.750000  0.250540  0.012116  1
  Co  Co10  1  0.250000  0.749435  0.986405  1
  Co  Co11  1  0.250000  0.417439  0.009212  1
  Co  Co12  1  0.250000  0.083144  0.008604  1
  Co  Co13  1  0.750000  0.582574  0.995220  1
  Co  Co14  1  0.750000  0.916854  0.994753  1
  Co  Co15  1  0.250000  0.452544  0.569325  1
  Co  Co16  1  0.250000  0.047544  0.569880  1
  Co  Co17  1  0.750000  0.546854  0.430226  1
  Co  Co18  1  0.750000  0.953047  0.431045  1
  Co  Co19  1  0.250000  0.870159  0.290663  1
  Co  Co20  1  0.250000  0.628655  0.289935  1
  Co  Co21  1  0.750000  0.130181  0.709279  1
  Co  Co22  1  0.750000  0.369862  0.708978  1
  P  P23  1  0.250000  0.250946  0.118754  1
  P  P24  1  0.750000  0.749712  0.884101  1
  P  P25  1  0.250000  0.249984  0.649852  1
  P  P26  1  0.750000  0.749979  0.343678  1
  P  P27  1  0.250000  0.439547  0.382575  1
  P  P28  1  0.250000  0.060627  0.383814  1
  P  P29  1  0.750000  0.561132  0.615041  1
  P  P30  1  0.750000  0.938695  0.615496  1
  P  P31  1  0.250000  0.900497  0.107745  1
  P  P32  1  0.250000  0.598509  0.108397  1
  P  P33  1  0.750000  0.094874  0.894486  1
  P  P34  1  0.750000  0.405316  0.894111  1
  Os  Os35  1  0.250000  0.250301  0.841500  1
