# generated using pymatgen
data_Nb12Al2Zn5GaN4
_symmetry_space_group_name_H-M   'P 1'
_cell_length_a   7.04811561
_cell_length_b   7.04942860
_cell_length_c   7.05003281
_cell_angle_alpha   89.91834231
_cell_angle_beta   89.89327943
_cell_angle_gamma   90.08937599
_symmetry_Int_Tables_number   1
_chemical_formula_structural   Nb12Al2Zn5GaN4
_chemical_formula_sum   'Nb12 Al2 Zn5 Ga1 N4'
_cell_volume   350.28081265
_cell_formula_units_Z   1
loop_
 _symmetry_equiv_pos_site_id
 _symmetry_equiv_pos_as_xyz
  1  'x, y, z'
loop_
 _atom_site_type_symbol
 _atom_site_label
 _atom_site_symmetry_multiplicity
 _atom_site_fract_x
 _atom_site_fract_y
 _atom_site_fract_z
 _atom_site_occupancy
  Nb  Nb0  1  0.793574  0.956054  0.373213  1
  Nb  Nb1  1  0.706322  0.044027  0.875211  1
  Nb  Nb2  1  0.206307  0.456024  0.127305  1
  Nb  Nb3  1  0.293153  0.544086  0.623599  1
  Nb  Nb4  1  0.956476  0.373968  0.793541  1
  Nb  Nb5  1  0.043304  0.874133  0.706443  1
  Nb  Nb6  1  0.455402  0.124579  0.206549  1
  Nb  Nb7  1  0.544319  0.626137  0.293945  1
  Nb  Nb8  1  0.373452  0.793982  0.956264  1
  Nb  Nb9  1  0.875442  0.707248  0.043962  1
  Nb  Nb10  1  0.125573  0.206843  0.456494  1
  Nb  Nb11  1  0.626143  0.293807  0.543990  1
  Al  Al12  1  0.926792  0.572457  0.427446  1
  Al  Al13  1  0.072603  0.073186  0.072407  1
  Zn  Zn14  1  0.179225  0.819935  0.319450  1
  Zn  Zn15  1  0.322346  0.182655  0.821649  1
  Zn  Zn16  1  0.818052  0.321015  0.177534  1
  Zn  Zn17  1  0.679619  0.676850  0.682131  1
  Zn  Zn18  1  0.570650  0.429347  0.929278  1
  Ga  Ga19  1  0.428554  0.928319  0.572283  1
  N  N20  1  0.875395  0.123401  0.623836  1
  N  N21  1  0.623658  0.874612  0.122761  1
  N  N22  1  0.125601  0.622146  0.875750  1
  N  N23  1  0.378037  0.375190  0.374959  1
