# generated using pymatgen
data_Ca2PrPd12
_symmetry_space_group_name_H-M   'P 1'
_cell_length_a   5.35588441
_cell_length_b   5.35588459
_cell_length_c   11.42641895
_cell_angle_alpha   94.73618411
_cell_angle_beta   94.73617946
_cell_angle_gamma   120.19727719
_symmetry_Int_Tables_number   1
_chemical_formula_structural   Ca2PrPd12
_chemical_formula_sum   'Ca2 Pr1 Pd12'
_cell_volume   279.38051956
_cell_formula_units_Z   1
loop_
 _symmetry_equiv_pos_site_id
 _symmetry_equiv_pos_as_xyz
  1  'x, y, z'
loop_
 _atom_site_type_symbol
 _atom_site_label
 _atom_site_symmetry_multiplicity
 _atom_site_fract_x
 _atom_site_fract_y
 _atom_site_fract_z
 _atom_site_occupancy
  Ca  Ca0  1  0.998623  0.998623  0.994841  1
  Ca  Ca1  1  0.870749  0.870749  0.650339  1
  Pr  Pr2  1  0.130749  0.130749  0.357792  1
  Pd  Pd3  1  0.670331  0.329063  0.999330  1
  Pd  Pd4  1  0.329063  0.670331  0.999330  1
  Pd  Pd5  1  0.572549  0.070892  0.202255  1
  Pd  Pd6  1  0.070892  0.572549  0.202255  1
  Pd  Pd7  1  0.568650  0.568650  0.199961  1
  Pd  Pd8  1  0.810387  0.482681  0.409822  1
  Pd  Pd9  1  0.482681  0.810387  0.409822  1
  Pd  Pd10  1  0.517900  0.189532  0.591005  1
  Pd  Pd11  1  0.189532  0.517900  0.591005  1
  Pd  Pd12  1  0.432725  0.432725  0.798835  1
  Pd  Pd13  1  0.929036  0.426132  0.796704  1
  Pd  Pd14  1  0.426132  0.929036  0.796704  1
