# generated using pymatgen
data_Dy4ZnGa6Cu
_symmetry_space_group_name_H-M   'P 1'
_cell_length_a   7.23651200
_cell_length_b   8.79155118
_cell_length_c   8.79155200
_cell_angle_alpha   119.99999556
_cell_angle_beta   90.00000000
_cell_angle_gamma   90.00000000
_symmetry_Int_Tables_number   1
_chemical_formula_structural   Dy4ZnGa6Cu
_chemical_formula_sum   'Dy8 Zn2 Ga12 Cu2'
_cell_volume   484.38534545
_cell_formula_units_Z   2
loop_
 _symmetry_equiv_pos_site_id
 _symmetry_equiv_pos_as_xyz
  1  'x, y, z'
loop_
 _atom_site_type_symbol
 _atom_site_label
 _atom_site_symmetry_multiplicity
 _atom_site_fract_x
 _atom_site_fract_y
 _atom_site_fract_z
 _atom_site_occupancy
  Dy  Dy0  1  0.752560  0.000000  0.000000  1
  Dy  Dy1  1  0.247440  0.000000  0.000000  1
  Dy  Dy2  1  0.754652  0.497943  0.502057  1
  Dy  Dy3  1  0.245348  0.502057  0.497943  1
  Dy  Dy4  1  0.754652  0.004114  0.502057  1
  Dy  Dy5  1  0.245348  0.995886  0.497943  1
  Dy  Dy6  1  0.754652  0.497943  0.995886  1
  Dy  Dy7  1  0.245348  0.502057  0.004114  1
  Zn  Zn8  1  0.535853  0.333333  0.666667  1
  Zn  Zn9  1  0.464147  0.666667  0.333333  1
  Ga  Ga10  1  0.977414  0.829810  0.170190  1
  Ga  Ga11  1  0.022586  0.170190  0.829810  1
  Ga  Ga12  1  0.977414  0.340379  0.170190  1
  Ga  Ga13  1  0.472641  0.167962  0.832038  1
  Ga  Ga14  1  0.022586  0.659621  0.829810  1
  Ga  Ga15  1  0.527359  0.832038  0.167962  1
  Ga  Ga16  1  0.977414  0.829810  0.659621  1
  Ga  Ga17  1  0.472641  0.664075  0.832038  1
  Ga  Ga18  1  0.022586  0.170190  0.340379  1
  Ga  Ga19  1  0.527359  0.335925  0.167962  1
  Ga  Ga20  1  0.472641  0.167962  0.335925  1
  Ga  Ga21  1  0.527359  0.832038  0.664075  1
  Cu  Cu22  1  0.031350  0.666667  0.333333  1
  Cu  Cu23  1  0.968650  0.333333  0.666667  1
