# generated using pymatgen
data_Zr5Co16Tc3(GeP5)2
_symmetry_space_group_name_H-M   'P 1'
_cell_length_a   11.97155711
_cell_length_b   12.00556314
_cell_length_c   3.65784900
_cell_angle_alpha   90.00000000
_cell_angle_beta   90.00000000
_cell_angle_gamma   120.09400335
_symmetry_Int_Tables_number   1
_chemical_formula_structural   Zr5Co16Tc3(GeP5)2
_chemical_formula_sum   'Zr5 Co16 Tc3 Ge2 P10'
_cell_volume   454.85965975
_cell_formula_units_Z   1
loop_
 _symmetry_equiv_pos_site_id
 _symmetry_equiv_pos_as_xyz
  1  'x, y, z'
loop_
 _atom_site_type_symbol
 _atom_site_label
 _atom_site_symmetry_multiplicity
 _atom_site_fract_x
 _atom_site_fract_y
 _atom_site_fract_z
 _atom_site_occupancy
  Zr  Zr0  1  0.666838  0.332331  0.000000  1
  Zr  Zr1  1  0.333162  0.665494  0.000000  1
  Zr  Zr2  1  0.825498  0.825669  0.500000  1
  Zr  Zr3  1  0.174502  0.000171  0.500000  1
  Zr  Zr4  1  0.000000  0.181135  0.500000  1
  Co  Co5  1  0.192427  0.372300  0.000000  1
  Co  Co6  1  0.171341  0.795394  0.000000  1
  Co  Co7  1  0.828659  0.624052  0.000000  1
  Co  Co8  1  0.807573  0.179873  0.000000  1
  Co  Co9  1  0.374519  0.203142  0.000000  1
  Co  Co10  1  0.128091  0.482265  0.500000  1
  Co  Co11  1  0.353853  0.864874  0.500000  1
  Co  Co12  1  0.510903  0.646925  0.500000  1
  Co  Co13  1  0.646147  0.511021  0.500000  1
  Co  Co14  1  0.871909  0.354175  0.500000  1
  Co  Co15  1  0.489097  0.136022  0.500000  1
  Co  Co16  1  0.000000  0.998898  0.000000  1
  Co  Co17  1  0.721989  0.002303  0.500000  1
  Co  Co18  1  0.000000  0.716820  0.500000  1
  Co  Co19  1  0.625481  0.828624  0.000000  1
  Co  Co20  1  0.278011  0.280315  0.500000  1
  Tc  Tc21  1  0.439788  0.443640  0.000000  1
  Tc  Tc22  1  0.560212  0.003852  0.000000  1
  Tc  Tc23  1  0.000000  0.549931  0.000000  1
  Ge  Ge24  1  0.644101  0.644025  0.000000  1
  Ge  Ge25  1  0.355899  0.999924  0.000000  1
  P  P26  1  0.000000  0.358190  0.000000  1
  P  P27  1  0.480262  0.316358  0.500000  1
  P  P28  1  0.685700  0.166184  0.500000  1
  P  P29  1  0.834056  0.516541  0.500000  1
  P  P30  1  0.519738  0.836096  0.500000  1
  P  P31  1  0.165944  0.682484  0.500000  1
  P  P32  1  0.824783  0.001395  0.000000  1
  P  P33  1  0.000000  0.822480  0.000000  1
  P  P34  1  0.314300  0.480484  0.500000  1
  P  P35  1  0.175217  0.176612  0.000000  1
