# generated using pymatgen
data_Ce3LuGe6Os7
_symmetry_space_group_name_H-M   'P 1'
_cell_length_a   7.27417452
_cell_length_b   7.28551516
_cell_length_c   7.27417312
_cell_angle_alpha   109.50281651
_cell_angle_beta   109.43960262
_cell_angle_gamma   109.50281385
_symmetry_Int_Tables_number   1
_chemical_formula_structural   Ce3LuGe6Os7
_chemical_formula_sum   'Ce3 Lu1 Ge6 Os7'
_cell_volume   296.64447467
_cell_formula_units_Z   1
loop_
 _symmetry_equiv_pos_site_id
 _symmetry_equiv_pos_as_xyz
  1  'x, y, z'
loop_
 _atom_site_type_symbol
 _atom_site_label
 _atom_site_symmetry_multiplicity
 _atom_site_fract_x
 _atom_site_fract_y
 _atom_site_fract_z
 _atom_site_occupancy
  Ce  Ce0  1  0.000000  0.000000  0.500000  1
  Ce  Ce1  1  0.500000  0.000000  0.000000  1
  Ce  Ce2  1  0.500000  0.500000  0.500000  1
  Lu  Lu3  1  0.000000  0.500000  0.000000  1
  Ge  Ge4  1  0.689991  0.686045  0.000000  1
  Ge  Ge5  1  0.310009  0.996054  0.310009  1
  Ge  Ge6  1  0.000000  0.313955  0.310009  1
  Ge  Ge7  1  0.310009  0.313955  0.000000  1
  Ge  Ge8  1  0.689991  0.003946  0.689991  1
  Ge  Ge9  1  0.000000  0.686045  0.689991  1
  Os  Os10  1  0.750780  0.250780  0.501560  1
  Os  Os11  1  0.750780  0.500000  0.249220  1
  Os  Os12  1  0.501560  0.250780  0.750780  1
  Os  Os13  1  0.249220  0.500000  0.750780  1
  Os  Os14  1  0.249220  0.749220  0.498440  1
  Os  Os15  1  0.498440  0.749220  0.249220  1
  Os  Os16  1  0.000000  0.000000  0.000000  1
