# generated using pymatgen
data_Ho11Ni4Hg9
_symmetry_space_group_name_H-M   'P 1'
_cell_length_a   3.58063200
_cell_length_b   12.86643312
_cell_length_c   12.86643271
_cell_angle_alpha   112.28969232
_cell_angle_beta   90.00000000
_cell_angle_gamma   90.00000000
_symmetry_Int_Tables_number   1
_chemical_formula_structural   Ho11Ni4Hg9
_chemical_formula_sum   'Ho11 Ni4 Hg9'
_cell_volume   548.46413052
_cell_formula_units_Z   1
loop_
 _symmetry_equiv_pos_site_id
 _symmetry_equiv_pos_as_xyz
  1  'x, y, z'
loop_
 _atom_site_type_symbol
 _atom_site_label
 _atom_site_symmetry_multiplicity
 _atom_site_fract_x
 _atom_site_fract_y
 _atom_site_fract_z
 _atom_site_occupancy
  Ho  Ho0  1  0.000000  0.919104  0.583806  1
  Ho  Ho1  1  0.000000  0.080896  0.416194  1
  Ho  Ho2  1  0.000000  0.583806  0.919104  1
  Ho  Ho3  1  0.000000  0.416194  0.080896  1
  Ho  Ho4  1  0.000000  0.165250  0.834750  1
  Ho  Ho5  1  0.000000  0.834750  0.165250  1
  Ho  Ho6  1  0.000000  0.373349  0.626651  1
  Ho  Ho7  1  0.000000  0.626651  0.373349  1
  Ho  Ho8  1  0.000000  0.690516  0.690516  1
  Ho  Ho9  1  0.000000  0.309484  0.309484  1
  Ho  Ho10  1  0.000000  0.000000  0.000000  1
  Ni  Ni11  1  0.500000  0.749195  0.549098  1
  Ni  Ni12  1  0.500000  0.250805  0.450902  1
  Ni  Ni13  1  0.500000  0.549098  0.749195  1
  Ni  Ni14  1  0.500000  0.450902  0.250805  1
  Hg  Hg15  1  0.500000  0.154542  0.629270  1
  Hg  Hg16  1  0.500000  0.845458  0.370730  1
  Hg  Hg17  1  0.500000  0.629270  0.154542  1
  Hg  Hg18  1  0.500000  0.370730  0.845458  1
  Hg  Hg19  1  0.500000  0.927649  0.781494  1
  Hg  Hg20  1  0.500000  0.072351  0.218506  1
  Hg  Hg21  1  0.500000  0.781494  0.927649  1
  Hg  Hg22  1  0.500000  0.218506  0.072351  1
  Hg  Hg23  1  0.500000  0.500000  0.500000  1
