# generated using pymatgen
data_TmLu2Zr2Sn3
_symmetry_space_group_name_H-M   'P 1'
_cell_length_a   8.73733665
_cell_length_b   8.74662846
_cell_length_c   6.07328200
_cell_angle_alpha   90.00000000
_cell_angle_beta   90.00000000
_cell_angle_gamma   120.03519380
_symmetry_Int_Tables_number   1
_chemical_formula_structural   TmLu2Zr2Sn3
_chemical_formula_sum   'Tm2 Lu4 Zr4 Sn6'
_cell_volume   401.80903812
_cell_formula_units_Z   2
loop_
 _symmetry_equiv_pos_site_id
 _symmetry_equiv_pos_as_xyz
  1  'x, y, z'
loop_
 _atom_site_type_symbol
 _atom_site_label
 _atom_site_symmetry_multiplicity
 _atom_site_fract_x
 _atom_site_fract_y
 _atom_site_fract_z
 _atom_site_occupancy
  Tm  Tm0  1  0.760781  0.760775  0.750000  1
  Tm  Tm1  1  0.239219  0.999994  0.750000  1
  Lu  Lu2  1  0.000000  0.239601  0.750000  1
  Lu  Lu3  1  0.238911  0.239137  0.250000  1
  Lu  Lu4  1  0.761089  0.000226  0.250000  1
  Lu  Lu5  1  0.000000  0.760192  0.250000  1
  Zr  Zr6  1  0.666377  0.333370  0.000322  1
  Zr  Zr7  1  0.333623  0.666994  0.000322  1
  Zr  Zr8  1  0.333623  0.666994  0.499678  1
  Zr  Zr9  1  0.666377  0.333370  0.499678  1
  Sn  Sn10  1  0.398426  0.399471  0.750000  1
  Sn  Sn11  1  0.601574  0.001045  0.750000  1
  Sn  Sn12  1  0.000000  0.599657  0.750000  1
  Sn  Sn13  1  0.600625  0.600322  0.250000  1
  Sn  Sn14  1  0.399375  0.999697  0.250000  1
  Sn  Sn15  1  0.000000  0.399157  0.250000  1
