# generated using pymatgen
data_Nd2Fe6Co3Ni3P7
_symmetry_space_group_name_H-M   'P 1'
_cell_length_a   9.08271141
_cell_length_b   9.09633947
_cell_length_c   3.68068000
_cell_angle_alpha   90.00000000
_cell_angle_beta   90.00000000
_cell_angle_gamma   119.82532912
_symmetry_Int_Tables_number   1
_chemical_formula_structural   Nd2Fe6Co3Ni3P7
_chemical_formula_sum   'Nd2 Fe6 Co3 Ni3 P7'
_cell_volume   263.81688116
_cell_formula_units_Z   1
loop_
 _symmetry_equiv_pos_site_id
 _symmetry_equiv_pos_as_xyz
  1  'x, y, z'
loop_
 _atom_site_type_symbol
 _atom_site_label
 _atom_site_symmetry_multiplicity
 _atom_site_fract_x
 _atom_site_fract_y
 _atom_site_fract_z
 _atom_site_occupancy
  Nd  Nd0  1  0.666648  0.334126  0.000000  1
  Nd  Nd1  1  0.333169  0.665574  0.500000  1
  Fe  Fe2  1  0.271036  0.118320  0.000000  1
  Fe  Fe3  1  0.846744  0.728385  0.000000  1
  Fe  Fe4  1  0.881285  0.152317  0.000000  1
  Fe  Fe5  1  0.095619  0.879626  0.500000  1
  Fe  Fe6  1  0.787336  0.903983  0.500000  1
  Fe  Fe7  1  0.120880  0.220049  0.500000  1
  Co  Co8  1  0.370573  0.429706  0.000000  1
  Co  Co9  1  0.615834  0.567928  0.500000  1
  Co  Co10  1  0.952081  0.384291  0.500000  1
  Ni  Ni11  1  0.058309  0.626066  0.000000  1
  Ni  Ni12  1  0.568195  0.940367  0.000000  1
  Ni  Ni13  1  0.433419  0.050040  0.500000  1
  P  P14  1  0.292963  0.891861  0.000000  1
  P  P15  1  0.594785  0.698735  0.000000  1
  P  P16  1  0.107473  0.400170  0.000000  1
  P  P17  1  0.394520  0.291820  0.500000  1
  P  P18  1  0.888205  0.603723  0.500000  1
  P  P19  1  0.720364  0.112916  0.500000  1
  P  P20  1  0.000561  0.999996  0.000000  1
