# generated using pymatgen
data_Ti3Si2PtC
_symmetry_space_group_name_H-M   'P 1'
_cell_length_a   8.09619201
_cell_length_b   8.09582488
_cell_length_c   8.09670800
_cell_angle_alpha   59.99832059
_cell_angle_beta   59.99831645
_cell_angle_gamma   60.00285964
_symmetry_Int_Tables_number   1
_chemical_formula_structural   Ti3Si2PtC
_chemical_formula_sum   'Ti12 Si8 Pt4 C4'
_cell_volume   375.26125839
_cell_formula_units_Z   4
loop_
 _symmetry_equiv_pos_site_id
 _symmetry_equiv_pos_as_xyz
  1  'x, y, z'
loop_
 _atom_site_type_symbol
 _atom_site_label
 _atom_site_symmetry_multiplicity
 _atom_site_fract_x
 _atom_site_fract_y
 _atom_site_fract_z
 _atom_site_occupancy
  Ti  Ti0  1  0.934308  0.934369  0.565635  1
  Ti  Ti1  1  0.684352  0.315625  0.315703  1
  Ti  Ti2  1  0.315683  0.684298  0.684371  1
  Ti  Ti3  1  0.684371  0.684315  0.315682  1
  Ti  Ti4  1  0.684311  0.315666  0.684329  1
  Ti  Ti5  1  0.315638  0.684343  0.315654  1
  Ti  Ti6  1  0.565689  0.934334  0.565671  1
  Ti  Ti7  1  0.565648  0.934375  0.934297  1
  Ti  Ti8  1  0.934317  0.565702  0.565629  1
  Ti  Ti9  1  0.934362  0.565657  0.934346  1
  Ti  Ti10  1  0.315692  0.315631  0.684365  1
  Ti  Ti11  1  0.565629  0.565685  0.934318  1
  Si  Si12  1  0.910523  0.268439  0.910493  1
  Si  Si13  1  0.339554  0.339482  0.981453  1
  Si  Si14  1  0.981483  0.339458  0.339561  1
  Si  Si15  1  0.339507  0.339445  0.339526  1
  Si  Si16  1  0.268517  0.910542  0.910439  1
  Si  Si17  1  0.910493  0.910555  0.910474  1
  Si  Si18  1  0.910446  0.910518  0.268547  1
  Si  Si19  1  0.339477  0.981561  0.339507  1
  Pt  Pt20  1  0.125000  0.625000  0.125000  1
  Pt  Pt21  1  0.125000  0.125000  0.625000  1
  Pt  Pt22  1  0.625000  0.125000  0.125000  1
  Pt  Pt23  1  0.125000  0.125000  0.125000  1
  C  C24  1  0.625000  0.125000  0.625000  1
  C  C25  1  0.625000  0.625000  0.125000  1
  C  C26  1  0.125000  0.625000  0.625000  1
  C  C27  1  0.625000  0.625000  0.625000  1
