# generated using pymatgen
data_ErBi3O7
_symmetry_space_group_name_H-M   'P 1'
_cell_length_a   6.63881028
_cell_length_b   6.84224661
_cell_length_c   7.82583818
_cell_angle_alpha   106.66098218
_cell_angle_beta   89.39649092
_cell_angle_gamma   99.39703199
_symmetry_Int_Tables_number   1
_chemical_formula_structural   ErBi3O7
_chemical_formula_sum   'Er2 Bi6 O14'
_cell_volume   335.74218179
_cell_formula_units_Z   2
loop_
 _symmetry_equiv_pos_site_id
 _symmetry_equiv_pos_as_xyz
  1  'x, y, z'
loop_
 _atom_site_type_symbol
 _atom_site_label
 _atom_site_symmetry_multiplicity
 _atom_site_fract_x
 _atom_site_fract_y
 _atom_site_fract_z
 _atom_site_occupancy
  Er  Er0  1  0.461311  0.003520  0.249850  1
  Er  Er1  1  0.538689  0.996480  0.750150  1
  Bi  Bi2  1  0.000000  0.000000  0.500000  1
  Bi  Bi3  1  0.000000  0.000000  0.000000  1
  Bi  Bi4  1  0.261534  0.518739  0.879303  1
  Bi  Bi5  1  0.738466  0.481261  0.120697  1
  Bi  Bi6  1  0.723474  0.465254  0.609504  1
  Bi  Bi7  1  0.276526  0.534746  0.390496  1
  O  O8  1  0.464732  0.661139  0.184386  1
  O  O9  1  0.535268  0.338861  0.815614  1
  O  O10  1  0.305185  0.944054  0.952864  1
  O  O11  1  0.694815  0.055946  0.047136  1
  O  O12  1  0.298674  0.920384  0.512854  1
  O  O13  1  0.701326  0.079616  0.487146  1
  O  O14  1  0.529466  0.347641  0.351763  1
  O  O15  1  0.470534  0.652359  0.648237  1
  O  O16  1  0.915228  0.674235  0.959658  1
  O  O17  1  0.084772  0.325765  0.040342  1
  O  O18  1  0.096816  0.325563  0.623778  1
  O  O19  1  0.903184  0.674437  0.376222  1
  O  O20  1  0.874745  0.931312  0.732548  1
  O  O21  1  0.125255  0.068688  0.267452  1
