# generated using pymatgen
data_LaMgTa3CuH12
_symmetry_space_group_name_H-M   'P 1'
_cell_length_a   6.04723600
_cell_length_b   6.04723414
_cell_length_c   4.93114800
_cell_angle_alpha   90.00000000
_cell_angle_beta   90.00000000
_cell_angle_gamma   119.99998832
_symmetry_Int_Tables_number   1
_chemical_formula_structural   LaMgTa3CuH12
_chemical_formula_sum   'La1 Mg1 Ta3 Cu1 H12'
_cell_volume   156.16813423
_cell_formula_units_Z   1
loop_
 _symmetry_equiv_pos_site_id
 _symmetry_equiv_pos_as_xyz
  1  'x, y, z'
loop_
 _atom_site_type_symbol
 _atom_site_label
 _atom_site_symmetry_multiplicity
 _atom_site_fract_x
 _atom_site_fract_y
 _atom_site_fract_z
 _atom_site_occupancy
  La  La0  1  0.000000  0.000000  0.000000  1
  Mg  Mg1  1  0.333333  0.666667  0.000000  1
  Ta  Ta2  1  0.502548  0.005095  0.500000  1
  Ta  Ta3  1  0.994905  0.497452  0.500000  1
  Ta  Ta4  1  0.502548  0.497452  0.500000  1
  Cu  Cu5  1  0.666667  0.333333  0.000000  1
  H  H6  1  0.799147  0.598294  0.734085  1
  H  H7  1  0.198663  0.397326  0.274586  1
  H  H8  1  0.198663  0.801337  0.274586  1
  H  H9  1  0.799147  0.200853  0.265915  1
  H  H10  1  0.602674  0.801337  0.274586  1
  H  H11  1  0.401706  0.200853  0.265915  1
  H  H12  1  0.401706  0.200853  0.734085  1
  H  H13  1  0.198663  0.397326  0.725414  1
  H  H14  1  0.799147  0.200853  0.734085  1
  H  H15  1  0.602674  0.801337  0.725414  1
  H  H16  1  0.799147  0.598294  0.265915  1
  H  H17  1  0.198663  0.801337  0.725414  1
