# generated using pymatgen
data_ErSc7(Si4Ru3)4
_symmetry_space_group_name_H-M   'P 1'
_cell_length_a   9.96608867
_cell_length_b   9.96567444
_cell_length_c   13.44322449
_cell_angle_alpha   53.79341596
_cell_angle_beta   53.85094004
_cell_angle_gamma   31.03531233
_symmetry_Int_Tables_number   1
_chemical_formula_structural   ErSc7(Si4Ru3)4
_chemical_formula_sum   'Er1 Sc7 Si16 Ru12'
_cell_volume   544.06560139
_cell_formula_units_Z   1
loop_
 _symmetry_equiv_pos_site_id
 _symmetry_equiv_pos_as_xyz
  1  'x, y, z'
loop_
 _atom_site_type_symbol
 _atom_site_label
 _atom_site_symmetry_multiplicity
 _atom_site_fract_x
 _atom_site_fract_y
 _atom_site_fract_z
 _atom_site_occupancy
  Er  Er0  1  0.289852  0.036860  0.141101  1
  Sc  Sc1  1  0.294476  0.560365  0.643900  1
  Sc  Sc2  1  0.440653  0.704227  0.855341  1
  Sc  Sc3  1  0.704366  0.439639  0.356899  1
  Sc  Sc4  1  0.559502  0.295940  0.144250  1
  Sc  Sc5  1  0.037572  0.291863  0.638672  1
  Sc  Sc6  1  0.708683  0.962797  0.860483  1
  Sc  Sc7  1  0.961375  0.707904  0.361907  1
  Si  Si8  1  0.867231  0.128883  0.251208  1
  Si  Si9  1  0.128918  0.870842  0.750070  1
  Si  Si10  1  0.382594  0.613107  0.251551  1
  Si  Si11  1  0.617598  0.382787  0.749787  1
  Si  Si12  1  0.975719  0.252400  0.892504  1
  Si  Si13  1  0.747236  0.024598  0.607285  1
  Si  Si14  1  0.024577  0.749061  0.107168  1
  Si  Si15  1  0.253866  0.972378  0.396752  1
  Si  Si16  1  0.577549  0.081913  0.066724  1
  Si  Si17  1  0.919052  0.425753  0.433060  1
  Si  Si18  1  0.426748  0.918897  0.929560  1
  Si  Si19  1  0.079140  0.575613  0.566600  1
  Si  Si20  1  0.385877  0.141979  0.399272  1
  Si  Si21  1  0.860393  0.615769  0.099996  1
  Si  Si22  1  0.613802  0.856992  0.601175  1
  Si  Si23  1  0.141057  0.388580  0.896666  1
  Ru  Ru24  1  0.647244  0.832117  0.282608  1
  Ru  Ru25  1  0.170146  0.355138  0.218177  1
  Ru  Ru26  1  0.749889  0.493831  0.066963  1
  Ru  Ru27  1  0.832306  0.646854  0.781329  1
  Ru  Ru28  1  0.895679  0.141832  0.586881  1
  Ru  Ru29  1  0.860235  0.102781  0.913042  1
  Ru  Ru30  1  0.102788  0.858670  0.414185  1
  Ru  Ru31  1  0.141760  0.896365  0.086232  1
  Ru  Ru32  1  0.250545  0.505350  0.931975  1
  Ru  Ru33  1  0.491989  0.751175  0.568064  1
  Ru  Ru34  1  0.506808  0.247823  0.432580  1
  Ru  Ru35  1  0.352776  0.168918  0.716036  1
