# generated using pymatgen
data_Nb3TeI4Br3
_symmetry_space_group_name_H-M   'P 1'
_cell_length_a   7.56711500
_cell_length_b   7.57133327
_cell_length_c   7.42055246
_cell_angle_alpha   90.59970928
_cell_angle_beta   90.00000000
_cell_angle_gamma   119.98157615
_symmetry_Int_Tables_number   1
_chemical_formula_structural   Nb3TeI4Br3
_chemical_formula_sum   'Nb3 Te1 I4 Br3'
_cell_volume   368.22939690
_cell_formula_units_Z   1
loop_
 _symmetry_equiv_pos_site_id
 _symmetry_equiv_pos_as_xyz
  1  'x, y, z'
loop_
 _atom_site_type_symbol
 _atom_site_label
 _atom_site_symmetry_multiplicity
 _atom_site_fract_x
 _atom_site_fract_y
 _atom_site_fract_z
 _atom_site_occupancy
  Nb  Nb0  1  0.267216  0.130163  0.500319  1
  Nb  Nb1  1  0.862946  0.130163  0.500319  1
  Nb  Nb2  1  0.868615  0.737231  0.499577  1
  Te  Te3  1  0.998619  0.997238  0.216059  1
  I  I4  1  0.000467  0.496845  0.290744  1
  I  I5  1  0.667794  0.335588  0.706934  1
  I  I6  1  0.169175  0.338351  0.751338  1
  I  I7  1  0.496378  0.496845  0.290744  1
  Br  Br8  1  0.673774  0.837256  0.727591  1
  Br  Br9  1  0.498200  0.996399  0.318383  1
  Br  Br10  1  0.163482  0.837256  0.727591  1
