# generated using pymatgen
data_Tb3DyNi13C4
_symmetry_space_group_name_H-M   'P 1'
_cell_length_a   8.40440486
_cell_length_b   8.40440445
_cell_length_c   3.86638000
_cell_angle_alpha   90.00000000
_cell_angle_beta   90.00000000
_cell_angle_gamma   91.25485619
_symmetry_Int_Tables_number   1
_chemical_formula_structural   Tb3DyNi13C4
_chemical_formula_sum   'Tb3 Dy1 Ni13 C4'
_cell_volume   273.03245712
_cell_formula_units_Z   1
loop_
 _symmetry_equiv_pos_site_id
 _symmetry_equiv_pos_as_xyz
  1  'x, y, z'
loop_
 _atom_site_type_symbol
 _atom_site_label
 _atom_site_symmetry_multiplicity
 _atom_site_fract_x
 _atom_site_fract_y
 _atom_site_fract_z
 _atom_site_occupancy
  Tb  Tb0  1  0.812432  0.187568  0.500000  1
  Tb  Tb1  1  0.651489  0.651594  0.500000  1
  Tb  Tb2  1  0.348406  0.348511  0.500000  1
  Dy  Dy3  1  0.187478  0.812522  0.500000  1
  Ni  Ni4  1  0.499767  0.999883  0.500000  1
  Ni  Ni5  1  0.000117  0.500233  0.500000  1
  Ni  Ni6  1  0.000189  0.999811  0.000000  1
  Ni  Ni7  1  0.430718  0.784381  0.000000  1
  Ni  Ni8  1  0.568836  0.215682  0.000000  1
  Ni  Ni9  1  0.215619  0.569282  0.000000  1
  Ni  Ni10  1  0.784318  0.431164  0.000000  1
  Ni  Ni11  1  0.708658  0.925815  0.000000  1
  Ni  Ni12  1  0.291271  0.073835  0.000000  1
  Ni  Ni13  1  0.074185  0.291342  0.000000  1
  Ni  Ni14  1  0.926165  0.708729  0.000000  1
  Ni  Ni15  1  0.876935  0.876611  0.500000  1
  Ni  Ni16  1  0.123389  0.123065  0.500000  1
  C  C17  1  0.443166  0.556834  0.000000  1
  C  C18  1  0.556780  0.443220  0.000000  1
  C  C19  1  0.500049  0.999967  0.000000  1
  C  C20  1  0.000033  0.499951  0.000000  1
