# generated using pymatgen
data_TbYb2Y7(In2Pt)4
_symmetry_space_group_name_H-M   'P 1'
_cell_length_a   3.62171800
_cell_length_b   8.21217902
_cell_length_c   18.42641304
_cell_angle_alpha   90.00736539
_cell_angle_beta   90.00000000
_cell_angle_gamma   90.00000000
_symmetry_Int_Tables_number   1
_chemical_formula_structural   TbYb2Y7(In2Pt)4
_chemical_formula_sum   'Tb1 Yb2 Y7 In8 Pt4'
_cell_volume   548.04199404
_cell_formula_units_Z   1
loop_
 _symmetry_equiv_pos_site_id
 _symmetry_equiv_pos_as_xyz
  1  'x, y, z'
loop_
 _atom_site_type_symbol
 _atom_site_label
 _atom_site_symmetry_multiplicity
 _atom_site_fract_x
 _atom_site_fract_y
 _atom_site_fract_z
 _atom_site_occupancy
  Tb  Tb0  1  0.000000  0.743590  0.279600  1
  Yb  Yb1  1  0.000000  0.000006  0.000003  1
  Yb  Yb2  1  0.000000  0.500068  0.499972  1
  Y  Y3  1  0.000000  0.119336  0.414723  1
  Y  Y4  1  0.000000  0.880738  0.585476  1
  Y  Y5  1  0.000000  0.380661  0.914535  1
  Y  Y6  1  0.000000  0.619450  0.085345  1
  Y  Y7  1  0.000000  0.243330  0.220228  1
  Y  Y8  1  0.000000  0.756620  0.779776  1
  Y  Y9  1  0.000000  0.256666  0.720176  1
  In  In10  1  0.500000  0.424753  0.351072  1
  In  In11  1  0.500000  0.575137  0.648971  1
  In  In12  1  0.500000  0.074936  0.851016  1
  In  In13  1  0.500000  0.925248  0.148878  1
  In  In14  1  0.500000  0.292240  0.067280  1
  In  In15  1  0.500000  0.707690  0.932697  1
  In  In16  1  0.500000  0.207463  0.567291  1
  In  In17  1  0.500000  0.792435  0.432801  1
  Pt  Pt18  1  0.500000  0.022731  0.302827  1
  Pt  Pt19  1  0.500000  0.976750  0.697133  1
  Pt  Pt20  1  0.500000  0.476664  0.802904  1
  Pt  Pt21  1  0.500000  0.523486  0.197295  1
