# generated using pymatgen
data_Li3Ti(NbRh3)2
_symmetry_space_group_name_H-M   'P 1'
_cell_length_a   4.35938200
_cell_length_b   6.05971400
_cell_length_c   12.98401400
_cell_angle_alpha   90.00000000
_cell_angle_beta   90.00000000
_cell_angle_gamma   90.00000000
_symmetry_Int_Tables_number   1
_chemical_formula_structural   Li3Ti(NbRh3)2
_chemical_formula_sum   'Li6 Ti2 Nb4 Rh12'
_cell_volume   342.99360988
_cell_formula_units_Z   2
loop_
 _symmetry_equiv_pos_site_id
 _symmetry_equiv_pos_as_xyz
  1  'x, y, z'
loop_
 _atom_site_type_symbol
 _atom_site_label
 _atom_site_symmetry_multiplicity
 _atom_site_fract_x
 _atom_site_fract_y
 _atom_site_fract_z
 _atom_site_occupancy
  Li  Li0  1  0.999976  0.499999  0.997902  1
  Li  Li1  1  0.499802  0.000000  0.165006  1
  Li  Li2  1  0.999800  0.499999  0.334993  1
  Li  Li3  1  0.499976  0.000000  0.502098  1
  Li  Li4  1  0.000199  0.499999  0.667228  1
  Li  Li5  1  0.500200  0.000000  0.832773  1
  Ti  Ti6  1  0.000141  0.000000  0.669659  1
  Ti  Ti7  1  0.500142  0.499999  0.830340  1
  Nb  Nb8  1  0.000026  0.000000  0.995412  1
  Nb  Nb9  1  0.499859  0.499999  0.165339  1
  Nb  Nb10  1  0.999860  0.000000  0.334662  1
  Nb  Nb11  1  0.500026  0.499999  0.504588  1
  Rh  Rh12  1  0.500005  0.252136  0.997150  1
  Rh  Rh13  1  0.500005  0.747864  0.997150  1
  Rh  Rh14  1  0.999844  0.249455  0.165802  1
  Rh  Rh15  1  0.999844  0.750545  0.165802  1
  Rh  Rh16  1  0.499844  0.250544  0.334198  1
  Rh  Rh17  1  0.499844  0.749456  0.334198  1
  Rh  Rh18  1  0.000005  0.247865  0.502850  1
  Rh  Rh19  1  0.000005  0.752135  0.502850  1
  Rh  Rh20  1  0.500151  0.246733  0.668847  1
  Rh  Rh21  1  0.500151  0.753267  0.668847  1
  Rh  Rh22  1  0.000151  0.253266  0.831153  1
  Rh  Rh23  1  0.000151  0.746734  0.831153  1
