# generated using pymatgen
data_Ho4Er2ScCrO12
_symmetry_space_group_name_H-M   'P 1'
_cell_length_a   6.51861689
_cell_length_b   6.52136293
_cell_length_c   6.51884975
_cell_angle_alpha   92.83419306
_cell_angle_beta   92.84746166
_cell_angle_gamma   92.84257281
_symmetry_Int_Tables_number   1
_chemical_formula_structural   Ho4Er2ScCrO12
_chemical_formula_sum   'Ho4 Er2 Sc1 Cr1 O12'
_cell_volume   276.06080104
_cell_formula_units_Z   1
loop_
 _symmetry_equiv_pos_site_id
 _symmetry_equiv_pos_as_xyz
  1  'x, y, z'
loop_
 _atom_site_type_symbol
 _atom_site_label
 _atom_site_symmetry_multiplicity
 _atom_site_fract_x
 _atom_site_fract_y
 _atom_site_fract_z
 _atom_site_occupancy
  Ho  Ho0  1  0.435051  0.742167  0.925745  1
  Ho  Ho1  1  0.257398  0.074152  0.564592  1
  Ho  Ho2  1  0.073702  0.564898  0.257562  1
  Ho  Ho3  1  0.564980  0.257155  0.073955  1
  Er  Er4  1  0.742643  0.925973  0.435393  1
  Er  Er5  1  0.925828  0.435032  0.742411  1
  Sc  Sc6  1  0.999387  0.999773  0.999514  1
  Cr  Cr7  1  0.500472  0.499787  0.500283  1
  O  O8  1  0.589175  0.460143  0.799710  1
  O  O9  1  0.461208  0.800210  0.587313  1
  O  O10  1  0.800393  0.588784  0.461325  1
  O  O11  1  0.411957  0.539438  0.200313  1
  O  O12  1  0.540882  0.200054  0.412492  1
  O  O13  1  0.200314  0.412516  0.541012  1
  O  O14  1  0.067458  0.915483  0.308823  1
  O  O15  1  0.915558  0.308975  0.067326  1
  O  O16  1  0.690742  0.931214  0.086062  1
  O  O17  1  0.083899  0.690660  0.930683  1
  O  O18  1  0.930427  0.085475  0.690382  1
  O  O19  1  0.308526  0.068111  0.915105  1
