# generated using pymatgen
data_CaPrHg2(Ru2O7)2
_symmetry_space_group_name_H-M   'P 1'
_cell_length_a   7.31503382
_cell_length_b   7.46303310
_cell_length_c   7.31503389
_cell_angle_alpha   59.42056652
_cell_angle_beta   59.19605160
_cell_angle_gamma   59.42057611
_symmetry_Int_Tables_number   1
_chemical_formula_structural   CaPrHg2(Ru2O7)2
_chemical_formula_sum   'Ca1 Pr1 Hg2 Ru4 O14'
_cell_volume   278.17085800
_cell_formula_units_Z   1
loop_
 _symmetry_equiv_pos_site_id
 _symmetry_equiv_pos_as_xyz
  1  'x, y, z'
loop_
 _atom_site_type_symbol
 _atom_site_label
 _atom_site_symmetry_multiplicity
 _atom_site_fract_x
 _atom_site_fract_y
 _atom_site_fract_z
 _atom_site_occupancy
  Ca  Ca0  1  0.625000  0.625000  0.625000  1
  Pr  Pr1  1  0.625000  0.125000  0.625000  1
  Hg  Hg2  1  0.625000  0.625000  0.125000  1
  Hg  Hg3  1  0.125000  0.625000  0.625000  1
  Ru  Ru4  1  0.625000  0.125000  0.125000  1
  Ru  Ru5  1  0.125000  0.625000  0.125000  1
  Ru  Ru6  1  0.125000  0.125000  0.625000  1
  Ru  Ru7  1  0.125000  0.125000  0.125000  1
  O  O8  1  0.200413  0.190050  0.803453  1
  O  O9  1  0.187134  0.814344  0.187134  1
  O  O10  1  0.446547  0.059950  0.049587  1
  O  O11  1  0.194320  0.811969  0.806552  1
  O  O12  1  0.055680  0.438031  0.443448  1
  O  O13  1  0.806552  0.811969  0.194320  1
  O  O14  1  0.443448  0.438031  0.055680  1
  O  O15  1  0.487787  0.517941  0.487787  1
  O  O16  1  0.049587  0.059950  0.446547  1
  O  O17  1  0.455159  0.045633  0.455159  1
  O  O18  1  0.062866  0.435656  0.062866  1
  O  O19  1  0.762213  0.732059  0.762213  1
  O  O20  1  0.794841  0.204367  0.794841  1
  O  O21  1  0.803453  0.190050  0.200413  1
