# generated using pymatgen
data_SrHo6NiI12
_symmetry_space_group_name_H-M   'P 1'
_cell_length_a   9.73748555
_cell_length_b   9.73748580
_cell_length_c   9.73748614
_cell_angle_alpha   106.21272899
_cell_angle_beta   106.21272753
_cell_angle_gamma   106.21273759
_symmetry_Int_Tables_number   1
_chemical_formula_structural   SrHo6NiI12
_chemical_formula_sum   'Sr1 Ho6 Ni1 I12'
_cell_volume   784.85714043
_cell_formula_units_Z   1
loop_
 _symmetry_equiv_pos_site_id
 _symmetry_equiv_pos_as_xyz
  1  'x, y, z'
loop_
 _atom_site_type_symbol
 _atom_site_label
 _atom_site_symmetry_multiplicity
 _atom_site_fract_x
 _atom_site_fract_y
 _atom_site_fract_z
 _atom_site_occupancy
  Sr  Sr0  1  0.996630  0.996630  0.996630  1
  Ho  Ho1  1  0.519675  0.591246  0.788184  1
  Ho  Ho2  1  0.788184  0.519675  0.591246  1
  Ho  Ho3  1  0.591246  0.788184  0.519675  1
  Ho  Ho4  1  0.478627  0.406954  0.210265  1
  Ho  Ho5  1  0.210265  0.478627  0.406954  1
  Ho  Ho6  1  0.406954  0.210265  0.478627  1
  Ni  Ni7  1  0.499068  0.499068  0.499068  1
  I  I8  1  0.277547  0.822838  0.426453  1
  I  I9  1  0.426453  0.277547  0.822838  1
  I  I10  1  0.822838  0.426453  0.277547  1
  I  I11  1  0.720773  0.175467  0.571495  1
  I  I12  1  0.571495  0.720773  0.175467  1
  I  I13  1  0.175467  0.571495  0.720773  1
  I  I14  1  0.050311  0.129978  0.362603  1
  I  I15  1  0.362603  0.050311  0.129978  1
  I  I16  1  0.129978  0.362603  0.050311  1
  I  I17  1  0.947605  0.867558  0.632093  1
  I  I18  1  0.632093  0.947605  0.867558  1
  I  I19  1  0.867558  0.632093  0.947605  1
