# generated using pymatgen
data_Sm3Th(Sn5Rh3)2
_symmetry_space_group_name_H-M   'P 1'
_cell_length_a   13.60033338
_cell_length_b   13.60033280
_cell_length_c   7.32242419
_cell_angle_alpha   89.90791044
_cell_angle_beta   90.09208986
_cell_angle_gamma   161.02086460
_symmetry_Int_Tables_number   1
_chemical_formula_structural   Sm3Th(Sn5Rh3)2
_chemical_formula_sum   'Sm3 Th1 Sn10 Rh6'
_cell_volume   440.48968117
_cell_formula_units_Z   1
loop_
 _symmetry_equiv_pos_site_id
 _symmetry_equiv_pos_as_xyz
  1  'x, y, z'
loop_
 _atom_site_type_symbol
 _atom_site_label
 _atom_site_symmetry_multiplicity
 _atom_site_fract_x
 _atom_site_fract_y
 _atom_site_fract_z
 _atom_site_occupancy
  Sm  Sm0  1  0.172860  0.827140  0.754545  1
  Sm  Sm1  1  0.827293  0.172707  0.254393  1
  Sm  Sm2  1  0.475443  0.524557  0.738218  1
  Th  Th3  1  0.524646  0.475354  0.237153  1
  Sn  Sn4  1  0.880012  0.119988  0.730978  1
  Sn  Sn5  1  0.121193  0.878807  0.230148  1
  Sn  Sn6  1  0.704966  0.295034  0.048530  1
  Sn  Sn7  1  0.295346  0.704654  0.549097  1
  Sn  Sn8  1  0.596995  0.403005  0.616591  1
  Sn  Sn9  1  0.402862  0.597138  0.113496  1
  Sn  Sn10  1  0.950493  0.049507  0.402418  1
  Sn  Sn11  1  0.047989  0.952011  0.894861  1
  Sn  Sn12  1  0.290245  0.709755  0.975825  1
  Sn  Sn13  1  0.710045  0.289955  0.475842  1
  Rh  Rh14  1  0.050944  0.949056  0.514233  1
  Rh  Rh15  1  0.950009  0.049991  0.021817  1
  Rh  Rh16  1  0.777420  0.222580  0.763602  1
  Rh  Rh17  1  0.222515  0.777485  0.263600  1
  Rh  Rh18  1  0.393759  0.606241  0.482972  1
  Rh  Rh19  1  0.604966  0.395034  0.987682  1
