# generated using pymatgen
data_RbAgPO4
_symmetry_space_group_name_H-M   'P 1'
_cell_length_a   5.15711407
_cell_length_b   5.15711409
_cell_length_c   18.96551802
_cell_angle_alpha   87.39795783
_cell_angle_beta   87.39795620
_cell_angle_gamma   95.98680676
_symmetry_Int_Tables_number   1
_chemical_formula_structural   RbAgPO4
_chemical_formula_sum   'Rb4 Ag4 P4 O16'
_cell_volume   500.49691386
_cell_formula_units_Z   4
loop_
 _symmetry_equiv_pos_site_id
 _symmetry_equiv_pos_as_xyz
  1  'x, y, z'
loop_
 _atom_site_type_symbol
 _atom_site_label
 _atom_site_symmetry_multiplicity
 _atom_site_fract_x
 _atom_site_fract_y
 _atom_site_fract_z
 _atom_site_occupancy
  Rb  Rb0  1  0.230335  0.812168  0.078244  1
  Rb  Rb1  1  0.187830  0.769664  0.421756  1
  Rb  Rb2  1  0.812170  0.230336  0.578244  1
  Rb  Rb3  1  0.769665  0.187832  0.921756  1
  Ag  Ag4  1  0.198727  0.301169  0.250340  1
  Ag  Ag5  1  0.698831  0.801273  0.249660  1
  Ag  Ag6  1  0.301169  0.198727  0.750341  1
  Ag  Ag7  1  0.801272  0.698831  0.749659  1
  P  P8  1  0.710067  0.310621  0.140943  1
  P  P9  1  0.689380  0.289934  0.359057  1
  P  P10  1  0.310620  0.710066  0.640943  1
  P  P11  1  0.289934  0.689379  0.859057  1
  O  O12  1  0.643856  0.240608  0.066576  1
  O  O13  1  0.999093  0.261380  0.153209  1
  O  O14  1  0.661733  0.600423  0.152426  1
  O  O15  1  0.528037  0.131314  0.199539  1
  O  O16  1  0.868687  0.471963  0.300461  1
  O  O17  1  0.399577  0.338268  0.347574  1
  O  O18  1  0.738621  0.000908  0.346791  1
  O  O19  1  0.759392  0.356144  0.433424  1
  O  O20  1  0.240608  0.643856  0.566576  1
  O  O21  1  0.261379  0.999092  0.653209  1
  O  O22  1  0.600423  0.661732  0.652427  1
  O  O23  1  0.131313  0.528037  0.699540  1
  O  O24  1  0.471963  0.868686  0.800460  1
  O  O25  1  0.338267  0.399577  0.847574  1
  O  O26  1  0.000907  0.738620  0.846791  1
  O  O27  1  0.356144  0.759392  0.933424  1
