# generated using pymatgen
data_Yb6GdTm(Si3Pd)4
_symmetry_space_group_name_H-M   'P 1'
_cell_length_a   8.25392700
_cell_length_b   8.25392498
_cell_length_c   8.10878900
_cell_angle_alpha   90.00000000
_cell_angle_beta   90.00000000
_cell_angle_gamma   119.99999606
_symmetry_Int_Tables_number   1
_chemical_formula_structural   Yb6GdTm(Si3Pd)4
_chemical_formula_sum   'Yb6 Gd1 Tm1 Si12 Pd4'
_cell_volume   478.41830671
_cell_formula_units_Z   1
loop_
 _symmetry_equiv_pos_site_id
 _symmetry_equiv_pos_as_xyz
  1  'x, y, z'
loop_
 _atom_site_type_symbol
 _atom_site_label
 _atom_site_symmetry_multiplicity
 _atom_site_fract_x
 _atom_site_fract_y
 _atom_site_fract_z
 _atom_site_occupancy
  Yb  Yb0  1  0.501636  0.003273  0.250000  1
  Yb  Yb1  1  0.498352  0.996705  0.750000  1
  Yb  Yb2  1  0.996727  0.498364  0.250000  1
  Yb  Yb3  1  0.003295  0.501648  0.750000  1
  Yb  Yb4  1  0.501636  0.498364  0.250000  1
  Yb  Yb5  1  0.498352  0.501648  0.750000  1
  Gd  Gd6  1  0.000000  0.000000  0.750000  1
  Tm  Tm7  1  0.000000  0.000000  0.250000  1
  Si  Si8  1  0.163999  0.327998  0.003037  1
  Si  Si9  1  0.835945  0.671891  0.000609  1
  Si  Si10  1  0.672002  0.836001  0.003037  1
  Si  Si11  1  0.835945  0.671891  0.499391  1
  Si  Si12  1  0.328109  0.164055  0.000609  1
  Si  Si13  1  0.163999  0.327998  0.496963  1
  Si  Si14  1  0.163999  0.836001  0.003037  1
  Si  Si15  1  0.328109  0.164055  0.499391  1
  Si  Si16  1  0.835945  0.164055  0.000609  1
  Si  Si17  1  0.672002  0.836001  0.496963  1
  Si  Si18  1  0.835945  0.164055  0.499391  1
  Si  Si19  1  0.163999  0.836001  0.496963  1
  Pd  Pd20  1  0.333333  0.666667  0.003952  1
  Pd  Pd21  1  0.666667  0.333333  0.997162  1
  Pd  Pd22  1  0.666667  0.333333  0.502838  1
  Pd  Pd23  1  0.333333  0.666667  0.496048  1
