# generated using pymatgen
data_Yb(IO3)2
_symmetry_space_group_name_H-M   'P 1'
_cell_length_a   11.31685800
_cell_length_b   7.18371669
_cell_length_c   8.71477300
_cell_angle_alpha   53.55905547
_cell_angle_beta   90.00000000
_cell_angle_gamma   90.00000000
_symmetry_Int_Tables_number   1
_chemical_formula_structural   Yb(IO3)2
_chemical_formula_sum   'Yb4 I8 O24'
_cell_volume   569.95522366
_cell_formula_units_Z   4
loop_
 _symmetry_equiv_pos_site_id
 _symmetry_equiv_pos_as_xyz
  1  'x, y, z'
loop_
 _atom_site_type_symbol
 _atom_site_label
 _atom_site_symmetry_multiplicity
 _atom_site_fract_x
 _atom_site_fract_y
 _atom_site_fract_z
 _atom_site_occupancy
  Yb  Yb0  1  0.900492  0.226060  0.996105  1
  Yb  Yb1  1  0.099508  0.773940  0.003895  1
  Yb  Yb2  1  0.599508  0.226060  0.496105  1
  Yb  Yb3  1  0.400492  0.773940  0.503895  1
  I  I4  1  0.785580  0.680993  0.055079  1
  I  I5  1  0.214420  0.319007  0.944921  1
  I  I6  1  0.714420  0.680993  0.555079  1
  I  I7  1  0.285580  0.319007  0.444921  1
  I  I8  1  0.424675  0.761574  0.964676  1
  I  I9  1  0.924675  0.238426  0.535324  1
  I  I10  1  0.575325  0.238426  0.035324  1
  I  I11  1  0.075325  0.761574  0.464676  1
  O  O12  1  0.040515  0.023349  0.674874  1
  O  O13  1  0.791692  0.057009  0.623586  1
  O  O14  1  0.754459  0.540929  0.806428  1
  O  O15  1  0.540515  0.976651  0.825126  1
  O  O16  1  0.906714  0.379587  0.656498  1
  O  O17  1  0.607490  0.465536  0.596465  1
  O  O18  1  0.100191  0.119372  0.974597  1
  O  O19  1  0.254459  0.459071  0.693572  1
  O  O20  1  0.600191  0.880628  0.525403  1
  O  O21  1  0.245541  0.459071  0.193572  1
  O  O22  1  0.593286  0.379587  0.156498  1
  O  O23  1  0.708308  0.057009  0.123586  1
  O  O24  1  0.459485  0.023349  0.174874  1
  O  O25  1  0.892510  0.465536  0.096465  1
  O  O26  1  0.399809  0.119372  0.474597  1
  O  O27  1  0.959485  0.976651  0.325126  1
  O  O28  1  0.745541  0.540929  0.306428  1
  O  O29  1  0.208308  0.942991  0.376414  1
  O  O30  1  0.392510  0.534464  0.403535  1
  O  O31  1  0.093286  0.620413  0.343502  1
  O  O32  1  0.406714  0.620413  0.843502  1
  O  O33  1  0.291692  0.942991  0.876414  1
  O  O34  1  0.107490  0.534464  0.903535  1
  O  O35  1  0.899809  0.880628  0.025403  1
