# generated using pymatgen
data_ErTm3MnAl18Pd5
_symmetry_space_group_name_H-M   'P 1'
_cell_length_a   7.59209579
_cell_length_b   7.59212931
_cell_length_c   9.44411764
_cell_angle_alpha   89.94374258
_cell_angle_beta   89.93554139
_cell_angle_gamma   119.56768893
_symmetry_Int_Tables_number   1
_chemical_formula_structural   ErTm3MnAl18Pd5
_chemical_formula_sum   'Er1 Tm3 Mn1 Al18 Pd5'
_cell_volume   473.46927739
_cell_formula_units_Z   1
loop_
 _symmetry_equiv_pos_site_id
 _symmetry_equiv_pos_as_xyz
  1  'x, y, z'
loop_
 _atom_site_type_symbol
 _atom_site_label
 _atom_site_symmetry_multiplicity
 _atom_site_fract_x
 _atom_site_fract_y
 _atom_site_fract_z
 _atom_site_occupancy
  Er  Er0  1  0.994856  0.670176  0.248286  1
  Tm  Tm1  1  0.005097  0.329784  0.751901  1
  Tm  Tm2  1  0.670167  0.994947  0.248112  1
  Tm  Tm3  1  0.329821  0.005054  0.751907  1
  Mn  Mn4  1  0.000193  0.000473  0.999623  1
  Al  Al5  1  0.123134  0.123251  0.241562  1
  Al  Al6  1  0.876899  0.876847  0.758445  1
  Al  Al7  1  0.997998  0.323575  0.072457  1
  Al  Al8  1  0.001967  0.676327  0.927528  1
  Al  Al9  1  0.998881  0.664746  0.578698  1
  Al  Al10  1  0.335363  0.001194  0.421261  1
  Al  Al11  1  0.001052  0.335134  0.421250  1
  Al  Al12  1  0.664752  0.998850  0.578694  1
  Al  Al13  1  0.676332  0.001958  0.927608  1
  Al  Al14  1  0.323852  0.998151  0.072443  1
  Al  Al15  1  0.333592  0.333587  0.557991  1
  Al  Al16  1  0.666303  0.666411  0.441859  1
  Al  Al17  1  0.677552  0.677697  0.051756  1
  Al  Al18  1  0.322297  0.322284  0.948423  1
  Al  Al19  1  0.340646  0.546765  0.248209  1
  Al  Al20  1  0.659376  0.453163  0.751792  1
  Al  Al21  1  0.546714  0.340585  0.248201  1
  Al  Al22  1  0.453181  0.659329  0.751797  1
  Pd  Pd23  1  0.672283  0.327329  0.999862  1
  Pd  Pd24  1  0.327701  0.672406  0.999923  1
  Pd  Pd25  1  0.327441  0.672683  0.500111  1
  Pd  Pd26  1  0.672559  0.327101  0.500130  1
  Pd  Pd27  1  0.999993  0.000192  0.500171  1
