# generated using pymatgen
data_Y3Tm9Tc3Pt
_symmetry_space_group_name_H-M   'P 1'
_cell_length_a   6.21416130
_cell_length_b   7.38442640
_cell_length_c   9.06209800
_cell_angle_alpha   90.00000000
_cell_angle_beta   90.00000000
_cell_angle_gamma   89.80427527
_symmetry_Int_Tables_number   1
_chemical_formula_structural   Y3Tm9Tc3Pt
_chemical_formula_sum   'Y3 Tm9 Tc3 Pt1'
_cell_volume   415.83927839
_cell_formula_units_Z   1
loop_
 _symmetry_equiv_pos_site_id
 _symmetry_equiv_pos_as_xyz
  1  'x, y, z'
loop_
 _atom_site_type_symbol
 _atom_site_label
 _atom_site_symmetry_multiplicity
 _atom_site_fract_x
 _atom_site_fract_y
 _atom_site_fract_z
 _atom_site_occupancy
  Y  Y0  1  0.875151  0.540903  0.250000  1
  Y  Y1  1  0.125319  0.458229  0.750000  1
  Y  Y2  1  0.372769  0.964827  0.750000  1
  Tm  Tm3  1  0.334117  0.676702  0.067282  1
  Tm  Tm4  1  0.162738  0.176209  0.435827  1
  Tm  Tm5  1  0.662513  0.317029  0.557928  1
  Tm  Tm6  1  0.840062  0.830030  0.941000  1
  Tm  Tm7  1  0.662513  0.317029  0.942072  1
  Tm  Tm8  1  0.840062  0.830030  0.559000  1
  Tm  Tm9  1  0.334117  0.676702  0.432718  1
  Tm  Tm10  1  0.162738  0.176209  0.064173  1
  Tm  Tm11  1  0.622521  0.037477  0.250000  1
  Tc  Tc12  1  0.040137  0.886034  0.250000  1
  Tc  Tc13  1  0.458660  0.384000  0.250000  1
  Tc  Tc14  1  0.950410  0.115827  0.750000  1
  Pt  Pt15  1  0.556171  0.612761  0.750000  1
