# generated using pymatgen
data_TbHoTa6O18
_symmetry_space_group_name_H-M   'P 1'
_cell_length_a   7.52938800
_cell_length_b   5.30825566
_cell_length_c   8.31738876
_cell_angle_alpha   87.51686453
_cell_angle_beta   90.00000000
_cell_angle_gamma   90.00000000
_symmetry_Int_Tables_number   1
_chemical_formula_structural   TbHoTa6O18
_chemical_formula_sum   'Tb1 Ho1 Ta6 O18'
_cell_volume   332.11655425
_cell_formula_units_Z   1
loop_
 _symmetry_equiv_pos_site_id
 _symmetry_equiv_pos_as_xyz
  1  'x, y, z'
loop_
 _atom_site_type_symbol
 _atom_site_label
 _atom_site_symmetry_multiplicity
 _atom_site_fract_x
 _atom_site_fract_y
 _atom_site_fract_z
 _atom_site_occupancy
  Tb  Tb0  1  0.250000  0.966128  0.435001  1
  Ho  Ho1  1  0.750000  0.035571  0.565221  1
  Ta  Ta2  1  0.999955  0.000310  0.999783  1
  Ta  Ta3  1  0.500045  0.000310  0.999783  1
  Ta  Ta4  1  0.493484  0.528703  0.696563  1
  Ta  Ta5  1  0.006516  0.528703  0.696563  1
  Ta  Ta6  1  0.992334  0.471719  0.303770  1
  Ta  Ta7  1  0.507666  0.471719  0.303770  1
  O  O8  1  0.250000  0.905065  0.978020  1
  O  O9  1  0.935184  0.851744  0.784139  1
  O  O10  1  0.564816  0.851744  0.784139  1
  O  O11  1  0.955836  0.742515  0.467331  1
  O  O12  1  0.544164  0.742515  0.467331  1
  O  O13  1  0.250000  0.662267  0.654614  1
  O  O14  1  0.947187  0.675315  0.121034  1
  O  O15  1  0.552813  0.675315  0.121034  1
  O  O16  1  0.250000  0.574634  0.315156  1
  O  O17  1  0.750000  0.420898  0.685831  1
  O  O18  1  0.052778  0.325220  0.879180  1
  O  O19  1  0.447222  0.325220  0.879180  1
  O  O20  1  0.750000  0.334346  0.346106  1
  O  O21  1  0.041669  0.258176  0.532886  1
  O  O22  1  0.458331  0.258176  0.532886  1
  O  O23  1  0.063775  0.149579  0.214537  1
  O  O24  1  0.436225  0.149579  0.214537  1
  O  O25  1  0.750000  0.094530  0.021607  1
