# generated using pymatgen
data_LiEu3RuC6
_symmetry_space_group_name_H-M   'P 1'
_cell_length_a   8.67491300
_cell_length_b   8.67491272
_cell_length_c   5.22198000
_cell_angle_alpha   90.00000000
_cell_angle_beta   90.00000000
_cell_angle_gamma   119.99999725
_symmetry_Int_Tables_number   1
_chemical_formula_structural   LiEu3RuC6
_chemical_formula_sum   'Li2 Eu6 Ru2 C12'
_cell_volume   340.32675273
_cell_formula_units_Z   2
loop_
 _symmetry_equiv_pos_site_id
 _symmetry_equiv_pos_as_xyz
  1  'x, y, z'
loop_
 _atom_site_type_symbol
 _atom_site_label
 _atom_site_symmetry_multiplicity
 _atom_site_fract_x
 _atom_site_fract_y
 _atom_site_fract_z
 _atom_site_occupancy
  Li  Li0  1  0.000000  0.000000  0.500000  1
  Li  Li1  1  0.000000  0.000000  0.000000  1
  Eu  Eu2  1  0.623530  0.689083  0.750000  1
  Eu  Eu3  1  0.934447  0.623530  0.250000  1
  Eu  Eu4  1  0.689083  0.065553  0.250000  1
  Eu  Eu5  1  0.310917  0.934447  0.750000  1
  Eu  Eu6  1  0.065553  0.376470  0.750000  1
  Eu  Eu7  1  0.376470  0.310917  0.250000  1
  Ru  Ru8  1  0.666667  0.333333  0.750000  1
  Ru  Ru9  1  0.333333  0.666667  0.250000  1
  C  C10  1  0.970594  0.749817  0.750000  1
  C  C11  1  0.220777  0.970594  0.250000  1
  C  C12  1  0.749817  0.779223  0.250000  1
  C  C13  1  0.250183  0.220777  0.750000  1
  C  C14  1  0.779223  0.029406  0.750000  1
  C  C15  1  0.029406  0.250183  0.250000  1
  C  C16  1  0.861800  0.577723  0.750000  1
  C  C17  1  0.284076  0.861800  0.250000  1
  C  C18  1  0.577723  0.715924  0.250000  1
  C  C19  1  0.422277  0.284076  0.750000  1
  C  C20  1  0.138200  0.422277  0.250000  1
  C  C21  1  0.715924  0.138200  0.750000  1
