# generated using pymatgen
data_Na4BiSbO6
_symmetry_space_group_name_H-M   'P 1'
_cell_length_a   5.88831852
_cell_length_b   5.88831869
_cell_length_c   5.87614990
_cell_angle_alpha   99.65780310
_cell_angle_beta   99.65780141
_cell_angle_gamma   120.17719656
_symmetry_Int_Tables_number   1
_chemical_formula_structural   Na4BiSbO6
_chemical_formula_sum   'Na4 Bi1 Sb1 O6'
_cell_volume   165.86114013
_cell_formula_units_Z   1
loop_
 _symmetry_equiv_pos_site_id
 _symmetry_equiv_pos_as_xyz
  1  'x, y, z'
loop_
 _atom_site_type_symbol
 _atom_site_label
 _atom_site_symmetry_multiplicity
 _atom_site_fract_x
 _atom_site_fract_y
 _atom_site_fract_z
 _atom_site_occupancy
  Na  Na0  1  0.498433  0.501569  0.000000  1
  Na  Na1  1  0.013074  0.986929  0.500000  1
  Na  Na2  1  0.659217  0.340782  0.500000  1
  Na  Na3  1  0.334264  0.665735  0.500000  1
  Bi  Bi4  1  0.832562  0.167440  0.000000  1
  Sb  Sb5  1  0.166261  0.833741  0.000000  1
  O  O6  1  0.953370  0.612017  0.208427  1
  O  O7  1  0.526613  0.914766  0.216844  1
  O  O8  1  0.229402  0.186412  0.217511  1
  O  O9  1  0.813590  0.770600  0.782491  1
  O  O10  1  0.085236  0.473389  0.783158  1
  O  O11  1  0.387985  0.046632  0.791575  1
