# generated using pymatgen
data_Tb5Er(Lu2Sn3)2
_symmetry_space_group_name_H-M   'P 1'
_cell_length_a   8.91234172
_cell_length_b   8.91234190
_cell_length_c   6.45702600
_cell_angle_alpha   90.00000000
_cell_angle_beta   90.00000000
_cell_angle_gamma   119.85153157
_symmetry_Int_Tables_number   1
_chemical_formula_structural   Tb5Er(Lu2Sn3)2
_chemical_formula_sum   'Tb5 Er1 Lu4 Sn6'
_cell_volume   444.83057118
_cell_formula_units_Z   1
loop_
 _symmetry_equiv_pos_site_id
 _symmetry_equiv_pos_as_xyz
  1  'x, y, z'
loop_
 _atom_site_type_symbol
 _atom_site_label
 _atom_site_symmetry_multiplicity
 _atom_site_fract_x
 _atom_site_fract_y
 _atom_site_fract_z
 _atom_site_occupancy
  Tb  Tb0  1  0.238578  0.999652  0.750000  1
  Tb  Tb1  1  0.999652  0.238578  0.750000  1
  Tb  Tb2  1  0.241479  0.241479  0.250000  1
  Tb  Tb3  1  0.761231  0.999527  0.250000  1
  Tb  Tb4  1  0.999527  0.761231  0.250000  1
  Er  Er5  1  0.760149  0.760149  0.750000  1
  Lu  Lu6  1  0.666719  0.333013  0.999559  1
  Lu  Lu7  1  0.333013  0.666719  0.999559  1
  Lu  Lu8  1  0.333013  0.666719  0.500441  1
  Lu  Lu9  1  0.666719  0.333013  0.500441  1
  Sn  Sn10  1  0.398596  0.398596  0.750000  1
  Sn  Sn11  1  0.603409  0.998561  0.750000  1
  Sn  Sn12  1  0.998561  0.603409  0.750000  1
  Sn  Sn13  1  0.602566  0.602566  0.250000  1
  Sn  Sn14  1  0.397154  0.999636  0.250000  1
  Sn  Sn15  1  0.999636  0.397154  0.250000  1
