# generated using pymatgen
data_Sr4Pt6O18F
_symmetry_space_group_name_H-M   'P 1'
_cell_length_a   8.07836088
_cell_length_b   8.07819815
_cell_length_c   8.07720721
_cell_angle_alpha   109.47846777
_cell_angle_beta   109.48423598
_cell_angle_gamma   109.45665895
_symmetry_Int_Tables_number   1
_chemical_formula_structural   Sr4Pt6O18F
_chemical_formula_sum   'Sr4 Pt6 O18 F1'
_cell_volume   405.73876753
_cell_formula_units_Z   1
loop_
 _symmetry_equiv_pos_site_id
 _symmetry_equiv_pos_as_xyz
  1  'x, y, z'
loop_
 _atom_site_type_symbol
 _atom_site_label
 _atom_site_symmetry_multiplicity
 _atom_site_fract_x
 _atom_site_fract_y
 _atom_site_fract_z
 _atom_site_occupancy
  Sr  Sr0  1  0.999608  0.999925  0.329407  1
  Sr  Sr1  1  0.670506  0.670207  0.670610  1
  Sr  Sr2  1  0.000123  0.329582  0.999858  1
  Sr  Sr3  1  0.329703  0.000227  0.000114  1
  Pt  Pt4  1  0.499995  0.659321  0.159448  1
  Pt  Pt5  1  0.340596  0.840579  0.499988  1
  Pt  Pt6  1  0.840753  0.500090  0.340575  1
  Pt  Pt7  1  0.499882  0.340543  0.840573  1
  Pt  Pt8  1  0.159506  0.500176  0.659428  1
  Pt  Pt9  1  0.659360  0.159365  0.499985  1
  O  O10  1  0.652107  0.958221  0.270273  1
  O  O11  1  0.381613  0.729354  0.687696  1
  O  O12  1  0.693806  0.312042  0.041416  1
  O  O13  1  0.687972  0.381848  0.729723  1
  O  O14  1  0.041656  0.693911  0.312323  1
  O  O15  1  0.270668  0.652401  0.958642  1
  O  O16  1  0.312108  0.041430  0.693671  1
  O  O17  1  0.958716  0.270790  0.652384  1
  O  O18  1  0.729488  0.687948  0.381763  1
  O  O19  1  0.347797  0.618446  0.306308  1
  O  O20  1  0.618423  0.306346  0.347597  1
  O  O21  1  0.306176  0.347715  0.618204  1
  O  O22  1  0.646641  0.646672  0.000027  1
  O  O23  1  0.646456  0.999801  0.646767  1
  O  O24  1  0.000009  0.353180  0.353133  1
  O  O25  1  0.353022  0.999686  0.353231  1
  O  O26  1  0.000015  0.646881  0.646825  1
  O  O27  1  0.353268  0.353293  0.000032  1
  F  F28  1  0.000023  0.000019  0.999999  1
