# generated using pymatgen
data_LiNd2Si5PPd20
_symmetry_space_group_name_H-M   'P 1'
_cell_length_a   8.71268490
_cell_length_b   8.71268486
_cell_length_c   8.71683500
_cell_angle_alpha   59.98423796
_cell_angle_beta   59.98423814
_cell_angle_gamma   60.03150573
_symmetry_Int_Tables_number   1
_chemical_formula_structural   LiNd2Si5PPd20
_chemical_formula_sum   'Li1 Nd2 Si5 P1 Pd20'
_cell_volume   467.89411653
_cell_formula_units_Z   1
loop_
 _symmetry_equiv_pos_site_id
 _symmetry_equiv_pos_as_xyz
  1  'x, y, z'
loop_
 _atom_site_type_symbol
 _atom_site_label
 _atom_site_symmetry_multiplicity
 _atom_site_fract_x
 _atom_site_fract_y
 _atom_site_fract_z
 _atom_site_occupancy
  Li  Li0  1  0.000452  0.000452  0.999548  1
  Nd  Nd1  1  0.249803  0.249803  0.250197  1
  Nd  Nd2  1  0.749803  0.749803  0.750197  1
  Si  Si3  1  0.735349  0.263441  0.264651  1
  Si  Si4  1  0.263441  0.735349  0.736559  1
  Si  Si5  1  0.263441  0.735349  0.264651  1
  Si  Si6  1  0.735349  0.263441  0.736559  1
  Si  Si7  1  0.264318  0.264318  0.735682  1
  P  P8  1  0.736705  0.736705  0.263295  1
  Pd  Pd9  1  0.385325  0.385325  0.385027  1
  Pd  Pd10  1  0.615229  0.615229  0.612894  1
  Pd  Pd11  1  0.385325  0.385325  0.844325  1
  Pd  Pd12  1  0.387106  0.843354  0.384771  1
  Pd  Pd13  1  0.615229  0.615229  0.156646  1
  Pd  Pd14  1  0.614973  0.155675  0.614675  1
  Pd  Pd15  1  0.843354  0.387106  0.384771  1
  Pd  Pd16  1  0.155675  0.614973  0.614675  1
  Pd  Pd17  1  0.344530  0.999864  0.000136  1
  Pd  Pd18  1  0.656265  0.998125  0.001875  1
  Pd  Pd19  1  0.999864  0.344530  0.655470  1
  Pd  Pd20  1  0.998125  0.656265  0.343735  1
  Pd  Pd21  1  0.999864  0.344530  0.000136  1
  Pd  Pd22  1  0.656265  0.998125  0.343735  1
  Pd  Pd23  1  0.998125  0.656265  0.001875  1
  Pd  Pd24  1  0.344530  0.999864  0.655470  1
  Pd  Pd25  1  0.000389  0.000389  0.344537  1
  Pd  Pd26  1  0.000389  0.000389  0.654685  1
  Pd  Pd27  1  0.655463  0.345315  0.999611  1
  Pd  Pd28  1  0.345315  0.655463  0.999611  1
