# generated using pymatgen
data_CaPrLu2(B6Ru)2
_symmetry_space_group_name_H-M   'P 1'
_cell_length_a   3.65318500
_cell_length_b   9.14569434
_cell_length_c   11.58335230
_cell_angle_alpha   89.85479297
_cell_angle_beta   90.00000000
_cell_angle_gamma   90.00000000
_symmetry_Int_Tables_number   1
_chemical_formula_structural   CaPrLu2(B6Ru)2
_chemical_formula_sum   'Ca2 Pr2 Lu4 B24 Ru4'
_cell_volume   387.00913756
_cell_formula_units_Z   2
loop_
 _symmetry_equiv_pos_site_id
 _symmetry_equiv_pos_as_xyz
  1  'x, y, z'
loop_
 _atom_site_type_symbol
 _atom_site_label
 _atom_site_symmetry_multiplicity
 _atom_site_fract_x
 _atom_site_fract_y
 _atom_site_fract_z
 _atom_site_occupancy
  Ca  Ca0  1  0.000000  0.324388  0.415931  1
  Ca  Ca1  1  0.000000  0.675612  0.584069  1
  Pr  Pr2  1  0.000000  0.822384  0.086167  1
  Pr  Pr3  1  0.000000  0.177616  0.913833  1
  Lu  Lu4  1  0.000000  0.942576  0.371164  1
  Lu  Lu5  1  0.000000  0.057424  0.628836  1
  Lu  Lu6  1  0.000000  0.443586  0.132099  1
  Lu  Lu7  1  0.000000  0.556414  0.867901  1
  B  B8  1  0.500000  0.554856  0.432179  1
  B  B9  1  0.500000  0.445144  0.567821  1
  B  B10  1  0.500000  0.057235  0.071215  1
  B  B11  1  0.500000  0.942765  0.928785  1
  B  B12  1  0.500000  0.749612  0.417695  1
  B  B13  1  0.500000  0.250388  0.582305  1
  B  B14  1  0.500000  0.251709  0.085279  1
  B  B15  1  0.500000  0.748291  0.914721  1
  B  B16  1  0.500000  0.791205  0.267241  1
  B  B17  1  0.500000  0.208795  0.732759  1
  B  B18  1  0.500000  0.292447  0.236414  1
  B  B19  1  0.500000  0.707553  0.763586  1
  B  B20  1  0.500000  0.629454  0.186558  1
  B  B21  1  0.500000  0.370546  0.813442  1
  B  B22  1  0.500000  0.131174  0.316503  1
  B  B23  1  0.500000  0.868826  0.683497  1
  B  B24  1  0.500000  0.986069  0.215198  1
  B  B25  1  0.500000  0.013931  0.784802  1
  B  B26  1  0.500000  0.483958  0.288439  1
  B  B27  1  0.500000  0.516042  0.711561  1
  B  B28  1  0.500000  0.597074  0.026213  1
  B  B29  1  0.500000  0.402926  0.973787  1
  B  B30  1  0.500000  0.098176  0.473523  1
  B  B31  1  0.500000  0.901824  0.526477  1
  Ru  Ru32  1  0.000000  0.640600  0.318589  1
  Ru  Ru33  1  0.000000  0.359400  0.681411  1
  Ru  Ru34  1  0.000000  0.140767  0.182400  1
  Ru  Ru35  1  0.000000  0.859233  0.817600  1
