# generated using pymatgen
data_Tb2Sc2B12IrRu
_symmetry_space_group_name_H-M   'P 1'
_cell_length_a   3.56514400
_cell_length_b   8.99881805
_cell_length_c   11.38805906
_cell_angle_alpha   90.01150915
_cell_angle_beta   90.00000000
_cell_angle_gamma   90.00000000
_symmetry_Int_Tables_number   1
_chemical_formula_structural   Tb2Sc2B12IrRu
_chemical_formula_sum   'Tb4 Sc4 B24 Ir2 Ru2'
_cell_volume   365.35263897
_cell_formula_units_Z   2
loop_
 _symmetry_equiv_pos_site_id
 _symmetry_equiv_pos_as_xyz
  1  'x, y, z'
loop_
 _atom_site_type_symbol
 _atom_site_label
 _atom_site_symmetry_multiplicity
 _atom_site_fract_x
 _atom_site_fract_y
 _atom_site_fract_z
 _atom_site_occupancy
  Tb  Tb0  1  0.500000  0.318582  0.412440  1
  Tb  Tb1  1  0.500000  0.681418  0.587560  1
  Tb  Tb2  1  0.500000  0.178209  0.914908  1
  Tb  Tb3  1  0.500000  0.821791  0.085092  1
  Sc  Sc4  1  0.500000  0.442581  0.123944  1
  Sc  Sc5  1  0.500000  0.557419  0.876056  1
  Sc  Sc6  1  0.500000  0.052995  0.625301  1
  Sc  Sc7  1  0.500000  0.947005  0.374699  1
  B  B8  1  0.000000  0.100025  0.473146  1
  B  B9  1  0.000000  0.899975  0.526854  1
  B  B10  1  0.000000  0.399754  0.972874  1
  B  B11  1  0.000000  0.600246  0.027126  1
  B  B12  1  0.000000  0.129878  0.317351  1
  B  B13  1  0.000000  0.870122  0.682649  1
  B  B14  1  0.000000  0.370701  0.818478  1
  B  B15  1  0.000000  0.629299  0.181522  1
  B  B16  1  0.000000  0.055482  0.067415  1
  B  B17  1  0.000000  0.944518  0.932585  1
  B  B18  1  0.000000  0.444848  0.566429  1
  B  B19  1  0.000000  0.555152  0.433571  1
  B  B20  1  0.000000  0.481923  0.284703  1
  B  B21  1  0.000000  0.518077  0.715297  1
  B  B22  1  0.000000  0.017150  0.785248  1
  B  B23  1  0.000000  0.982850  0.214752  1
  B  B24  1  0.000000  0.253708  0.081475  1
  B  B25  1  0.000000  0.746292  0.918525  1
  B  B26  1  0.000000  0.245005  0.580748  1
  B  B27  1  0.000000  0.754995  0.419252  1
  B  B28  1  0.000000  0.294748  0.234544  1
  B  B29  1  0.000000  0.705252  0.765456  1
  B  B30  1  0.000000  0.204684  0.734729  1
  B  B31  1  0.000000  0.795316  0.265271  1
  Ir  Ir32  1  0.500000  0.359211  0.681088  1
  Ir  Ir33  1  0.500000  0.640789  0.318912  1
  Ru  Ru34  1  0.500000  0.140927  0.181659  1
  Ru  Ru35  1  0.500000  0.859073  0.818341  1
