# generated using pymatgen
data_Pr4HfSn3F28
_symmetry_space_group_name_H-M   'P 1'
_cell_length_a   5.78640311
_cell_length_b   9.28921059
_cell_length_c   12.46294200
_cell_angle_alpha   62.05002133
_cell_angle_beta   89.98887038
_cell_angle_gamma   90.02361274
_symmetry_Int_Tables_number   1
_chemical_formula_structural   Pr4HfSn3F28
_chemical_formula_sum   'Pr4 Hf1 Sn3 F28'
_cell_volume   591.75822649
_cell_formula_units_Z   1
loop_
 _symmetry_equiv_pos_site_id
 _symmetry_equiv_pos_as_xyz
  1  'x, y, z'
loop_
 _atom_site_type_symbol
 _atom_site_label
 _atom_site_symmetry_multiplicity
 _atom_site_fract_x
 _atom_site_fract_y
 _atom_site_fract_z
 _atom_site_occupancy
  Pr  Pr0  1  0.757799  0.811150  0.764673  1
  Pr  Pr1  1  0.258160  0.188720  0.735681  1
  Pr  Pr2  1  0.242352  0.189006  0.234163  1
  Pr  Pr3  1  0.741399  0.812620  0.264078  1
  Hf  Hf4  1  0.745474  0.274253  0.457319  1
  Sn  Sn5  1  0.755371  0.274440  0.957391  1
  Sn  Sn6  1  0.255199  0.726360  0.542172  1
  Sn  Sn7  1  0.244631  0.726507  0.042218  1
  F  F8  1  0.448045  0.708695  0.919492  1
  F  F9  1  0.950907  0.288541  0.581141  1
  F  F10  1  0.552432  0.292358  0.080095  1
  F  F11  1  0.052167  0.708423  0.419263  1
  F  F12  1  0.456918  0.282517  0.544956  1
  F  F13  1  0.958063  0.714401  0.956354  1
  F  F14  1  0.542398  0.715915  0.455814  1
  F  F15  1  0.041973  0.286568  0.043200  1
  F  F16  1  0.766103  0.515960  0.860041  1
  F  F17  1  0.268231  0.484360  0.639037  1
  F  F18  1  0.234350  0.484675  0.139873  1
  F  F19  1  0.731067  0.517629  0.361326  1
  F  F20  1  0.762203  0.031785  0.052168  1
  F  F21  1  0.261228  0.969036  0.447300  1
  F  F22  1  0.238795  0.969184  0.948138  1
  F  F23  1  0.738174  0.030891  0.554884  1
  F  F24  1  0.978973  0.729594  0.637152  1
  F  F25  1  0.478998  0.270001  0.863196  1
  F  F26  1  0.021698  0.268804  0.362009  1
  F  F27  1  0.520929  0.730266  0.137054  1
  F  F28  1  0.046389  0.741612  0.168501  1
  F  F29  1  0.547826  0.255098  0.331510  1
  F  F30  1  0.952496  0.258474  0.831348  1
  F  F31  1  0.452233  0.741664  0.668601  1
  F  F32  1  0.408459  0.966916  0.229884  1
  F  F33  1  0.908891  0.033987  0.269042  1
  F  F34  1  0.589946  0.032788  0.769242  1
  F  F35  1  0.089725  0.966798  0.731685  1
