# generated using pymatgen
data_Pr3SnHg2Pt2Rh
_symmetry_space_group_name_H-M   'P 1'
_cell_length_a   7.89703696
_cell_length_b   7.78870680
_cell_length_c   3.96221000
_cell_angle_alpha   90.00000000
_cell_angle_beta   90.00000000
_cell_angle_gamma   119.54723686
_symmetry_Int_Tables_number   1
_chemical_formula_structural   Pr3SnHg2Pt2Rh
_chemical_formula_sum   'Pr3 Sn1 Hg2 Pt2 Rh1'
_cell_volume   212.01228271
_cell_formula_units_Z   1
loop_
 _symmetry_equiv_pos_site_id
 _symmetry_equiv_pos_as_xyz
  1  'x, y, z'
loop_
 _atom_site_type_symbol
 _atom_site_label
 _atom_site_symmetry_multiplicity
 _atom_site_fract_x
 _atom_site_fract_y
 _atom_site_fract_z
 _atom_site_occupancy
  Pr  Pr0  1  0.593574  0.995565  0.500000  1
  Pr  Pr1  1  0.406426  0.401991  0.500000  1
  Pr  Pr2  1  0.000000  0.601226  0.500000  1
  Sn  Sn3  1  0.000000  0.252796  0.000000  1
  Hg  Hg4  1  0.256126  0.999440  0.000000  1
  Hg  Hg5  1  0.743874  0.743314  0.000000  1
  Pt  Pt6  1  0.323396  0.652396  0.000000  1
  Pt  Pt7  1  0.676604  0.328999  0.000000  1
  Rh  Rh8  1  0.000000  0.024272  0.500000  1
