# generated using pymatgen
data_CaLa2Ge3As3Pd20
_symmetry_space_group_name_H-M   'P 1'
_cell_length_a   8.91514051
_cell_length_b   8.92672110
_cell_length_c   8.94055716
_cell_angle_alpha   59.86298512
_cell_angle_beta   59.99144793
_cell_angle_gamma   60.14556303
_symmetry_Int_Tables_number   1
_chemical_formula_structural   CaLa2Ge3As3Pd20
_chemical_formula_sum   'Ca1 La2 Ge3 As3 Pd20'
_cell_volume   503.11171983
_cell_formula_units_Z   1
loop_
 _symmetry_equiv_pos_site_id
 _symmetry_equiv_pos_as_xyz
  1  'x, y, z'
loop_
 _atom_site_type_symbol
 _atom_site_label
 _atom_site_symmetry_multiplicity
 _atom_site_fract_x
 _atom_site_fract_y
 _atom_site_fract_z
 _atom_site_occupancy
  Ca  Ca0  1  0.000296  0.999704  0.000296  1
  La  La1  1  0.250125  0.249875  0.250125  1
  La  La2  1  0.750125  0.749875  0.750125  1
  Ge  Ge3  1  0.734611  0.265389  0.734611  1
  Ge  Ge4  1  0.265777  0.264514  0.735486  1
  Ge  Ge5  1  0.735486  0.734223  0.265777  1
  As  As6  1  0.737076  0.262924  0.263647  1
  As  As7  1  0.263647  0.736353  0.737076  1
  As  As8  1  0.262914  0.737086  0.262914  1
  Pd  Pd9  1  0.384575  0.384210  0.384416  1
  Pd  Pd10  1  0.615691  0.616215  0.616157  1
  Pd  Pd11  1  0.383785  0.384309  0.848064  1
  Pd  Pd12  1  0.384416  0.846800  0.384575  1
  Pd  Pd13  1  0.615790  0.615425  0.153200  1
  Pd  Pd14  1  0.616157  0.151936  0.615691  1
  Pd  Pd15  1  0.848064  0.383843  0.383785  1
  Pd  Pd16  1  0.153200  0.615584  0.615790  1
  Pd  Pd17  1  0.350536  0.001052  0.998948  1
  Pd  Pd18  1  0.651994  0.999369  0.000631  1
  Pd  Pd19  1  0.000631  0.348006  0.651994  1
  Pd  Pd20  1  0.998948  0.649464  0.350536  1
  Pd  Pd21  1  0.000203  0.350317  0.997398  1
  Pd  Pd22  1  0.649683  0.999797  0.347919  1
  Pd  Pd23  1  0.997398  0.652081  0.000203  1
  Pd  Pd24  1  0.347919  0.002602  0.649683  1
  Pd  Pd25  1  0.000294  0.999706  0.349762  1
  Pd  Pd26  1  0.998927  0.001073  0.651966  1
  Pd  Pd27  1  0.651966  0.348034  0.998927  1
  Pd  Pd28  1  0.349762  0.650238  0.000294  1
