# generated using pymatgen
data_K2Tm2Zr3Se10
_symmetry_space_group_name_H-M   'P 1'
_cell_length_a   6.77541933
_cell_length_b   11.43505593
_cell_length_c   9.13551555
_cell_angle_alpha   59.70629012
_cell_angle_beta   68.38698042
_cell_angle_gamma   90.08575680
_symmetry_Int_Tables_number   1
_chemical_formula_structural   K2Tm2Zr3Se10
_chemical_formula_sum   'K2 Tm2 Zr3 Se10'
_cell_volume   552.49642101
_cell_formula_units_Z   1
loop_
 _symmetry_equiv_pos_site_id
 _symmetry_equiv_pos_as_xyz
  1  'x, y, z'
loop_
 _atom_site_type_symbol
 _atom_site_label
 _atom_site_symmetry_multiplicity
 _atom_site_fract_x
 _atom_site_fract_y
 _atom_site_fract_z
 _atom_site_occupancy
  K  K0  1  0.786555  0.075233  0.425897  1
  K  K1  1  0.011919  0.524978  0.974992  1
  Tm  Tm2  1  0.799933  0.600390  0.402080  1
  Tm  Tm3  1  0.201678  0.399323  0.594974  1
  Zr  Zr4  1  0.398210  0.796415  0.202577  1
  Zr  Zr5  1  0.601760  0.202942  0.802285  1
  Zr  Zr6  1  0.999297  0.999334  0.999104  1
  Se  Se7  1  0.001338  0.845118  0.343838  1
  Se  Se8  1  0.593729  0.036709  0.150218  1
  Se  Se9  1  0.189578  0.231974  0.959919  1
  Se  Se10  1  0.776813  0.429705  0.765541  1
  Se  Se11  1  0.385792  0.647024  0.545146  1
  Se  Se12  1  0.403993  0.964039  0.852730  1
  Se  Se13  1  0.998913  0.153410  0.656386  1
  Se  Se14  1  0.618611  0.351219  0.452196  1
  Se  Se15  1  0.224628  0.571123  0.232644  1
  Se  Se16  1  0.807253  0.771063  0.039473  1
