# generated using pymatgen
data_La5Pr2Th(ZnRh)8
_symmetry_space_group_name_H-M   'P 1'
_cell_length_a   4.05001600
_cell_length_b   7.44114670
_cell_length_c   16.71708557
_cell_angle_alpha   89.65871945
_cell_angle_beta   90.00000000
_cell_angle_gamma   90.00000000
_symmetry_Int_Tables_number   1
_chemical_formula_structural   La5Pr2Th(ZnRh)8
_chemical_formula_sum   'La5 Pr2 Th1 Zn8 Rh8'
_cell_volume   503.78991162
_cell_formula_units_Z   1
loop_
 _symmetry_equiv_pos_site_id
 _symmetry_equiv_pos_as_xyz
  1  'x, y, z'
loop_
 _atom_site_type_symbol
 _atom_site_label
 _atom_site_symmetry_multiplicity
 _atom_site_fract_x
 _atom_site_fract_y
 _atom_site_fract_z
 _atom_site_occupancy
  La  La0  1  0.750000  0.948490  0.283343  1
  La  La1  1  0.250000  0.049614  0.716133  1
  La  La2  1  0.250000  0.170860  0.940421  1
  La  La3  1  0.250000  0.549252  0.784408  1
  La  La4  1  0.250000  0.674099  0.559688  1
  Pr  Pr5  1  0.750000  0.825122  0.059875  1
  Pr  Pr6  1  0.750000  0.331827  0.440548  1
  Th  Th7  1  0.750000  0.448105  0.216632  1
  Zn  Zn8  1  0.250000  0.004747  0.440627  1
  Zn  Zn9  1  0.750000  0.503605  0.941656  1
  Zn  Zn10  1  0.750000  0.006145  0.558696  1
  Zn  Zn11  1  0.250000  0.624139  0.351619  1
  Zn  Zn12  1  0.750000  0.375443  0.650085  1
  Zn  Zn13  1  0.750000  0.875746  0.850344  1
  Zn  Zn14  1  0.250000  0.498942  0.058263  1
  Zn  Zn15  1  0.250000  0.121420  0.149692  1
  Rh  Rh16  1  0.250000  0.244987  0.566791  1
  Rh  Rh17  1  0.750000  0.258992  0.068108  1
  Rh  Rh18  1  0.250000  0.251527  0.306036  1
  Rh  Rh19  1  0.750000  0.255327  0.815077  1
  Rh  Rh20  1  0.250000  0.743784  0.932695  1
  Rh  Rh21  1  0.750000  0.756588  0.685860  1
  Rh  Rh22  1  0.750000  0.761160  0.434457  1
  Rh  Rh23  1  0.250000  0.720078  0.188949  1
