# generated using pymatgen
data_Tm3Co2NiSn3
_symmetry_space_group_name_H-M   'P 1'
_cell_length_a   7.31471100
_cell_length_b   7.31471078
_cell_length_c   3.74593400
_cell_angle_alpha   90.00000000
_cell_angle_beta   90.00000000
_cell_angle_gamma   120.00000554
_symmetry_Int_Tables_number   1
_chemical_formula_structural   Tm3Co2NiSn3
_chemical_formula_sum   'Tm3 Co2 Ni1 Sn3'
_cell_volume   173.57415495
_cell_formula_units_Z   1
loop_
 _symmetry_equiv_pos_site_id
 _symmetry_equiv_pos_as_xyz
  1  'x, y, z'
loop_
 _atom_site_type_symbol
 _atom_site_label
 _atom_site_symmetry_multiplicity
 _atom_site_fract_x
 _atom_site_fract_y
 _atom_site_fract_z
 _atom_site_occupancy
  Tm  Tm0  1  0.006392  0.407684  0.000000  1
  Tm  Tm1  1  0.592316  0.598708  0.000000  1
  Tm  Tm2  1  0.401292  0.993608  0.000000  1
  Co  Co3  1  0.333333  0.666667  0.500000  1
  Co  Co4  1  0.000000  0.000000  0.000000  1
  Ni  Ni5  1  0.666667  0.333333  0.500000  1
  Sn  Sn6  1  0.261122  0.260938  0.500000  1
  Sn  Sn7  1  0.999816  0.738878  0.500000  1
  Sn  Sn8  1  0.739062  0.000184  0.500000  1
