# generated using pymatgen
data_Tb4YbDy2PtI12
_symmetry_space_group_name_H-M   'P 1'
_cell_length_a   9.82002625
_cell_length_b   9.82125046
_cell_length_c   9.81910057
_cell_angle_alpha   106.97829116
_cell_angle_beta   106.89511913
_cell_angle_gamma   106.92557866
_symmetry_Int_Tables_number   1
_chemical_formula_structural   Tb4YbDy2PtI12
_chemical_formula_sum   'Tb4 Yb1 Dy2 Pt1 I12'
_cell_volume   790.10954069
_cell_formula_units_Z   1
loop_
 _symmetry_equiv_pos_site_id
 _symmetry_equiv_pos_as_xyz
  1  'x, y, z'
loop_
 _atom_site_type_symbol
 _atom_site_label
 _atom_site_symmetry_multiplicity
 _atom_site_fract_x
 _atom_site_fract_y
 _atom_site_fract_z
 _atom_site_occupancy
  Tb  Tb0  1  0.026527  0.302682  0.099008  1
  Tb  Tb1  1  0.901830  0.973632  0.697563  1
  Tb  Tb2  1  0.697553  0.901411  0.973804  1
  Tb  Tb3  1  0.973863  0.697578  0.901635  1
  Yb  Yb4  1  0.500089  0.500019  0.500075  1
  Dy  Dy5  1  0.098460  0.026577  0.301030  1
  Dy  Dy6  1  0.300982  0.098213  0.026475  1
  Pt  Pt7  1  0.000014  0.000113  0.000076  1
  I  I8  1  0.073694  0.679758  0.225264  1
  I  I9  1  0.224736  0.073373  0.678581  1
  I  I10  1  0.677195  0.223861  0.073065  1
  I  I11  1  0.926712  0.321538  0.775767  1
  I  I12  1  0.777561  0.927307  0.321934  1
  I  I13  1  0.322005  0.777425  0.927280  1
  I  I14  1  0.457747  0.152659  0.380645  1
  I  I15  1  0.382014  0.457856  0.152842  1
  I  I16  1  0.153300  0.380579  0.459338  1
  I  I17  1  0.540882  0.846597  0.618213  1
  I  I18  1  0.618138  0.540721  0.846618  1
  I  I19  1  0.846697  0.618100  0.540784  1
