# generated using pymatgen
data_Ce3Ti(Al3Pd)8
_symmetry_space_group_name_H-M   'P 1'
_cell_length_a   8.54437479
_cell_length_b   8.53252428
_cell_length_c   8.54585489
_cell_angle_alpha   89.56244749
_cell_angle_beta   89.64370315
_cell_angle_gamma   89.55881125
_symmetry_Int_Tables_number   1
_chemical_formula_structural   Ce3Ti(Al3Pd)8
_chemical_formula_sum   'Ce3 Ti1 Al24 Pd8'
_cell_volume   622.98782233
_cell_formula_units_Z   1
loop_
 _symmetry_equiv_pos_site_id
 _symmetry_equiv_pos_as_xyz
  1  'x, y, z'
loop_
 _atom_site_type_symbol
 _atom_site_label
 _atom_site_symmetry_multiplicity
 _atom_site_fract_x
 _atom_site_fract_y
 _atom_site_fract_z
 _atom_site_occupancy
  Ce  Ce0  1  0.000000  0.500000  0.000000  1
  Ce  Ce1  1  0.500000  0.000000  0.000000  1
  Ce  Ce2  1  0.000000  0.000000  0.500000  1
  Ti  Ti3  1  0.500000  0.500000  0.500000  1
  Al  Al4  1  0.991109  0.641178  0.640958  1
  Al  Al5  1  0.640970  0.641160  0.991094  1
  Al  Al6  1  0.640969  0.991185  0.640949  1
  Al  Al7  1  0.008891  0.358822  0.359042  1
  Al  Al8  1  0.359030  0.358840  0.008906  1
  Al  Al9  1  0.359031  0.008815  0.359051  1
  Al  Al10  1  0.735784  0.500015  0.264170  1
  Al  Al11  1  0.264216  0.499985  0.735830  1
  Al  Al12  1  0.499856  0.264304  0.736168  1
  Al  Al13  1  0.500144  0.735696  0.263832  1
  Al  Al14  1  0.263877  0.735716  0.500135  1
  Al  Al15  1  0.736123  0.264284  0.499865  1
  Al  Al16  1  0.835132  0.144454  0.835137  1
  Al  Al17  1  0.144482  0.835084  0.834998  1
  Al  Al18  1  0.835036  0.835122  0.144436  1
  Al  Al19  1  0.164868  0.855546  0.164863  1
  Al  Al20  1  0.855518  0.164916  0.165002  1
  Al  Al21  1  0.164964  0.164878  0.855564  1
  Al  Al22  1  0.730676  0.489291  0.730702  1
  Al  Al23  1  0.489070  0.730664  0.730980  1
  Al  Al24  1  0.730960  0.730683  0.489063  1
  Al  Al25  1  0.269324  0.510709  0.269298  1
  Al  Al26  1  0.510930  0.269336  0.269020  1
  Al  Al27  1  0.269040  0.269317  0.510937  1
  Pd  Pd28  1  0.830942  0.830859  0.830921  1
  Pd  Pd29  1  0.169058  0.169141  0.169079  1
  Pd  Pd30  1  0.663229  0.336833  0.999915  1
  Pd  Pd31  1  0.999944  0.336830  0.663179  1
  Pd  Pd32  1  0.336834  0.000037  0.663123  1
  Pd  Pd33  1  0.336771  0.663167  0.000085  1
  Pd  Pd34  1  0.000056  0.663170  0.336821  1
  Pd  Pd35  1  0.663166  0.999963  0.336877  1
