# generated using pymatgen
data_La12Os3RuBr12
_symmetry_space_group_name_H-M   'P 1'
_cell_length_a   10.61596155
_cell_length_b   10.61596141
_cell_length_c   10.61596134
_cell_angle_alpha   109.48564088
_cell_angle_beta   109.48563603
_cell_angle_gamma   109.48564736
_symmetry_Int_Tables_number   1
_chemical_formula_structural   La12Os3RuBr12
_chemical_formula_sum   'La12 Os3 Ru1 Br12'
_cell_volume   920.50046474
_cell_formula_units_Z   1
loop_
 _symmetry_equiv_pos_site_id
 _symmetry_equiv_pos_as_xyz
  1  'x, y, z'
loop_
 _atom_site_type_symbol
 _atom_site_label
 _atom_site_symmetry_multiplicity
 _atom_site_fract_x
 _atom_site_fract_y
 _atom_site_fract_z
 _atom_site_occupancy
  La  La0  1  0.266121  0.750000  0.233879  1
  La  La1  1  0.483806  0.750000  0.016194  1
  La  La2  1  0.233477  0.467450  0.484132  1
  La  La3  1  0.015868  0.032550  0.266523  1
  La  La4  1  0.233879  0.266121  0.750000  1
  La  La5  1  0.016194  0.483806  0.750000  1
  La  La6  1  0.484132  0.233477  0.467450  1
  La  La7  1  0.266523  0.015868  0.032550  1
  La  La8  1  0.750000  0.233879  0.266121  1
  La  La9  1  0.750000  0.016194  0.483806  1
  La  La10  1  0.467450  0.484132  0.233477  1
  La  La11  1  0.032550  0.266523  0.015868  1
  Os  Os12  1  0.499420  0.000580  0.250000  1
  Os  Os13  1  0.250000  0.499420  0.000580  1
  Os  Os14  1  0.000580  0.250000  0.499420  1
  Ru  Ru15  1  0.250000  0.250000  0.250000  1
  Br  Br16  1  0.250000  0.994319  0.505681  1
  Br  Br17  1  0.511544  0.505737  0.755492  1
  Br  Br18  1  0.250000  0.755824  0.744176  1
  Br  Br19  1  0.988456  0.744508  0.994263  1
  Br  Br20  1  0.994319  0.505681  0.250000  1
  Br  Br21  1  0.744508  0.994263  0.988456  1
  Br  Br22  1  0.755824  0.744176  0.250000  1
  Br  Br23  1  0.505737  0.755492  0.511544  1
  Br  Br24  1  0.505681  0.250000  0.994319  1
  Br  Br25  1  0.755492  0.511544  0.505737  1
  Br  Br26  1  0.744176  0.250000  0.755824  1
  Br  Br27  1  0.994263  0.988456  0.744508  1
