# generated using pymatgen
data_TaNb11Co8(WC)4
_symmetry_space_group_name_H-M   'P 1'
_cell_length_a   8.21246410
_cell_length_b   8.21074833
_cell_length_c   8.21246336
_cell_angle_alpha   60.00691442
_cell_angle_beta   59.97548639
_cell_angle_gamma   60.00691419
_symmetry_Int_Tables_number   1
_chemical_formula_structural   TaNb11Co8(WC)4
_chemical_formula_sum   'Ta1 Nb11 Co8 W4 C4'
_cell_volume   391.54304350
_cell_formula_units_Z   1
loop_
 _symmetry_equiv_pos_site_id
 _symmetry_equiv_pos_as_xyz
  1  'x, y, z'
loop_
 _atom_site_type_symbol
 _atom_site_label
 _atom_site_symmetry_multiplicity
 _atom_site_fract_x
 _atom_site_fract_y
 _atom_site_fract_z
 _atom_site_occupancy
  Ta  Ta0  1  0.690907  0.309093  0.690907  1
  Nb  Nb1  1  0.940967  0.559236  0.559013  1
  Nb  Nb2  1  0.559013  0.940785  0.940967  1
  Nb  Nb3  1  0.940823  0.559177  0.940823  1
  Nb  Nb4  1  0.559013  0.559236  0.940967  1
  Nb  Nb5  1  0.940967  0.940785  0.559013  1
  Nb  Nb6  1  0.690887  0.690671  0.309133  1
  Nb  Nb7  1  0.309133  0.690671  0.690887  1
  Nb  Nb8  1  0.690887  0.309309  0.309133  1
  Nb  Nb9  1  0.309133  0.309309  0.690887  1
  Nb  Nb10  1  0.559167  0.940833  0.559167  1
  Nb  Nb11  1  0.309161  0.690839  0.309161  1
  Co  Co12  1  0.327019  0.326879  0.327019  1
  Co  Co13  1  0.231127  0.923031  0.922812  1
  Co  Co14  1  0.922674  0.231016  0.922674  1
  Co  Co15  1  0.922812  0.923031  0.231127  1
  Co  Co16  1  0.327019  0.019083  0.327019  1
  Co  Co17  1  0.327874  0.326896  0.018335  1
  Co  Co18  1  0.018335  0.326896  0.327874  1
  Co  Co19  1  0.922674  0.923636  0.922674  1
  W  W20  1  0.124906  0.124979  0.124906  1
  W  W21  1  0.624983  0.125007  0.125003  1
  W  W22  1  0.124906  0.625210  0.124906  1
  W  W23  1  0.125003  0.125007  0.624983  1
  C  C24  1  0.625273  0.623718  0.625273  1
  C  C25  1  0.124964  0.624967  0.625102  1
  C  C26  1  0.625273  0.125736  0.625273  1
  C  C27  1  0.625102  0.624967  0.124964  1
