# generated using pymatgen
data_TbY(NiIr)2
_symmetry_space_group_name_H-M   'P 1'
_cell_length_a   5.39685566
_cell_length_b   5.22500168
_cell_length_c   5.22500096
_cell_angle_alpha   58.28240653
_cell_angle_beta   58.90588907
_cell_angle_gamma   58.90587706
_symmetry_Int_Tables_number   1
_chemical_formula_structural   TbY(NiIr)2
_chemical_formula_sum   'Tb1 Y1 Ni2 Ir2'
_cell_volume   101.07572635
_cell_formula_units_Z   1
loop_
 _symmetry_equiv_pos_site_id
 _symmetry_equiv_pos_as_xyz
  1  'x, y, z'
loop_
 _atom_site_type_symbol
 _atom_site_label
 _atom_site_symmetry_multiplicity
 _atom_site_fract_x
 _atom_site_fract_y
 _atom_site_fract_z
 _atom_site_occupancy
  Tb  Tb0  1  0.747777  0.752223  0.752223  1
  Y  Y1  1  0.002141  0.997859  0.997859  1
  Ni  Ni2  1  0.375014  0.874978  0.374992  1
  Ni  Ni3  1  0.375014  0.374992  0.874978  1
  Ir  Ir4  1  0.375029  0.374974  0.374974  1
  Ir  Ir5  1  0.875022  0.374974  0.374974  1
