# generated using pymatgen
data_HfU(InBr3)4
_symmetry_space_group_name_H-M   'P 1'
_cell_length_a   7.65661100
_cell_length_b   7.65661100
_cell_length_c   11.20187000
_cell_angle_alpha   90.00000000
_cell_angle_beta   90.00000000
_cell_angle_gamma   90.00000000
_symmetry_Int_Tables_number   1
_chemical_formula_structural   HfU(InBr3)4
_chemical_formula_sum   'Hf1 U1 In4 Br12'
_cell_volume   656.69497676
_cell_formula_units_Z   1
loop_
 _symmetry_equiv_pos_site_id
 _symmetry_equiv_pos_as_xyz
  1  'x, y, z'
loop_
 _atom_site_type_symbol
 _atom_site_label
 _atom_site_symmetry_multiplicity
 _atom_site_fract_x
 _atom_site_fract_y
 _atom_site_fract_z
 _atom_site_occupancy
  Hf  Hf0  1  0.000000  0.000000  0.500000  1
  U  U1  1  0.500000  0.500000  0.000000  1
  In  In2  1  0.000000  0.500000  0.251281  1
  In  In3  1  0.000000  0.500000  0.748719  1
  In  In4  1  0.500000  0.000000  0.748719  1
  In  In5  1  0.500000  0.000000  0.251281  1
  Br  Br6  1  0.824756  0.704941  0.500000  1
  Br  Br7  1  0.185929  0.316814  0.000000  1
  Br  Br8  1  0.500000  0.500000  0.751849  1
  Br  Br9  1  0.295059  0.824756  0.500000  1
  Br  Br10  1  0.000000  0.000000  0.265847  1
  Br  Br11  1  0.814071  0.683186  0.000000  1
  Br  Br12  1  0.683186  0.185929  0.000000  1
  Br  Br13  1  0.316814  0.814071  0.000000  1
  Br  Br14  1  0.000000  0.000000  0.734153  1
  Br  Br15  1  0.175244  0.295059  0.500000  1
  Br  Br16  1  0.500000  0.500000  0.248151  1
  Br  Br17  1  0.704941  0.175244  0.500000  1
