# generated using pymatgen
data_CsTcF7
_symmetry_space_group_name_H-M   'P 1'
_cell_length_a   10.60495000
_cell_length_b   10.60495000
_cell_length_c   10.60495000
_cell_angle_alpha   90.00000000
_cell_angle_beta   90.00000000
_cell_angle_gamma   90.00000000
_symmetry_Int_Tables_number   1
_chemical_formula_structural   CsTcF7
_chemical_formula_sum   'Cs8 Tc8 F56'
_cell_volume   1192.68532530
_cell_formula_units_Z   8
loop_
 _symmetry_equiv_pos_site_id
 _symmetry_equiv_pos_as_xyz
  1  'x, y, z'
loop_
 _atom_site_type_symbol
 _atom_site_label
 _atom_site_symmetry_multiplicity
 _atom_site_fract_x
 _atom_site_fract_y
 _atom_site_fract_z
 _atom_site_occupancy
  Cs  Cs0  1  0.000000  0.000000  0.000000  1
  Cs  Cs1  1  0.000000  0.500000  0.500000  1
  Cs  Cs2  1  0.500000  0.000000  0.500000  1
  Cs  Cs3  1  0.500000  0.500000  0.000000  1
  Cs  Cs4  1  0.500000  0.000000  0.000000  1
  Cs  Cs5  1  0.500000  0.500000  0.500000  1
  Cs  Cs6  1  0.000000  0.000000  0.500000  1
  Cs  Cs7  1  0.000000  0.500000  0.000000  1
  Tc  Tc8  1  0.276653  0.723347  0.223347  1
  Tc  Tc9  1  0.723347  0.223347  0.276653  1
  Tc  Tc10  1  0.223347  0.276653  0.723347  1
  Tc  Tc11  1  0.776653  0.776653  0.776653  1
  Tc  Tc12  1  0.723347  0.276653  0.776653  1
  Tc  Tc13  1  0.276653  0.776653  0.723347  1
  Tc  Tc14  1  0.776653  0.723347  0.276653  1
  Tc  Tc15  1  0.223347  0.223347  0.223347  1
  F  F16  1  0.173125  0.826875  0.326875  1
  F  F17  1  0.826875  0.326875  0.173125  1
  F  F18  1  0.326875  0.173125  0.826875  1
  F  F19  1  0.673125  0.673125  0.673125  1
  F  F20  1  0.826875  0.173125  0.673125  1
  F  F21  1  0.173125  0.673125  0.826875  1
  F  F22  1  0.673125  0.826875  0.173125  1
  F  F23  1  0.326875  0.326875  0.326875  1
  F  F24  1  0.430932  0.634547  0.258367  1
  F  F25  1  0.569068  0.134547  0.241633  1
  F  F26  1  0.069068  0.365453  0.758367  1
  F  F27  1  0.930932  0.865453  0.741633  1
  F  F28  1  0.258367  0.430932  0.634547  1
  F  F29  1  0.241633  0.569068  0.134547  1
  F  F30  1  0.758367  0.069068  0.365453  1
  F  F31  1  0.741633  0.930932  0.865453  1
  F  F32  1  0.634547  0.258367  0.430932  1
  F  F33  1  0.134547  0.241633  0.569068  1
  F  F34  1  0.365453  0.758367  0.069068  1
  F  F35  1  0.865453  0.741633  0.930932  1
  F  F36  1  0.569068  0.365453  0.741633  1
  F  F37  1  0.430932  0.865453  0.758367  1
  F  F38  1  0.930932  0.634547  0.241633  1
  F  F39  1  0.069068  0.134547  0.258367  1
  F  F40  1  0.741633  0.569068  0.365453  1
  F  F41  1  0.758367  0.430932  0.865453  1
  F  F42  1  0.241633  0.930932  0.634547  1
  F  F43  1  0.258367  0.069068  0.134547  1
  F  F44  1  0.365453  0.741633  0.569068  1
  F  F45  1  0.865453  0.758367  0.430932  1
  F  F46  1  0.634547  0.241633  0.930932  1
  F  F47  1  0.134547  0.258367  0.069068  1
  F  F48  1  0.141089  0.773723  0.116278  1
  F  F49  1  0.858911  0.273723  0.383722  1
  F  F50  1  0.358911  0.226277  0.616278  1
  F  F51  1  0.641089  0.726277  0.883722  1
  F  F52  1  0.116278  0.141089  0.773723  1
  F  F53  1  0.383722  0.858911  0.273723  1
  F  F54  1  0.616278  0.358911  0.226277  1
  F  F55  1  0.883722  0.641089  0.726277  1
  F  F56  1  0.773723  0.116278  0.141089  1
  F  F57  1  0.273723  0.383722  0.858911  1
  F  F58  1  0.226277  0.616278  0.358911  1
  F  F59  1  0.726277  0.883722  0.641089  1
  F  F60  1  0.858911  0.226277  0.883722  1
  F  F61  1  0.141089  0.726277  0.616278  1
  F  F62  1  0.641089  0.773723  0.383722  1
  F  F63  1  0.358911  0.273723  0.116278  1
  F  F64  1  0.883722  0.858911  0.226277  1
  F  F65  1  0.616278  0.141089  0.726277  1
  F  F66  1  0.383722  0.641089  0.773723  1
  F  F67  1  0.116278  0.358911  0.273723  1
  F  F68  1  0.226277  0.883722  0.858911  1
  F  F69  1  0.726277  0.616278  0.141089  1
  F  F70  1  0.773723  0.383722  0.641089  1
  F  F71  1  0.273723  0.116278  0.358911  1
