# generated using pymatgen
data_La7Ho(GePd)8
_symmetry_space_group_name_H-M   'P 1'
_cell_length_a   4.54069300
_cell_length_b   7.78578707
_cell_length_c   14.77937620
_cell_angle_alpha   89.98283579
_cell_angle_beta   90.00000000
_cell_angle_gamma   90.00000000
_symmetry_Int_Tables_number   1
_chemical_formula_structural   La7Ho(GePd)8
_chemical_formula_sum   'La7 Ho1 Ge8 Pd8'
_cell_volume   522.49332511
_cell_formula_units_Z   1
loop_
 _symmetry_equiv_pos_site_id
 _symmetry_equiv_pos_as_xyz
  1  'x, y, z'
loop_
 _atom_site_type_symbol
 _atom_site_label
 _atom_site_symmetry_multiplicity
 _atom_site_fract_x
 _atom_site_fract_y
 _atom_site_fract_z
 _atom_site_occupancy
  La  La0  1  0.000000  0.214320  0.752798  1
  La  La1  1  0.000000  0.209653  0.248023  1
  La  La2  1  0.500000  0.785158  0.747132  1
  La  La3  1  0.000000  0.283503  0.498963  1
  La  La4  1  0.500000  0.717356  0.001530  1
  La  La5  1  0.000000  0.295265  0.001875  1
  La  La6  1  0.500000  0.707488  0.498327  1
  Ho  Ho7  1  0.500000  0.778697  0.251993  1
  Ge  Ge8  1  0.000000  0.589119  0.856357  1
  Ge  Ge9  1  0.000000  0.593844  0.147985  1
  Ge  Ge10  1  0.500000  0.411223  0.643300  1
  Ge  Ge11  1  0.500000  0.415147  0.355065  1
  Ge  Ge12  1  0.000000  0.910349  0.400266  1
  Ge  Ge13  1  0.000000  0.912426  0.593735  1
  Ge  Ge14  1  0.500000  0.086262  0.097898  1
  Ge  Ge15  1  0.500000  0.087090  0.905919  1
  Pd  Pd16  1  0.000000  0.922346  0.889684  1
  Pd  Pd17  1  0.000000  0.921165  0.116118  1
  Pd  Pd18  1  0.500000  0.078020  0.610321  1
  Pd  Pd19  1  0.500000  0.072622  0.384118  1
  Pd  Pd20  1  0.000000  0.584955  0.342127  1
  Pd  Pd21  1  0.000000  0.580415  0.652321  1
  Pd  Pd22  1  0.500000  0.423997  0.155825  1
  Pd  Pd23  1  0.500000  0.419579  0.848319  1
