# generated using pymatgen
data_Ba(CoO2)8
_symmetry_space_group_name_H-M   'P 1'
_cell_length_a   5.70816019
_cell_length_b   6.86904515
_cell_length_c   6.94794090
_cell_angle_alpha   89.61327456
_cell_angle_beta   101.90390132
_cell_angle_gamma   102.03694207
_symmetry_Int_Tables_number   1
_chemical_formula_structural   Ba(CoO2)8
_chemical_formula_sum   'Ba1 Co8 O16'
_cell_volume   260.51931013
_cell_formula_units_Z   1
loop_
 _symmetry_equiv_pos_site_id
 _symmetry_equiv_pos_as_xyz
  1  'x, y, z'
loop_
 _atom_site_type_symbol
 _atom_site_label
 _atom_site_symmetry_multiplicity
 _atom_site_fract_x
 _atom_site_fract_y
 _atom_site_fract_z
 _atom_site_occupancy
  Ba  Ba0  1  0.004288  0.000056  0.000167  1
  Co  Co1  1  0.579322  0.488312  0.815672  1
  Co  Co2  1  0.076041  0.492099  0.815444  1
  Co  Co3  1  0.667735  0.184500  0.478260  1
  Co  Co4  1  0.168095  0.182348  0.484054  1
  Co  Co5  1  0.834834  0.817694  0.515874  1
  Co  Co6  1  0.335323  0.815465  0.521903  1
  Co  Co7  1  0.926924  0.507762  0.184480  1
  Co  Co8  1  0.423926  0.511819  0.184369  1
  O  O9  1  0.827049  0.356184  0.944152  1
  O  O10  1  0.325732  0.358341  0.942927  1
  O  O11  1  0.979989  0.304882  0.615090  1
  O  O12  1  0.482817  0.307602  0.612146  1
  O  O13  1  0.850357  0.040165  0.352353  1
  O  O14  1  0.349122  0.036441  0.357446  1
  O  O15  1  0.841149  0.637294  0.723320  1
  O  O16  1  0.339775  0.634451  0.714833  1
  O  O17  1  0.663198  0.365556  0.285170  1
  O  O18  1  0.161877  0.362556  0.276523  1
  O  O19  1  0.152570  0.959833  0.647518  1
  O  O20  1  0.654103  0.963556  0.642806  1
  O  O21  1  0.023047  0.695199  0.384746  1
  O  O22  1  0.520187  0.692446  0.387877  1
  O  O23  1  0.677608  0.641830  0.057063  1
  O  O24  1  0.175981  0.643609  0.055809  1
