# generated using pymatgen
data_Ho12Os3Pd
_symmetry_space_group_name_H-M   'P 1'
_cell_length_a   6.38863130
_cell_length_b   7.34449614
_cell_length_c   9.05136700
_cell_angle_alpha   90.00000000
_cell_angle_beta   90.00000000
_cell_angle_gamma   90.26022447
_symmetry_Int_Tables_number   1
_chemical_formula_structural   Ho12Os3Pd
_chemical_formula_sum   'Ho12 Os3 Pd1'
_cell_volume   424.69732613
_cell_formula_units_Z   1
loop_
 _symmetry_equiv_pos_site_id
 _symmetry_equiv_pos_as_xyz
  1  'x, y, z'
loop_
 _atom_site_type_symbol
 _atom_site_label
 _atom_site_symmetry_multiplicity
 _atom_site_fract_x
 _atom_site_fract_y
 _atom_site_fract_z
 _atom_site_occupancy
  Ho  Ho0  1  0.338600  0.670671  0.058379  1
  Ho  Ho1  1  0.170786  0.183739  0.441300  1
  Ho  Ho2  1  0.670751  0.322999  0.562990  1
  Ho  Ho3  1  0.824177  0.823246  0.932179  1
  Ho  Ho4  1  0.670751  0.322999  0.937010  1
  Ho  Ho5  1  0.824177  0.823246  0.567821  1
  Ho  Ho6  1  0.338600  0.670671  0.441621  1
  Ho  Ho7  1  0.170786  0.183739  0.058700  1
  Ho  Ho8  1  0.870273  0.531746  0.250000  1
  Ho  Ho9  1  0.622690  0.040780  0.250000  1
  Ho  Ho10  1  0.125666  0.462430  0.750000  1
  Ho  Ho11  1  0.369024  0.962278  0.750000  1
  Os  Os12  1  0.460159  0.384227  0.250000  1
  Os  Os13  1  0.962630  0.114964  0.750000  1
  Os  Os14  1  0.535454  0.615262  0.750000  1
  Pd  Pd15  1  0.045477  0.887002  0.250000  1
