# generated using pymatgen
data_LiAs4Pd11
_symmetry_space_group_name_H-M   'P 1'
_cell_length_a   7.65521295
_cell_length_b   7.60583753
_cell_length_c   7.58192270
_cell_angle_alpha   96.06851351
_cell_angle_beta   96.08281452
_cell_angle_gamma   142.58472271
_symmetry_Int_Tables_number   1
_chemical_formula_structural   LiAs4Pd11
_chemical_formula_sum   'Li1 As4 Pd11'
_cell_volume   253.19605940
_cell_formula_units_Z   1
loop_
 _symmetry_equiv_pos_site_id
 _symmetry_equiv_pos_as_xyz
  1  'x, y, z'
loop_
 _atom_site_type_symbol
 _atom_site_label
 _atom_site_symmetry_multiplicity
 _atom_site_fract_x
 _atom_site_fract_y
 _atom_site_fract_z
 _atom_site_occupancy
  Li  Li0  1  0.134590  0.103905  0.823921  1
  As  As1  1  0.207445  0.452708  0.666285  1
  As  As2  1  0.759425  0.523019  0.327080  1
  As  As3  1  0.583137  0.245467  0.763079  1
  As  As4  1  0.476924  0.800492  0.238644  1
  Pd  Pd5  1  0.313692  0.346023  0.182727  1
  Pd  Pd6  1  0.870231  0.684055  0.035470  1
  Pd  Pd7  1  0.643799  0.832141  0.966024  1
  Pd  Pd8  1  0.339504  0.006425  0.393750  1
  Pd  Pd9  1  0.623197  0.956152  0.600963  1
  Pd  Pd10  1  0.991461  0.385903  0.329151  1
  Pd  Pd11  1  0.056114  0.664988  0.662713  1
  Pd  Pd12  1  0.928703  0.975733  0.396403  1
  Pd  Pd13  1  0.579496  0.529097  0.619626  1
  Pd  Pd14  1  0.027587  0.419884  0.949158  1
  Pd  Pd15  1  0.464694  0.074007  0.045004  1
