# generated using pymatgen
data_Ti3Nb9Ga8(CoC)4
_symmetry_space_group_name_H-M   'P 1'
_cell_length_a   8.17286691
_cell_length_b   8.17372275
_cell_length_c   8.19384773
_cell_angle_alpha   59.91161061
_cell_angle_beta   60.06110772
_cell_angle_gamma   60.16644629
_symmetry_Int_Tables_number   1
_chemical_formula_structural   Ti3Nb9Ga8(CoC)4
_chemical_formula_sum   'Ti3 Nb9 Ga8 Co4 C4'
_cell_volume   387.45322412
_cell_formula_units_Z   1
loop_
 _symmetry_equiv_pos_site_id
 _symmetry_equiv_pos_as_xyz
  1  'x, y, z'
loop_
 _atom_site_type_symbol
 _atom_site_label
 _atom_site_symmetry_multiplicity
 _atom_site_fract_x
 _atom_site_fract_y
 _atom_site_fract_z
 _atom_site_occupancy
  Ti  Ti0  1  0.691080  0.308920  0.691080  1
  Ti  Ti1  1  0.939490  0.558021  0.560777  1
  Ti  Ti2  1  0.560777  0.941711  0.939490  1
  Nb  Nb3  1  0.943554  0.556446  0.943554  1
  Nb  Nb4  1  0.558572  0.555681  0.941718  1
  Nb  Nb5  1  0.941718  0.944029  0.558572  1
  Nb  Nb6  1  0.690647  0.694497  0.308214  1
  Nb  Nb7  1  0.308867  0.693809  0.690310  1
  Nb  Nb8  1  0.690310  0.307015  0.308867  1
  Nb  Nb9  1  0.308214  0.306643  0.690647  1
  Nb  Nb10  1  0.557707  0.942293  0.557707  1
  Nb  Nb11  1  0.308218  0.691782  0.308218  1
  Ga  Ga12  1  0.331294  0.334262  0.333279  1
  Ga  Ga13  1  0.252405  0.916632  0.917754  1
  Ga  Ga14  1  0.917348  0.251033  0.912979  1
  Ga  Ga15  1  0.917754  0.913209  0.252405  1
  Ga  Ga16  1  0.333279  0.001166  0.331294  1
  Ga  Ga17  1  0.336979  0.332059  0.996972  1
  Ga  Ga18  1  0.996972  0.333991  0.336979  1
  Ga  Ga19  1  0.912979  0.918638  0.917348  1
  Co  Co20  1  0.124222  0.126373  0.124816  1
  Co  Co21  1  0.625527  0.125388  0.125535  1
  Co  Co22  1  0.124816  0.624590  0.124222  1
  Co  Co23  1  0.125535  0.123550  0.625527  1
  C  C24  1  0.630647  0.618940  0.625011  1
  C  C25  1  0.121119  0.624407  0.624959  1
  C  C26  1  0.625011  0.125403  0.630647  1
  C  C27  1  0.624959  0.629515  0.121119  1
