# generated using pymatgen
data_Y8ZnCuPt23
_symmetry_space_group_name_H-M   'P 1'
_cell_length_a   8.35529200
_cell_length_b   8.35529200
_cell_length_c   8.40543100
_cell_angle_alpha   90.00000000
_cell_angle_beta   90.00000000
_cell_angle_gamma   90.00000000
_symmetry_Int_Tables_number   1
_chemical_formula_structural   Y8ZnCuPt23
_chemical_formula_sum   'Y8 Zn1 Cu1 Pt23'
_cell_volume   586.79074003
_cell_formula_units_Z   1
loop_
 _symmetry_equiv_pos_site_id
 _symmetry_equiv_pos_as_xyz
  1  'x, y, z'
loop_
 _atom_site_type_symbol
 _atom_site_label
 _atom_site_symmetry_multiplicity
 _atom_site_fract_x
 _atom_site_fract_y
 _atom_site_fract_z
 _atom_site_occupancy
  Y  Y0  1  0.250460  0.250460  0.249614  1
  Y  Y1  1  0.751822  0.751822  0.750801  1
  Y  Y2  1  0.749540  0.749540  0.249614  1
  Y  Y3  1  0.751822  0.248178  0.750801  1
  Y  Y4  1  0.248178  0.248178  0.750801  1
  Y  Y5  1  0.250460  0.749540  0.249614  1
  Y  Y6  1  0.248178  0.751822  0.750801  1
  Y  Y7  1  0.749540  0.250460  0.249614  1
  Zn  Zn8  1  0.000000  0.000000  0.001040  1
  Cu  Cu9  1  0.500000  0.500000  0.743394  1
  Pt  Pt10  1  0.265355  0.500000  0.994971  1
  Pt  Pt11  1  0.734645  0.500000  0.994971  1
  Pt  Pt12  1  0.000000  0.263241  0.499794  1
  Pt  Pt13  1  0.500000  0.265355  0.994971  1
  Pt  Pt14  1  0.000000  0.736759  0.499794  1
  Pt  Pt15  1  0.500000  0.734645  0.994971  1
  Pt  Pt16  1  0.500000  0.000000  0.263849  1
  Pt  Pt17  1  0.263241  0.000000  0.499794  1
  Pt  Pt18  1  0.500000  0.000000  0.736900  1
  Pt  Pt19  1  0.736759  0.000000  0.499794  1
  Pt  Pt20  1  0.000000  0.500000  0.263849  1
  Pt  Pt21  1  0.000000  0.500000  0.736900  1
  Pt  Pt22  1  0.256758  0.500000  0.503826  1
  Pt  Pt23  1  0.743242  0.500000  0.503826  1
  Pt  Pt24  1  0.500000  0.256758  0.503826  1
  Pt  Pt25  1  0.500000  0.743242  0.503826  1
  Pt  Pt26  1  0.500000  0.500000  0.253435  1
  Pt  Pt27  1  0.300792  0.000000  0.000725  1
  Pt  Pt28  1  0.699208  0.000000  0.000725  1
  Pt  Pt29  1  0.000000  0.300792  0.000725  1
  Pt  Pt30  1  0.000000  0.699208  0.000725  1
  Pt  Pt31  1  0.000000  0.000000  0.298425  1
  Pt  Pt32  1  0.000000  0.000000  0.703277  1
