# generated using pymatgen
data_Nd7TmAu4
_symmetry_space_group_name_H-M   'P 1'
_cell_length_a   5.05545000
_cell_length_b   7.32553799
_cell_length_c   9.27843955
_cell_angle_alpha   89.80285072
_cell_angle_beta   90.00000000
_cell_angle_gamma   90.00000000
_symmetry_Int_Tables_number   1
_chemical_formula_structural   Nd7TmAu4
_chemical_formula_sum   'Nd7 Tm1 Au4'
_cell_volume   343.61468488
_cell_formula_units_Z   1
loop_
 _symmetry_equiv_pos_site_id
 _symmetry_equiv_pos_as_xyz
  1  'x, y, z'
loop_
 _atom_site_type_symbol
 _atom_site_label
 _atom_site_symmetry_multiplicity
 _atom_site_fract_x
 _atom_site_fract_y
 _atom_site_fract_z
 _atom_site_occupancy
  Nd  Nd0  1  0.250000  0.348025  0.588063  1
  Nd  Nd1  1  0.750000  0.151195  0.081300  1
  Nd  Nd2  1  0.750000  0.652592  0.413281  1
  Nd  Nd3  1  0.250000  0.495820  0.174770  1
  Nd  Nd4  1  0.250000  0.991710  0.323496  1
  Nd  Nd5  1  0.750000  0.512738  0.821673  1
  Nd  Nd6  1  0.750000  0.006275  0.675556  1
  Tm  Tm7  1  0.250000  0.850604  0.918768  1
  Au  Au8  1  0.250000  0.244669  0.904673  1
  Au  Au9  1  0.250000  0.757225  0.609946  1
  Au  Au10  1  0.750000  0.746025  0.086365  1
  Au  Au11  1  0.750000  0.243121  0.402109  1
