# generated using pymatgen
data_LiDy2Tm4Co17P12
_symmetry_space_group_name_H-M   'P 1'
_cell_length_a   3.67683900
_cell_length_b   10.49399600
_cell_length_c   12.12065700
_cell_angle_alpha   90.00000000
_cell_angle_beta   90.00000000
_cell_angle_gamma   90.00000000
_symmetry_Int_Tables_number   1
_chemical_formula_structural   LiDy2Tm4Co17P12
_chemical_formula_sum   'Li1 Dy2 Tm4 Co17 P12'
_cell_volume   467.67232332
_cell_formula_units_Z   1
loop_
 _symmetry_equiv_pos_site_id
 _symmetry_equiv_pos_as_xyz
  1  'x, y, z'
loop_
 _atom_site_type_symbol
 _atom_site_label
 _atom_site_symmetry_multiplicity
 _atom_site_fract_x
 _atom_site_fract_y
 _atom_site_fract_z
 _atom_site_occupancy
  Li  Li0  1  0.500000  0.500000  0.152054  1
  Dy  Dy1  1  0.000000  0.500000  0.522967  1
  Dy  Dy2  1  0.500000  0.000000  0.477942  1
  Tm  Tm3  1  0.500000  0.819763  0.206271  1
  Tm  Tm4  1  0.500000  0.180237  0.206271  1
  Tm  Tm5  1  0.000000  0.681842  0.794583  1
  Tm  Tm6  1  0.000000  0.318158  0.794583  1
  Co  Co7  1  0.000000  0.000000  0.840551  1
  Co  Co8  1  0.500000  0.500000  0.705615  1
  Co  Co9  1  0.000000  0.000000  0.295501  1
  Co  Co10  1  0.000000  0.500000  0.986285  1
  Co  Co11  1  0.500000  0.000000  0.011794  1
  Co  Co12  1  0.500000  0.330903  0.995325  1
  Co  Co13  1  0.500000  0.669097  0.995325  1
  Co  Co14  1  0.000000  0.165116  0.003012  1
  Co  Co15  1  0.000000  0.834884  0.003012  1
  Co  Co16  1  0.500000  0.296429  0.431687  1
  Co  Co17  1  0.500000  0.703571  0.431687  1
  Co  Co18  1  0.000000  0.202378  0.570729  1
  Co  Co19  1  0.000000  0.797622  0.570729  1
  Co  Co20  1  0.500000  0.879284  0.709784  1
  Co  Co21  1  0.500000  0.120716  0.709784  1
  Co  Co22  1  0.000000  0.622571  0.291845  1
  Co  Co23  1  0.000000  0.377429  0.291845  1
  P  P24  1  0.500000  0.500000  0.884381  1
  P  P25  1  0.000000  0.000000  0.116772  1
  P  P26  1  0.500000  0.500000  0.345326  1
  P  P27  1  0.000000  0.000000  0.655736  1
  P  P28  1  0.500000  0.310535  0.617858  1
  P  P29  1  0.500000  0.689465  0.617858  1
  P  P30  1  0.000000  0.189277  0.384085  1
  P  P31  1  0.000000  0.810723  0.384085  1
  P  P32  1  0.500000  0.846752  0.891030  1
  P  P33  1  0.500000  0.153248  0.891030  1
  P  P34  1  0.000000  0.657843  0.106327  1
  P  P35  1  0.000000  0.342157  0.106327  1
