# generated using pymatgen
data_Cs2CeTi3O9
_symmetry_space_group_name_H-M   'P 1'
_cell_length_a   7.62860200
_cell_length_b   7.62860102
_cell_length_c   11.19585200
_cell_angle_alpha   90.00000000
_cell_angle_beta   90.00000000
_cell_angle_gamma   120.00000423
_symmetry_Int_Tables_number   1
_chemical_formula_structural   Cs2CeTi3O9
_chemical_formula_sum   'Cs4 Ce2 Ti6 O18'
_cell_volume   564.25786501
_cell_formula_units_Z   2
loop_
 _symmetry_equiv_pos_site_id
 _symmetry_equiv_pos_as_xyz
  1  'x, y, z'
loop_
 _atom_site_type_symbol
 _atom_site_label
 _atom_site_symmetry_multiplicity
 _atom_site_fract_x
 _atom_site_fract_y
 _atom_site_fract_z
 _atom_site_occupancy
  Cs  Cs0  1  0.333333  0.666667  0.061538  1
  Cs  Cs1  1  0.666667  0.333333  0.561538  1
  Cs  Cs2  1  0.666667  0.333333  0.938462  1
  Cs  Cs3  1  0.333333  0.666667  0.438462  1
  Ce  Ce4  1  0.000000  0.000000  0.000000  1
  Ce  Ce5  1  0.000000  0.000000  0.500000  1
  Ti  Ti6  1  0.381033  0.254133  0.250000  1
  Ti  Ti7  1  0.126900  0.381033  0.750000  1
  Ti  Ti8  1  0.254133  0.873100  0.750000  1
  Ti  Ti9  1  0.745867  0.126900  0.250000  1
  Ti  Ti10  1  0.873100  0.618967  0.250000  1
  Ti  Ti11  1  0.618967  0.745867  0.750000  1
  O  O12  1  0.481900  0.076409  0.250000  1
  O  O13  1  0.405491  0.481900  0.750000  1
  O  O14  1  0.076409  0.594509  0.750000  1
  O  O15  1  0.923591  0.405491  0.250000  1
  O  O16  1  0.594509  0.518100  0.250000  1
  O  O17  1  0.518100  0.923591  0.750000  1
  O  O18  1  0.245596  0.234584  0.115013  1
  O  O19  1  0.011012  0.245596  0.615013  1
  O  O20  1  0.234584  0.988988  0.615013  1
  O  O21  1  0.765416  0.011012  0.115013  1
  O  O22  1  0.988988  0.754404  0.115013  1
  O  O23  1  0.754404  0.765416  0.615013  1
  O  O24  1  0.754404  0.765416  0.884987  1
  O  O25  1  0.988988  0.754404  0.384987  1
  O  O26  1  0.765416  0.011012  0.384987  1
  O  O27  1  0.234584  0.988988  0.884987  1
  O  O28  1  0.011012  0.245596  0.884987  1
  O  O29  1  0.245596  0.234584  0.384987  1
