# generated using pymatgen
data_Ta4Ti4Co7Si14Pd
_symmetry_space_group_name_H-M   'P 1'
_cell_length_a   9.23531752
_cell_length_b   9.25011257
_cell_length_c   9.21052761
_cell_angle_alpha   94.27171792
_cell_angle_beta   94.18582870
_cell_angle_gamma   148.54328823
_symmetry_Int_Tables_number   1
_chemical_formula_structural   Ta4Ti4Co7Si14Pd
_chemical_formula_sum   'Ta4 Ti4 Co7 Si14 Pd1'
_cell_volume   395.12890028
_cell_formula_units_Z   1
loop_
 _symmetry_equiv_pos_site_id
 _symmetry_equiv_pos_as_xyz
  1  'x, y, z'
loop_
 _atom_site_type_symbol
 _atom_site_label
 _atom_site_symmetry_multiplicity
 _atom_site_fract_x
 _atom_site_fract_y
 _atom_site_fract_z
 _atom_site_occupancy
  Ta  Ta0  1  0.133556  0.133553  0.267104  1
  Ta  Ta1  1  0.867162  0.867163  0.734325  1
  Ta  Ta2  1  0.867962  0.131644  0.001936  1
  Ta  Ta3  1  0.133984  0.870291  0.001939  1
  Ti  Ti4  1  0.501651  0.690826  0.192727  1
  Ti  Ti5  1  0.496848  0.308305  0.808865  1
  Ti  Ti6  1  0.312018  0.500560  0.808870  1
  Ti  Ti7  1  0.691079  0.501909  0.192728  1
  Co  Co8  1  0.103938  0.603938  0.207878  1
  Co  Co9  1  0.103367  0.899493  0.502603  1
  Co  Co10  1  0.399231  0.603102  0.502596  1
  Co  Co11  1  0.596525  0.399617  0.495217  1
  Co  Co12  1  0.898691  0.095599  0.495213  1
  Co  Co13  1  0.898695  0.398702  0.797393  1
  Co  Co14  1  0.598396  0.098396  0.196790  1
  Si  Si15  1  0.293650  0.293652  0.587303  1
  Si  Si16  1  0.705778  0.705774  0.411544  1
  Si  Si17  1  0.724631  0.317631  0.006213  1
  Si  Si18  1  0.281565  0.688577  0.006206  1
  Si  Si19  1  0.997469  0.293652  0.295991  1
  Si  Si20  1  0.978790  0.690088  0.702787  1
  Si  Si21  1  0.723997  0.012698  0.702788  1
  Si  Si22  1  0.298519  0.002339  0.295989  1
  Si  Si23  1  0.502828  0.907424  0.406094  1
  Si  Si24  1  0.520454  0.119101  0.586401  1
  Si  Si25  1  0.065946  0.467302  0.586398  1
  Si  Si26  1  0.903258  0.498665  0.406091  1
  Si  Si27  1  0.748463  0.748482  0.000668  1
  Si  Si28  1  0.252211  0.252180  0.000668  1
  Pd  Pd29  1  0.399337  0.899340  0.798676  1
