# generated using pymatgen
data_Yb2Ta5WS12
_symmetry_space_group_name_H-M   'P 1'
_cell_length_a   5.75308400
_cell_length_b   5.75308459
_cell_length_c   14.30877700
_cell_angle_alpha   90.00000000
_cell_angle_beta   90.00000000
_cell_angle_gamma   120.00000810
_symmetry_Int_Tables_number   1
_chemical_formula_structural   Yb2Ta5WS12
_chemical_formula_sum   'Yb2 Ta5 W1 S12'
_cell_volume   410.14232267
_cell_formula_units_Z   1
loop_
 _symmetry_equiv_pos_site_id
 _symmetry_equiv_pos_as_xyz
  1  'x, y, z'
loop_
 _atom_site_type_symbol
 _atom_site_label
 _atom_site_symmetry_multiplicity
 _atom_site_fract_x
 _atom_site_fract_y
 _atom_site_fract_z
 _atom_site_occupancy
  Yb  Yb0  1  0.000000  0.000000  0.501022  1
  Yb  Yb1  1  0.000000  0.000000  0.998978  1
  Ta  Ta2  1  0.666667  0.333333  0.750000  1
  Ta  Ta3  1  0.666667  0.333333  0.250000  1
  Ta  Ta4  1  0.333333  0.666667  0.750000  1
  Ta  Ta5  1  0.000000  0.000000  0.250000  1
  Ta  Ta6  1  0.000000  0.000000  0.750000  1
  W  W7  1  0.333333  0.666667  0.250000  1
  S  S8  1  0.336205  0.996094  0.140909  1
  S  S9  1  0.003906  0.340111  0.140909  1
  S  S10  1  0.659889  0.663795  0.140909  1
  S  S11  1  0.335711  0.335742  0.639645  1
  S  S12  1  0.659889  0.663795  0.359091  1
  S  S13  1  0.664258  0.999969  0.639645  1
  S  S14  1  0.000031  0.664289  0.639645  1
  S  S15  1  0.000031  0.664289  0.860355  1
  S  S16  1  0.335711  0.335742  0.860355  1
  S  S17  1  0.003906  0.340111  0.359091  1
  S  S18  1  0.336205  0.996094  0.359091  1
  S  S19  1  0.664258  0.999969  0.860355  1
