# generated using pymatgen
data_K2LiPS4
_symmetry_space_group_name_H-M   'P 1'
_cell_length_a   12.83797008
_cell_length_b   11.46414125
_cell_length_c   7.13353412
_cell_angle_alpha   83.85777981
_cell_angle_beta   62.60564557
_cell_angle_gamma   33.53657747
_symmetry_Int_Tables_number   1
_chemical_formula_structural   K2LiPS4
_chemical_formula_sum   'K4 Li2 P2 S8'
_cell_volume   425.35484651
_cell_formula_units_Z   2
loop_
 _symmetry_equiv_pos_site_id
 _symmetry_equiv_pos_as_xyz
  1  'x, y, z'
loop_
 _atom_site_type_symbol
 _atom_site_label
 _atom_site_symmetry_multiplicity
 _atom_site_fract_x
 _atom_site_fract_y
 _atom_site_fract_z
 _atom_site_occupancy
  K  K0  1  0.679692  0.679692  0.320308  1
  K  K1  1  0.929692  0.929692  0.570308  1
  K  K2  1  0.570308  0.570308  0.929692  1
  K  K3  1  0.320308  0.320308  0.679692  1
  Li  Li4  1  0.000000  0.000000  0.000000  1
  Li  Li5  1  0.250000  0.250000  0.250000  1
  P  P6  1  0.500000  0.500000  0.500000  1
  P  P7  1  0.750000  0.750000  0.750000  1
  S  S8  1  0.913514  0.692517  0.401844  1
  S  S9  1  0.336486  0.557483  0.848156  1
  S  S10  1  0.692517  0.913514  0.992124  1
  S  S11  1  0.848156  0.257876  0.336486  1
  S  S12  1  0.557483  0.336486  0.257876  1
  S  S13  1  0.257876  0.848156  0.557483  1
  S  S14  1  0.401844  0.992124  0.913514  1
  S  S15  1  0.992124  0.401844  0.692517  1
