# generated using pymatgen
data_Rb4EuYF10
_symmetry_space_group_name_H-M   'P 1'
_cell_length_a   6.97268409
_cell_length_b   7.44833800
_cell_length_c   11.55091500
_cell_angle_alpha   90.00000000
_cell_angle_beta   90.00921146
_cell_angle_gamma   90.00000000
_symmetry_Int_Tables_number   1
_chemical_formula_structural   Rb4EuYF10
_chemical_formula_sum   'Rb8 Eu2 Y2 F20'
_cell_volume   599.89569859
_cell_formula_units_Z   2
loop_
 _symmetry_equiv_pos_site_id
 _symmetry_equiv_pos_as_xyz
  1  'x, y, z'
loop_
 _atom_site_type_symbol
 _atom_site_label
 _atom_site_symmetry_multiplicity
 _atom_site_fract_x
 _atom_site_fract_y
 _atom_site_fract_z
 _atom_site_occupancy
  Rb  Rb0  1  0.529344  0.498612  0.827915  1
  Rb  Rb1  1  0.470656  0.501388  0.172085  1
  Rb  Rb2  1  0.032541  0.501395  0.669967  1
  Rb  Rb3  1  0.470656  0.998612  0.172085  1
  Rb  Rb4  1  0.967459  0.498605  0.330033  1
  Rb  Rb5  1  0.529344  0.001388  0.827915  1
  Rb  Rb6  1  0.967459  0.001395  0.330033  1
  Rb  Rb7  1  0.032541  0.998605  0.669967  1
  Eu  Eu8  1  0.059423  0.250000  0.999004  1
  Eu  Eu9  1  0.940577  0.750000  0.000996  1
  Y  Y10  1  0.559517  0.750000  0.501521  1
  Y  Y11  1  0.440483  0.250000  0.498479  1
  F  F12  1  0.840679  0.750000  0.815160  1
  F  F13  1  0.159321  0.250000  0.184840  1
  F  F14  1  0.345428  0.250000  0.681982  1
  F  F15  1  0.654572  0.750000  0.318018  1
  F  F16  1  0.374982  0.750000  0.657397  1
  F  F17  1  0.625018  0.250000  0.342603  1
  F  F18  1  0.875501  0.250000  0.838234  1
  F  F19  1  0.124499  0.750000  0.161766  1
  F  F20  1  0.875609  0.750000  0.516188  1
  F  F21  1  0.124391  0.250000  0.483812  1
  F  F22  1  0.385907  0.250000  0.986784  1
  F  F23  1  0.614093  0.750000  0.013216  1
  F  F24  1  0.640197  0.034404  0.571917  1
  F  F25  1  0.359803  0.965596  0.428083  1
  F  F26  1  0.143013  0.966314  0.922387  1
  F  F27  1  0.359803  0.534404  0.428083  1
  F  F28  1  0.856987  0.033686  0.077613  1
  F  F29  1  0.640197  0.465596  0.571917  1
  F  F30  1  0.856987  0.466314  0.077613  1
  F  F31  1  0.143013  0.533686  0.922387  1
