# generated using pymatgen
data_Tc(MoBr6)2
_symmetry_space_group_name_H-M   'P 1'
_cell_length_a   9.30434870
_cell_length_b   9.30434920
_cell_length_c   7.29605919
_cell_angle_alpha   68.56626265
_cell_angle_beta   68.56626998
_cell_angle_gamma   83.71325857
_symmetry_Int_Tables_number   1
_chemical_formula_structural   Tc(MoBr6)2
_chemical_formula_sum   'Tc1 Mo2 Br12'
_cell_volume   547.07148745
_cell_formula_units_Z   1
loop_
 _symmetry_equiv_pos_site_id
 _symmetry_equiv_pos_as_xyz
  1  'x, y, z'
loop_
 _atom_site_type_symbol
 _atom_site_label
 _atom_site_symmetry_multiplicity
 _atom_site_fract_x
 _atom_site_fract_y
 _atom_site_fract_z
 _atom_site_occupancy
  Tc  Tc0  1  0.000000  0.000000  0.000000  1
  Mo  Mo1  1  0.264159  0.264159  0.739675  1
  Mo  Mo2  1  0.735841  0.735841  0.260325  1
  Br  Br3  1  0.976733  0.263551  0.741032  1
  Br  Br4  1  0.263551  0.976733  0.741032  1
  Br  Br5  1  0.023267  0.736449  0.258968  1
  Br  Br6  1  0.736449  0.023267  0.258968  1
  Br  Br7  1  0.227770  0.517795  0.774793  1
  Br  Br8  1  0.517795  0.227770  0.774793  1
  Br  Br9  1  0.772230  0.482205  0.225207  1
  Br  Br10  1  0.482205  0.772230  0.225207  1
  Br  Br11  1  0.129169  0.129169  0.154677  1
  Br  Br12  1  0.870831  0.870831  0.845323  1
  Br  Br13  1  0.637502  0.637502  0.645009  1
  Br  Br14  1  0.362498  0.362498  0.354991  1
