# generated using pymatgen
data_Ce5Tm3(AlRu)8
_symmetry_space_group_name_H-M   'P 1'
_cell_length_a   4.06178200
_cell_length_b   7.14926675
_cell_length_c   15.85874728
_cell_angle_alpha   90.28880914
_cell_angle_beta   90.00000000
_cell_angle_gamma   90.00000000
_symmetry_Int_Tables_number   1
_chemical_formula_structural   Ce5Tm3(AlRu)8
_chemical_formula_sum   'Ce5 Tm3 Al8 Ru8'
_cell_volume   460.51255297
_cell_formula_units_Z   1
loop_
 _symmetry_equiv_pos_site_id
 _symmetry_equiv_pos_as_xyz
  1  'x, y, z'
loop_
 _atom_site_type_symbol
 _atom_site_label
 _atom_site_symmetry_multiplicity
 _atom_site_fract_x
 _atom_site_fract_y
 _atom_site_fract_z
 _atom_site_occupancy
  Ce  Ce0  1  0.750000  0.464325  0.282504  1
  Ce  Ce1  1  0.750000  0.329499  0.063649  1
  Ce  Ce2  1  0.250000  0.671031  0.938472  1
  Ce  Ce3  1  0.250000  0.044108  0.779470  1
  Ce  Ce4  1  0.250000  0.538464  0.717097  1
  Tm  Tm5  1  0.750000  0.956571  0.219623  1
  Tm  Tm6  1  0.250000  0.160139  0.558171  1
  Tm  Tm7  1  0.750000  0.840498  0.439297  1
  Al  Al8  1  0.750000  0.496176  0.560934  1
  Al  Al9  1  0.750000  0.367915  0.850839  1
  Al  Al10  1  0.750000  0.004320  0.936583  1
  Al  Al11  1  0.750000  0.871703  0.647456  1
  Al  Al12  1  0.250000  0.498170  0.437998  1
  Al  Al13  1  0.250000  0.997044  0.067389  1
  Al  Al14  1  0.250000  0.638898  0.151169  1
  Al  Al15  1  0.250000  0.123895  0.347444  1
  Ru  Ru16  1  0.750000  0.745384  0.814489  1
  Ru  Ru17  1  0.250000  0.237135  0.936484  1
  Ru  Ru18  1  0.750000  0.260062  0.430606  1
  Ru  Ru19  1  0.250000  0.744829  0.317113  1
  Ru  Ru20  1  0.750000  0.761450  0.062632  1
  Ru  Ru21  1  0.750000  0.249718  0.686818  1
  Ru  Ru22  1  0.250000  0.265394  0.186004  1
  Ru  Ru23  1  0.250000  0.733270  0.567757  1
