# generated using pymatgen
data_ScTiNb4(B2Ru5)2
_symmetry_space_group_name_H-M   'P 1'
_cell_length_a   9.42917753
_cell_length_b   9.42457453
_cell_length_c   3.04292600
_cell_angle_alpha   90.00000000
_cell_angle_beta   90.00000000
_cell_angle_gamma   89.91596670
_symmetry_Int_Tables_number   1
_chemical_formula_structural   ScTiNb4(B2Ru5)2
_chemical_formula_sum   'Sc1 Ti1 Nb4 B4 Ru10'
_cell_volume   270.41232993
_cell_formula_units_Z   1
loop_
 _symmetry_equiv_pos_site_id
 _symmetry_equiv_pos_as_xyz
  1  'x, y, z'
loop_
 _atom_site_type_symbol
 _atom_site_label
 _atom_site_symmetry_multiplicity
 _atom_site_fract_x
 _atom_site_fract_y
 _atom_site_fract_z
 _atom_site_occupancy
  Sc  Sc0  1  0.822147  0.674241  0.000000  1
  Ti  Ti1  1  0.501846  0.500768  0.000000  1
  Nb  Nb2  1  0.178502  0.325180  0.000000  1
  Nb  Nb3  1  0.326110  0.820395  0.000000  1
  Nb  Nb4  1  0.675537  0.178050  0.000000  1
  Nb  Nb5  1  0.998939  0.998043  0.000000  1
  B  B6  1  0.619977  0.873008  0.000000  1
  B  B7  1  0.380611  0.126144  0.000000  1
  B  B8  1  0.124822  0.618487  0.000000  1
  B  B9  1  0.874374  0.382272  0.000000  1
  Ru  Ru10  1  0.562981  0.718110  0.500000  1
  Ru  Ru11  1  0.429214  0.285117  0.500000  1
  Ru  Ru12  1  0.077990  0.782185  0.500000  1
  Ru  Ru13  1  0.929165  0.218569  0.500000  1
  Ru  Ru14  1  0.285190  0.568369  0.500000  1
  Ru  Ru15  1  0.714184  0.424493  0.500000  1
  Ru  Ru16  1  0.218255  0.073465  0.500000  1
  Ru  Ru17  1  0.778245  0.934796  0.500000  1
  Ru  Ru18  1  0.498591  0.001417  0.500000  1
  Ru  Ru19  1  0.003317  0.496890  0.500000  1
