# generated using pymatgen
data_YbErU(SnIr)3
_symmetry_space_group_name_H-M   'P 1'
_cell_length_a   7.41418585
_cell_length_b   7.60714814
_cell_length_c   3.91752500
_cell_angle_alpha   90.00000000
_cell_angle_beta   90.00000000
_cell_angle_gamma   120.38248786
_symmetry_Int_Tables_number   1
_chemical_formula_structural   YbErU(SnIr)3
_chemical_formula_sum   'Yb1 Er1 U1 Sn3 Ir3'
_cell_volume   190.60792581
_cell_formula_units_Z   1
loop_
 _symmetry_equiv_pos_site_id
 _symmetry_equiv_pos_as_xyz
  1  'x, y, z'
loop_
 _atom_site_type_symbol
 _atom_site_label
 _atom_site_symmetry_multiplicity
 _atom_site_fract_x
 _atom_site_fract_y
 _atom_site_fract_z
 _atom_site_occupancy
  Yb  Yb0  1  0.404104  0.997694  0.500000  1
  Er  Er1  1  0.596363  0.593950  0.500000  1
  U  U2  1  0.001026  0.413933  0.500000  1
  Sn  Sn3  1  0.004058  0.759081  0.000000  1
  Sn  Sn4  1  0.273869  0.255563  0.000000  1
  Sn  Sn5  1  0.721347  0.985986  0.000000  1
  Ir  Ir6  1  0.301443  0.632267  0.000000  1
  Ir  Ir7  1  0.704475  0.344964  0.000000  1
  Ir  Ir8  1  0.993315  0.016564  0.500000  1
