# generated using pymatgen
data_Hf6Zr3(In2Co)7
_symmetry_space_group_name_H-M   'P 1'
_cell_length_a   9.43567230
_cell_length_b   9.43813725
_cell_length_c   9.43813755
_cell_angle_alpha   60.03884693
_cell_angle_beta   60.00864116
_cell_angle_gamma   60.00864302
_symmetry_Int_Tables_number   1
_chemical_formula_structural   Hf6Zr3(In2Co)7
_chemical_formula_sum   'Hf6 Zr3 In14 Co7'
_cell_volume   594.58580090
_cell_formula_units_Z   1
loop_
 _symmetry_equiv_pos_site_id
 _symmetry_equiv_pos_as_xyz
  1  'x, y, z'
loop_
 _atom_site_type_symbol
 _atom_site_label
 _atom_site_symmetry_multiplicity
 _atom_site_fract_x
 _atom_site_fract_y
 _atom_site_fract_z
 _atom_site_occupancy
  Hf  Hf0  1  0.118900  0.642948  0.119252  1
  Hf  Hf1  1  0.358010  0.880058  0.881315  1
  Hf  Hf2  1  0.880617  0.880058  0.881315  1
  Hf  Hf3  1  0.641990  0.118685  0.119942  1
  Hf  Hf4  1  0.881100  0.880748  0.357052  1
  Hf  Hf5  1  0.119383  0.118685  0.119942  1
  Zr  Zr6  1  0.500000  0.499504  0.500496  1
  Zr  Zr7  1  0.878852  0.362697  0.879599  1
  Zr  Zr8  1  0.121148  0.120401  0.637303  1
  In  In9  1  0.500000  0.842265  0.157735  1
  In  In10  1  0.500314  0.841437  0.500447  1
  In  In11  1  0.500291  0.157598  0.500252  1
  In  In12  1  0.499709  0.499748  0.842402  1
  In  In13  1  0.158704  0.500027  0.499973  1
  In  In14  1  0.841859  0.157598  0.500252  1
  In  In15  1  0.157802  0.841437  0.500447  1
  In  In16  1  0.500000  0.157038  0.842962  1
  In  In17  1  0.158141  0.499748  0.842402  1
  In  In18  1  0.499686  0.499553  0.158563  1
  In  In19  1  0.841296  0.500027  0.499973  1
  In  In20  1  0.842198  0.499553  0.158563  1
  In  In21  1  0.251352  0.251358  0.245937  1
  In  In22  1  0.748648  0.754063  0.748642  1
  Co  Co23  1  0.780138  0.779793  0.220207  1
  Co  Co24  1  0.000000  0.997820  0.002180  1
  Co  Co25  1  0.219862  0.779793  0.220207  1
  Co  Co26  1  0.220299  0.778838  0.780564  1
  Co  Co27  1  0.220867  0.219543  0.780457  1
  Co  Co28  1  0.779133  0.219543  0.780457  1
  Co  Co29  1  0.779701  0.219436  0.221162  1
