# generated using pymatgen
data_Zr4ZnCo3Hg2
_symmetry_space_group_name_H-M   'P 1'
_cell_length_a   7.30159004
_cell_length_b   7.30159023
_cell_length_c   3.34427100
_cell_angle_alpha   90.00000000
_cell_angle_beta   90.00000000
_cell_angle_gamma   91.65551798
_symmetry_Int_Tables_number   1
_chemical_formula_structural   Zr4ZnCo3Hg2
_chemical_formula_sum   'Zr4 Zn1 Co3 Hg2'
_cell_volume   178.21942884
_cell_formula_units_Z   1
loop_
 _symmetry_equiv_pos_site_id
 _symmetry_equiv_pos_as_xyz
  1  'x, y, z'
loop_
 _atom_site_type_symbol
 _atom_site_label
 _atom_site_symmetry_multiplicity
 _atom_site_fract_x
 _atom_site_fract_y
 _atom_site_fract_z
 _atom_site_occupancy
  Zr  Zr0  1  0.694665  0.160670  0.500000  1
  Zr  Zr1  1  0.147317  0.352683  0.500000  1
  Zr  Zr2  1  0.828416  0.671584  0.500000  1
  Zr  Zr3  1  0.339330  0.805335  0.500000  1
  Zn  Zn4  1  0.373913  0.126087  0.000000  1
  Co  Co5  1  0.121510  0.630295  0.000000  1
  Co  Co6  1  0.614500  0.885500  0.000000  1
  Co  Co7  1  0.869705  0.378490  0.000000  1
  Hg  Hg8  1  0.007082  0.996438  0.000000  1
  Hg  Hg9  1  0.503562  0.492918  0.000000  1
