# generated using pymatgen
data_Er3(Si3Pt2)2
_symmetry_space_group_name_H-M   'P 1'
_cell_length_a   4.22861800
_cell_length_b   8.54098669
_cell_length_c   12.89593510
_cell_angle_alpha   80.26825145
_cell_angle_beta   90.00000000
_cell_angle_gamma   90.00000000
_symmetry_Int_Tables_number   1
_chemical_formula_structural   Er3(Si3Pt2)2
_chemical_formula_sum   'Er6 Si12 Pt8'
_cell_volume   459.05468005
_cell_formula_units_Z   2
loop_
 _symmetry_equiv_pos_site_id
 _symmetry_equiv_pos_as_xyz
  1  'x, y, z'
loop_
 _atom_site_type_symbol
 _atom_site_label
 _atom_site_symmetry_multiplicity
 _atom_site_fract_x
 _atom_site_fract_y
 _atom_site_fract_z
 _atom_site_occupancy
  Er  Er0  1  0.250000  0.766268  0.438660  1
  Er  Er1  1  0.250000  0.585404  0.186167  1
  Er  Er2  1  0.750000  0.233732  0.561340  1
  Er  Er3  1  0.750000  0.414596  0.813833  1
  Er  Er4  1  0.750000  0.928213  0.815743  1
  Er  Er5  1  0.250000  0.071787  0.184257  1
  Si  Si6  1  0.750000  0.588854  0.571398  1
  Si  Si7  1  0.750000  0.126468  0.005572  1
  Si  Si8  1  0.750000  0.872573  0.573578  1
  Si  Si9  1  0.250000  0.696459  0.713259  1
  Si  Si10  1  0.750000  0.303541  0.286741  1
  Si  Si11  1  0.750000  0.805286  0.277086  1
  Si  Si12  1  0.250000  0.873532  0.994428  1
  Si  Si13  1  0.250000  0.194714  0.722914  1
  Si  Si14  1  0.250000  0.378567  0.000914  1
  Si  Si15  1  0.250000  0.127427  0.426422  1
  Si  Si16  1  0.750000  0.621433  0.999086  1
  Si  Si17  1  0.250000  0.411146  0.428602  1
  Pt  Pt18  1  0.750000  0.352021  0.099587  1
  Pt  Pt19  1  0.250000  0.971206  0.624187  1
  Pt  Pt20  1  0.750000  0.849273  0.089078  1
  Pt  Pt21  1  0.750000  0.028794  0.375813  1
  Pt  Pt22  1  0.250000  0.647979  0.900413  1
  Pt  Pt23  1  0.250000  0.150727  0.910922  1
  Pt  Pt24  1  0.750000  0.533189  0.376160  1
  Pt  Pt25  1  0.250000  0.466811  0.623840  1
