# generated using pymatgen
data_Cd2AgIO6
_symmetry_space_group_name_H-M   'P 1'
_cell_length_a   5.57959499
_cell_length_b   5.73711800
_cell_length_c   8.55116640
_cell_angle_alpha   90.00000000
_cell_angle_beta   89.17700734
_cell_angle_gamma   90.00000000
_symmetry_Int_Tables_number   1
_chemical_formula_structural   Cd2AgIO6
_chemical_formula_sum   'Cd4 Ag2 I2 O12'
_cell_volume   273.70139537
_cell_formula_units_Z   2
loop_
 _symmetry_equiv_pos_site_id
 _symmetry_equiv_pos_as_xyz
  1  'x, y, z'
loop_
 _atom_site_type_symbol
 _atom_site_label
 _atom_site_symmetry_multiplicity
 _atom_site_fract_x
 _atom_site_fract_y
 _atom_site_fract_z
 _atom_site_occupancy
  Cd  Cd0  1  0.486668  0.957486  0.765014  1
  Cd  Cd1  1  0.013332  0.457486  0.734986  1
  Cd  Cd2  1  0.513332  0.042514  0.234986  1
  Cd  Cd3  1  0.986668  0.542514  0.265014  1
  Ag  Ag4  1  0.500000  0.500000  0.000000  1
  Ag  Ag5  1  0.000000  0.000000  0.500000  1
  I  I6  1  0.500000  0.500000  0.500000  1
  I  I7  1  0.000000  0.000000  0.000000  1
  O  O8  1  0.343174  0.238293  0.601510  1
  O  O9  1  0.156826  0.738293  0.898490  1
  O  O10  1  0.656826  0.761707  0.398490  1
  O  O11  1  0.843174  0.261707  0.101510  1
  O  O12  1  0.630935  0.599087  0.698474  1
  O  O13  1  0.869065  0.099087  0.801526  1
  O  O14  1  0.369065  0.400913  0.301526  1
  O  O15  1  0.130935  0.900913  0.198474  1
  O  O16  1  0.216768  0.676574  0.545230  1
  O  O17  1  0.283232  0.176574  0.954770  1
  O  O18  1  0.783232  0.323426  0.454770  1
  O  O19  1  0.716768  0.823426  0.045230  1
