# generated using pymatgen
data_Pr2Sc3Si7Pt9
_symmetry_space_group_name_H-M   'P 1'
_cell_length_a   10.10533100
_cell_length_b   10.10533180
_cell_length_c   4.03194300
_cell_angle_alpha   90.00000000
_cell_angle_beta   90.00000000
_cell_angle_gamma   120.00000064
_symmetry_Int_Tables_number   1
_chemical_formula_structural   Pr2Sc3Si7Pt9
_chemical_formula_sum   'Pr2 Sc3 Si7 Pt9'
_cell_volume   356.57109448
_cell_formula_units_Z   1
loop_
 _symmetry_equiv_pos_site_id
 _symmetry_equiv_pos_as_xyz
  1  'x, y, z'
loop_
 _atom_site_type_symbol
 _atom_site_label
 _atom_site_symmetry_multiplicity
 _atom_site_fract_x
 _atom_site_fract_y
 _atom_site_fract_z
 _atom_site_occupancy
  Pr  Pr0  1  0.000000  0.000000  0.000000  1
  Pr  Pr1  1  0.333333  0.666667  0.500000  1
  Sc  Sc2  1  0.893597  0.453531  0.500000  1
  Sc  Sc3  1  0.559934  0.106403  0.500000  1
  Sc  Sc4  1  0.546469  0.440066  0.500000  1
  Si  Si5  1  0.249736  0.199144  0.500000  1
  Si  Si6  1  0.800856  0.050594  0.500000  1
  Si  Si7  1  0.949406  0.750264  0.500000  1
  Si  Si8  1  0.559523  0.647258  0.000000  1
  Si  Si9  1  0.352742  0.912264  0.000000  1
  Si  Si10  1  0.087736  0.440477  0.000000  1
  Si  Si11  1  0.666667  0.333333  0.000000  1
  Pt  Pt12  1  0.221472  0.936542  0.500000  1
  Pt  Pt13  1  0.063458  0.284930  0.500000  1
  Pt  Pt14  1  0.715070  0.778528  0.500000  1
  Pt  Pt15  1  0.313391  0.409553  0.000000  1
  Pt  Pt16  1  0.590447  0.903838  0.000000  1
  Pt  Pt17  1  0.096162  0.686609  0.000000  1
  Pt  Pt18  1  0.385878  0.172042  0.000000  1
  Pt  Pt19  1  0.827958  0.213836  0.000000  1
  Pt  Pt20  1  0.786164  0.614122  0.000000  1
