# generated using pymatgen
data_Yb3Sc4Pa(ReB6)4
_symmetry_space_group_name_H-M   'P 1'
_cell_length_a   3.58701000
_cell_length_b   9.02307933
_cell_length_c   11.38102845
_cell_angle_alpha   89.95988600
_cell_angle_beta   90.00000000
_cell_angle_gamma   90.00000000
_symmetry_Int_Tables_number   1
_chemical_formula_structural   Yb3Sc4Pa(ReB6)4
_chemical_formula_sum   'Yb3 Sc4 Pa1 Re4 B24'
_cell_volume   368.35686280
_cell_formula_units_Z   1
loop_
 _symmetry_equiv_pos_site_id
 _symmetry_equiv_pos_as_xyz
  1  'x, y, z'
loop_
 _atom_site_type_symbol
 _atom_site_label
 _atom_site_symmetry_multiplicity
 _atom_site_fract_x
 _atom_site_fract_y
 _atom_site_fract_z
 _atom_site_occupancy
  Yb  Yb0  1  0.000000  0.678872  0.586833  1
  Yb  Yb1  1  0.000000  0.823609  0.085658  1
  Yb  Yb2  1  0.000000  0.176316  0.914577  1
  Sc  Sc3  1  0.000000  0.942776  0.368434  1
  Sc  Sc4  1  0.000000  0.055264  0.632236  1
  Sc  Sc5  1  0.000000  0.443783  0.130301  1
  Sc  Sc6  1  0.000000  0.557174  0.867136  1
  Pa  Pa7  1  0.000000  0.322172  0.415385  1
  Re  Re8  1  0.000000  0.638467  0.318437  1
  Re  Re9  1  0.000000  0.358588  0.680486  1
  Re  Re10  1  0.000000  0.144991  0.183747  1
  Re  Re11  1  0.000000  0.857526  0.819178  1
  B  B12  1  0.500000  0.554629  0.432217  1
  B  B13  1  0.500000  0.444088  0.567790  1
  B  B14  1  0.500000  0.055192  0.067851  1
  B  B15  1  0.500000  0.946563  0.932796  1
  B  B16  1  0.500000  0.754452  0.418147  1
  B  B17  1  0.500000  0.245622  0.582328  1
  B  B18  1  0.500000  0.254138  0.080732  1
  B  B19  1  0.500000  0.745440  0.918369  1
  B  B20  1  0.500000  0.795029  0.264376  1
  B  B21  1  0.500000  0.204498  0.736487  1
  B  B22  1  0.500000  0.295319  0.235602  1
  B  B23  1  0.500000  0.704225  0.763343  1
  B  B24  1  0.500000  0.630079  0.181760  1
  B  B25  1  0.500000  0.370671  0.817148  1
  B  B26  1  0.500000  0.129905  0.317073  1
  B  B27  1  0.500000  0.870579  0.682729  1
  B  B28  1  0.500000  0.982419  0.212716  1
  B  B29  1  0.500000  0.018368  0.786994  1
  B  B30  1  0.500000  0.482180  0.286339  1
  B  B31  1  0.500000  0.518226  0.713809  1
  B  B32  1  0.500000  0.592757  0.024536  1
  B  B33  1  0.500000  0.407296  0.974025  1
  B  B34  1  0.500000  0.094506  0.474421  1
  B  B35  1  0.500000  0.904281  0.526008  1
