# generated using pymatgen
data_DySb12(OsRu)2
_symmetry_space_group_name_H-M   'P 1'
_cell_length_a   8.14608038
_cell_length_b   8.13479052
_cell_length_c   8.14578414
_cell_angle_alpha   109.48568531
_cell_angle_beta   109.52008241
_cell_angle_gamma   109.46243391
_symmetry_Int_Tables_number   1
_chemical_formula_structural   DySb12(OsRu)2
_chemical_formula_sum   'Dy1 Sb12 Os2 Ru2'
_cell_volume   415.25352009
_cell_formula_units_Z   1
loop_
 _symmetry_equiv_pos_site_id
 _symmetry_equiv_pos_as_xyz
  1  'x, y, z'
loop_
 _atom_site_type_symbol
 _atom_site_label
 _atom_site_symmetry_multiplicity
 _atom_site_fract_x
 _atom_site_fract_y
 _atom_site_fract_z
 _atom_site_occupancy
  Dy  Dy0  1  0.000000  0.000000  0.000000  1
  Sb  Sb1  1  0.336848  0.180003  0.843140  1
  Sb  Sb2  1  0.663151  0.819997  0.156860  1
  Sb  Sb3  1  0.662128  0.505739  0.843632  1
  Sb  Sb4  1  0.337872  0.494261  0.156368  1
  Sb  Sb5  1  0.180662  0.844192  0.338012  1
  Sb  Sb6  1  0.819338  0.155808  0.661989  1
  Sb  Sb7  1  0.506185  0.844198  0.663528  1
  Sb  Sb8  1  0.493815  0.155802  0.336473  1
  Sb  Sb9  1  0.842824  0.336791  0.180665  1
  Sb  Sb10  1  0.157176  0.663208  0.819335  1
  Sb  Sb11  1  0.843865  0.663205  0.506019  1
  Sb  Sb12  1  0.156135  0.336795  0.493981  1
  Os  Os13  1  0.000000  0.500000  0.000000  1
  Os  Os14  1  0.500000  0.500000  0.500000  1
  Ru  Ru15  1  0.000000  0.000000  0.500000  1
  Ru  Ru16  1  0.500000  0.000000  0.000000  1
