# generated using pymatgen
data_Zr3Fe8P6W
_symmetry_space_group_name_H-M   'P 1'
_cell_length_a   12.04913313
_cell_length_b   11.97930328
_cell_length_c   3.65442400
_cell_angle_alpha   90.00000000
_cell_angle_beta   90.00000000
_cell_angle_gamma   119.80846583
_symmetry_Int_Tables_number   1
_chemical_formula_structural   Zr3Fe8P6W
_chemical_formula_sum   'Zr6 Fe16 P12 W2'
_cell_volume   457.69049888
_cell_formula_units_Z   2
loop_
 _symmetry_equiv_pos_site_id
 _symmetry_equiv_pos_as_xyz
  1  'x, y, z'
loop_
 _atom_site_type_symbol
 _atom_site_label
 _atom_site_symmetry_multiplicity
 _atom_site_fract_x
 _atom_site_fract_y
 _atom_site_fract_z
 _atom_site_occupancy
  Zr  Zr0  1  0.000000  0.558356  0.000000  1
  Zr  Zr1  1  0.662313  0.333499  0.000000  1
  Zr  Zr2  1  0.337687  0.671187  0.000000  1
  Zr  Zr3  1  0.809902  0.813185  0.500000  1
  Zr  Zr4  1  0.190098  0.003283  0.500000  1
  Zr  Zr5  1  0.000000  0.176262  0.500000  1
  Fe  Fe6  1  0.198828  0.376775  0.000000  1
  Fe  Fe7  1  0.184368  0.809380  0.000000  1
  Fe  Fe8  1  0.815632  0.625012  0.000000  1
  Fe  Fe9  1  0.801172  0.177948  0.000000  1
  Fe  Fe10  1  0.374665  0.196558  0.000000  1
  Fe  Fe11  1  0.125183  0.476229  0.500000  1
  Fe  Fe12  1  0.362093  0.879172  0.500000  1
  Fe  Fe13  1  0.516743  0.643711  0.500000  1
  Fe  Fe14  1  0.637907  0.517079  0.500000  1
  Fe  Fe15  1  0.874817  0.351046  0.500000  1
  Fe  Fe16  1  0.483257  0.126968  0.500000  1
  Fe  Fe17  1  0.000000  0.998162  0.000000  1
  Fe  Fe18  1  0.720934  0.001270  0.500000  1
  Fe  Fe19  1  0.000000  0.725037  0.500000  1
  Fe  Fe20  1  0.625335  0.821892  0.000000  1
  Fe  Fe21  1  0.279066  0.280336  0.500000  1
  P  P22  1  0.640884  0.643682  0.000000  1
  P  P23  1  0.359116  0.002799  0.000000  1
  P  P24  1  0.000000  0.343620  0.000000  1
  P  P25  1  0.478358  0.310293  0.500000  1
  P  P26  1  0.684052  0.167564  0.500000  1
  P  P27  1  0.822928  0.520992  0.500000  1
  P  P28  1  0.521642  0.831935  0.500000  1
  P  P29  1  0.177072  0.698064  0.500000  1
  P  P30  1  0.819795  0.997577  0.000000  1
  P  P31  1  0.000000  0.819377  0.000000  1
  P  P32  1  0.315948  0.483512  0.500000  1
  P  P33  1  0.180205  0.177781  0.000000  1
  W  W34  1  0.441032  0.440743  0.000000  1
  W  W35  1  0.558968  0.999711  0.000000  1
