# generated using pymatgen
data_Th2Mn3Cr2(PRh)7
_symmetry_space_group_name_H-M   'P 1'
_cell_length_a   9.48720982
_cell_length_b   9.49030350
_cell_length_c   3.86164600
_cell_angle_alpha   90.00000000
_cell_angle_beta   90.00000000
_cell_angle_gamma   120.08163744
_symmetry_Int_Tables_number   1
_chemical_formula_structural   Th2Mn3Cr2(PRh)7
_chemical_formula_sum   'Th2 Mn3 Cr2 P7 Rh7'
_cell_volume   300.85957994
_cell_formula_units_Z   1
loop_
 _symmetry_equiv_pos_site_id
 _symmetry_equiv_pos_as_xyz
  1  'x, y, z'
loop_
 _atom_site_type_symbol
 _atom_site_label
 _atom_site_symmetry_multiplicity
 _atom_site_fract_x
 _atom_site_fract_y
 _atom_site_fract_z
 _atom_site_occupancy
  Th  Th0  1  0.334931  0.668387  0.000000  1
  Th  Th1  1  0.000498  0.997772  0.500000  1
  Mn  Mn2  1  0.555402  0.068320  0.000000  1
  Mn  Mn3  1  0.934997  0.485405  0.000000  1
  Mn  Mn4  1  0.508504  0.445809  0.000000  1
  Cr  Cr5  1  0.765453  0.550289  0.500000  1
  Cr  Cr6  1  0.446264  0.217910  0.500000  1
  P  P7  1  0.770208  0.035142  0.000000  1
  P  P8  1  0.957915  0.728378  0.000000  1
  P  P9  1  0.266283  0.225908  0.000000  1
  P  P10  1  0.391282  0.945765  0.500000  1
  P  P11  1  0.060012  0.451535  0.500000  1
  P  P12  1  0.555444  0.607209  0.500000  1
  P  P13  1  0.665853  0.338384  0.000000  1
  Rh  Rh14  1  0.031498  0.267994  0.000000  1
  Rh  Rh15  1  0.730277  0.761463  0.000000  1
  Rh  Rh16  1  0.236736  0.966642  0.000000  1
  Rh  Rh17  1  0.612667  0.892334  0.500000  1
  Rh  Rh18  1  0.105446  0.718718  0.500000  1
  Rh  Rh19  1  0.278100  0.388295  0.500000  1
  Rh  Rh20  1  0.792232  0.238340  0.500000  1
