# generated using pymatgen
data_LuMgNi3Pt
_symmetry_space_group_name_H-M   'P 1'
_cell_length_a   5.12315487
_cell_length_b   5.12315513
_cell_length_c   5.12315606
_cell_angle_alpha   57.46954478
_cell_angle_beta   57.46954624
_cell_angle_gamma   57.46953085
_symmetry_Int_Tables_number   1
_chemical_formula_structural   LuMgNi3Pt
_chemical_formula_sum   'Lu1 Mg1 Ni3 Pt1'
_cell_volume   89.54728114
_cell_formula_units_Z   1
loop_
 _symmetry_equiv_pos_site_id
 _symmetry_equiv_pos_as_xyz
  1  'x, y, z'
loop_
 _atom_site_type_symbol
 _atom_site_label
 _atom_site_symmetry_multiplicity
 _atom_site_fract_x
 _atom_site_fract_y
 _atom_site_fract_z
 _atom_site_occupancy
  Lu  Lu0  1  0.248097  0.248097  0.248097  1
  Mg  Mg1  1  0.005254  0.005254  0.005254  1
  Ni  Ni2  1  0.624169  0.624169  0.122980  1
  Ni  Ni3  1  0.624169  0.122980  0.624169  1
  Ni  Ni4  1  0.122980  0.624169  0.624169  1
  Pt  Pt5  1  0.625332  0.625332  0.625332  1
