# generated using pymatgen
data_SrNi11B6Ir
_symmetry_space_group_name_H-M   'P 1'
_cell_length_a   6.15301915
_cell_length_b   6.06388885
_cell_length_c   6.15301960
_cell_angle_alpha   104.37752198
_cell_angle_beta   104.40077180
_cell_angle_gamma   104.37750335
_symmetry_Int_Tables_number   1
_chemical_formula_structural   SrNi11B6Ir
_chemical_formula_sum   'Sr1 Ni11 B6 Ir1'
_cell_volume   203.29693645
_cell_formula_units_Z   1
loop_
 _symmetry_equiv_pos_site_id
 _symmetry_equiv_pos_as_xyz
  1  'x, y, z'
loop_
 _atom_site_type_symbol
 _atom_site_label
 _atom_site_symmetry_multiplicity
 _atom_site_fract_x
 _atom_site_fract_y
 _atom_site_fract_z
 _atom_site_occupancy
  Sr  Sr0  1  0.001502  0.000000  0.998498  1
  Ni  Ni1  1  0.500494  0.866510  0.131732  1
  Ni  Ni2  1  0.455908  0.458786  0.191477  1
  Ni  Ni3  1  0.460795  0.186182  0.459818  1
  Ni  Ni4  1  0.192858  0.460703  0.465097  1
  Ni  Ni5  1  0.868267  0.133489  0.499506  1
  Ni  Ni6  1  0.136236  0.872679  0.507965  1
  Ni  Ni7  1  0.808522  0.541213  0.544092  1
  Ni  Ni8  1  0.540181  0.813817  0.539205  1
  Ni  Ni9  1  0.534902  0.539296  0.807141  1
  Ni  Ni10  1  0.492035  0.127321  0.863762  1
  Ni  Ni11  1  0.136559  0.500000  0.863440  1
  B  B12  1  0.655233  0.229944  0.232969  1
  B  B13  1  0.239939  0.660551  0.235204  1
  B  B14  1  0.767032  0.770057  0.344767  1
  B  B15  1  0.233950  0.233696  0.657257  1
  B  B16  1  0.764797  0.339449  0.760062  1
  B  B17  1  0.342744  0.766305  0.766051  1
  Ir  Ir18  1  0.868044  0.500000  0.131955  1
