# generated using pymatgen
data_Cs2Cu3F12
_symmetry_space_group_name_H-M   'P 1'
_cell_length_a   5.42774294
_cell_length_b   7.72110866
_cell_length_c   8.24440558
_cell_angle_alpha   62.97641763
_cell_angle_beta   70.72367983
_cell_angle_gamma   70.43290500
_symmetry_Int_Tables_number   1
_chemical_formula_structural   Cs2Cu3F12
_chemical_formula_sum   'Cs2 Cu3 F12'
_cell_volume   283.41816378
_cell_formula_units_Z   1
loop_
 _symmetry_equiv_pos_site_id
 _symmetry_equiv_pos_as_xyz
  1  'x, y, z'
loop_
 _atom_site_type_symbol
 _atom_site_label
 _atom_site_symmetry_multiplicity
 _atom_site_fract_x
 _atom_site_fract_y
 _atom_site_fract_z
 _atom_site_occupancy
  Cs  Cs0  1  0.220479  0.799256  0.252130  1
  Cs  Cs1  1  0.779521  0.200744  0.747870  1
  Cu  Cu2  1  0.000000  0.500000  0.000000  1
  Cu  Cu3  1  0.459431  0.218247  0.333025  1
  Cu  Cu4  1  0.540569  0.781753  0.666975  1
  F  F5  1  0.089435  0.266432  0.974688  1
  F  F6  1  0.910565  0.733568  0.025312  1
  F  F7  1  0.159194  0.371148  0.242890  1
  F  F8  1  0.840806  0.628852  0.757110  1
  F  F9  1  0.677241  0.447083  0.150325  1
  F  F10  1  0.322759  0.552917  0.849675  1
  F  F11  1  0.735568  0.050423  0.445672  1
  F  F12  1  0.264432  0.949577  0.554328  1
  F  F13  1  0.348024  0.331983  0.499093  1
  F  F14  1  0.651976  0.668017  0.500907  1
  F  F15  1  0.560358  0.101211  0.171208  1
  F  F16  1  0.439642  0.898789  0.828792  1
