# generated using pymatgen
data_K2YbPuO6
_symmetry_space_group_name_H-M   'P 1'
_cell_length_a   5.91291421
_cell_length_b   5.92095913
_cell_length_c   8.37104100
_cell_angle_alpha   90.02797555
_cell_angle_beta   90.01528103
_cell_angle_gamma   90.02163948
_symmetry_Int_Tables_number   1
_chemical_formula_structural   K2YbPuO6
_chemical_formula_sum   'K4 Yb2 Pu2 O12'
_cell_volume   293.07111186
_cell_formula_units_Z   2
loop_
 _symmetry_equiv_pos_site_id
 _symmetry_equiv_pos_as_xyz
  1  'x, y, z'
loop_
 _atom_site_type_symbol
 _atom_site_label
 _atom_site_symmetry_multiplicity
 _atom_site_fract_x
 _atom_site_fract_y
 _atom_site_fract_z
 _atom_site_occupancy
  K  K0  1  0.449739  0.050126  0.249876  1
  K  K1  1  0.949968  0.550238  0.250043  1
  K  K2  1  0.449874  0.049966  0.750049  1
  K  K3  1  0.950005  0.550114  0.750071  1
  Yb  Yb4  1  0.450158  0.550307  0.999993  1
  Yb  Yb5  1  0.949883  0.049646  0.500007  1
  Pu  Pu6  1  0.950127  0.050395  0.000016  1
  Pu  Pu7  1  0.449912  0.549553  0.499982  1
  O  O8  1  0.181579  0.814227  0.000481  1
  O  O9  1  0.187008  0.281288  0.000840  1
  O  O10  1  0.948814  0.050201  0.233683  1
  O  O11  1  0.450993  0.550112  0.266130  1
  O  O12  1  0.210237  0.321245  0.499050  1
  O  O13  1  0.221171  0.788636  0.499764  1
  O  O14  1  0.678429  0.310298  0.500167  1
  O  O15  1  0.689736  0.777742  0.500983  1
  O  O16  1  0.448911  0.549080  0.733828  1
  O  O17  1  0.951205  0.050434  0.766358  1
  O  O18  1  0.713185  0.819510  0.999165  1
  O  O19  1  0.719063  0.286881  0.999499  1
