# generated using pymatgen
data_SmZr(SiTc2)4
_symmetry_space_group_name_H-M   'P 1'
_cell_length_a   7.35294470
_cell_length_b   7.35294470
_cell_length_c   4.11457000
_cell_angle_alpha   90.00000000
_cell_angle_beta   90.00000000
_cell_angle_gamma   88.33441618
_symmetry_Int_Tables_number   1
_chemical_formula_structural   SmZr(SiTc2)4
_chemical_formula_sum   'Sm1 Zr1 Si4 Tc8'
_cell_volume   222.36351267
_cell_formula_units_Z   1
loop_
 _symmetry_equiv_pos_site_id
 _symmetry_equiv_pos_as_xyz
  1  'x, y, z'
loop_
 _atom_site_type_symbol
 _atom_site_label
 _atom_site_symmetry_multiplicity
 _atom_site_fract_x
 _atom_site_fract_y
 _atom_site_fract_z
 _atom_site_occupancy
  Sm  Sm0  1  0.500000  0.500000  0.000000  1
  Zr  Zr1  1  0.000000  0.000000  0.500000  1
  Si  Si2  1  0.200791  0.799209  0.000000  1
  Si  Si3  1  0.283863  0.283863  0.500000  1
  Si  Si4  1  0.716137  0.716137  0.500000  1
  Si  Si5  1  0.799209  0.200791  0.000000  1
  Tc  Tc6  1  0.601141  0.149448  0.500000  1
  Tc  Tc7  1  0.398859  0.850552  0.500000  1
  Tc  Tc8  1  0.149448  0.601141  0.500000  1
  Tc  Tc9  1  0.850552  0.398859  0.500000  1
  Tc  Tc10  1  0.085086  0.340796  0.000000  1
  Tc  Tc11  1  0.914914  0.659204  0.000000  1
  Tc  Tc12  1  0.659204  0.914914  0.000000  1
  Tc  Tc13  1  0.340796  0.085086  0.000000  1
