# generated using pymatgen
data_Ho4Al16Si2Ir5Pt
_symmetry_space_group_name_H-M   'P 1'
_cell_length_a   7.54445613
_cell_length_b   7.54445697
_cell_length_c   9.32553524
_cell_angle_alpha   89.98706292
_cell_angle_beta   89.98706559
_cell_angle_gamma   119.65659378
_symmetry_Int_Tables_number   1
_chemical_formula_structural   Ho4Al16Si2Ir5Pt
_chemical_formula_sum   'Ho4 Al16 Si2 Ir5 Pt1'
_cell_volume   461.26736550
_cell_formula_units_Z   1
loop_
 _symmetry_equiv_pos_site_id
 _symmetry_equiv_pos_as_xyz
  1  'x, y, z'
loop_
 _atom_site_type_symbol
 _atom_site_label
 _atom_site_symmetry_multiplicity
 _atom_site_fract_x
 _atom_site_fract_y
 _atom_site_fract_z
 _atom_site_occupancy
  Ho  Ho0  1  0.994683  0.674744  0.250653  1
  Ho  Ho1  1  0.005225  0.325182  0.749358  1
  Ho  Ho2  1  0.674818  0.994775  0.250642  1
  Ho  Ho3  1  0.325256  0.005317  0.749347  1
  Al  Al4  1  0.004068  0.336359  0.077295  1
  Al  Al5  1  0.001842  0.666721  0.922783  1
  Al  Al6  1  0.999284  0.663258  0.575568  1
  Al  Al7  1  0.336742  0.000716  0.424432  1
  Al  Al8  1  0.000867  0.336348  0.424028  1
  Al  Al9  1  0.663652  0.999133  0.575972  1
  Al  Al10  1  0.663641  0.995932  0.922705  1
  Al  Al11  1  0.333279  0.998158  0.077217  1
  Al  Al12  1  0.335035  0.334959  0.557130  1
  Al  Al13  1  0.665041  0.664965  0.442870  1
  Al  Al14  1  0.664498  0.667751  0.059247  1
  Al  Al15  1  0.332249  0.335502  0.940753  1
  Al  Al16  1  0.335611  0.548829  0.250428  1
  Al  Al17  1  0.664760  0.452989  0.747658  1
  Al  Al18  1  0.547011  0.335240  0.252342  1
  Al  Al19  1  0.451171  0.664389  0.749572  1
  Si  Si20  1  0.129027  0.128507  0.250345  1
  Si  Si21  1  0.871493  0.870973  0.749655  1
  Ir  Ir22  1  0.328128  0.671872  0.000000  1
  Ir  Ir23  1  0.328302  0.671698  0.500000  1
  Ir  Ir24  1  0.672129  0.327871  0.500000  1
  Ir  Ir25  1  0.999861  0.000139  0.000000  1
  Ir  Ir26  1  0.000147  0.999853  0.500000  1
  Pt  Pt27  1  0.672179  0.327821  0.000000  1
