# generated using pymatgen
data_Zr4AlFe6Si
_symmetry_space_group_name_H-M   'P 1'
_cell_length_a   5.01926116
_cell_length_b   5.01936387
_cell_length_c   8.14250700
_cell_angle_alpha   89.99966051
_cell_angle_beta   89.99925035
_cell_angle_gamma   60.00065108
_symmetry_Int_Tables_number   1
_chemical_formula_structural   Zr4AlFe6Si
_chemical_formula_sum   'Zr4 Al1 Fe6 Si1'
_cell_volume   177.65608831
_cell_formula_units_Z   1
loop_
 _symmetry_equiv_pos_site_id
 _symmetry_equiv_pos_as_xyz
  1  'x, y, z'
loop_
 _atom_site_type_symbol
 _atom_site_label
 _atom_site_symmetry_multiplicity
 _atom_site_fract_x
 _atom_site_fract_y
 _atom_site_fract_z
 _atom_site_occupancy
  Zr  Zr0  1  0.333333  0.333330  0.564019  1
  Zr  Zr1  1  0.666667  0.666670  0.435981  1
  Zr  Zr2  1  0.666664  0.666671  0.064338  1
  Zr  Zr3  1  0.333336  0.333329  0.935662  1
  Al  Al4  1  0.000000  0.000000  0.000000  1
  Fe  Fe5  1  0.829099  0.341786  0.746504  1
  Fe  Fe6  1  0.341762  0.829117  0.746498  1
  Fe  Fe7  1  0.829107  0.829118  0.746499  1
  Fe  Fe8  1  0.170901  0.658214  0.253496  1
  Fe  Fe9  1  0.658238  0.170883  0.253502  1
  Fe  Fe10  1  0.170893  0.170882  0.253501  1
  Si  Si11  1  0.000000  0.000000  0.500000  1
