# generated using pymatgen
data_Dy15Er5(SnBi)8
_symmetry_space_group_name_H-M   'P 1'
_cell_length_a   8.17262360
_cell_length_b   8.21196033
_cell_length_c   15.66806700
_cell_angle_alpha   90.00706084
_cell_angle_beta   89.97813364
_cell_angle_gamma   90.03186717
_symmetry_Int_Tables_number   1
_chemical_formula_structural   Dy15Er5(SnBi)8
_chemical_formula_sum   'Dy15 Er5 Sn8 Bi8'
_cell_volume   1051.53481922
_cell_formula_units_Z   1
loop_
 _symmetry_equiv_pos_site_id
 _symmetry_equiv_pos_as_xyz
  1  'x, y, z'
loop_
 _atom_site_type_symbol
 _atom_site_label
 _atom_site_symmetry_multiplicity
 _atom_site_fract_x
 _atom_site_fract_y
 _atom_site_fract_z
 _atom_site_occupancy
  Dy  Dy0  1  0.886634  0.661876  0.623611  1
  Dy  Dy1  1  0.613226  0.161736  0.376589  1
  Dy  Dy2  1  0.113508  0.338190  0.123231  1
  Dy  Dy3  1  0.613332  0.161787  0.123547  1
  Dy  Dy4  1  0.113255  0.338310  0.376617  1
  Dy  Dy5  1  0.386794  0.838252  0.623504  1
  Dy  Dy6  1  0.886737  0.661614  0.876614  1
  Dy  Dy7  1  0.553571  0.327881  0.889820  1
  Dy  Dy8  1  0.053755  0.171941  0.610318  1
  Dy  Dy9  1  0.446381  0.672119  0.389846  1
  Dy  Dy10  1  0.946291  0.827790  0.110264  1
  Dy  Dy11  1  0.446508  0.672260  0.110054  1
  Dy  Dy12  1  0.946398  0.827879  0.389810  1
  Dy  Dy13  1  0.553523  0.327953  0.610373  1
  Dy  Dy14  1  0.053732  0.171848  0.889671  1
  Er  Er15  1  0.386192  0.838684  0.875896  1
  Er  Er16  1  0.218573  0.498341  0.750087  1
  Er  Er17  1  0.718039  0.001519  0.750129  1
  Er  Er18  1  0.781628  0.501678  0.250063  1
  Er  Er19  1  0.281628  0.998277  0.249877  1
  Sn  Sn20  1  0.582901  0.627257  0.750464  1
  Sn  Sn21  1  0.083314  0.873090  0.750200  1
  Sn  Sn22  1  0.416908  0.373420  0.250026  1
  Sn  Sn23  1  0.917087  0.126674  0.249976  1
  Sn  Sn24  1  0.357986  0.144014  0.750174  1
  Sn  Sn25  1  0.858198  0.355571  0.750033  1
  Sn  Sn26  1  0.642041  0.855652  0.250040  1
  Sn  Sn27  1  0.142074  0.644218  0.250008  1
  Bi  Bi28  1  0.271115  0.019800  0.044169  1
  Bi  Bi29  1  0.770547  0.479630  0.455167  1
  Bi  Bi30  1  0.729445  0.979591  0.544943  1
  Bi  Bi31  1  0.229984  0.521922  0.954882  1
  Bi  Bi32  1  0.727996  0.978899  0.955003  1
  Bi  Bi33  1  0.229330  0.520369  0.544974  1
  Bi  Bi34  1  0.270632  0.020433  0.455135  1
  Bi  Bi35  1  0.770734  0.479524  0.044884  1
