# generated using pymatgen
data_DyErLu6(CdPt)2
_symmetry_space_group_name_H-M   'P 1'
_cell_length_a   9.54241754
_cell_length_b   9.53079968
_cell_length_c   9.52662915
_cell_angle_alpha   60.09516370
_cell_angle_beta   59.97409736
_cell_angle_gamma   59.93074947
_symmetry_Int_Tables_number   1
_chemical_formula_structural   DyErLu6(CdPt)2
_chemical_formula_sum   'Dy2 Er2 Lu12 Cd4 Pt4'
_cell_volume   612.64674565
_cell_formula_units_Z   2
loop_
 _symmetry_equiv_pos_site_id
 _symmetry_equiv_pos_as_xyz
  1  'x, y, z'
loop_
 _atom_site_type_symbol
 _atom_site_label
 _atom_site_symmetry_multiplicity
 _atom_site_fract_x
 _atom_site_fract_y
 _atom_site_fract_z
 _atom_site_occupancy
  Dy  Dy0  1  0.565127  0.565127  0.934873  1
  Dy  Dy1  1  0.934873  0.934873  0.565126  1
  Er  Er2  1  0.564771  0.935229  0.564771  1
  Er  Er3  1  0.935229  0.564770  0.935229  1
  Lu  Lu4  1  0.353386  0.352182  0.352421  1
  Lu  Lu5  1  0.352182  0.353386  0.942011  1
  Lu  Lu6  1  0.352421  0.942011  0.353386  1
  Lu  Lu7  1  0.942011  0.352421  0.352182  1
  Lu  Lu8  1  0.811072  0.188928  0.188928  1
  Lu  Lu9  1  0.188928  0.811072  0.811072  1
  Lu  Lu10  1  0.188752  0.811248  0.188752  1
  Lu  Lu11  1  0.811248  0.188752  0.811248  1
  Lu  Lu12  1  0.188752  0.188752  0.811248  1
  Lu  Lu13  1  0.811248  0.811248  0.188752  1
  Lu  Lu14  1  0.938671  0.561329  0.561329  1
  Lu  Lu15  1  0.561329  0.938671  0.938671  1
  Cd  Cd16  1  0.583181  0.581190  0.580972  1
  Cd  Cd17  1  0.581190  0.583181  0.254658  1
  Cd  Cd18  1  0.580972  0.254658  0.583181  1
  Cd  Cd19  1  0.254658  0.580972  0.581190  1
  Pt  Pt20  1  0.144494  0.142792  0.142550  1
  Pt  Pt21  1  0.142792  0.144494  0.570164  1
  Pt  Pt22  1  0.142550  0.570164  0.144494  1
  Pt  Pt23  1  0.570164  0.142550  0.142792  1
