# generated using pymatgen
data_Er9Th7(CdOs)4
_symmetry_space_group_name_H-M   'P 1'
_cell_length_a   9.76643787
_cell_length_b   9.76189666
_cell_length_c   9.86721800
_cell_angle_alpha   59.67302556
_cell_angle_beta   60.27202375
_cell_angle_gamma   60.69947199
_symmetry_Int_Tables_number   1
_chemical_formula_structural   Er9Th7(CdOs)4
_chemical_formula_sum   'Er9 Th7 Cd4 Os4'
_cell_volume   668.32510679
_cell_formula_units_Z   1
loop_
 _symmetry_equiv_pos_site_id
 _symmetry_equiv_pos_as_xyz
  1  'x, y, z'
loop_
 _atom_site_type_symbol
 _atom_site_label
 _atom_site_symmetry_multiplicity
 _atom_site_fract_x
 _atom_site_fract_y
 _atom_site_fract_z
 _atom_site_occupancy
  Er  Er0  1  0.059546  0.440112  0.059891  1
  Er  Er1  1  0.439775  0.444567  0.055961  1
  Er  Er2  1  0.056211  0.059869  0.439421  1
  Er  Er3  1  0.183149  0.815935  0.818759  1
  Er  Er4  1  0.818256  0.183193  0.182669  1
  Er  Er5  1  0.814157  0.186426  0.814029  1
  Er  Er6  1  0.187586  0.812676  0.187313  1
  Er  Er7  1  0.812548  0.809508  0.189185  1
  Er  Er8  1  0.189420  0.189646  0.812173  1
  Th  Th9  1  0.592817  0.596323  0.603777  1
  Th  Th10  1  0.601367  0.593958  0.204173  1
  Th  Th11  1  0.604315  0.205549  0.593589  1
  Th  Th12  1  0.203968  0.600894  0.601151  1
  Th  Th13  1  0.062172  0.438864  0.433992  1
  Th  Th14  1  0.433242  0.066065  0.062798  1
  Th  Th15  1  0.438683  0.061664  0.438123  1
  Cd  Cd16  1  0.834534  0.832471  0.831171  1
  Cd  Cd17  1  0.834468  0.833503  0.500522  1
  Cd  Cd18  1  0.831443  0.501123  0.834013  1
  Cd  Cd19  1  0.499857  0.830735  0.834521  1
  Os  Os20  1  0.385684  0.388826  0.396954  1
  Os  Os21  1  0.393890  0.380873  0.825983  1
  Os  Os22  1  0.396906  0.828561  0.385273  1
  Os  Os23  1  0.826004  0.398659  0.394558  1
