# generated using pymatgen
data_Rb2NaPd3F12
_symmetry_space_group_name_H-M   'P 1'
_cell_length_a   7.39650080
_cell_length_b   7.87703600
_cell_length_c   10.57365271
_cell_angle_alpha   89.95126324
_cell_angle_beta   85.48314843
_cell_angle_gamma   89.40090584
_symmetry_Int_Tables_number   1
_chemical_formula_structural   Rb2NaPd3F12
_chemical_formula_sum   'Rb4 Na2 Pd6 F24'
_cell_volume   614.10059072
_cell_formula_units_Z   2
loop_
 _symmetry_equiv_pos_site_id
 _symmetry_equiv_pos_as_xyz
  1  'x, y, z'
loop_
 _atom_site_type_symbol
 _atom_site_label
 _atom_site_symmetry_multiplicity
 _atom_site_fract_x
 _atom_site_fract_y
 _atom_site_fract_z
 _atom_site_occupancy
  Rb  Rb0  1  0.523126  0.751038  0.600451  1
  Rb  Rb1  1  0.476874  0.248962  0.399549  1
  Rb  Rb2  1  0.033990  0.262247  0.140029  1
  Rb  Rb3  1  0.966010  0.737753  0.859971  1
  Na  Na4  1  0.709363  0.241685  0.746458  1
  Na  Na5  1  0.290637  0.758315  0.253542  1
  Pd  Pd6  1  0.814055  0.749254  0.212673  1
  Pd  Pd7  1  0.185945  0.250746  0.787327  1
  Pd  Pd8  1  0.000000  0.500000  0.500000  1
  Pd  Pd9  1  0.000000  0.000000  0.500000  1
  Pd  Pd10  1  0.500000  0.000000  0.000000  1
  Pd  Pd11  1  0.500000  0.500000  0.000000  1
  F  F12  1  0.051127  0.731036  0.116521  1
  F  F13  1  0.948873  0.268964  0.883479  1
  F  F14  1  0.581861  0.766393  0.316094  1
  F  F15  1  0.418139  0.233607  0.683906  1
  F  F16  1  0.754282  0.439017  0.569026  1
  F  F17  1  0.245718  0.560983  0.430974  1
  F  F18  1  0.744736  0.055838  0.552198  1
  F  F19  1  0.255264  0.944162  0.447802  1
  F  F20  1  0.638129  0.956926  0.836066  1
  F  F21  1  0.361871  0.043074  0.163934  1
  F  F22  1  0.630268  0.539649  0.833319  1
  F  F23  1  0.369732  0.460351  0.166681  1
  F  F24  1  0.583652  0.249166  0.981502  1
  F  F25  1  0.416348  0.750834  0.018498  1
  F  F26  1  0.270694  0.434431  0.910934  1
  F  F27  1  0.729306  0.565569  0.089066  1
  F  F28  1  0.263553  0.061650  0.910409  1
  F  F29  1  0.736447  0.938350  0.089591  1
  F  F30  1  0.068919  0.068138  0.679823  1
  F  F31  1  0.931081  0.931862  0.320177  1
  F  F32  1  0.945724  0.750842  0.561823  1
  F  F33  1  0.054276  0.249158  0.438177  1
  F  F34  1  0.104293  0.446294  0.673347  1
  F  F35  1  0.895707  0.553706  0.326653  1
