# generated using pymatgen
data_Tm2LuZr7Sn6
_symmetry_space_group_name_H-M   'P 1'
_cell_length_a   5.95227200
_cell_length_b   8.66217059
_cell_length_c   8.64103997
_cell_angle_alpha   120.08717596
_cell_angle_beta   89.99979145
_cell_angle_gamma   90.00155387
_symmetry_Int_Tables_number   1
_chemical_formula_structural   Tm2LuZr7Sn6
_chemical_formula_sum   'Tm2 Lu1 Zr7 Sn6'
_cell_volume   385.49963705
_cell_formula_units_Z   1
loop_
 _symmetry_equiv_pos_site_id
 _symmetry_equiv_pos_as_xyz
  1  'x, y, z'
loop_
 _atom_site_type_symbol
 _atom_site_label
 _atom_site_symmetry_multiplicity
 _atom_site_fract_x
 _atom_site_fract_y
 _atom_site_fract_z
 _atom_site_occupancy
  Tm  Tm0  1  0.250000  0.239056  0.241679  1
  Tm  Tm1  1  0.250001  0.997316  0.758286  1
  Lu  Lu2  1  0.749977  0.242559  0.000148  1
  Zr  Zr3  1  0.500874  0.335799  0.666404  1
  Zr  Zr4  1  0.500885  0.669377  0.333565  1
  Zr  Zr5  1  0.999112  0.669409  0.333622  1
  Zr  Zr6  1  0.999125  0.335785  0.666344  1
  Zr  Zr7  1  0.750018  0.753086  0.754610  1
  Zr  Zr8  1  0.750010  0.998475  0.245368  1
  Zr  Zr9  1  0.250034  0.752862  0.999998  1
  Sn  Sn10  1  0.750049  0.610419  0.999982  1
  Sn  Sn11  1  0.750002  0.394463  0.395615  1
  Sn  Sn12  1  0.750008  0.998895  0.604433  1
  Sn  Sn13  1  0.249832  0.399690  0.999918  1
  Sn  Sn14  1  0.250051  0.604770  0.606805  1
  Sn  Sn15  1  0.250021  0.998035  0.393220  1
