# generated using pymatgen
data_Dy3HoV3TcB16
_symmetry_space_group_name_H-M   'P 1'
_cell_length_a   3.50073900
_cell_length_b   5.98740532
_cell_length_c   11.58787405
_cell_angle_alpha   90.02390143
_cell_angle_beta   90.00000000
_cell_angle_gamma   90.00000000
_symmetry_Int_Tables_number   1
_chemical_formula_structural   Dy3HoV3TcB16
_chemical_formula_sum   'Dy3 Ho1 V3 Tc1 B16'
_cell_volume   242.88579709
_cell_formula_units_Z   1
loop_
 _symmetry_equiv_pos_site_id
 _symmetry_equiv_pos_as_xyz
  1  'x, y, z'
loop_
 _atom_site_type_symbol
 _atom_site_label
 _atom_site_symmetry_multiplicity
 _atom_site_fract_x
 _atom_site_fract_y
 _atom_site_fract_z
 _atom_site_occupancy
  Dy  Dy0  1  0.500000  0.123707  0.650258  1
  Dy  Dy1  1  0.500000  0.875652  0.348874  1
  Dy  Dy2  1  0.500000  0.626339  0.848251  1
  Ho  Ho3  1  0.500000  0.374850  0.151098  1
  V  V4  1  0.500000  0.872323  0.081925  1
  V  V5  1  0.500000  0.627135  0.583845  1
  V  V6  1  0.500000  0.373069  0.417352  1
  Tc  Tc7  1  0.500000  0.127734  0.917343  1
  B  B8  1  0.000000  0.476400  0.692448  1
  B  B9  1  0.000000  0.523168  0.307324  1
  B  B10  1  0.000000  0.976941  0.807836  1
  B  B11  1  0.000000  0.023072  0.192224  1
  B  B12  1  0.000000  0.284615  0.815275  1
  B  B13  1  0.000000  0.714623  0.185078  1
  B  B14  1  0.000000  0.785688  0.685661  1
  B  B15  1  0.000000  0.214176  0.314225  1
  B  B16  1  0.000000  0.364661  0.968250  1
  B  B17  1  0.000000  0.634926  0.032410  1
  B  B18  1  0.000000  0.864171  0.532594  1
  B  B19  1  0.000000  0.135833  0.467296  1
  B  B20  1  0.000000  0.385759  0.547395  1
  B  B21  1  0.000000  0.614659  0.452555  1
  B  B22  1  0.000000  0.886320  0.952938  1
  B  B23  1  0.000000  0.114177  0.047546  1
