# generated using pymatgen
data_Yb2Pr3Sn2Bi
_symmetry_space_group_name_H-M   'P 1'
_cell_length_a   9.31670200
_cell_length_b   9.35085849
_cell_length_c   6.86150800
_cell_angle_alpha   90.00000000
_cell_angle_beta   90.00000000
_cell_angle_gamma   119.87925501
_symmetry_Int_Tables_number   1
_chemical_formula_structural   Yb2Pr3Sn2Bi
_chemical_formula_sum   'Yb4 Pr6 Sn4 Bi2'
_cell_volume   518.31170815
_cell_formula_units_Z   2
loop_
 _symmetry_equiv_pos_site_id
 _symmetry_equiv_pos_as_xyz
  1  'x, y, z'
loop_
 _atom_site_type_symbol
 _atom_site_label
 _atom_site_symmetry_multiplicity
 _atom_site_fract_x
 _atom_site_fract_y
 _atom_site_fract_z
 _atom_site_occupancy
  Yb  Yb0  1  0.329554  0.659110  0.000000  1
  Yb  Yb1  1  0.670446  0.340890  0.500000  1
  Yb  Yb2  1  0.670446  0.340890  0.000000  1
  Yb  Yb3  1  0.329554  0.659110  0.500000  1
  Pr  Pr4  1  0.238260  0.000000  0.250000  1
  Pr  Pr5  1  0.761740  0.000000  0.750000  1
  Pr  Pr6  1  0.006382  0.253093  0.250000  1
  Pr  Pr7  1  0.753290  0.746907  0.250000  1
  Pr  Pr8  1  0.246710  0.253093  0.750000  1
  Pr  Pr9  1  0.993618  0.746907  0.750000  1
  Sn  Sn10  1  0.002969  0.607248  0.250000  1
  Sn  Sn11  1  0.395720  0.392752  0.250000  1
  Sn  Sn12  1  0.604280  0.607248  0.750000  1
  Sn  Sn13  1  0.997031  0.392752  0.750000  1
  Bi  Bi14  1  0.606544  0.000000  0.250000  1
  Bi  Bi15  1  0.393456  0.000000  0.750000  1
