# generated using pymatgen
data_Zr6Ti5MnAl11Rh6
_symmetry_space_group_name_H-M   'P 1'
_cell_length_a   8.80679080
_cell_length_b   8.80679116
_cell_length_c   8.76929152
_cell_angle_alpha   59.85842790
_cell_angle_beta   59.85843370
_cell_angle_gamma   59.99999981
_symmetry_Int_Tables_number   1
_chemical_formula_structural   Zr6Ti5MnAl11Rh6
_chemical_formula_sum   'Zr6 Ti5 Mn1 Al11 Rh6'
_cell_volume   479.90166201
_cell_formula_units_Z   1
loop_
 _symmetry_equiv_pos_site_id
 _symmetry_equiv_pos_as_xyz
  1  'x, y, z'
loop_
 _atom_site_type_symbol
 _atom_site_label
 _atom_site_symmetry_multiplicity
 _atom_site_fract_x
 _atom_site_fract_y
 _atom_site_fract_z
 _atom_site_occupancy
  Zr  Zr0  1  0.694478  0.694478  0.308514  1
  Zr  Zr1  1  0.302529  0.694478  0.308514  1
  Zr  Zr2  1  0.694478  0.302529  0.308514  1
  Zr  Zr3  1  0.310734  0.310734  0.693382  1
  Zr  Zr4  1  0.685148  0.310734  0.693382  1
  Zr  Zr5  1  0.310734  0.685148  0.693382  1
  Ti  Ti6  1  0.884506  0.884506  0.346485  1
  Ti  Ti7  1  0.879800  0.353900  0.886501  1
  Ti  Ti8  1  0.353900  0.879800  0.886501  1
  Ti  Ti9  1  0.879800  0.879800  0.886501  1
  Ti  Ti10  1  0.117519  0.117519  0.647443  1
  Mn  Mn11  1  0.005396  0.005396  0.983812  1
  Al  Al12  1  0.117633  0.648845  0.115888  1
  Al  Al13  1  0.648845  0.117633  0.115888  1
  Al  Al14  1  0.117633  0.117633  0.115888  1
  Al  Al15  1  0.664751  0.664751  0.005744  1
  Al  Al16  1  0.666013  0.003362  0.664611  1
  Al  Al17  1  0.003362  0.666013  0.664611  1
  Al  Al18  1  0.666013  0.666013  0.664611  1
  Al  Al19  1  0.333381  0.333381  0.999857  1
  Al  Al20  1  0.334298  0.997444  0.333959  1
  Al  Al21  1  0.997444  0.334298  0.333959  1
  Al  Al22  1  0.334298  0.334298  0.333959  1
  Rh  Rh23  1  0.998899  0.998899  0.502346  1
  Rh  Rh24  1  0.499856  0.998899  0.502346  1
  Rh  Rh25  1  0.998899  0.499856  0.502346  1
  Rh  Rh26  1  0.500133  0.500133  0.000353  1
  Rh  Rh27  1  0.999381  0.500133  0.000353  1
  Rh  Rh28  1  0.500133  0.999381  0.000353  1
