# generated using pymatgen
data_Pr2In8PtAu3
_symmetry_space_group_name_H-M   'P 1'
_cell_length_a   4.72563100
_cell_length_b   7.45765106
_cell_length_c   18.75150030
_cell_angle_alpha   89.88012667
_cell_angle_beta   90.00000000
_cell_angle_gamma   90.00000000
_symmetry_Int_Tables_number   1
_chemical_formula_structural   Pr2In8PtAu3
_chemical_formula_sum   'Pr4 In16 Pt2 Au6'
_cell_volume   660.84093474
_cell_formula_units_Z   2
loop_
 _symmetry_equiv_pos_site_id
 _symmetry_equiv_pos_as_xyz
  1  'x, y, z'
loop_
 _atom_site_type_symbol
 _atom_site_label
 _atom_site_symmetry_multiplicity
 _atom_site_fract_x
 _atom_site_fract_y
 _atom_site_fract_z
 _atom_site_occupancy
  Pr  Pr0  1  0.750000  0.024107  0.141642  1
  Pr  Pr1  1  0.750000  0.478678  0.643168  1
  Pr  Pr2  1  0.250000  0.521096  0.360937  1
  Pr  Pr3  1  0.250000  0.980608  0.854485  1
  In  In4  1  0.250000  0.736136  0.188303  1
  In  In5  1  0.250000  0.762118  0.689563  1
  In  In6  1  0.750000  0.236058  0.312804  1
  In  In7  1  0.250000  0.505390  0.925557  1
  In  In8  1  0.250000  0.178573  0.683349  1
  In  In9  1  0.750000  0.667324  0.813743  1
  In  In10  1  0.750000  0.351822  0.468870  1
  In  In11  1  0.750000  0.270490  0.810417  1
  In  In12  1  0.750000  0.019972  0.570441  1
  In  In13  1  0.250000  0.856221  0.032042  1
  In  In14  1  0.750000  0.826237  0.316739  1
  In  In15  1  0.750000  0.490642  0.068233  1
  In  In16  1  0.250000  0.326163  0.185020  1
  In  In17  1  0.250000  0.634015  0.535453  1
  In  In18  1  0.750000  0.140308  0.964739  1
  In  In19  1  0.250000  0.996257  0.433562  1
  Pt  Pt20  1  0.250000  0.252023  0.539399  1
  Pt  Pt21  1  0.250000  0.464257  0.779637  1
  Au  Au22  1  0.750000  0.751577  0.959644  1
  Au  Au23  1  0.750000  0.965344  0.719901  1
  Au  Au24  1  0.250000  0.248960  0.037815  1
  Au  Au25  1  0.750000  0.747743  0.463326  1
  Au  Au26  1  0.250000  0.034043  0.282355  1
  Au  Au27  1  0.750000  0.533837  0.218857  1
