# generated using pymatgen
data_Nd3YHgAu4
_symmetry_space_group_name_H-M   'P 1'
_cell_length_a   8.20226054
_cell_length_b   8.20225971
_cell_length_c   8.20226000
_cell_angle_alpha   65.51440558
_cell_angle_beta   65.51441589
_cell_angle_gamma   65.51438102
_symmetry_Int_Tables_number   1
_chemical_formula_structural   Nd3YHgAu4
_chemical_formula_sum   'Nd6 Y2 Hg2 Au8'
_cell_volume   436.97063510
_cell_formula_units_Z   2
loop_
 _symmetry_equiv_pos_site_id
 _symmetry_equiv_pos_as_xyz
  1  'x, y, z'
loop_
 _atom_site_type_symbol
 _atom_site_label
 _atom_site_symmetry_multiplicity
 _atom_site_fract_x
 _atom_site_fract_y
 _atom_site_fract_z
 _atom_site_occupancy
  Nd  Nd0  1  0.893494  0.190273  0.610952  1
  Nd  Nd1  1  0.610952  0.893494  0.190273  1
  Nd  Nd2  1  0.190273  0.610952  0.893494  1
  Nd  Nd3  1  0.106506  0.809727  0.389048  1
  Nd  Nd4  1  0.389048  0.106506  0.809727  1
  Nd  Nd5  1  0.809727  0.389048  0.106506  1
  Y  Y6  1  0.662042  0.662042  0.662042  1
  Y  Y7  1  0.337958  0.337958  0.337958  1
  Hg  Hg8  1  0.000000  0.000000  0.000000  1
  Hg  Hg9  1  0.500000  0.500000  0.500000  1
  Au  Au10  1  0.809745  0.809745  0.809745  1
  Au  Au11  1  0.190255  0.190255  0.190255  1
  Au  Au12  1  0.937472  0.551330  0.315048  1
  Au  Au13  1  0.315048  0.937472  0.551330  1
  Au  Au14  1  0.551330  0.315048  0.937472  1
  Au  Au15  1  0.062528  0.448670  0.684952  1
  Au  Au16  1  0.684952  0.062528  0.448670  1
  Au  Au17  1  0.448670  0.684952  0.062528  1
