# generated using pymatgen
data_Tm2Th(InRh)3
_symmetry_space_group_name_H-M   'P 1'
_cell_length_a   7.55722202
_cell_length_b   7.78422063
_cell_length_c   3.85397300
_cell_angle_alpha   90.00000000
_cell_angle_beta   90.00000000
_cell_angle_gamma   120.99870286
_symmetry_Int_Tables_number   1
_chemical_formula_structural   Tm2Th(InRh)3
_chemical_formula_sum   'Tm2 Th1 In3 Rh3'
_cell_volume   194.33789265
_cell_formula_units_Z   1
loop_
 _symmetry_equiv_pos_site_id
 _symmetry_equiv_pos_as_xyz
  1  'x, y, z'
loop_
 _atom_site_type_symbol
 _atom_site_label
 _atom_site_symmetry_multiplicity
 _atom_site_fract_x
 _atom_site_fract_y
 _atom_site_fract_z
 _atom_site_occupancy
  Tm  Tm0  1  0.596055  0.595242  0.500000  1
  Tm  Tm1  1  0.403945  0.999187  0.500000  1
  Th  Th2  1  0.000000  0.418057  0.500000  1
  In  In3  1  0.270316  0.257910  0.000000  1
  In  In4  1  0.000000  0.756632  0.000000  1
  In  In5  1  0.729684  0.987595  0.000000  1
  Rh  Rh6  1  0.316855  0.649247  0.000000  1
  Rh  Rh7  1  0.000000  0.003739  0.500000  1
  Rh  Rh8  1  0.683145  0.332391  0.000000  1
