# generated using pymatgen
data_Dy3Cd3CuHgAu
_symmetry_space_group_name_H-M   'P 1'
_cell_length_a   7.88198700
_cell_length_b   7.88198677
_cell_length_c   3.82232200
_cell_angle_alpha   90.00000000
_cell_angle_beta   90.00000000
_cell_angle_gamma   119.99999676
_symmetry_Int_Tables_number   1
_chemical_formula_structural   Dy3Cd3CuHgAu
_chemical_formula_sum   'Dy3 Cd3 Cu1 Hg1 Au1'
_cell_volume   205.65029266
_cell_formula_units_Z   1
loop_
 _symmetry_equiv_pos_site_id
 _symmetry_equiv_pos_as_xyz
  1  'x, y, z'
loop_
 _atom_site_type_symbol
 _atom_site_label
 _atom_site_symmetry_multiplicity
 _atom_site_fract_x
 _atom_site_fract_y
 _atom_site_fract_z
 _atom_site_occupancy
  Dy  Dy0  1  0.602449  0.013087  0.000000  1
  Dy  Dy1  1  0.986913  0.589362  0.000000  1
  Dy  Dy2  1  0.410638  0.397551  0.000000  1
  Cd  Cd3  1  0.247988  0.999042  0.500000  1
  Cd  Cd4  1  0.000958  0.248945  0.500000  1
  Cd  Cd5  1  0.751055  0.752012  0.500000  1
  Cu  Cu6  1  0.000000  0.000000  0.000000  1
  Hg  Hg7  1  0.333333  0.666667  0.500000  1
  Au  Au8  1  0.666667  0.333333  0.500000  1
