# generated using pymatgen
data_Dy8Hf11Si16Os
_symmetry_space_group_name_H-M   'P 1'
_cell_length_a   7.24196602
_cell_length_b   7.24196581
_cell_length_c   13.24854803
_cell_angle_alpha   89.87471858
_cell_angle_beta   90.12528259
_cell_angle_gamma   90.02741404
_symmetry_Int_Tables_number   1
_chemical_formula_structural   Dy8Hf11Si16Os
_chemical_formula_sum   'Dy8 Hf11 Si16 Os1'
_cell_volume   694.83088117
_cell_formula_units_Z   1
loop_
 _symmetry_equiv_pos_site_id
 _symmetry_equiv_pos_as_xyz
  1  'x, y, z'
loop_
 _atom_site_type_symbol
 _atom_site_label
 _atom_site_symmetry_multiplicity
 _atom_site_fract_x
 _atom_site_fract_y
 _atom_site_fract_z
 _atom_site_occupancy
  Dy  Dy0  1  0.998760  0.343687  0.211752  1
  Dy  Dy1  1  0.005150  0.654696  0.717387  1
  Dy  Dy2  1  0.155823  0.494697  0.465201  1
  Dy  Dy3  1  0.501832  0.846624  0.032676  1
  Dy  Dy4  1  0.846624  0.501832  0.967324  1
  Dy  Dy5  1  0.494697  0.155823  0.534799  1
  Dy  Dy6  1  0.343687  0.998760  0.788248  1
  Dy  Dy7  1  0.654696  0.005150  0.282613  1
  Hf  Hf8  1  0.824813  0.824813  0.500000  1
  Hf  Hf9  1  0.324389  0.674879  0.247877  1
  Hf  Hf10  1  0.674879  0.324389  0.752123  1
  Hf  Hf11  1  0.146990  0.997899  0.371934  1
  Hf  Hf12  1  0.852815  0.004231  0.878496  1
  Hf  Hf13  1  0.502814  0.647228  0.625375  1
  Hf  Hf14  1  0.351504  0.496701  0.877216  1
  Hf  Hf15  1  0.496701  0.351504  0.122784  1
  Hf  Hf16  1  0.647228  0.502814  0.374625  1
  Hf  Hf17  1  0.997899  0.146990  0.628066  1
  Hf  Hf18  1  0.004231  0.852815  0.121504  1
  Si  Si19  1  0.360241  0.295250  0.315363  1
  Si  Si20  1  0.639148  0.705006  0.818380  1
  Si  Si21  1  0.205632  0.861478  0.567012  1
  Si  Si22  1  0.136759  0.794411  0.931127  1
  Si  Si23  1  0.794411  0.136759  0.068873  1
  Si  Si24  1  0.861478  0.205632  0.432988  1
  Si  Si25  1  0.295250  0.360241  0.684637  1
  Si  Si26  1  0.705006  0.639148  0.181620  1
  Si  Si27  1  0.292928  0.054239  0.180100  1
  Si  Si28  1  0.703808  0.950699  0.686118  1
  Si  Si29  1  0.449410  0.796461  0.434764  1
  Si  Si30  1  0.206209  0.547619  0.064401  1
  Si  Si31  1  0.547619  0.206209  0.935599  1
  Si  Si32  1  0.796461  0.449410  0.565236  1
  Si  Si33  1  0.054239  0.292928  0.819900  1
  Si  Si34  1  0.950699  0.703808  0.313882  1
  Os  Os35  1  0.175173  0.175173  0.000000  1
