# generated using pymatgen
data_Tm4Lu6Bi5Sb
_symmetry_space_group_name_H-M   'P 1'
_cell_length_a   8.09912778
_cell_length_b   9.34672400
_cell_length_c   11.80760414
_cell_angle_alpha   90.00000000
_cell_angle_beta   89.94966520
_cell_angle_gamma   90.00000000
_symmetry_Int_Tables_number   1
_chemical_formula_structural   Tm4Lu6Bi5Sb
_chemical_formula_sum   'Tm8 Lu12 Bi10 Sb2'
_cell_volume   893.83897253
_cell_formula_units_Z   2
loop_
 _symmetry_equiv_pos_site_id
 _symmetry_equiv_pos_as_xyz
  1  'x, y, z'
loop_
 _atom_site_type_symbol
 _atom_site_label
 _atom_site_symmetry_multiplicity
 _atom_site_fract_x
 _atom_site_fract_y
 _atom_site_fract_z
 _atom_site_occupancy
  Tm  Tm0  1  0.354670  0.250000  0.285867  1
  Tm  Tm1  1  0.645330  0.750000  0.714133  1
  Tm  Tm2  1  0.146484  0.750000  0.781293  1
  Tm  Tm3  1  0.853516  0.250000  0.218707  1
  Tm  Tm4  1  0.189103  0.250000  0.780289  1
  Tm  Tm5  1  0.810897  0.750000  0.219711  1
  Tm  Tm6  1  0.318315  0.750000  0.285703  1
  Tm  Tm7  1  0.681685  0.250000  0.714297  1
  Lu  Lu8  1  0.026795  0.250000  0.510905  1
  Lu  Lu9  1  0.973205  0.750000  0.489095  1
  Lu  Lu10  1  0.475232  0.750000  0.011601  1
  Lu  Lu11  1  0.524768  0.250000  0.988399  1
  Lu  Lu12  1  0.193043  0.067284  0.059943  1
  Lu  Lu13  1  0.806957  0.932716  0.940057  1
  Lu  Lu14  1  0.311428  0.934364  0.557413  1
  Lu  Lu15  1  0.806957  0.567284  0.940057  1
  Lu  Lu16  1  0.688572  0.065636  0.442587  1
  Lu  Lu17  1  0.193043  0.432716  0.059943  1
  Lu  Lu18  1  0.688572  0.434364  0.442587  1
  Lu  Lu19  1  0.311428  0.565636  0.557413  1
  Bi  Bi20  1  0.094765  0.750000  0.043563  1
  Bi  Bi21  1  0.905235  0.250000  0.956437  1
  Bi  Bi22  1  0.066574  0.002980  0.326203  1
  Bi  Bi23  1  0.933426  0.997020  0.673797  1
  Bi  Bi24  1  0.433458  0.995553  0.825979  1
  Bi  Bi25  1  0.933426  0.502980  0.673797  1
  Bi  Bi26  1  0.566542  0.004447  0.174021  1
  Bi  Bi27  1  0.066574  0.497020  0.326203  1
  Bi  Bi28  1  0.566542  0.495553  0.174021  1
  Bi  Bi29  1  0.433458  0.504447  0.825979  1
  Sb  Sb30  1  0.403215  0.250000  0.541550  1
  Sb  Sb31  1  0.596785  0.750000  0.458450  1
