# generated using pymatgen
data_Dy4LuSn3Sb
_symmetry_space_group_name_H-M   'P 1'
_cell_length_a   8.04764900
_cell_length_b   8.13782500
_cell_length_c   15.48336300
_cell_angle_alpha   90.00000000
_cell_angle_beta   90.00000000
_cell_angle_gamma   90.00000000
_symmetry_Int_Tables_number   1
_chemical_formula_structural   Dy4LuSn3Sb
_chemical_formula_sum   'Dy16 Lu4 Sn12 Sb4'
_cell_volume   1014.01100486
_cell_formula_units_Z   4
loop_
 _symmetry_equiv_pos_site_id
 _symmetry_equiv_pos_as_xyz
  1  'x, y, z'
loop_
 _atom_site_type_symbol
 _atom_site_label
 _atom_site_symmetry_multiplicity
 _atom_site_fract_x
 _atom_site_fract_y
 _atom_site_fract_z
 _atom_site_occupancy
  Dy  Dy0  1  0.376894  0.839367  0.878473  1
  Dy  Dy1  1  0.876894  0.660633  0.621527  1
  Dy  Dy2  1  0.623106  0.160633  0.378473  1
  Dy  Dy3  1  0.123106  0.339367  0.121527  1
  Dy  Dy4  1  0.620706  0.159417  0.121553  1
  Dy  Dy5  1  0.120706  0.340583  0.378447  1
  Dy  Dy6  1  0.379294  0.840583  0.621553  1
  Dy  Dy7  1  0.879294  0.659417  0.878447  1
  Dy  Dy8  1  0.533700  0.324219  0.898520  1
  Dy  Dy9  1  0.033700  0.175781  0.601480  1
  Dy  Dy10  1  0.466300  0.675781  0.398520  1
  Dy  Dy11  1  0.966300  0.824219  0.101480  1
  Dy  Dy12  1  0.457537  0.674507  0.103125  1
  Dy  Dy13  1  0.957537  0.825493  0.396875  1
  Dy  Dy14  1  0.542463  0.325493  0.603125  1
  Dy  Dy15  1  0.042463  0.174507  0.896875  1
  Lu  Lu16  1  0.208029  0.501898  0.752203  1
  Lu  Lu17  1  0.708029  0.998102  0.747797  1
  Lu  Lu18  1  0.791971  0.498102  0.252203  1
  Lu  Lu19  1  0.291971  0.001898  0.247797  1
  Sn  Sn20  1  0.281180  0.030693  0.044094  1
  Sn  Sn21  1  0.781180  0.469307  0.455906  1
  Sn  Sn22  1  0.718820  0.969307  0.544094  1
  Sn  Sn23  1  0.218820  0.530693  0.955906  1
  Sn  Sn24  1  0.573050  0.622881  0.750623  1
  Sn  Sn25  1  0.073050  0.877119  0.749377  1
  Sn  Sn26  1  0.426950  0.377119  0.250623  1
  Sn  Sn27  1  0.926950  0.122881  0.249377  1
  Sn  Sn28  1  0.344700  0.148924  0.749488  1
  Sn  Sn29  1  0.844700  0.351076  0.750512  1
  Sn  Sn30  1  0.655300  0.851076  0.249488  1
  Sn  Sn31  1  0.155300  0.648924  0.250512  1
  Sb  Sb32  1  0.722848  0.972976  0.954136  1
  Sb  Sb33  1  0.222848  0.527024  0.545864  1
  Sb  Sb34  1  0.277152  0.027024  0.454136  1
  Sb  Sb35  1  0.777152  0.472976  0.045864  1
