# generated using pymatgen
data_DyEr2Co8P6Ru
_symmetry_space_group_name_H-M   'P 1'
_cell_length_a   3.70326800
_cell_length_b   10.52945000
_cell_length_c   12.25422900
_cell_angle_alpha   90.00000000
_cell_angle_beta   90.00000000
_cell_angle_gamma   90.00000000
_symmetry_Int_Tables_number   1
_chemical_formula_structural   DyEr2Co8P6Ru
_chemical_formula_sum   'Dy2 Er4 Co16 P12 Ru2'
_cell_volume   477.83374971
_cell_formula_units_Z   2
loop_
 _symmetry_equiv_pos_site_id
 _symmetry_equiv_pos_as_xyz
  1  'x, y, z'
loop_
 _atom_site_type_symbol
 _atom_site_label
 _atom_site_symmetry_multiplicity
 _atom_site_fract_x
 _atom_site_fract_y
 _atom_site_fract_z
 _atom_site_occupancy
  Dy  Dy0  1  0.000000  0.500000  0.524340  1
  Dy  Dy1  1  0.500000  0.000000  0.475660  1
  Er  Er2  1  0.500000  0.817039  0.206763  1
  Er  Er3  1  0.500000  0.182961  0.206763  1
  Er  Er4  1  0.000000  0.682961  0.793237  1
  Er  Er5  1  0.000000  0.317039  0.793237  1
  Co  Co6  1  0.500000  0.500000  0.704520  1
  Co  Co7  1  0.000000  0.000000  0.295480  1
  Co  Co8  1  0.000000  0.500000  0.986025  1
  Co  Co9  1  0.500000  0.000000  0.013975  1
  Co  Co10  1  0.500000  0.332485  0.990425  1
  Co  Co11  1  0.500000  0.667515  0.990425  1
  Co  Co12  1  0.000000  0.167515  0.009575  1
  Co  Co13  1  0.000000  0.832485  0.009575  1
  Co  Co14  1  0.500000  0.297165  0.430856  1
  Co  Co15  1  0.500000  0.702835  0.430856  1
  Co  Co16  1  0.000000  0.202835  0.569144  1
  Co  Co17  1  0.000000  0.797165  0.569144  1
  Co  Co18  1  0.500000  0.878655  0.708199  1
  Co  Co19  1  0.500000  0.121345  0.708199  1
  Co  Co20  1  0.000000  0.621345  0.291801  1
  Co  Co21  1  0.000000  0.378655  0.291801  1
  P  P22  1  0.500000  0.500000  0.881530  1
  P  P23  1  0.000000  0.000000  0.118470  1
  P  P24  1  0.500000  0.500000  0.349885  1
  P  P25  1  0.000000  0.000000  0.650115  1
  P  P26  1  0.500000  0.311518  0.616715  1
  P  P27  1  0.500000  0.688482  0.616715  1
  P  P28  1  0.000000  0.188482  0.383285  1
  P  P29  1  0.000000  0.811518  0.383285  1
  P  P30  1  0.500000  0.846231  0.893190  1
  P  P31  1  0.500000  0.153769  0.893190  1
  P  P32  1  0.000000  0.653769  0.106810  1
  P  P33  1  0.000000  0.346231  0.106810  1
  Ru  Ru34  1  0.500000  0.500000  0.159183  1
  Ru  Ru35  1  0.000000  0.000000  0.840817  1
