# generated using pymatgen
data_Hf6Nb4Sn7Au
_symmetry_space_group_name_H-M   'P 1'
_cell_length_a   5.77880601
_cell_length_b   8.61400509
_cell_length_c   8.61347401
_cell_angle_alpha   120.00205144
_cell_angle_beta   89.99882686
_cell_angle_gamma   90.00235357
_symmetry_Int_Tables_number   1
_chemical_formula_structural   Hf6Nb4Sn7Au
_chemical_formula_sum   'Hf6 Nb4 Sn7 Au1'
_cell_volume   371.31563910
_cell_formula_units_Z   1
loop_
 _symmetry_equiv_pos_site_id
 _symmetry_equiv_pos_as_xyz
  1  'x, y, z'
loop_
 _atom_site_type_symbol
 _atom_site_label
 _atom_site_symmetry_multiplicity
 _atom_site_fract_x
 _atom_site_fract_y
 _atom_site_fract_z
 _atom_site_occupancy
  Hf  Hf0  1  0.742587  0.282264  0.000000  1
  Hf  Hf1  1  0.742565  0.717762  0.717756  1
  Hf  Hf2  1  0.742565  0.000008  0.282244  1
  Hf  Hf3  1  0.257410  0.717765  0.000000  1
  Hf  Hf4  1  0.257425  0.282207  0.282216  1
  Hf  Hf5  1  0.257425  0.999990  0.717784  1
  Nb  Nb6  1  0.499998  0.333326  0.666650  1
  Nb  Nb7  1  0.499998  0.666676  0.333350  1
  Nb  Nb8  1  0.000005  0.666671  0.333345  1
  Nb  Nb9  1  0.000005  0.333326  0.666655  1
  Sn  Sn10  1  0.754361  0.614719  0.000000  1
  Sn  Sn11  1  0.754386  0.385290  0.385294  1
  Sn  Sn12  1  0.754386  0.999996  0.614706  1
  Sn  Sn13  1  0.245637  0.385278  0.000000  1
  Sn  Sn14  1  0.245614  0.614716  0.614712  1
  Sn  Sn15  1  0.245614  0.000004  0.385288  1
  Sn  Sn16  1  0.000050  0.000000  0.000000  1
  Au  Au17  1  0.499970  0.000003  0.000000  1
