# generated using pymatgen
data_Ho8Cd2IrRh
_symmetry_space_group_name_H-M   'P 1'
_cell_length_a   9.58813419
_cell_length_b   9.58813466
_cell_length_c   9.58355600
_cell_angle_alpha   60.01580235
_cell_angle_beta   60.01580073
_cell_angle_gamma   60.04474262
_symmetry_Int_Tables_number   1
_chemical_formula_structural   Ho8Cd2IrRh
_chemical_formula_sum   'Ho16 Cd4 Ir2 Rh2'
_cell_volume   623.34762609
_cell_formula_units_Z   2
loop_
 _symmetry_equiv_pos_site_id
 _symmetry_equiv_pos_as_xyz
  1  'x, y, z'
loop_
 _atom_site_type_symbol
 _atom_site_label
 _atom_site_symmetry_multiplicity
 _atom_site_fract_x
 _atom_site_fract_y
 _atom_site_fract_z
 _atom_site_occupancy
  Ho  Ho0  1  0.599560  0.599560  0.598274  1
  Ho  Ho1  1  0.599560  0.599560  0.202608  1
  Ho  Ho2  1  0.600517  0.201349  0.599067  1
  Ho  Ho3  1  0.201349  0.600517  0.599067  1
  Ho  Ho4  1  0.059859  0.438977  0.439695  1
  Ho  Ho5  1  0.438977  0.059859  0.061469  1
  Ho  Ho6  1  0.438977  0.059859  0.439695  1
  Ho  Ho7  1  0.059859  0.438977  0.061469  1
  Ho  Ho8  1  0.439358  0.439358  0.060642  1
  Ho  Ho9  1  0.060557  0.060557  0.439443  1
  Ho  Ho10  1  0.187633  0.813313  0.812412  1
  Ho  Ho11  1  0.813313  0.187633  0.186641  1
  Ho  Ho12  1  0.813313  0.187633  0.812412  1
  Ho  Ho13  1  0.187633  0.813313  0.186641  1
  Ho  Ho14  1  0.812321  0.812321  0.187679  1
  Ho  Ho15  1  0.186676  0.186676  0.813324  1
  Cd  Cd16  1  0.830975  0.830975  0.831118  1
  Cd  Cd17  1  0.830975  0.830975  0.506931  1
  Cd  Cd18  1  0.831155  0.506024  0.831410  1
  Cd  Cd19  1  0.506024  0.831155  0.831410  1
  Ir  Ir20  1  0.392738  0.823816  0.391723  1
  Ir  Ir21  1  0.823816  0.392738  0.391723  1
  Rh  Rh22  1  0.392427  0.392427  0.391536  1
  Rh  Rh23  1  0.392427  0.392427  0.823611  1
