# generated using pymatgen
data_TbPa(CoGe)2
_symmetry_space_group_name_H-M   'P 1'
_cell_length_a   4.30608300
_cell_length_b   7.25699947
_cell_length_c   6.94367569
_cell_angle_alpha   93.16356992
_cell_angle_beta   90.00000000
_cell_angle_gamma   90.00000000
_symmetry_Int_Tables_number   1
_chemical_formula_structural   TbPa(CoGe)2
_chemical_formula_sum   'Tb2 Pa2 Co4 Ge4'
_cell_volume   216.65392994
_cell_formula_units_Z   2
loop_
 _symmetry_equiv_pos_site_id
 _symmetry_equiv_pos_as_xyz
  1  'x, y, z'
loop_
 _atom_site_type_symbol
 _atom_site_label
 _atom_site_symmetry_multiplicity
 _atom_site_fract_x
 _atom_site_fract_y
 _atom_site_fract_z
 _atom_site_occupancy
  Tb  Tb0  1  0.250000  0.980769  0.773141  1
  Tb  Tb1  1  0.750000  0.019231  0.226859  1
  Pa  Pa2  1  0.250000  0.489685  0.697593  1
  Pa  Pa3  1  0.750000  0.510315  0.302407  1
  Co  Co4  1  0.750000  0.375166  0.960340  1
  Co  Co5  1  0.250000  0.256419  0.449679  1
  Co  Co6  1  0.750000  0.743581  0.550321  1
  Co  Co7  1  0.250000  0.624834  0.039660  1
  Ge  Ge8  1  0.250000  0.798612  0.386794  1
  Ge  Ge9  1  0.750000  0.718809  0.904934  1
  Ge  Ge10  1  0.250000  0.281191  0.095066  1
  Ge  Ge11  1  0.750000  0.201388  0.613206  1
