# generated using pymatgen
data_GeTe12IrI6
_symmetry_space_group_name_H-M   'P 1'
_cell_length_a   9.94661685
_cell_length_b   9.94661650
_cell_length_c   9.94661627
_cell_angle_alpha   108.73310028
_cell_angle_beta   108.73310074
_cell_angle_gamma   108.73310318
_symmetry_Int_Tables_number   1
_chemical_formula_structural   GeTe12IrI6
_chemical_formula_sum   'Ge1 Te12 Ir1 I6'
_cell_volume   777.55071127
_cell_formula_units_Z   1
loop_
 _symmetry_equiv_pos_site_id
 _symmetry_equiv_pos_as_xyz
  1  'x, y, z'
loop_
 _atom_site_type_symbol
 _atom_site_label
 _atom_site_symmetry_multiplicity
 _atom_site_fract_x
 _atom_site_fract_y
 _atom_site_fract_z
 _atom_site_occupancy
  Ge  Ge0  1  0.250000  0.250000  0.250000  1
  Te  Te1  1  0.906595  0.149671  0.178228  1
  Te  Te2  1  0.178228  0.906595  0.149671  1
  Te  Te3  1  0.149671  0.178228  0.906595  1
  Te  Te4  1  0.684650  0.665693  0.441088  1
  Te  Te5  1  0.441088  0.684650  0.665693  1
  Te  Te6  1  0.665693  0.441088  0.684650  1
  Te  Te7  1  0.058912  0.834307  0.815350  1
  Te  Te8  1  0.815350  0.058912  0.834307  1
  Te  Te9  1  0.834307  0.815350  0.058912  1
  Te  Te10  1  0.321772  0.350329  0.593405  1
  Te  Te11  1  0.593405  0.321772  0.350329  1
  Te  Te12  1  0.350329  0.593405  0.321772  1
  Ir  Ir13  1  0.750000  0.750000  0.750000  1
  I  I14  1  0.994515  0.505485  0.250000  1
  I  I15  1  0.250000  0.994515  0.505485  1
  I  I16  1  0.505485  0.250000  0.994515  1
  I  I17  1  0.750000  0.012650  0.487350  1
  I  I18  1  0.487350  0.750000  0.012650  1
  I  I19  1  0.012650  0.487350  0.750000  1
