# generated using pymatgen
data_Dy13Ho6ErSn16
_symmetry_space_group_name_H-M   'P 1'
_cell_length_a   8.02836714
_cell_length_b   8.17147637
_cell_length_c   15.44963101
_cell_angle_alpha   90.00270630
_cell_angle_beta   89.99614441
_cell_angle_gamma   89.99327515
_symmetry_Int_Tables_number   1
_chemical_formula_structural   Dy13Ho6ErSn16
_chemical_formula_sum   'Dy13 Ho6 Er1 Sn16'
_cell_volume   1013.55159290
_cell_formula_units_Z   1
loop_
 _symmetry_equiv_pos_site_id
 _symmetry_equiv_pos_as_xyz
  1  'x, y, z'
loop_
 _atom_site_type_symbol
 _atom_site_label
 _atom_site_symmetry_multiplicity
 _atom_site_fract_x
 _atom_site_fract_y
 _atom_site_fract_z
 _atom_site_occupancy
  Dy  Dy0  1  0.132184  0.336262  0.121839  1
  Dy  Dy1  1  0.632170  0.163800  0.122023  1
  Dy  Dy2  1  0.132145  0.336227  0.378133  1
  Dy  Dy3  1  0.367775  0.836160  0.622060  1
  Dy  Dy4  1  0.868019  0.663661  0.877961  1
  Dy  Dy5  1  0.520985  0.320460  0.902268  1
  Dy  Dy6  1  0.021162  0.179756  0.597752  1
  Dy  Dy7  1  0.478947  0.679659  0.402337  1
  Dy  Dy8  1  0.978903  0.820374  0.097739  1
  Dy  Dy9  1  0.478932  0.679606  0.097617  1
  Dy  Dy10  1  0.978854  0.820402  0.402319  1
  Dy  Dy11  1  0.521065  0.320505  0.597701  1
  Dy  Dy12  1  0.021181  0.179665  0.902237  1
  Ho  Ho13  1  0.367689  0.836222  0.877922  1
  Ho  Ho14  1  0.867882  0.663615  0.622040  1
  Ho  Ho15  1  0.632219  0.163712  0.378007  1
  Ho  Ho16  1  0.698700  0.997261  0.749976  1
  Ho  Ho17  1  0.801167  0.497203  0.250062  1
  Ho  Ho18  1  0.301295  0.002716  0.250022  1
  Er  Er19  1  0.198911  0.502918  0.750007  1
  Sn  Sn20  1  0.292295  0.035062  0.041697  1
  Sn  Sn21  1  0.792132  0.464558  0.458247  1
  Sn  Sn22  1  0.707861  0.964615  0.541828  1
  Sn  Sn23  1  0.207919  0.535510  0.957768  1
  Sn  Sn24  1  0.707505  0.964624  0.958052  1
  Sn  Sn25  1  0.207495  0.535321  0.542223  1
  Sn  Sn26  1  0.292496  0.035313  0.458099  1
  Sn  Sn27  1  0.792216  0.464631  0.041859  1
  Sn  Sn28  1  0.564903  0.618759  0.749993  1
  Sn  Sn29  1  0.065465  0.880705  0.749999  1
  Sn  Sn30  1  0.434681  0.381037  0.250064  1
  Sn  Sn31  1  0.934539  0.118901  0.250073  1
  Sn  Sn32  1  0.329448  0.147914  0.750053  1
  Sn  Sn33  1  0.829856  0.352916  0.749952  1
  Sn  Sn34  1  0.670412  0.852615  0.250056  1
  Sn  Sn35  1  0.170596  0.647332  0.250015  1
