# generated using pymatgen
data_DyTm7(Sc3Pt4)4
_symmetry_space_group_name_H-M   'P 1'
_cell_length_a   7.28926902
_cell_length_b   7.35363002
_cell_length_c   13.83518400
_cell_angle_alpha   90.00093139
_cell_angle_beta   89.99804794
_cell_angle_gamma   90.00836572
_symmetry_Int_Tables_number   1
_chemical_formula_structural   DyTm7(Sc3Pt4)4
_chemical_formula_sum   'Dy1 Tm7 Sc12 Pt16'
_cell_volume   741.60165252
_cell_formula_units_Z   1
loop_
 _symmetry_equiv_pos_site_id
 _symmetry_equiv_pos_as_xyz
  1  'x, y, z'
loop_
 _atom_site_type_symbol
 _atom_site_label
 _atom_site_symmetry_multiplicity
 _atom_site_fract_x
 _atom_site_fract_y
 _atom_site_fract_z
 _atom_site_occupancy
  Dy  Dy0  1  0.007021  0.176266  0.094470  1
  Tm  Tm1  1  0.992643  0.823217  0.905136  1
  Tm  Tm2  1  0.492714  0.676479  0.905262  1
  Tm  Tm3  1  0.992584  0.823481  0.594701  1
  Tm  Tm4  1  0.507299  0.323631  0.094764  1
  Tm  Tm5  1  0.007432  0.176534  0.405287  1
  Tm  Tm6  1  0.507357  0.323519  0.405320  1
  Tm  Tm7  1  0.492652  0.676533  0.594697  1
  Sc  Sc8  1  0.164536  0.501526  0.749982  1
  Sc  Sc9  1  0.835332  0.498529  0.250111  1
  Sc  Sc10  1  0.335736  0.001490  0.250123  1
  Sc  Sc11  1  0.664540  0.998396  0.749971  1
  Sc  Sc12  1  0.332423  0.166601  0.623537  1
  Sc  Sc13  1  0.667532  0.833326  0.376539  1
  Sc  Sc14  1  0.167639  0.666516  0.376525  1
  Sc  Sc15  1  0.667239  0.833089  0.123584  1
  Sc  Sc16  1  0.832414  0.333411  0.623518  1
  Sc  Sc17  1  0.332591  0.166658  0.876371  1
  Sc  Sc18  1  0.832166  0.333575  0.876241  1
  Sc  Sc19  1  0.167703  0.666622  0.123544  1
  Pt  Pt20  1  0.029513  0.121634  0.750023  1
  Pt  Pt21  1  0.970344  0.877978  0.250265  1
  Pt  Pt22  1  0.470525  0.621750  0.250005  1
  Pt  Pt23  1  0.529508  0.378365  0.750002  1
  Pt  Pt24  1  0.295898  0.854043  0.750022  1
  Pt  Pt25  1  0.703680  0.145887  0.250276  1
  Pt  Pt26  1  0.204684  0.354491  0.250429  1
  Pt  Pt27  1  0.795843  0.645964  0.749997  1
  Pt  Pt28  1  0.175261  0.459861  0.542726  1
  Pt  Pt29  1  0.824686  0.540238  0.457270  1
  Pt  Pt30  1  0.324696  0.959828  0.457252  1
  Pt  Pt31  1  0.824496  0.540866  0.042577  1
  Pt  Pt32  1  0.675284  0.040156  0.542725  1
  Pt  Pt33  1  0.175484  0.460316  0.957089  1
  Pt  Pt34  1  0.675065  0.040003  0.957090  1
  Pt  Pt35  1  0.325480  0.959223  0.042571  1
