# generated using pymatgen
data_Ca9Yb4Er7Pb16
_symmetry_space_group_name_H-M   'P 1'
_cell_length_a   8.01631209
_cell_length_b   8.50652078
_cell_length_c   16.26282300
_cell_angle_alpha   89.98023801
_cell_angle_beta   89.99120155
_cell_angle_gamma   89.96862295
_symmetry_Int_Tables_number   1
_chemical_formula_structural   Ca9Yb4Er7Pb16
_chemical_formula_sum   'Ca9 Yb4 Er7 Pb16'
_cell_volume   1108.97670503
_cell_formula_units_Z   1
loop_
 _symmetry_equiv_pos_site_id
 _symmetry_equiv_pos_as_xyz
  1  'x, y, z'
loop_
 _atom_site_type_symbol
 _atom_site_label
 _atom_site_symmetry_multiplicity
 _atom_site_fract_x
 _atom_site_fract_y
 _atom_site_fract_z
 _atom_site_occupancy
  Ca  Ca0  1  0.498577  0.681317  0.593911  1
  Ca  Ca1  1  0.998546  0.819102  0.905606  1
  Ca  Ca2  1  0.499988  0.318757  0.091887  1
  Ca  Ca3  1  0.001127  0.181163  0.409169  1
  Ca  Ca4  1  0.500214  0.317482  0.408704  1
  Ca  Ca5  1  0.000757  0.181949  0.090727  1
  Ca  Ca6  1  0.497949  0.680817  0.906220  1
  Ca  Ca7  1  0.997533  0.819567  0.594659  1
  Ca  Ca8  1  0.670723  0.011318  0.249908  1
  Yb  Yb9  1  0.671337  0.161402  0.622445  1
  Yb  Yb10  1  0.831678  0.508039  0.749405  1
  Yb  Yb11  1  0.333581  0.992050  0.748811  1
  Yb  Yb12  1  0.170468  0.490410  0.250453  1
  Er  Er13  1  0.169664  0.338648  0.876878  1
  Er  Er14  1  0.330393  0.838272  0.121516  1
  Er  Er15  1  0.829015  0.661971  0.378172  1
  Er  Er16  1  0.331079  0.839157  0.378155  1
  Er  Er17  1  0.829103  0.662632  0.121327  1
  Er  Er18  1  0.670159  0.162560  0.876539  1
  Er  Er19  1  0.169850  0.338542  0.623981  1
  Pb  Pb20  1  0.673115  0.956487  0.459155  1
  Pb  Pb21  1  0.174239  0.540176  0.040783  1
  Pb  Pb22  1  0.323956  0.039356  0.957548  1
  Pb  Pb23  1  0.829690  0.460499  0.541616  1
  Pb  Pb24  1  0.321005  0.039327  0.541044  1
  Pb  Pb25  1  0.824777  0.460209  0.958225  1
  Pb  Pb26  1  0.674639  0.959113  0.039382  1
  Pb  Pb27  1  0.175292  0.541881  0.459783  1
  Pb  Pb28  1  0.470003  0.372300  0.749929  1
  Pb  Pb29  1  0.972533  0.128497  0.752389  1
  Pb  Pb30  1  0.528931  0.631616  0.249332  1
  Pb  Pb31  1  0.032497  0.861844  0.249935  1
  Pb  Pb32  1  0.707898  0.864735  0.752338  1
  Pb  Pb33  1  0.205780  0.634661  0.751127  1
  Pb  Pb34  1  0.287053  0.132601  0.249370  1
  Pb  Pb35  1  0.796848  0.371539  0.249572  1
