# generated using pymatgen
data_Tm2Tc3Ge4
_symmetry_space_group_name_H-M   'P 1'
_cell_length_a   8.31144800
_cell_length_b   5.64150463
_cell_length_c   6.97987268
_cell_angle_alpha   75.96855333
_cell_angle_beta   90.00000000
_cell_angle_gamma   90.00000000
_symmetry_Int_Tables_number   1
_chemical_formula_structural   Tm2Tc3Ge4
_chemical_formula_sum   'Tm4 Tc6 Ge8'
_cell_volume   317.51464421
_cell_formula_units_Z   2
loop_
 _symmetry_equiv_pos_site_id
 _symmetry_equiv_pos_as_xyz
  1  'x, y, z'
loop_
 _atom_site_type_symbol
 _atom_site_label
 _atom_site_symmetry_multiplicity
 _atom_site_fract_x
 _atom_site_fract_y
 _atom_site_fract_z
 _atom_site_occupancy
  Tm  Tm0  1  0.551248  0.077775  0.244409  1
  Tm  Tm1  1  0.051248  0.422225  0.755591  1
  Tm  Tm2  1  0.448752  0.922225  0.755591  1
  Tm  Tm3  1  0.948752  0.577775  0.244409  1
  Tc  Tc4  1  0.204803  0.115791  0.112148  1
  Tc  Tc5  1  0.704803  0.384209  0.887852  1
  Tc  Tc6  1  0.795197  0.884209  0.887852  1
  Tc  Tc7  1  0.295197  0.615791  0.112148  1
  Tc  Tc8  1  0.000000  0.000000  0.500000  1
  Tc  Tc9  1  0.500000  0.500000  0.500000  1
  Ge  Ge10  1  0.900165  0.119842  0.130210  1
  Ge  Ge11  1  0.400165  0.380158  0.869790  1
  Ge  Ge12  1  0.099835  0.880158  0.869790  1
  Ge  Ge13  1  0.599835  0.619842  0.130210  1
  Ge  Ge14  1  0.748810  0.224113  0.576932  1
  Ge  Ge15  1  0.248810  0.275887  0.423068  1
  Ge  Ge16  1  0.251190  0.775887  0.423068  1
  Ge  Ge17  1  0.751190  0.724113  0.576932  1
