# generated using pymatgen
data_Dy8Hg3BiAu8
_symmetry_space_group_name_H-M   'P 1'
_cell_length_a   8.05981000
_cell_length_b   8.05981000
_cell_length_c   7.34868300
_cell_angle_alpha   90.00000000
_cell_angle_beta   90.00000000
_cell_angle_gamma   90.00000000
_symmetry_Int_Tables_number   1
_chemical_formula_structural   Dy8Hg3BiAu8
_chemical_formula_sum   'Dy8 Hg3 Bi1 Au8'
_cell_volume   477.37439566
_cell_formula_units_Z   1
loop_
 _symmetry_equiv_pos_site_id
 _symmetry_equiv_pos_as_xyz
  1  'x, y, z'
loop_
 _atom_site_type_symbol
 _atom_site_label
 _atom_site_symmetry_multiplicity
 _atom_site_fract_x
 _atom_site_fract_y
 _atom_site_fract_z
 _atom_site_occupancy
  Dy  Dy0  1  0.839308  0.157520  0.502569  1
  Dy  Dy1  1  0.160692  0.842480  0.502569  1
  Dy  Dy2  1  0.342480  0.339308  0.997431  1
  Dy  Dy3  1  0.657520  0.660692  0.997431  1
  Dy  Dy4  1  0.681065  0.686041  0.501829  1
  Dy  Dy5  1  0.318935  0.313959  0.501829  1
  Dy  Dy6  1  0.186041  0.818935  0.998171  1
  Dy  Dy7  1  0.813959  0.181065  0.998171  1
  Hg  Hg8  1  0.500000  0.000000  0.250000  1
  Hg  Hg9  1  0.000000  0.500000  0.750000  1
  Hg  Hg10  1  0.500000  0.000000  0.750000  1
  Bi  Bi11  1  0.000000  0.500000  0.250000  1
  Au  Au12  1  0.621602  0.369897  0.275597  1
  Au  Au13  1  0.378398  0.630103  0.275597  1
  Au  Au14  1  0.127162  0.126454  0.774005  1
  Au  Au15  1  0.872838  0.873546  0.774005  1
  Au  Au16  1  0.373546  0.627162  0.725995  1
  Au  Au17  1  0.626454  0.372838  0.725995  1
  Au  Au18  1  0.869897  0.878398  0.224403  1
  Au  Au19  1  0.130103  0.121602  0.224403  1
