# generated using pymatgen
data_Pr2B4Ir4Ru
_symmetry_space_group_name_H-M   'P 1'
_cell_length_a   7.60607681
_cell_length_b   6.38457593
_cell_length_c   5.68634890
_cell_angle_alpha   77.88015217
_cell_angle_beta   55.15440078
_cell_angle_gamma   47.41418123
_symmetry_Int_Tables_number   1
_chemical_formula_structural   Pr2B4Ir4Ru
_chemical_formula_sum   'Pr2 B4 Ir4 Ru1'
_cell_volume   159.56367005
_cell_formula_units_Z   1
loop_
 _symmetry_equiv_pos_site_id
 _symmetry_equiv_pos_as_xyz
  1  'x, y, z'
loop_
 _atom_site_type_symbol
 _atom_site_label
 _atom_site_symmetry_multiplicity
 _atom_site_fract_x
 _atom_site_fract_y
 _atom_site_fract_z
 _atom_site_occupancy
  Pr  Pr0  1  0.859630  0.859630  0.140369  1
  Pr  Pr1  1  0.140370  0.140370  0.859630  1
  B  B2  1  0.462441  0.795166  0.212458  1
  B  B3  1  0.204834  0.537559  0.470065  1
  B  B4  1  0.795165  0.462441  0.529935  1
  B  B5  1  0.537559  0.204835  0.787541  1
  Ir  Ir6  1  0.500001  0.500000  0.000000  1
  Ir  Ir7  1  0.250509  0.250508  0.249492  1
  Ir  Ir8  1  0.500000  0.500001  0.499999  1
  Ir  Ir9  1  0.749492  0.749492  0.750508  1
  Ru  Ru10  1  0.000000  0.000000  0.500000  1
