# generated using pymatgen
data_Mg5Si16(Pd4Rh)2
_symmetry_space_group_name_H-M   'P 1'
_cell_length_a   8.91467697
_cell_length_b   8.92680417
_cell_length_c   8.92536543
_cell_angle_alpha   59.91392242
_cell_angle_beta   60.03960543
_cell_angle_gamma   60.04492751
_symmetry_Int_Tables_number   1
_chemical_formula_structural   Mg5Si16(Pd4Rh)2
_chemical_formula_sum   'Mg5 Si16 Pd8 Rh2'
_cell_volume   502.23399260
_cell_formula_units_Z   1
loop_
 _symmetry_equiv_pos_site_id
 _symmetry_equiv_pos_as_xyz
  1  'x, y, z'
loop_
 _atom_site_type_symbol
 _atom_site_label
 _atom_site_symmetry_multiplicity
 _atom_site_fract_x
 _atom_site_fract_y
 _atom_site_fract_z
 _atom_site_occupancy
  Mg  Mg0  1  0.199247  0.602362  0.598857  1
  Mg  Mg1  1  0.599618  0.599711  0.201053  1
  Mg  Mg2  1  0.599535  0.602362  0.598857  1
  Mg  Mg3  1  0.601768  0.197649  0.598816  1
  Mg  Mg4  1  0.250009  0.246395  0.253587  1
  Si  Si5  1  0.204277  0.664085  0.204350  1
  Si  Si6  1  0.927288  0.664085  0.204350  1
  Si  Si7  1  0.209178  0.199008  0.662819  1
  Si  Si8  1  0.661165  0.201361  0.211321  1
  Si  Si9  1  0.928995  0.199008  0.662819  1
  Si  Si10  1  0.204901  0.663436  0.926762  1
  Si  Si11  1  0.926153  0.201361  0.211321  1
  Si  Si12  1  0.662007  0.926659  0.210610  1
  Si  Si13  1  0.200724  0.926659  0.210610  1
  Si  Si14  1  0.207570  0.925818  0.659042  1
  Si  Si15  1  0.532606  0.826648  0.815803  1
  Si  Si16  1  0.824942  0.826648  0.815803  1
  Si  Si17  1  0.664746  0.202816  0.929634  1
  Si  Si18  1  0.820630  0.830320  0.528420  1
  Si  Si19  1  0.821474  0.537450  0.819601  1
  Si  Si20  1  0.202803  0.202816  0.929634  1
  Pd  Pd21  1  0.986519  0.513093  0.986891  1
  Pd  Pd22  1  0.379017  0.378073  0.863892  1
  Pd  Pd23  1  0.377538  0.381351  0.378628  1
  Pd  Pd24  1  0.862482  0.381351  0.378628  1
  Pd  Pd25  1  0.986871  0.512754  0.513504  1
  Pd  Pd26  1  0.513496  0.513093  0.986891  1
  Pd  Pd27  1  0.381153  0.860789  0.376905  1
  Pd  Pd28  1  0.513288  0.986456  0.986969  1
  Rh  Rh29  1  0.988662  0.988190  0.511811  1
  Rh  Rh30  1  0.511336  0.988190  0.511811  1
