# generated using pymatgen
data_Ce2Sm5Dy9(CdRu)4
_symmetry_space_group_name_H-M   'P 1'
_cell_length_a   9.79026571
_cell_length_b   9.67287065
_cell_length_c   9.67286963
_cell_angle_alpha   59.56108183
_cell_angle_beta   59.59770435
_cell_angle_gamma   59.59770197
_symmetry_Int_Tables_number   1
_chemical_formula_structural   Ce2Sm5Dy9(CdRu)4
_chemical_formula_sum   'Ce2 Sm5 Dy9 Cd4 Ru4'
_cell_volume   641.62125438
_cell_formula_units_Z   1
loop_
 _symmetry_equiv_pos_site_id
 _symmetry_equiv_pos_as_xyz
  1  'x, y, z'
loop_
 _atom_site_type_symbol
 _atom_site_label
 _atom_site_symmetry_multiplicity
 _atom_site_fract_x
 _atom_site_fract_y
 _atom_site_fract_z
 _atom_site_occupancy
  Ce  Ce0  1  0.972436  0.340679  0.340679  1
  Ce  Ce1  1  0.346207  0.340679  0.340679  1
  Sm  Sm2  1  0.562494  0.560007  0.938637  1
  Sm  Sm3  1  0.938863  0.560007  0.938637  1
  Sm  Sm4  1  0.560368  0.939632  0.939632  1
  Sm  Sm5  1  0.938863  0.938637  0.560007  1
  Sm  Sm6  1  0.562494  0.938637  0.560007  1
  Dy  Dy7  1  0.940888  0.559112  0.559112  1
  Dy  Dy8  1  0.187919  0.188790  0.812493  1
  Dy  Dy9  1  0.810798  0.188790  0.812493  1
  Dy  Dy10  1  0.187502  0.812498  0.812497  1
  Dy  Dy11  1  0.810798  0.812494  0.188790  1
  Dy  Dy12  1  0.187918  0.812493  0.188789  1
  Dy  Dy13  1  0.811628  0.188372  0.188372  1
  Dy  Dy14  1  0.348490  0.348781  0.954239  1
  Dy  Dy15  1  0.348490  0.954239  0.348781  1
  Cd  Cd16  1  0.580938  0.578699  0.259426  1
  Cd  Cd17  1  0.580938  0.259426  0.578699  1
  Cd  Cd18  1  0.259990  0.579175  0.579175  1
  Cd  Cd19  1  0.581659  0.579175  0.579175  1
  Ru  Ru20  1  0.137486  0.153123  0.571904  1
  Ru  Ru21  1  0.137486  0.571904  0.153123  1
  Ru  Ru22  1  0.573930  0.147327  0.147327  1
  Ru  Ru23  1  0.131415  0.147327  0.147327  1
