# generated using pymatgen
data_K2GdOsO6
_symmetry_space_group_name_H-M   'P 1'
_cell_length_a   5.93333646
_cell_length_b   5.93254132
_cell_length_c   5.93686336
_cell_angle_alpha   120.00410360
_cell_angle_beta   90.03980197
_cell_angle_gamma   119.99846558
_symmetry_Int_Tables_number   1
_chemical_formula_structural   K2GdOsO6
_chemical_formula_sum   'K2 Gd1 Os1 O6'
_cell_volume   147.71132867
_cell_formula_units_Z   1
loop_
 _symmetry_equiv_pos_site_id
 _symmetry_equiv_pos_as_xyz
  1  'x, y, z'
loop_
 _atom_site_type_symbol
 _atom_site_label
 _atom_site_symmetry_multiplicity
 _atom_site_fract_x
 _atom_site_fract_y
 _atom_site_fract_z
 _atom_site_occupancy
  K  K0  1  0.749973  0.499951  0.249963  1
  K  K1  1  0.250020  0.500021  0.750020  1
  Gd  Gd2  1  0.000017  0.000024  0.000036  1
  Os  Os3  1  0.500005  0.999996  0.500001  1
  O  O4  1  0.272669  0.545461  0.272711  1
  O  O5  1  0.727024  0.000017  0.273001  1
  O  O6  1  0.272684  0.000002  0.272586  1
  O  O7  1  0.727375  0.999998  0.727356  1
  O  O8  1  0.727181  0.454509  0.727267  1
  O  O9  1  0.273047  0.000016  0.727056  1
