# generated using pymatgen
data_Er4Zn2(OsRu)3
_symmetry_space_group_name_H-M   'P 1'
_cell_length_a   5.31745023
_cell_length_b   5.31745140
_cell_length_c   8.84710800
_cell_angle_alpha   90.00000000
_cell_angle_beta   90.00000000
_cell_angle_gamma   120.79713587
_symmetry_Int_Tables_number   1
_chemical_formula_structural   Er4Zn2(OsRu)3
_chemical_formula_sum   'Er4 Zn2 Os3 Ru3'
_cell_volume   214.87907264
_cell_formula_units_Z   1
loop_
 _symmetry_equiv_pos_site_id
 _symmetry_equiv_pos_as_xyz
  1  'x, y, z'
loop_
 _atom_site_type_symbol
 _atom_site_label
 _atom_site_symmetry_multiplicity
 _atom_site_fract_x
 _atom_site_fract_y
 _atom_site_fract_z
 _atom_site_occupancy
  Er  Er0  1  0.329362  0.670638  0.442918  1
  Er  Er1  1  0.663590  0.336410  0.569070  1
  Er  Er2  1  0.663590  0.336410  0.930930  1
  Er  Er3  1  0.329362  0.670638  0.057082  1
  Zn  Zn4  1  0.345129  0.161185  0.250000  1
  Zn  Zn5  1  0.838815  0.654871  0.250000  1
  Os  Os6  1  0.165614  0.334378  0.750000  1
  Os  Os7  1  0.175882  0.824118  0.750000  1
  Os  Os8  1  0.665622  0.834386  0.750000  1
  Ru  Ru9  1  0.991563  0.008437  0.002173  1
  Ru  Ru10  1  0.839906  0.160094  0.250000  1
  Ru  Ru11  1  0.991563  0.008437  0.497827  1
