# generated using pymatgen
data_DyHoTh2(Al3Re)2
_symmetry_space_group_name_H-M   'P 1'
_cell_length_a   5.53051400
_cell_length_b   5.53051396
_cell_length_c   9.07926900
_cell_angle_alpha   90.00000000
_cell_angle_beta   90.00000000
_cell_angle_gamma   120.00001218
_symmetry_Int_Tables_number   1
_chemical_formula_structural   DyHoTh2(Al3Re)2
_chemical_formula_sum   'Dy1 Ho1 Th2 Al6 Re2'
_cell_volume   240.49854380
_cell_formula_units_Z   1
loop_
 _symmetry_equiv_pos_site_id
 _symmetry_equiv_pos_as_xyz
  1  'x, y, z'
loop_
 _atom_site_type_symbol
 _atom_site_label
 _atom_site_symmetry_multiplicity
 _atom_site_fract_x
 _atom_site_fract_y
 _atom_site_fract_z
 _atom_site_occupancy
  Dy  Dy0  1  0.666667  0.333333  0.556545  1
  Ho  Ho1  1  0.333333  0.666667  0.443089  1
  Th  Th2  1  0.666667  0.333333  0.956213  1
  Th  Th3  1  0.333333  0.666667  0.043816  1
  Al  Al4  1  0.837614  0.162386  0.256735  1
  Al  Al5  1  0.837614  0.675228  0.256735  1
  Al  Al6  1  0.324772  0.162386  0.256735  1
  Al  Al7  1  0.162334  0.837666  0.743304  1
  Al  Al8  1  0.162334  0.324668  0.743304  1
  Al  Al9  1  0.675332  0.837666  0.743304  1
  Re  Re10  1  0.000000  0.000000  0.500159  1
  Re  Re11  1  0.000000  0.000000  0.000062  1
