# generated using pymatgen
data_Ni3B(OF)3
_symmetry_space_group_name_H-M   'P 1'
_cell_length_a   8.87425510
_cell_length_b   8.87478012
_cell_length_c   3.13449600
_cell_angle_alpha   90.00000000
_cell_angle_beta   90.00000000
_cell_angle_gamma   120.01211878
_symmetry_Int_Tables_number   1
_chemical_formula_structural   Ni3B(OF)3
_chemical_formula_sum   'Ni6 B2 O6 F6'
_cell_volume   213.76412171
_cell_formula_units_Z   2
loop_
 _symmetry_equiv_pos_site_id
 _symmetry_equiv_pos_as_xyz
  1  'x, y, z'
loop_
 _atom_site_type_symbol
 _atom_site_label
 _atom_site_symmetry_multiplicity
 _atom_site_fract_x
 _atom_site_fract_y
 _atom_site_fract_z
 _atom_site_occupancy
  Ni  Ni0  1  0.370875  0.030567  0.249999  1
  Ni  Ni1  1  0.969521  0.340334  0.249999  1
  Ni  Ni2  1  0.659636  0.629085  0.249999  1
  Ni  Ni3  1  0.340365  0.370916  0.749999  1
  Ni  Ni4  1  0.030479  0.659666  0.749999  1
  Ni  Ni5  1  0.629126  0.969433  0.749999  1
  B  B6  1  0.333325  0.666670  0.249999  1
  B  B7  1  0.666676  0.333331  0.749999  1
  O  O8  1  0.397541  0.551907  0.249999  1
  O  O9  1  0.154355  0.602448  0.249999  1
  O  O10  1  0.448103  0.845647  0.249999  1
  O  O11  1  0.551897  0.154354  0.749999  1
  O  O12  1  0.845645  0.397553  0.749999  1
  O  O13  1  0.602460  0.448094  0.749999  1
  F  F14  1  0.791440  0.088154  0.249999  1
  F  F15  1  0.296719  0.208569  0.249999  1
  F  F16  1  0.911845  0.703286  0.249999  1
  F  F17  1  0.088156  0.296715  0.749999  1
  F  F18  1  0.703281  0.791432  0.749999  1
  F  F19  1  0.208560  0.911846  0.749999  1
