# generated using pymatgen
data_Pr16Dy3LuSn16
_symmetry_space_group_name_H-M   'P 1'
_cell_length_a   8.27751101
_cell_length_b   8.43762501
_cell_length_c   16.01736400
_cell_angle_alpha   90.00000000
_cell_angle_beta   90.00000000
_cell_angle_gamma   89.99518735
_symmetry_Int_Tables_number   1
_chemical_formula_structural   Pr16Dy3LuSn16
_chemical_formula_sum   'Pr16 Dy3 Lu1 Sn16'
_cell_volume   1118.69328380
_cell_formula_units_Z   1
loop_
 _symmetry_equiv_pos_site_id
 _symmetry_equiv_pos_as_xyz
  1  'x, y, z'
loop_
 _atom_site_type_symbol
 _atom_site_label
 _atom_site_symmetry_multiplicity
 _atom_site_fract_x
 _atom_site_fract_y
 _atom_site_fract_z
 _atom_site_occupancy
  Pr  Pr0  1  0.366956  0.837974  0.879467  1
  Pr  Pr1  1  0.866862  0.662022  0.620769  1
  Pr  Pr2  1  0.632478  0.161551  0.379284  1
  Pr  Pr3  1  0.133441  0.337668  0.120835  1
  Pr  Pr4  1  0.632478  0.161551  0.120716  1
  Pr  Pr5  1  0.133441  0.337668  0.379165  1
  Pr  Pr6  1  0.366956  0.837974  0.620533  1
  Pr  Pr7  1  0.866862  0.662022  0.879231  1
  Pr  Pr8  1  0.518841  0.318638  0.901265  1
  Pr  Pr9  1  0.018774  0.181433  0.598689  1
  Pr  Pr10  1  0.481009  0.681674  0.401314  1
  Pr  Pr11  1  0.981499  0.818829  0.098776  1
  Pr  Pr12  1  0.481009  0.681674  0.098686  1
  Pr  Pr13  1  0.981499  0.818829  0.401224  1
  Pr  Pr14  1  0.518841  0.318638  0.598735  1
  Pr  Pr15  1  0.018774  0.181433  0.901311  1
  Dy  Dy16  1  0.198205  0.501970  0.750000  1
  Dy  Dy17  1  0.698193  0.998160  0.750000  1
  Dy  Dy18  1  0.801736  0.498188  0.250000  1
  Lu  Lu19  1  0.300686  0.001924  0.250000  1
  Sn  Sn20  1  0.292011  0.033664  0.045242  1
  Sn  Sn21  1  0.792038  0.466124  0.455300  1
  Sn  Sn22  1  0.707999  0.965955  0.544541  1
  Sn  Sn23  1  0.207955  0.533901  0.955491  1
  Sn  Sn24  1  0.707999  0.965955  0.955459  1
  Sn  Sn25  1  0.207955  0.533901  0.544509  1
  Sn  Sn26  1  0.292011  0.033664  0.454758  1
  Sn  Sn27  1  0.792038  0.466124  0.044700  1
  Sn  Sn28  1  0.563771  0.616291  0.750000  1
  Sn  Sn29  1  0.063847  0.883577  0.750000  1
  Sn  Sn30  1  0.435980  0.383346  0.250000  1
  Sn  Sn31  1  0.937648  0.116252  0.250000  1
  Sn  Sn32  1  0.323446  0.146513  0.750000  1
  Sn  Sn33  1  0.823840  0.353231  0.750000  1
  Sn  Sn34  1  0.676501  0.853633  0.250000  1
  Sn  Sn35  1  0.176419  0.648048  0.250000  1
