# generated using pymatgen
data_Sr4LuSc(PtO6)2
_symmetry_space_group_name_H-M   'P 1'
_cell_length_a   5.74328453
_cell_length_b   5.76292980
_cell_length_c   9.99575455
_cell_angle_alpha   54.62795911
_cell_angle_beta   90.08351452
_cell_angle_gamma   89.98443769
_symmetry_Int_Tables_number   1
_chemical_formula_structural   Sr4LuSc(PtO6)2
_chemical_formula_sum   'Sr4 Lu1 Sc1 Pt2 O12'
_cell_volume   269.77059560
_cell_formula_units_Z   1
loop_
 _symmetry_equiv_pos_site_id
 _symmetry_equiv_pos_as_xyz
  1  'x, y, z'
loop_
 _atom_site_type_symbol
 _atom_site_label
 _atom_site_symmetry_multiplicity
 _atom_site_fract_x
 _atom_site_fract_y
 _atom_site_fract_z
 _atom_site_occupancy
  Sr  Sr0  1  0.478577  0.748483  0.255884  1
  Sr  Sr1  1  0.521423  0.251517  0.744116  1
  Sr  Sr2  1  0.976920  0.242727  0.253012  1
  Sr  Sr3  1  0.023080  0.757273  0.746988  1
  Lu  Lu4  1  0.000000  0.000000  0.000000  1
  Sc  Sc5  1  0.500000  0.000000  0.500000  1
  Pt  Pt6  1  0.000000  0.500000  0.500000  1
  Pt  Pt7  1  0.500000  0.500000  0.000000  1
  O  O8  1  0.709548  0.193929  0.034370  1
  O  O9  1  0.290452  0.806071  0.965630  1
  O  O10  1  0.222456  0.797910  0.468972  1
  O  O11  1  0.777544  0.202090  0.531028  1
  O  O12  1  0.009986  0.677700  0.259868  1
  O  O13  1  0.990014  0.322300  0.740132  1
  O  O14  1  0.509795  0.317353  0.244378  1
  O  O15  1  0.490205  0.682647  0.755622  1
  O  O16  1  0.226263  0.259544  0.033196  1
  O  O17  1  0.773737  0.740456  0.966804  1
  O  O18  1  0.731784  0.752023  0.468821  1
  O  O19  1  0.268216  0.247977  0.531179  1
