# generated using pymatgen
data_Ho2ErMg3Si2Ag
_symmetry_space_group_name_H-M   'P 1'
_cell_length_a   7.21986113
_cell_length_b   7.22686726
_cell_length_c   4.30136400
_cell_angle_alpha   90.00000000
_cell_angle_beta   90.00000000
_cell_angle_gamma   120.03210271
_symmetry_Int_Tables_number   1
_chemical_formula_structural   Ho2ErMg3Si2Ag
_chemical_formula_sum   'Ho2 Er1 Mg3 Si2 Ag1'
_cell_volume   194.30106001
_cell_formula_units_Z   1
loop_
 _symmetry_equiv_pos_site_id
 _symmetry_equiv_pos_as_xyz
  1  'x, y, z'
loop_
 _atom_site_type_symbol
 _atom_site_label
 _atom_site_symmetry_multiplicity
 _atom_site_fract_x
 _atom_site_fract_y
 _atom_site_fract_z
 _atom_site_occupancy
  Ho  Ho0  1  0.422142  0.422318  0.500000  1
  Ho  Ho1  1  0.577858  0.000175  0.500000  1
  Er  Er2  1  0.000000  0.577879  0.500000  1
  Mg  Mg3  1  0.751273  0.751109  0.000000  1
  Mg  Mg4  1  0.248727  0.999836  0.000000  1
  Mg  Mg5  1  0.000000  0.249057  0.000000  1
  Si  Si6  1  0.667017  0.333547  0.000000  1
  Si  Si7  1  0.332983  0.666532  0.000000  1
  Ag  Ag8  1  0.000000  0.999547  0.500000  1
