# generated using pymatgen
data_LaMnSb12Os2Ru
_symmetry_space_group_name_H-M   'P 1'
_cell_length_a   8.16720110
_cell_length_b   8.16807172
_cell_length_c   8.15898606
_cell_angle_alpha   109.47129637
_cell_angle_beta   109.47474073
_cell_angle_gamma   109.49090016
_symmetry_Int_Tables_number   1
_chemical_formula_structural   LaMnSb12Os2Ru
_chemical_formula_sum   'La1 Mn1 Sb12 Os2 Ru1'
_cell_volume   418.87290467
_cell_formula_units_Z   1
loop_
 _symmetry_equiv_pos_site_id
 _symmetry_equiv_pos_as_xyz
  1  'x, y, z'
loop_
 _atom_site_type_symbol
 _atom_site_label
 _atom_site_symmetry_multiplicity
 _atom_site_fract_x
 _atom_site_fract_y
 _atom_site_fract_z
 _atom_site_occupancy
  La  La0  1  0.000000  0.000000  0.000000  1
  Mn  Mn1  1  0.500000  0.000000  0.000000  1
  Sb  Sb2  1  0.157320  0.818282  0.661080  1
  Sb  Sb3  1  0.842680  0.181718  0.338920  1
  Sb  Sb4  1  0.842997  0.503361  0.661791  1
  Sb  Sb5  1  0.157003  0.496639  0.338209  1
  Sb  Sb6  1  0.818788  0.660487  0.156847  1
  Sb  Sb7  1  0.181212  0.339513  0.843153  1
  Sb  Sb8  1  0.503842  0.661157  0.842945  1
  Sb  Sb9  1  0.496158  0.338843  0.157055  1
  Sb  Sb10  1  0.661951  0.158078  0.818857  1
  Sb  Sb11  1  0.338049  0.841922  0.181143  1
  Sb  Sb12  1  0.660768  0.842659  0.503546  1
  Sb  Sb13  1  0.339232  0.157341  0.496454  1
  Os  Os14  1  0.000000  0.000000  0.500000  1
  Os  Os15  1  0.500000  0.500000  0.500000  1
  Ru  Ru16  1  0.000000  0.500000  0.000000  1
