# generated using pymatgen
data_TbTiReB6
_symmetry_space_group_name_H-M   'P 1'
_cell_length_a   3.54073800
_cell_length_b   8.87959400
_cell_length_c   11.27619500
_cell_angle_alpha   90.00000000
_cell_angle_beta   90.00000000
_cell_angle_gamma   90.00000000
_symmetry_Int_Tables_number   1
_chemical_formula_structural   TbTiReB6
_chemical_formula_sum   'Tb4 Ti4 Re4 B24'
_cell_volume   354.52713295
_cell_formula_units_Z   4
loop_
 _symmetry_equiv_pos_site_id
 _symmetry_equiv_pos_as_xyz
  1  'x, y, z'
loop_
 _atom_site_type_symbol
 _atom_site_label
 _atom_site_symmetry_multiplicity
 _atom_site_fract_x
 _atom_site_fract_y
 _atom_site_fract_z
 _atom_site_occupancy
  Tb  Tb0  1  0.000000  0.319725  0.413916  1
  Tb  Tb1  1  0.000000  0.680275  0.586084  1
  Tb  Tb2  1  0.000000  0.819725  0.086084  1
  Tb  Tb3  1  0.000000  0.180275  0.913916  1
  Ti  Ti4  1  0.000000  0.945328  0.373863  1
  Ti  Ti5  1  0.000000  0.054672  0.626137  1
  Ti  Ti6  1  0.000000  0.445328  0.126137  1
  Ti  Ti7  1  0.000000  0.554672  0.873863  1
  Re  Re8  1  0.000000  0.642553  0.316137  1
  Re  Re9  1  0.000000  0.357447  0.683863  1
  Re  Re10  1  0.000000  0.142553  0.183863  1
  Re  Re11  1  0.000000  0.857447  0.816137  1
  B  B12  1  0.500000  0.554555  0.432592  1
  B  B13  1  0.500000  0.445445  0.567408  1
  B  B14  1  0.500000  0.054555  0.067408  1
  B  B15  1  0.500000  0.945445  0.932592  1
  B  B16  1  0.500000  0.756664  0.417836  1
  B  B17  1  0.500000  0.243336  0.582164  1
  B  B18  1  0.500000  0.256664  0.082164  1
  B  B19  1  0.500000  0.743336  0.917836  1
  B  B20  1  0.500000  0.796786  0.264893  1
  B  B21  1  0.500000  0.203214  0.735107  1
  B  B22  1  0.500000  0.296786  0.235107  1
  B  B23  1  0.500000  0.703214  0.764893  1
  B  B24  1  0.500000  0.627590  0.181338  1
  B  B25  1  0.500000  0.372410  0.818662  1
  B  B26  1  0.500000  0.127590  0.318662  1
  B  B27  1  0.500000  0.872410  0.681338  1
  B  B28  1  0.500000  0.980909  0.214719  1
  B  B29  1  0.500000  0.019091  0.785281  1
  B  B30  1  0.500000  0.480909  0.285281  1
  B  B31  1  0.500000  0.519091  0.714719  1
  B  B32  1  0.500000  0.596013  0.025677  1
  B  B33  1  0.500000  0.403987  0.974323  1
  B  B34  1  0.500000  0.096013  0.474323  1
  B  B35  1  0.500000  0.903987  0.525677  1
