# generated using pymatgen
data_Pr10Sn6Cl
_symmetry_space_group_name_H-M   'P 1'
_cell_length_a   6.83176305
_cell_length_b   9.47340583
_cell_length_c   9.47377202
_cell_angle_alpha   119.99872478
_cell_angle_beta   89.99956118
_cell_angle_gamma   90.00088320
_symmetry_Int_Tables_number   1
_chemical_formula_structural   Pr10Sn6Cl
_chemical_formula_sum   'Pr10 Sn6 Cl1'
_cell_volume   531.00434966
_cell_formula_units_Z   1
loop_
 _symmetry_equiv_pos_site_id
 _symmetry_equiv_pos_as_xyz
  1  'x, y, z'
loop_
 _atom_site_type_symbol
 _atom_site_label
 _atom_site_symmetry_multiplicity
 _atom_site_fract_x
 _atom_site_fract_y
 _atom_site_fract_z
 _atom_site_occupancy
  Pr  Pr0  1  0.500002  0.333319  0.666639  1
  Pr  Pr1  1  0.500002  0.666679  0.333361  1
  Pr  Pr2  1  0.999999  0.666651  0.333302  1
  Pr  Pr3  1  0.999999  0.333348  0.666698  1
  Pr  Pr4  1  0.757857  0.250988  0.000000  1
  Pr  Pr5  1  0.757827  0.748982  0.748975  1
  Pr  Pr6  1  0.757827  0.000006  0.251025  1
  Pr  Pr7  1  0.242133  0.749010  0.000000  1
  Pr  Pr8  1  0.242172  0.251022  0.251019  1
  Pr  Pr9  1  0.242172  0.000003  0.748981  1
  Sn  Sn10  1  0.751460  0.610223  0.000000  1
  Sn  Sn11  1  0.751538  0.389796  0.389790  1
  Sn  Sn12  1  0.751538  0.000006  0.610210  1
  Sn  Sn13  1  0.248559  0.389759  0.000000  1
  Sn  Sn14  1  0.248459  0.610210  0.610211  1
  Sn  Sn15  1  0.248459  0.999999  0.389789  1
  Cl  Cl16  1  0.499999  0.000001  0.000000  1
