# generated using pymatgen
data_Y7Ho(Sc3Pt4)4
_symmetry_space_group_name_H-M   'P 1'
_cell_length_a   7.30126808
_cell_length_b   7.30349009
_cell_length_c   14.15282504
_cell_angle_alpha   90.00690951
_cell_angle_beta   90.00573127
_cell_angle_gamma   89.98370332
_symmetry_Int_Tables_number   1
_chemical_formula_structural   Y7Ho(Sc3Pt4)4
_chemical_formula_sum   'Y7 Ho1 Sc12 Pt16'
_cell_volume   754.69566272
_cell_formula_units_Z   1
loop_
 _symmetry_equiv_pos_site_id
 _symmetry_equiv_pos_as_xyz
  1  'x, y, z'
loop_
 _atom_site_type_symbol
 _atom_site_label
 _atom_site_symmetry_multiplicity
 _atom_site_fract_x
 _atom_site_fract_y
 _atom_site_fract_z
 _atom_site_occupancy
  Y  Y0  1  0.503646  0.676551  0.093085  1
  Y  Y1  1  0.496444  0.323440  0.593091  1
  Y  Y2  1  0.996370  0.176497  0.906934  1
  Y  Y3  1  0.996293  0.176301  0.593016  1
  Y  Y4  1  0.496390  0.323442  0.906915  1
  Y  Y5  1  0.503613  0.676593  0.406881  1
  Y  Y6  1  0.003638  0.823479  0.093013  1
  Ho  Ho7  1  0.003259  0.823121  0.406788  1
  Sc  Sc8  1  0.678856  0.997947  0.250054  1
  Sc  Sc9  1  0.178813  0.502158  0.250084  1
  Sc  Sc10  1  0.821232  0.497934  0.749970  1
  Sc  Sc11  1  0.321247  0.002018  0.750015  1
  Sc  Sc12  1  0.654967  0.832905  0.624371  1
  Sc  Sc13  1  0.154933  0.667150  0.875621  1
  Sc  Sc14  1  0.845066  0.332804  0.375670  1
  Sc  Sc15  1  0.345024  0.167178  0.124322  1
  Sc  Sc16  1  0.344890  0.167113  0.375686  1
  Sc  Sc17  1  0.845065  0.332809  0.124383  1
  Sc  Sc18  1  0.154833  0.667257  0.624306  1
  Sc  Sc19  1  0.655018  0.832845  0.875657  1
  Pt  Pt20  1  0.814462  0.642822  0.250470  1
  Pt  Pt21  1  0.313549  0.857600  0.250213  1
  Pt  Pt22  1  0.686070  0.142324  0.749974  1
  Pt  Pt23  1  0.186073  0.357651  0.749974  1
  Pt  Pt24  1  0.543104  0.377219  0.250040  1
  Pt  Pt25  1  0.042940  0.122475  0.250262  1
  Pt  Pt26  1  0.956924  0.877167  0.749988  1
  Pt  Pt27  1  0.456893  0.622764  0.749986  1
  Pt  Pt28  1  0.821442  0.543021  0.541348  1
  Pt  Pt29  1  0.321168  0.957495  0.958409  1
  Pt  Pt30  1  0.679646  0.041881  0.458243  1
  Pt  Pt31  1  0.178778  0.457477  0.041603  1
  Pt  Pt32  1  0.178569  0.458221  0.458244  1
  Pt  Pt33  1  0.678780  0.042524  0.041600  1
  Pt  Pt34  1  0.320850  0.957285  0.541385  1
  Pt  Pt35  1  0.821157  0.542530  0.958399  1
