# generated using pymatgen
data_BaTbYO4
_symmetry_space_group_name_H-M   'P 1'
_cell_length_a   3.49670100
_cell_length_b   10.53555700
_cell_length_c   12.26517600
_cell_angle_alpha   90.00000000
_cell_angle_beta   90.00000000
_cell_angle_gamma   90.00000000
_symmetry_Int_Tables_number   1
_chemical_formula_structural   BaTbYO4
_chemical_formula_sum   'Ba4 Tb4 Y4 O16'
_cell_volume   451.84531472
_cell_formula_units_Z   4
loop_
 _symmetry_equiv_pos_site_id
 _symmetry_equiv_pos_as_xyz
  1  'x, y, z'
loop_
 _atom_site_type_symbol
 _atom_site_label
 _atom_site_symmetry_multiplicity
 _atom_site_fract_x
 _atom_site_fract_y
 _atom_site_fract_z
 _atom_site_occupancy
  Ba  Ba0  1  0.250000  0.753499  0.351021  1
  Ba  Ba1  1  0.750000  0.246501  0.648979  1
  Ba  Ba2  1  0.250000  0.253499  0.148979  1
  Ba  Ba3  1  0.750000  0.746501  0.851021  1
  Tb  Tb4  1  0.250000  0.426235  0.388914  1
  Tb  Tb5  1  0.750000  0.573765  0.611086  1
  Tb  Tb6  1  0.250000  0.926235  0.111086  1
  Tb  Tb7  1  0.750000  0.073765  0.888914  1
  Y  Y8  1  0.750000  0.077785  0.390985  1
  Y  Y9  1  0.250000  0.922215  0.609015  1
  Y  Y10  1  0.750000  0.577785  0.109015  1
  Y  Y11  1  0.250000  0.422215  0.890985  1
  O  O12  1  0.750000  0.290457  0.340733  1
  O  O13  1  0.250000  0.709543  0.659267  1
  O  O14  1  0.750000  0.790457  0.159267  1
  O  O15  1  0.250000  0.209543  0.840733  1
  O  O16  1  0.750000  0.384275  0.018500  1
  O  O17  1  0.250000  0.615725  0.981500  1
  O  O18  1  0.750000  0.884275  0.481500  1
  O  O19  1  0.250000  0.115725  0.518500  1
  O  O20  1  0.750000  0.980877  0.716939  1
  O  O21  1  0.250000  0.019123  0.283061  1
  O  O22  1  0.750000  0.480877  0.783061  1
  O  O23  1  0.250000  0.519123  0.216939  1
  O  O24  1  0.750000  0.071051  0.074252  1
  O  O25  1  0.250000  0.928949  0.925748  1
  O  O26  1  0.750000  0.571051  0.425748  1
  O  O27  1  0.250000  0.428949  0.574252  1
