# generated using pymatgen
data_YThReB6
_symmetry_space_group_name_H-M   'P 1'
_cell_length_a   3.77046800
_cell_length_b   9.28136400
_cell_length_c   11.70245600
_cell_angle_alpha   90.00000000
_cell_angle_beta   90.00000000
_cell_angle_gamma   90.00000000
_symmetry_Int_Tables_number   1
_chemical_formula_structural   YThReB6
_chemical_formula_sum   'Y4 Th4 Re4 B24'
_cell_volume   409.52845364
_cell_formula_units_Z   4
loop_
 _symmetry_equiv_pos_site_id
 _symmetry_equiv_pos_as_xyz
  1  'x, y, z'
loop_
 _atom_site_type_symbol
 _atom_site_label
 _atom_site_symmetry_multiplicity
 _atom_site_fract_x
 _atom_site_fract_y
 _atom_site_fract_z
 _atom_site_occupancy
  Y  Y0  1  0.000000  0.444248  0.127446  1
  Y  Y1  1  0.000000  0.555752  0.872554  1
  Y  Y2  1  0.000000  0.944248  0.372554  1
  Y  Y3  1  0.000000  0.055752  0.627446  1
  Th  Th4  1  0.000000  0.822096  0.085984  1
  Th  Th5  1  0.000000  0.177904  0.914016  1
  Th  Th6  1  0.000000  0.322096  0.414016  1
  Th  Th7  1  0.000000  0.677904  0.585984  1
  Re  Re8  1  0.000000  0.138327  0.179561  1
  Re  Re9  1  0.000000  0.861673  0.820439  1
  Re  Re10  1  0.000000  0.638327  0.320439  1
  Re  Re11  1  0.000000  0.361673  0.679561  1
  B  B12  1  0.500000  0.055630  0.069570  1
  B  B13  1  0.500000  0.944370  0.930431  1
  B  B14  1  0.500000  0.555630  0.430430  1
  B  B15  1  0.500000  0.444370  0.569569  1
  B  B16  1  0.500000  0.248655  0.082829  1
  B  B17  1  0.500000  0.751345  0.917171  1
  B  B18  1  0.500000  0.748655  0.417171  1
  B  B19  1  0.500000  0.251345  0.582829  1
  B  B20  1  0.500000  0.289887  0.233360  1
  B  B21  1  0.500000  0.710113  0.766640  1
  B  B22  1  0.500000  0.789887  0.266640  1
  B  B23  1  0.500000  0.210113  0.733360  1
  B  B24  1  0.500000  0.129983  0.313293  1
  B  B25  1  0.500000  0.870017  0.686707  1
  B  B26  1  0.500000  0.629983  0.186707  1
  B  B27  1  0.500000  0.370017  0.813293  1
  B  B28  1  0.500000  0.484732  0.286664  1
  B  B29  1  0.500000  0.515268  0.713336  1
  B  B30  1  0.500000  0.984732  0.213336  1
  B  B31  1  0.500000  0.015268  0.786664  1
  B  B32  1  0.500000  0.103125  0.471369  1
  B  B33  1  0.500000  0.896875  0.528631  1
  B  B34  1  0.500000  0.603125  0.028631  1
  B  B35  1  0.500000  0.396875  0.971369  1
