# generated using pymatgen
data_LiLa4Pr12Cd3Ir4
_symmetry_space_group_name_H-M   'P 1'
_cell_length_a   10.07689270
_cell_length_b   10.07689179
_cell_length_c   10.07689263
_cell_angle_alpha   60.06673065
_cell_angle_beta   60.06673337
_cell_angle_gamma   60.06673013
_symmetry_Int_Tables_number   1
_chemical_formula_structural   LiLa4Pr12Cd3Ir4
_chemical_formula_sum   'Li1 La4 Pr12 Cd3 Ir4'
_cell_volume   724.63809632
_cell_formula_units_Z   1
loop_
 _symmetry_equiv_pos_site_id
 _symmetry_equiv_pos_as_xyz
  1  'x, y, z'
loop_
 _atom_site_type_symbol
 _atom_site_label
 _atom_site_symmetry_multiplicity
 _atom_site_fract_x
 _atom_site_fract_y
 _atom_site_fract_z
 _atom_site_occupancy
  Li  Li0  1  0.570905  0.570905  0.570905  1
  La  La1  1  0.347675  0.347675  0.347675  1
  La  La2  1  0.347105  0.347105  0.959275  1
  La  La3  1  0.347105  0.959275  0.347105  1
  La  La4  1  0.959275  0.347105  0.347105  1
  Pr  Pr5  1  0.810664  0.190759  0.190759  1
  Pr  Pr6  1  0.187343  0.811829  0.811829  1
  Pr  Pr7  1  0.190759  0.810664  0.190759  1
  Pr  Pr8  1  0.811829  0.187343  0.811829  1
  Pr  Pr9  1  0.190759  0.190759  0.810664  1
  Pr  Pr10  1  0.811829  0.811829  0.187343  1
  Pr  Pr11  1  0.937751  0.562617  0.562617  1
  Pr  Pr12  1  0.561467  0.937869  0.937869  1
  Pr  Pr13  1  0.562617  0.937751  0.562617  1
  Pr  Pr14  1  0.937869  0.561467  0.937869  1
  Pr  Pr15  1  0.562617  0.562617  0.937751  1
  Pr  Pr16  1  0.937869  0.937869  0.561467  1
  Cd  Cd17  1  0.581724  0.581724  0.257286  1
  Cd  Cd18  1  0.581724  0.257286  0.581724  1
  Cd  Cd19  1  0.257286  0.581724  0.581724  1
  Ir  Ir20  1  0.142661  0.142661  0.142661  1
  Ir  Ir21  1  0.143358  0.143358  0.574448  1
  Ir  Ir22  1  0.143358  0.574448  0.143358  1
  Ir  Ir23  1  0.574448  0.143358  0.143358  1
