# generated using pymatgen
data_TbNdLu2(WO6)2
_symmetry_space_group_name_H-M   'P 1'
_cell_length_a   5.42842700
_cell_length_b   7.72306129
_cell_length_c   11.41285569
_cell_angle_alpha   75.81370865
_cell_angle_beta   90.00000000
_cell_angle_gamma   90.00000000
_symmetry_Int_Tables_number   1
_chemical_formula_structural   TbNdLu2(WO6)2
_chemical_formula_sum   'Tb2 Nd2 Lu4 W4 O24'
_cell_volume   463.88189282
_cell_formula_units_Z   2
loop_
 _symmetry_equiv_pos_site_id
 _symmetry_equiv_pos_as_xyz
  1  'x, y, z'
loop_
 _atom_site_type_symbol
 _atom_site_label
 _atom_site_symmetry_multiplicity
 _atom_site_fract_x
 _atom_site_fract_y
 _atom_site_fract_z
 _atom_site_occupancy
  Tb  Tb0  1  0.255306  0.000000  0.750000  1
  Tb  Tb1  1  0.744694  0.000000  0.250000  1
  Nd  Nd2  1  0.314864  0.500000  0.750000  1
  Nd  Nd3  1  0.685136  0.500000  0.250000  1
  Lu  Lu4  1  0.183402  0.795053  0.078223  1
  Lu  Lu5  1  0.183402  0.204947  0.421777  1
  Lu  Lu6  1  0.816598  0.204947  0.921777  1
  Lu  Lu7  1  0.816598  0.795053  0.578223  1
  W  W8  1  0.744888  0.727740  0.885249  1
  W  W9  1  0.255112  0.727740  0.385249  1
  W  W10  1  0.744888  0.272260  0.614751  1
  W  W11  1  0.255112  0.272260  0.114751  1
  O  O12  1  0.541259  0.160199  0.066758  1
  O  O13  1  0.049692  0.056791  0.101779  1
  O  O14  1  0.014251  0.720596  0.768631  1
  O  O15  1  0.458741  0.160199  0.566758  1
  O  O16  1  0.345522  0.491382  0.387653  1
  O  O17  1  0.950308  0.056791  0.601779  1
  O  O18  1  0.548545  0.795557  0.724820  1
  O  O19  1  0.451455  0.795557  0.224820  1
  O  O20  1  0.141390  0.641510  0.546953  1
  O  O21  1  0.049692  0.943209  0.398221  1
  O  O22  1  0.458741  0.839801  0.933242  1
  O  O23  1  0.451455  0.204443  0.275180  1
  O  O24  1  0.858610  0.358490  0.453047  1
  O  O25  1  0.654478  0.491382  0.887653  1
  O  O26  1  0.345522  0.508618  0.112347  1
  O  O27  1  0.950308  0.943209  0.898221  1
  O  O28  1  0.541259  0.839801  0.433242  1
  O  O29  1  0.985749  0.279404  0.231369  1
  O  O30  1  0.548545  0.204443  0.775180  1
  O  O31  1  0.858610  0.641510  0.046953  1
  O  O32  1  0.014251  0.279404  0.731369  1
  O  O33  1  0.141390  0.358490  0.953047  1
  O  O34  1  0.985749  0.720596  0.268631  1
  O  O35  1  0.654478  0.508618  0.612347  1
