# generated using pymatgen
data_Er8Tm2Si5Pb
_symmetry_space_group_name_H-M   'P 1'
_cell_length_a   8.45957919
_cell_length_b   8.45957906
_cell_length_c   6.32032700
_cell_angle_alpha   89.99875155
_cell_angle_beta   89.99875162
_cell_angle_gamma   120.22290023
_symmetry_Int_Tables_number   1
_chemical_formula_structural   Er8Tm2Si5Pb
_chemical_formula_sum   'Er8 Tm2 Si5 Pb1'
_cell_volume   390.82995293
_cell_formula_units_Z   1
loop_
 _symmetry_equiv_pos_site_id
 _symmetry_equiv_pos_as_xyz
  1  'x, y, z'
loop_
 _atom_site_type_symbol
 _atom_site_label
 _atom_site_symmetry_multiplicity
 _atom_site_fract_x
 _atom_site_fract_y
 _atom_site_fract_z
 _atom_site_occupancy
  Er  Er0  1  0.675169  0.331216  0.503864  1
  Er  Er1  1  0.331216  0.675169  0.503864  1
  Er  Er2  1  0.767407  0.767407  0.249676  1
  Er  Er3  1  0.239629  0.987524  0.249780  1
  Er  Er4  1  0.987524  0.239629  0.249780  1
  Er  Er5  1  0.239724  0.239724  0.750197  1
  Er  Er6  1  0.756398  0.998238  0.750297  1
  Er  Er7  1  0.998238  0.756398  0.750297  1
  Tm  Tm8  1  0.331225  0.675224  0.996187  1
  Tm  Tm9  1  0.675224  0.331225  0.996187  1
  Si  Si10  1  0.603708  0.998355  0.249390  1
  Si  Si11  1  0.998355  0.603708  0.249390  1
  Si  Si12  1  0.605632  0.605632  0.750504  1
  Si  Si13  1  0.393796  0.001674  0.750622  1
  Si  Si14  1  0.001674  0.393796  0.750622  1
  Pb  Pb15  1  0.395080  0.395080  0.249342  1
