# generated using pymatgen
data_TbPr8Y3In20
_symmetry_space_group_name_H-M   'P 1'
_cell_length_a   6.69720100
_cell_length_b   10.57822800
_cell_length_c   12.51976100
_cell_angle_alpha   90.00000000
_cell_angle_beta   90.00000000
_cell_angle_gamma   90.00000000
_symmetry_Int_Tables_number   1
_chemical_formula_structural   TbPr8Y3In20
_chemical_formula_sum   'Tb1 Pr8 Y3 In20'
_cell_volume   886.95644779
_cell_formula_units_Z   1
loop_
 _symmetry_equiv_pos_site_id
 _symmetry_equiv_pos_as_xyz
  1  'x, y, z'
loop_
 _atom_site_type_symbol
 _atom_site_label
 _atom_site_symmetry_multiplicity
 _atom_site_fract_x
 _atom_site_fract_y
 _atom_site_fract_z
 _atom_site_occupancy
  Tb  Tb0  1  0.349842  0.750000  0.060294  1
  Pr  Pr1  1  0.888862  0.490254  0.143998  1
  Pr  Pr2  1  0.611142  0.009734  0.644014  1
  Pr  Pr3  1  0.111081  0.990362  0.855993  1
  Pr  Pr4  1  0.388896  0.509663  0.355998  1
  Pr  Pr5  1  0.111081  0.509638  0.855993  1
  Pr  Pr6  1  0.388896  0.990337  0.355998  1
  Pr  Pr7  1  0.888862  0.009746  0.143998  1
  Pr  Pr8  1  0.611142  0.490266  0.644014  1
  Y  Y9  1  0.150244  0.750000  0.560328  1
  Y  Y10  1  0.650202  0.250000  0.939636  1
  Y  Y11  1  0.849747  0.250000  0.439614  1
  In  In12  1  0.617526  0.750000  0.502556  1
  In  In13  1  0.882249  0.750000  0.002545  1
  In  In14  1  0.382494  0.250000  0.497480  1
  In  In15  1  0.117483  0.250000  0.997484  1
  In  In16  1  0.655065  0.750000  0.244007  1
  In  In17  1  0.844952  0.750000  0.743970  1
  In  In18  1  0.345029  0.250000  0.755956  1
  In  In19  1  0.155023  0.250000  0.255990  1
  In  In20  1  0.110022  0.750000  0.284508  1
  In  In21  1  0.390013  0.750000  0.784478  1
  In  In22  1  0.889972  0.250000  0.715521  1
  In  In23  1  0.610062  0.250000  0.215522  1
  In  In24  1  0.875050  0.545553  0.404387  1
  In  In25  1  0.625022  0.954452  0.904387  1
  In  In26  1  0.124989  0.045520  0.595621  1
  In  In27  1  0.374995  0.454438  0.095657  1
  In  In28  1  0.124989  0.454480  0.595621  1
  In  In29  1  0.374995  0.045562  0.095657  1
  In  In30  1  0.875050  0.954447  0.404387  1
  In  In31  1  0.625022  0.545548  0.904387  1
