# generated using pymatgen
data_TbYHo2(Al3Ir)6
_symmetry_space_group_name_H-M   'P 1'
_cell_length_a   7.56054940
_cell_length_b   7.56122987
_cell_length_c   9.48633100
_cell_angle_alpha   90.00000000
_cell_angle_beta   90.00000000
_cell_angle_gamma   119.49743536
_symmetry_Int_Tables_number   1
_chemical_formula_structural   TbYHo2(Al3Ir)6
_chemical_formula_sum   'Tb1 Y1 Ho2 Al18 Ir6'
_cell_volume   472.01070114
_cell_formula_units_Z   1
loop_
 _symmetry_equiv_pos_site_id
 _symmetry_equiv_pos_as_xyz
  1  'x, y, z'
loop_
 _atom_site_type_symbol
 _atom_site_label
 _atom_site_symmetry_multiplicity
 _atom_site_fract_x
 _atom_site_fract_y
 _atom_site_fract_z
 _atom_site_occupancy
  Tb  Tb0  1  0.994715  0.671025  0.250000  1
  Y  Y1  1  0.671006  0.994745  0.250000  1
  Ho  Ho2  1  0.005326  0.328784  0.750000  1
  Ho  Ho3  1  0.328813  0.005381  0.750000  1
  Al  Al4  1  0.129260  0.129331  0.250000  1
  Al  Al5  1  0.871152  0.871280  0.750000  1
  Al  Al6  1  0.001177  0.334967  0.073314  1
  Al  Al7  1  0.999101  0.664876  0.925428  1
  Al  Al8  1  0.999101  0.664876  0.574572  1
  Al  Al9  1  0.335167  0.001244  0.426670  1
  Al  Al10  1  0.001177  0.334967  0.426686  1
  Al  Al11  1  0.664889  0.999134  0.574363  1
  Al  Al12  1  0.664889  0.999134  0.925637  1
  Al  Al13  1  0.335167  0.001244  0.073330  1
  Al  Al14  1  0.333277  0.333290  0.552053  1
  Al  Al15  1  0.666443  0.666508  0.449117  1
  Al  Al16  1  0.666443  0.666508  0.050883  1
  Al  Al17  1  0.333277  0.333290  0.947947  1
  Al  Al18  1  0.339422  0.547925  0.250000  1
  Al  Al19  1  0.660545  0.451533  0.750000  1
  Al  Al20  1  0.547823  0.339121  0.250000  1
  Al  Al21  1  0.451628  0.660694  0.750000  1
  Ir  Ir22  1  0.671859  0.327950  0.999651  1
  Ir  Ir23  1  0.327952  0.671846  0.999689  1
  Ir  Ir24  1  0.327952  0.671846  0.500311  1
  Ir  Ir25  1  0.671859  0.327950  0.500349  1
  Ir  Ir26  1  0.000291  0.000276  0.999593  1
  Ir  Ir27  1  0.000291  0.000276  0.500407  1
