# generated using pymatgen
data_Sm8Pd6Pt18Pb
_symmetry_space_group_name_H-M   'P 1'
_cell_length_a   8.50576700
_cell_length_b   8.52063003
_cell_length_c   8.54528504
_cell_angle_alpha   89.99009680
_cell_angle_beta   90.00000000
_cell_angle_gamma   90.00000000
_symmetry_Int_Tables_number   1
_chemical_formula_structural   Sm8Pd6Pt18Pb
_chemical_formula_sum   'Sm8 Pd6 Pt18 Pb1'
_cell_volume   619.31519735
_cell_formula_units_Z   1
loop_
 _symmetry_equiv_pos_site_id
 _symmetry_equiv_pos_as_xyz
  1  'x, y, z'
loop_
 _atom_site_type_symbol
 _atom_site_label
 _atom_site_symmetry_multiplicity
 _atom_site_fract_x
 _atom_site_fract_y
 _atom_site_fract_z
 _atom_site_occupancy
  Sm  Sm0  1  0.250887  0.251617  0.251969  1
  Sm  Sm1  1  0.747094  0.747958  0.746890  1
  Sm  Sm2  1  0.747866  0.747964  0.253025  1
  Sm  Sm3  1  0.748757  0.251603  0.748158  1
  Sm  Sm4  1  0.251243  0.251603  0.748158  1
  Sm  Sm5  1  0.252134  0.747964  0.253025  1
  Sm  Sm6  1  0.252906  0.747958  0.746890  1
  Sm  Sm7  1  0.749113  0.251617  0.251969  1
  Pd  Pd8  1  0.000000  0.500866  0.732075  1
  Pd  Pd9  1  0.500000  0.499299  0.255817  1
  Pd  Pd10  1  0.500000  0.499201  0.743709  1
  Pd  Pd11  1  0.000000  0.682489  0.999493  1
  Pd  Pd12  1  0.000000  0.999234  0.319055  1
  Pd  Pd13  1  0.000000  0.998542  0.680931  1
  Pt  Pt14  1  0.268165  0.499922  0.999860  1
  Pt  Pt15  1  0.731835  0.499922  0.999860  1
  Pt  Pt16  1  0.000000  0.267023  0.500405  1
  Pt  Pt17  1  0.500000  0.269065  0.000102  1
  Pt  Pt18  1  0.000000  0.731575  0.500065  1
  Pt  Pt19  1  0.500000  0.728548  0.000069  1
  Pt  Pt20  1  0.500000  0.000268  0.269091  1
  Pt  Pt21  1  0.267444  0.000283  0.500078  1
  Pt  Pt22  1  0.500000  0.000309  0.731047  1
  Pt  Pt23  1  0.732556  0.000283  0.500078  1
  Pt  Pt24  1  0.000000  0.500584  0.268239  1
  Pt  Pt25  1  0.254779  0.499510  0.499880  1
  Pt  Pt26  1  0.745221  0.499510  0.499880  1
  Pt  Pt27  1  0.500000  0.255734  0.500029  1
  Pt  Pt28  1  0.500000  0.744245  0.499956  1
  Pt  Pt29  1  0.322498  0.998670  0.999948  1
  Pt  Pt30  1  0.677502  0.998670  0.999948  1
  Pt  Pt31  1  0.000000  0.324447  0.000041  1
  Pb  Pb32  1  0.000000  0.003521  0.000259  1
