# generated using pymatgen
data_Ca2La2TbRh2
_symmetry_space_group_name_H-M   'P 1'
_cell_length_a   6.64423038
_cell_length_b   7.48492300
_cell_length_c   8.97718000
_cell_angle_alpha   96.74299040
_cell_angle_beta   111.71943933
_cell_angle_gamma   89.99999334
_symmetry_Int_Tables_number   1
_chemical_formula_structural   Ca2La2TbRh2
_chemical_formula_sum   'Ca4 La4 Tb2 Rh4'
_cell_volume   411.42837842
_cell_formula_units_Z   2
loop_
 _symmetry_equiv_pos_site_id
 _symmetry_equiv_pos_as_xyz
  1  'x, y, z'
loop_
 _atom_site_type_symbol
 _atom_site_label
 _atom_site_symmetry_multiplicity
 _atom_site_fract_x
 _atom_site_fract_y
 _atom_site_fract_z
 _atom_site_occupancy
  Ca  Ca0  1  0.634969  0.817883  0.425667  1
  Ca  Ca1  1  0.209302  0.682117  0.574333  1
  Ca  Ca2  1  0.365031  0.182117  0.574333  1
  Ca  Ca3  1  0.790698  0.317883  0.425667  1
  La  La4  1  0.984567  0.912630  0.184392  1
  La  La5  1  0.800174  0.587370  0.815608  1
  La  La6  1  0.015433  0.087370  0.815608  1
  La  La7  1  0.199826  0.412630  0.184392  1
  Tb  Tb8  1  0.425748  0.750000  0.000000  1
  Tb  Tb9  1  0.574252  0.250000  0.000000  1
  Rh  Rh10  1  0.815830  0.578986  0.192670  1
  Rh  Rh11  1  0.623160  0.921014  0.807330  1
  Rh  Rh12  1  0.184170  0.421014  0.807330  1
  Rh  Rh13  1  0.376840  0.078986  0.192670  1
