# generated using pymatgen
data_CaYTi3O8
_symmetry_space_group_name_H-M   'P 1'
_cell_length_a   6.36749237
_cell_length_b   6.36749274
_cell_length_c   5.09932401
_cell_angle_alpha   72.05780503
_cell_angle_beta   72.05780257
_cell_angle_gamma   57.38773386
_symmetry_Int_Tables_number   1
_chemical_formula_structural   CaYTi3O8
_chemical_formula_sum   'Ca1 Y1 Ti3 O8'
_cell_volume   163.06227498
_cell_formula_units_Z   1
loop_
 _symmetry_equiv_pos_site_id
 _symmetry_equiv_pos_as_xyz
  1  'x, y, z'
loop_
 _atom_site_type_symbol
 _atom_site_label
 _atom_site_symmetry_multiplicity
 _atom_site_fract_x
 _atom_site_fract_y
 _atom_site_fract_z
 _atom_site_occupancy
  Ca  Ca0  1  0.274794  0.274794  0.667093  1
  Y  Y1  1  0.727417  0.727417  0.336405  1
  Ti  Ti2  1  0.001025  0.001025  0.495368  1
  Ti  Ti3  1  0.734361  0.265916  0.000664  1
  Ti  Ti4  1  0.265916  0.734361  0.000664  1
  O  O5  1  0.395996  0.395996  0.950318  1
  O  O6  1  0.608415  0.608415  0.057580  1
  O  O7  1  0.897959  0.897959  0.911867  1
  O  O8  1  0.099811  0.099811  0.093142  1
  O  O9  1  0.333723  0.883502  0.596526  1
  O  O10  1  0.883502  0.333723  0.596526  1
  O  O11  1  0.104148  0.672934  0.396924  1
  O  O12  1  0.672934  0.104148  0.396924  1
