# generated using pymatgen
data_Tb6Er10Cd4TcPt3
_symmetry_space_group_name_H-M   'P 1'
_cell_length_a   9.68711091
_cell_length_b   9.68710990
_cell_length_c   9.68711113
_cell_angle_alpha   59.36688275
_cell_angle_beta   59.36689041
_cell_angle_gamma   59.36688733
_symmetry_Int_Tables_number   1
_chemical_formula_structural   Tb6Er10Cd4TcPt3
_chemical_formula_sum   'Tb6 Er10 Cd4 Tc1 Pt3'
_cell_volume   633.52528635
_cell_formula_units_Z   1
loop_
 _symmetry_equiv_pos_site_id
 _symmetry_equiv_pos_as_xyz
  1  'x, y, z'
loop_
 _atom_site_type_symbol
 _atom_site_label
 _atom_site_symmetry_multiplicity
 _atom_site_fract_x
 _atom_site_fract_y
 _atom_site_fract_z
 _atom_site_occupancy
  Tb  Tb0  1  0.936493  0.564164  0.564164  1
  Tb  Tb1  1  0.555689  0.938813  0.938813  1
  Tb  Tb2  1  0.564164  0.936493  0.564164  1
  Tb  Tb3  1  0.938813  0.555689  0.938813  1
  Tb  Tb4  1  0.564164  0.564164  0.936493  1
  Tb  Tb5  1  0.938813  0.938813  0.555689  1
  Er  Er6  1  0.351378  0.351378  0.351378  1
  Er  Er7  1  0.350632  0.350632  0.948829  1
  Er  Er8  1  0.350632  0.948829  0.350632  1
  Er  Er9  1  0.948829  0.350632  0.350632  1
  Er  Er10  1  0.816050  0.187386  0.187386  1
  Er  Er11  1  0.187826  0.810412  0.810412  1
  Er  Er12  1  0.187386  0.816050  0.187386  1
  Er  Er13  1  0.810412  0.187826  0.810412  1
  Er  Er14  1  0.187386  0.187386  0.816050  1
  Er  Er15  1  0.810412  0.810412  0.187826  1
  Cd  Cd16  1  0.579707  0.579707  0.579707  1
  Cd  Cd17  1  0.580547  0.580547  0.255225  1
  Cd  Cd18  1  0.580547  0.255225  0.580547  1
  Cd  Cd19  1  0.255225  0.580547  0.580547  1
  Tc  Tc20  1  0.143962  0.143962  0.143962  1
  Pt  Pt21  1  0.143815  0.143815  0.573303  1
  Pt  Pt22  1  0.143815  0.573303  0.143815  1
  Pt  Pt23  1  0.573303  0.143815  0.143815  1
