# generated using pymatgen
data_YbZrCo12P7
_symmetry_space_group_name_H-M   'P 1'
_cell_length_a   8.95807600
_cell_length_b   8.95807667
_cell_length_c   3.55879800
_cell_angle_alpha   90.00000000
_cell_angle_beta   90.00000000
_cell_angle_gamma   120.00001231
_symmetry_Int_Tables_number   1
_chemical_formula_structural   YbZrCo12P7
_chemical_formula_sum   'Yb1 Zr1 Co12 P7'
_cell_volume   247.32238923
_cell_formula_units_Z   1
loop_
 _symmetry_equiv_pos_site_id
 _symmetry_equiv_pos_as_xyz
  1  'x, y, z'
loop_
 _atom_site_type_symbol
 _atom_site_label
 _atom_site_symmetry_multiplicity
 _atom_site_fract_x
 _atom_site_fract_y
 _atom_site_fract_z
 _atom_site_occupancy
  Yb  Yb0  1  0.333333  0.666667  0.000000  1
  Zr  Zr1  1  0.666667  0.333333  0.500000  1
  Co  Co2  1  0.435322  0.065004  0.000000  1
  Co  Co3  1  0.934996  0.370319  0.000000  1
  Co  Co4  1  0.629681  0.564678  0.000000  1
  Co  Co5  1  0.387041  0.433967  0.500000  1
  Co  Co6  1  0.566033  0.953074  0.500000  1
  Co  Co7  1  0.046926  0.612959  0.500000  1
  Co  Co8  1  0.155162  0.274083  0.000000  1
  Co  Co9  1  0.725917  0.881078  0.000000  1
  Co  Co10  1  0.118922  0.844838  0.000000  1
  Co  Co11  1  0.230607  0.099236  0.500000  1
  Co  Co12  1  0.900764  0.131370  0.500000  1
  Co  Co13  1  0.868630  0.769393  0.500000  1
  P  P14  1  0.114653  0.404484  0.500000  1
  P  P15  1  0.595516  0.710169  0.500000  1
  P  P16  1  0.289831  0.885347  0.500000  1
  P  P17  1  0.000000  0.000000  0.000000  1
  P  P18  1  0.410265  0.295515  0.000000  1
  P  P19  1  0.704485  0.114751  0.000000  1
  P  P20  1  0.885249  0.589735  0.000000  1
