# generated using pymatgen
data_Gd4DySn4
_symmetry_space_group_name_H-M   'P 1'
_cell_length_a   8.05508100
_cell_length_b   8.21094300
_cell_length_c   15.50237500
_cell_angle_alpha   90.00000000
_cell_angle_beta   90.00000000
_cell_angle_gamma   90.00000000
_symmetry_Int_Tables_number   1
_chemical_formula_structural   Gd4DySn4
_chemical_formula_sum   'Gd16 Dy4 Sn16'
_cell_volume   1025.32415180
_cell_formula_units_Z   4
loop_
 _symmetry_equiv_pos_site_id
 _symmetry_equiv_pos_as_xyz
  1  'x, y, z'
loop_
 _atom_site_type_symbol
 _atom_site_label
 _atom_site_symmetry_multiplicity
 _atom_site_fract_x
 _atom_site_fract_y
 _atom_site_fract_z
 _atom_site_occupancy
  Gd  Gd0  1  0.367738  0.836566  0.878356  1
  Gd  Gd1  1  0.867738  0.663434  0.621644  1
  Gd  Gd2  1  0.632262  0.163434  0.378356  1
  Gd  Gd3  1  0.132262  0.336566  0.121644  1
  Gd  Gd4  1  0.632262  0.163434  0.121644  1
  Gd  Gd5  1  0.132262  0.336566  0.378356  1
  Gd  Gd6  1  0.367738  0.836566  0.621644  1
  Gd  Gd7  1  0.867738  0.663434  0.878356  1
  Gd  Gd8  1  0.520735  0.320289  0.902270  1
  Gd  Gd9  1  0.020735  0.179711  0.597730  1
  Gd  Gd10  1  0.479265  0.679711  0.402270  1
  Gd  Gd11  1  0.979265  0.820289  0.097730  1
  Gd  Gd12  1  0.479265  0.679711  0.097730  1
  Gd  Gd13  1  0.979265  0.820289  0.402270  1
  Gd  Gd14  1  0.520735  0.320289  0.597730  1
  Gd  Gd15  1  0.020735  0.179711  0.902270  1
  Dy  Dy16  1  0.199115  0.502225  0.750000  1
  Dy  Dy17  1  0.699115  0.997775  0.750000  1
  Dy  Dy18  1  0.800885  0.497775  0.250000  1
  Dy  Dy19  1  0.300885  0.002225  0.250000  1
  Sn  Sn20  1  0.292896  0.035500  0.042265  1
  Sn  Sn21  1  0.792896  0.464500  0.457735  1
  Sn  Sn22  1  0.707104  0.964500  0.542265  1
  Sn  Sn23  1  0.207104  0.535500  0.957735  1
  Sn  Sn24  1  0.707104  0.964500  0.957735  1
  Sn  Sn25  1  0.207104  0.535500  0.542265  1
  Sn  Sn26  1  0.292896  0.035500  0.457735  1
  Sn  Sn27  1  0.792896  0.464500  0.042265  1
  Sn  Sn28  1  0.565246  0.617554  0.750000  1
  Sn  Sn29  1  0.065246  0.882446  0.750000  1
  Sn  Sn30  1  0.434754  0.382446  0.250000  1
  Sn  Sn31  1  0.934754  0.117554  0.250000  1
  Sn  Sn32  1  0.328228  0.146777  0.750000  1
  Sn  Sn33  1  0.828228  0.353223  0.750000  1
  Sn  Sn34  1  0.671772  0.853223  0.250000  1
  Sn  Sn35  1  0.171772  0.646777  0.250000  1
