# generated using pymatgen
data_La12Ir3PdI12
_symmetry_space_group_name_H-M   'P 1'
_cell_length_a   11.04143457
_cell_length_b   11.04143452
_cell_length_c   11.04143374
_cell_angle_alpha   109.61659350
_cell_angle_beta   109.61659514
_cell_angle_gamma   109.61660166
_symmetry_Int_Tables_number   1
_chemical_formula_structural   La12Ir3PdI12
_chemical_formula_sum   'La12 Ir3 Pd1 I12'
_cell_volume   1030.61111881
_cell_formula_units_Z   1
loop_
 _symmetry_equiv_pos_site_id
 _symmetry_equiv_pos_as_xyz
  1  'x, y, z'
loop_
 _atom_site_type_symbol
 _atom_site_label
 _atom_site_symmetry_multiplicity
 _atom_site_fract_x
 _atom_site_fract_y
 _atom_site_fract_z
 _atom_site_occupancy
  La  La0  1  0.459675  0.483608  0.226435  1
  La  La1  1  0.750000  0.228478  0.271522  1
  La  La2  1  0.750000  0.021671  0.478329  1
  La  La3  1  0.226435  0.459675  0.483608  1
  La  La4  1  0.271522  0.750000  0.228478  1
  La  La5  1  0.040325  0.273565  0.016392  1
  La  La6  1  0.016392  0.040325  0.273565  1
  La  La7  1  0.478329  0.750000  0.021671  1
  La  La8  1  0.483608  0.226435  0.459675  1
  La  La9  1  0.021671  0.478329  0.750000  1
  La  La10  1  0.273565  0.016392  0.040325  1
  La  La11  1  0.228478  0.271522  0.750000  1
  Ir  Ir12  1  0.499156  0.000844  0.250000  1
  Ir  Ir13  1  0.000844  0.250000  0.499156  1
  Ir  Ir14  1  0.250000  0.499156  0.000844  1
  Pd  Pd15  1  0.250000  0.250000  0.250000  1
  I  I16  1  0.250000  0.759623  0.740377  1
  I  I17  1  0.518202  0.509070  0.758697  1
  I  I18  1  0.981798  0.741303  0.990930  1
  I  I19  1  0.740377  0.250000  0.759623  1
  I  I20  1  0.990930  0.981798  0.741303  1
  I  I21  1  0.250000  0.990976  0.509024  1
  I  I22  1  0.758697  0.518202  0.509070  1
  I  I23  1  0.509024  0.250000  0.990976  1
  I  I24  1  0.759623  0.740377  0.250000  1
  I  I25  1  0.741303  0.990930  0.981798  1
  I  I26  1  0.990976  0.509024  0.250000  1
  I  I27  1  0.509070  0.758697  0.518202  1
