# generated using pymatgen
data_Ce4Hg2Pd3Rh
_symmetry_space_group_name_H-M   'P 1'
_cell_length_a   7.80156326
_cell_length_b   7.80156347
_cell_length_c   3.76816900
_cell_angle_alpha   90.00000000
_cell_angle_beta   90.00000000
_cell_angle_gamma   89.65299556
_symmetry_Int_Tables_number   1
_chemical_formula_structural   Ce4Hg2Pd3Rh
_chemical_formula_sum   'Ce4 Hg2 Pd3 Rh1'
_cell_volume   229.34310506
_cell_formula_units_Z   1
loop_
 _symmetry_equiv_pos_site_id
 _symmetry_equiv_pos_as_xyz
  1  'x, y, z'
loop_
 _atom_site_type_symbol
 _atom_site_label
 _atom_site_symmetry_multiplicity
 _atom_site_fract_x
 _atom_site_fract_y
 _atom_site_fract_z
 _atom_site_occupancy
  Ce  Ce0  1  0.666209  0.175509  0.500000  1
  Ce  Ce1  1  0.183225  0.316775  0.500000  1
  Ce  Ce2  1  0.828205  0.671795  0.500000  1
  Ce  Ce3  1  0.324491  0.833791  0.500000  1
  Hg  Hg4  1  0.997831  0.999270  0.000000  1
  Hg  Hg5  1  0.500730  0.502169  0.000000  1
  Pd  Pd6  1  0.130271  0.626431  0.000000  1
  Pd  Pd7  1  0.628695  0.871305  0.000000  1
  Pd  Pd8  1  0.873569  0.369729  0.000000  1
  Rh  Rh9  1  0.366774  0.133226  0.000000  1
