# generated using pymatgen
data_PrThAs7Rh12
_symmetry_space_group_name_H-M   'P 1'
_cell_length_a   10.04879500
_cell_length_b   10.04879647
_cell_length_c   3.99472600
_cell_angle_alpha   90.00000000
_cell_angle_beta   90.00000000
_cell_angle_gamma   120.00001162
_symmetry_Int_Tables_number   1
_chemical_formula_structural   PrThAs7Rh12
_chemical_formula_sum   'Pr1 Th1 As7 Rh12'
_cell_volume   349.33782626
_cell_formula_units_Z   1
loop_
 _symmetry_equiv_pos_site_id
 _symmetry_equiv_pos_as_xyz
  1  'x, y, z'
loop_
 _atom_site_type_symbol
 _atom_site_label
 _atom_site_symmetry_multiplicity
 _atom_site_fract_x
 _atom_site_fract_y
 _atom_site_fract_z
 _atom_site_occupancy
  Pr  Pr0  1  0.666667  0.333333  0.250752  1
  Th  Th1  1  0.333333  0.666667  0.747864  1
  As  As2  1  0.000000  0.000000  0.500132  1
  As  As3  1  0.883082  0.596062  0.751004  1
  As  As4  1  0.403938  0.287020  0.751004  1
  As  As5  1  0.712980  0.116918  0.751004  1
  As  As6  1  0.111411  0.398754  0.248198  1
  As  As7  1  0.601246  0.712657  0.248198  1
  As  As8  1  0.287343  0.888589  0.248198  1
  Rh  Rh9  1  0.617338  0.555138  0.750828  1
  Rh  Rh10  1  0.444862  0.062201  0.750828  1
  Rh  Rh11  1  0.937799  0.382662  0.750828  1
  Rh  Rh12  1  0.379327  0.450395  0.249938  1
  Rh  Rh13  1  0.549605  0.928930  0.249938  1
  Rh  Rh14  1  0.071070  0.620673  0.249938  1
  Rh  Rh15  1  0.113535  0.850429  0.752401  1
  Rh  Rh16  1  0.149571  0.263105  0.752401  1
  Rh  Rh17  1  0.736895  0.886465  0.752401  1
  Rh  Rh18  1  0.881786  0.145267  0.248048  1
  Rh  Rh19  1  0.854733  0.736520  0.248048  1
  Rh  Rh20  1  0.263480  0.118214  0.248048  1
