# generated using pymatgen
data_DyTlAg2(Pt2O7)2
_symmetry_space_group_name_H-M   'P 1'
_cell_length_a   7.24892077
_cell_length_b   7.23408423
_cell_length_c   7.16741600
_cell_angle_alpha   60.30439243
_cell_angle_beta   60.37124717
_cell_angle_gamma   61.10677231
_symmetry_Int_Tables_number   1
_chemical_formula_structural   DyTlAg2(Pt2O7)2
_chemical_formula_sum   'Dy1 Tl1 Ag2 Pt4 O14'
_cell_volume   269.30341385
_cell_formula_units_Z   1
loop_
 _symmetry_equiv_pos_site_id
 _symmetry_equiv_pos_as_xyz
  1  'x, y, z'
loop_
 _atom_site_type_symbol
 _atom_site_label
 _atom_site_symmetry_multiplicity
 _atom_site_fract_x
 _atom_site_fract_y
 _atom_site_fract_z
 _atom_site_occupancy
  Dy  Dy0  1  0.125000  0.625000  0.125000  1
  Tl  Tl1  1  0.625000  0.125000  0.125000  1
  Ag  Ag2  1  0.125000  0.125000  0.625000  1
  Ag  Ag3  1  0.125000  0.125000  0.125000  1
  Pt  Pt4  1  0.625000  0.625000  0.625000  1
  Pt  Pt5  1  0.125000  0.625000  0.625000  1
  Pt  Pt6  1  0.625000  0.125000  0.625000  1
  Pt  Pt7  1  0.625000  0.625000  0.125000  1
  O  O8  1  0.293730  0.694114  0.722435  1
  O  O9  1  0.544851  0.956390  0.960985  1
  O  O10  1  0.705149  0.293610  0.712226  1
  O  O11  1  0.295103  0.296554  0.704171  1
  O  O12  1  0.721867  0.708511  0.284811  1
  O  O13  1  0.018882  0.013197  0.983961  1
  O  O14  1  0.293730  0.694114  0.289721  1
  O  O15  1  0.956270  0.555886  0.960279  1
  O  O16  1  0.954897  0.953446  0.545829  1
  O  O17  1  0.528133  0.541489  0.965189  1
  O  O18  1  0.231118  0.236803  0.266039  1
  O  O19  1  0.544851  0.956390  0.537774  1
  O  O20  1  0.705149  0.293610  0.289015  1
  O  O21  1  0.956270  0.555886  0.527565  1
