# generated using pymatgen
data_Tb4Dy8InCo5
_symmetry_space_group_name_H-M   'P 1'
_cell_length_a   8.30019075
_cell_length_b   8.30019165
_cell_length_c   8.30019000
_cell_angle_alpha   110.70080921
_cell_angle_beta   110.64913793
_cell_angle_gamma   107.08964591
_symmetry_Int_Tables_number   1
_chemical_formula_structural   Tb4Dy8InCo5
_chemical_formula_sum   'Tb4 Dy8 In1 Co5'
_cell_volume   439.62467467
_cell_formula_units_Z   1
loop_
 _symmetry_equiv_pos_site_id
 _symmetry_equiv_pos_as_xyz
  1  'x, y, z'
loop_
 _atom_site_type_symbol
 _atom_site_label
 _atom_site_symmetry_multiplicity
 _atom_site_fract_x
 _atom_site_fract_y
 _atom_site_fract_z
 _atom_site_occupancy
  Tb  Tb0  1  0.813947  0.706357  0.520303  1
  Tb  Tb1  1  0.186053  0.293643  0.479697  1
  Tb  Tb2  1  0.186053  0.706357  0.892409  1
  Tb  Tb3  1  0.813947  0.293643  0.107591  1
  Dy  Dy4  1  0.685275  0.379657  0.694383  1
  Dy  Dy5  1  0.314725  0.620343  0.305617  1
  Dy  Dy6  1  0.685275  0.990891  0.305617  1
  Dy  Dy7  1  0.314725  0.009109  0.694383  1
  Dy  Dy8  1  0.600616  0.792289  0.808328  1
  Dy  Dy9  1  0.399384  0.207711  0.191672  1
  Dy  Dy10  1  0.983961  0.792289  0.191672  1
  Dy  Dy11  1  0.016039  0.207711  0.808328  1
  In  In12  1  0.500000  0.500000  0.000000  1
  Co  Co13  1  0.620909  0.000000  0.620909  1
  Co  Co14  1  0.379091  0.000000  0.379091  1
  Co  Co15  1  0.112377  0.612377  0.500000  1
  Co  Co16  1  0.887623  0.387623  0.500000  1
  Co  Co17  1  0.000000  0.000000  0.000000  1
