# generated using pymatgen
data_TbNdFe10Co2P7
_symmetry_space_group_name_H-M   'P 1'
_cell_length_a   8.98666540
_cell_length_b   9.00338950
_cell_length_c   3.66597700
_cell_angle_alpha   90.00000000
_cell_angle_beta   90.00000000
_cell_angle_gamma   120.03248851
_symmetry_Int_Tables_number   1
_chemical_formula_structural   TbNdFe10Co2P7
_chemical_formula_sum   'Tb1 Nd1 Fe10 Co2 P7'
_cell_volume   256.79272010
_cell_formula_units_Z   1
loop_
 _symmetry_equiv_pos_site_id
 _symmetry_equiv_pos_as_xyz
  1  'x, y, z'
loop_
 _atom_site_type_symbol
 _atom_site_label
 _atom_site_symmetry_multiplicity
 _atom_site_fract_x
 _atom_site_fract_y
 _atom_site_fract_z
 _atom_site_occupancy
  Tb  Tb0  1  0.333296  0.666957  0.500000  1
  Nd  Nd1  1  0.667464  0.333934  0.000000  1
  Fe  Fe2  1  0.058449  0.632438  0.000000  1
  Fe  Fe3  1  0.573495  0.942885  0.000000  1
  Fe  Fe4  1  0.368937  0.427771  0.000000  1
  Fe  Fe5  1  0.273679  0.119112  0.000000  1
  Fe  Fe6  1  0.845637  0.726873  0.000000  1
  Fe  Fe7  1  0.880918  0.152580  0.000000  1
  Fe  Fe8  1  0.952639  0.383833  0.500000  1
  Fe  Fe9  1  0.097654  0.881019  0.500000  1
  Fe  Fe10  1  0.781778  0.901271  0.500000  1
  Fe  Fe11  1  0.117511  0.214632  0.500000  1
  Co  Co12  1  0.432936  0.047728  0.500000  1
  Co  Co13  1  0.615046  0.567600  0.500000  1
  P  P14  1  0.298624  0.888634  0.000000  1
  P  P15  1  0.589621  0.701621  0.000000  1
  P  P16  1  0.110286  0.411007  0.000000  1
  P  P17  1  0.393580  0.288699  0.500000  1
  P  P18  1  0.895066  0.603902  0.500000  1
  P  P19  1  0.712752  0.107754  0.500000  1
  P  P20  1  0.000628  0.999748  0.000000  1
