# generated using pymatgen
data_HoTm11(TcIr)2
_symmetry_space_group_name_H-M   'P 1'
_cell_length_a   6.22925407
_cell_length_b   7.32036208
_cell_length_c   8.99200700
_cell_angle_alpha   90.00000000
_cell_angle_beta   90.00000000
_cell_angle_gamma   89.98329841
_symmetry_Int_Tables_number   1
_chemical_formula_structural   HoTm11(TcIr)2
_chemical_formula_sum   'Ho1 Tm11 Tc2 Ir2'
_cell_volume   410.03905577
_cell_formula_units_Z   1
loop_
 _symmetry_equiv_pos_site_id
 _symmetry_equiv_pos_as_xyz
  1  'x, y, z'
loop_
 _atom_site_type_symbol
 _atom_site_label
 _atom_site_symmetry_multiplicity
 _atom_site_fract_x
 _atom_site_fract_y
 _atom_site_fract_z
 _atom_site_occupancy
  Ho  Ho0  1  0.132338  0.459744  0.750000  1
  Tm  Tm1  1  0.332545  0.676246  0.065462  1
  Tm  Tm2  1  0.167740  0.175863  0.434616  1
  Tm  Tm3  1  0.665378  0.323926  0.560070  1
  Tm  Tm4  1  0.834168  0.824195  0.939747  1
  Tm  Tm5  1  0.665378  0.323926  0.939930  1
  Tm  Tm6  1  0.834168  0.824195  0.560253  1
  Tm  Tm7  1  0.332545  0.676246  0.434538  1
  Tm  Tm8  1  0.167740  0.175863  0.065384  1
  Tm  Tm9  1  0.874034  0.539581  0.250000  1
  Tm  Tm10  1  0.625933  0.039658  0.250000  1
  Tm  Tm11  1  0.367406  0.959580  0.750000  1
  Tc  Tc12  1  0.035743  0.884690  0.250000  1
  Tc  Tc13  1  0.464182  0.384583  0.250000  1
  Ir  Ir14  1  0.956055  0.115196  0.750000  1
  Ir  Ir15  1  0.544649  0.616506  0.750000  1
