# generated using pymatgen
data_Er3Pa(Ni2Ag)2
_symmetry_space_group_name_H-M   'P 1'
_cell_length_a   7.38456865
_cell_length_b   7.38456875
_cell_length_c   3.53940200
_cell_angle_alpha   90.00000000
_cell_angle_beta   90.00000000
_cell_angle_gamma   92.02252204
_symmetry_Int_Tables_number   1
_chemical_formula_structural   Er3Pa(Ni2Ag)2
_chemical_formula_sum   'Er3 Pa1 Ni4 Ag2'
_cell_volume   192.88991702
_cell_formula_units_Z   1
loop_
 _symmetry_equiv_pos_site_id
 _symmetry_equiv_pos_as_xyz
  1  'x, y, z'
loop_
 _atom_site_type_symbol
 _atom_site_label
 _atom_site_symmetry_multiplicity
 _atom_site_fract_x
 _atom_site_fract_y
 _atom_site_fract_z
 _atom_site_occupancy
  Er  Er0  1  0.323748  0.823748  0.500000  1
  Er  Er1  1  0.174009  0.327103  0.500000  1
  Er  Er2  1  0.827103  0.674009  0.500000  1
  Pa  Pa3  1  0.671376  0.171376  0.500000  1
  Ni  Ni4  1  0.115140  0.615140  0.000000  1
  Ni  Ni5  1  0.862752  0.362752  0.000000  1
  Ni  Ni6  1  0.629634  0.892168  0.000000  1
  Ni  Ni7  1  0.392168  0.129634  0.000000  1
  Ag  Ag8  1  0.495648  0.508421  0.000000  1
  Ag  Ag9  1  0.008421  0.995648  0.000000  1
