# generated using pymatgen
data_Nd12Co(RuBr4)3
_symmetry_space_group_name_H-M   'P 1'
_cell_length_a   10.41120960
_cell_length_b   10.41124020
_cell_length_c   10.49754800
_cell_angle_alpha   109.63959752
_cell_angle_beta   109.64036575
_cell_angle_gamma   109.30521597
_symmetry_Int_Tables_number   1
_chemical_formula_structural   Nd12Co(RuBr4)3
_chemical_formula_sum   'Nd12 Co1 Ru3 Br12'
_cell_volume   874.06397762
_cell_formula_units_Z   1
loop_
 _symmetry_equiv_pos_site_id
 _symmetry_equiv_pos_as_xyz
  1  'x, y, z'
loop_
 _atom_site_type_symbol
 _atom_site_label
 _atom_site_symmetry_multiplicity
 _atom_site_fract_x
 _atom_site_fract_y
 _atom_site_fract_z
 _atom_site_occupancy
  Nd  Nd0  1  0.270604  0.753153  0.233697  1
  Nd  Nd1  1  0.482556  0.753155  0.019461  1
  Nd  Nd2  1  0.233443  0.466887  0.483443  1
  Nd  Nd3  1  0.015331  0.030654  0.265338  1
  Nd  Nd4  1  0.233448  0.266559  0.750016  1
  Nd  Nd5  1  0.015329  0.484674  0.749980  1
  Nd  Nd6  1  0.482554  0.229396  0.463097  1
  Nd  Nd7  1  0.270608  0.017447  0.036904  1
  Nd  Nd8  1  0.746836  0.229382  0.266294  1
  Nd  Nd9  1  0.746836  0.017448  0.480538  1
  Nd  Nd10  1  0.469361  0.484684  0.234690  1
  Nd  Nd11  1  0.033097  0.266552  0.016542  1
  Co  Co12  1  0.500003  0.000000  0.250003  1
  Ru  Ru13  1  0.250887  0.501775  0.000889  1
  Ru  Ru14  1  0.998208  0.249102  0.499107  1
  Ru  Ru15  1  0.250879  0.249114  0.249996  1
  Br  Br16  1  0.249168  0.993223  0.503256  1
  Br  Br17  1  0.510258  0.505129  0.755130  1
  Br  Br18  1  0.249168  0.755944  0.745908  1
  Br  Br19  1  0.990360  0.745183  0.995181  1
  Br  Br20  1  0.994869  0.505131  0.249997  1
  Br  Br21  1  0.744061  0.993219  0.989971  1
  Br  Br22  1  0.754823  0.745173  0.249997  1
  Br  Br23  1  0.506778  0.755945  0.510041  1
  Br  Br24  1  0.506781  0.250837  0.996745  1
  Br  Br25  1  0.754826  0.509651  0.504828  1
  Br  Br26  1  0.744057  0.250852  0.754083  1
  Br  Br27  1  0.994868  0.989734  0.744868  1
