# generated using pymatgen
data_Tm4Co3Si12Rh17
_symmetry_space_group_name_H-M   'P 1'
_cell_length_a   3.85573500
_cell_length_b   10.93625569
_cell_length_c   12.55344250
_cell_angle_alpha   89.78977754
_cell_angle_beta   90.00000000
_cell_angle_gamma   90.00000000
_symmetry_Int_Tables_number   1
_chemical_formula_structural   Tm4Co3Si12Rh17
_chemical_formula_sum   'Tm4 Co3 Si12 Rh17'
_cell_volume   529.34126104
_cell_formula_units_Z   1
loop_
 _symmetry_equiv_pos_site_id
 _symmetry_equiv_pos_as_xyz
  1  'x, y, z'
loop_
 _atom_site_type_symbol
 _atom_site_label
 _atom_site_symmetry_multiplicity
 _atom_site_fract_x
 _atom_site_fract_y
 _atom_site_fract_z
 _atom_site_occupancy
  Tm  Tm0  1  0.250000  0.584966  0.706072  1
  Tm  Tm1  1  0.250000  0.914123  0.207421  1
  Tm  Tm2  1  0.750000  0.414121  0.294674  1
  Tm  Tm3  1  0.750000  0.084090  0.789892  1
  Co  Co4  1  0.250000  0.028244  0.431511  1
  Co  Co5  1  0.750000  0.529253  0.072044  1
  Co  Co6  1  0.750000  0.970231  0.566739  1
  Si  Si7  1  0.250000  0.420019  0.111553  1
  Si  Si8  1  0.250000  0.079073  0.602570  1
  Si  Si9  1  0.750000  0.585112  0.896056  1
  Si  Si10  1  0.750000  0.919440  0.395420  1
  Si  Si11  1  0.250000  0.270071  0.869921  1
  Si  Si12  1  0.250000  0.223176  0.373166  1
  Si  Si13  1  0.750000  0.725174  0.127057  1
  Si  Si14  1  0.750000  0.776094  0.626586  1
  Si  Si15  1  0.250000  0.602752  0.392622  1
  Si  Si16  1  0.250000  0.899866  0.891613  1
  Si  Si17  1  0.750000  0.396664  0.605957  1
  Si  Si18  1  0.750000  0.102340  0.108325  1
  Rh  Rh19  1  0.250000  0.715975  0.994324  1
  Rh  Rh20  1  0.250000  0.791982  0.490292  1
  Rh  Rh21  1  0.750000  0.289521  0.009703  1
  Rh  Rh22  1  0.750000  0.207120  0.508968  1
  Rh  Rh23  1  0.250000  0.405841  0.484332  1
  Rh  Rh24  1  0.250000  0.093844  0.984848  1
  Rh  Rh25  1  0.750000  0.594015  0.515369  1
  Rh  Rh26  1  0.750000  0.908566  0.015514  1
  Rh  Rh27  1  0.250000  0.223302  0.178781  1
  Rh  Rh28  1  0.250000  0.273174  0.675823  1
  Rh  Rh29  1  0.750000  0.778153  0.821743  1
  Rh  Rh30  1  0.750000  0.725355  0.322232  1
  Rh  Rh31  1  0.250000  0.891440  0.699480  1
  Rh  Rh32  1  0.250000  0.610468  0.201990  1
  Rh  Rh33  1  0.750000  0.107860  0.299685  1
  Rh  Rh34  1  0.750000  0.388195  0.795418  1
  Rh  Rh35  1  0.250000  0.470378  0.932297  1
