# generated using pymatgen
data_K2GeAs3Ir4
_symmetry_space_group_name_H-M   'P 1'
_cell_length_a   7.39025300
_cell_length_b   7.39025218
_cell_length_c   5.78728100
_cell_angle_alpha   90.00000000
_cell_angle_beta   90.00000000
_cell_angle_gamma   134.04430740
_symmetry_Int_Tables_number   1
_chemical_formula_structural   K2GeAs3Ir4
_chemical_formula_sum   'K2 Ge1 As3 Ir4'
_cell_volume   227.19703154
_cell_formula_units_Z   1
loop_
 _symmetry_equiv_pos_site_id
 _symmetry_equiv_pos_as_xyz
  1  'x, y, z'
loop_
 _atom_site_type_symbol
 _atom_site_label
 _atom_site_symmetry_multiplicity
 _atom_site_fract_x
 _atom_site_fract_y
 _atom_site_fract_z
 _atom_site_occupancy
  K  K0  1  0.497471  0.502529  0.500000  1
  K  K1  1  0.994534  0.005466  0.000000  1
  Ge  Ge2  1  0.142639  0.857361  0.500000  1
  As  As3  1  0.650031  0.349969  0.000000  1
  As  As4  1  0.350861  0.649139  0.000000  1
  As  As5  1  0.851084  0.148916  0.500000  1
  Ir  Ir6  1  0.498574  0.998933  0.251469  1
  Ir  Ir7  1  0.001067  0.501426  0.748531  1
  Ir  Ir8  1  0.001067  0.501426  0.251469  1
  Ir  Ir9  1  0.498574  0.998933  0.748531  1
