# generated using pymatgen
data_Yb3(TcC3)2
_symmetry_space_group_name_H-M   'P 1'
_cell_length_a   8.33149700
_cell_length_b   8.33149694
_cell_length_c   5.17377600
_cell_angle_alpha   90.00000000
_cell_angle_beta   90.00000000
_cell_angle_gamma   119.99999309
_symmetry_Int_Tables_number   1
_chemical_formula_structural   Yb3(TcC3)2
_chemical_formula_sum   'Yb6 Tc4 C12'
_cell_volume   311.01716977
_cell_formula_units_Z   2
loop_
 _symmetry_equiv_pos_site_id
 _symmetry_equiv_pos_as_xyz
  1  'x, y, z'
loop_
 _atom_site_type_symbol
 _atom_site_label
 _atom_site_symmetry_multiplicity
 _atom_site_fract_x
 _atom_site_fract_y
 _atom_site_fract_z
 _atom_site_occupancy
  Yb  Yb0  1  0.617468  0.692873  0.750000  1
  Yb  Yb1  1  0.924595  0.617468  0.250000  1
  Yb  Yb2  1  0.692873  0.075405  0.250000  1
  Yb  Yb3  1  0.307127  0.924595  0.750000  1
  Yb  Yb4  1  0.075405  0.382532  0.750000  1
  Yb  Yb5  1  0.382532  0.307127  0.250000  1
  Tc  Tc6  1  0.000000  0.000000  0.500000  1
  Tc  Tc7  1  0.000000  0.000000  0.000000  1
  Tc  Tc8  1  0.666667  0.333333  0.750000  1
  Tc  Tc9  1  0.333333  0.666667  0.250000  1
  C  C10  1  0.956483  0.772964  0.750000  1
  C  C11  1  0.183520  0.956483  0.250000  1
  C  C12  1  0.772964  0.816480  0.250000  1
  C  C13  1  0.227036  0.183520  0.750000  1
  C  C14  1  0.816480  0.043517  0.750000  1
  C  C15  1  0.043517  0.227036  0.250000  1
  C  C16  1  0.862773  0.586828  0.750000  1
  C  C17  1  0.275946  0.862773  0.250000  1
  C  C18  1  0.586828  0.724054  0.250000  1
  C  C19  1  0.413172  0.275946  0.750000  1
  C  C20  1  0.137227  0.413172  0.250000  1
  C  C21  1  0.724054  0.137227  0.750000  1
