# generated using pymatgen
data_Sc12Mn2InI16
_symmetry_space_group_name_H-M   'P 1'
_cell_length_a   9.17470732
_cell_length_b   11.85364718
_cell_length_c   12.55246955
_cell_angle_alpha   117.16251919
_cell_angle_beta   101.12570707
_cell_angle_gamma   100.89917203
_symmetry_Int_Tables_number   1
_chemical_formula_structural   Sc12Mn2InI16
_chemical_formula_sum   'Sc12 Mn2 In1 I16'
_cell_volume   1130.08737803
_cell_formula_units_Z   1
loop_
 _symmetry_equiv_pos_site_id
 _symmetry_equiv_pos_as_xyz
  1  'x, y, z'
loop_
 _atom_site_type_symbol
 _atom_site_label
 _atom_site_symmetry_multiplicity
 _atom_site_fract_x
 _atom_site_fract_y
 _atom_site_fract_z
 _atom_site_occupancy
  Sc  Sc0  1  0.107202  0.258742  0.350762  1
  Sc  Sc1  1  0.892798  0.741258  0.649238  1
  Sc  Sc2  1  0.756227  0.536467  0.321580  1
  Sc  Sc3  1  0.243773  0.463533  0.678420  1
  Sc  Sc4  1  0.303961  0.741551  0.648450  1
  Sc  Sc5  1  0.696039  0.258449  0.351550  1
  Sc  Sc6  1  0.167079  0.536063  0.321139  1
  Sc  Sc7  1  0.832921  0.463937  0.678861  1
  Sc  Sc8  1  0.411451  0.366303  0.286305  1
  Sc  Sc9  1  0.588549  0.633697  0.713695  1
  Sc  Sc10  1  0.461716  0.324154  0.518914  1
  Sc  Sc11  1  0.538284  0.675846  0.481086  1
  Mn  Mn12  1  0.333319  0.499919  0.499600  1
  Mn  Mn13  1  0.666682  0.500081  0.500400  1
  In  In14  1  0.000000  0.500000  0.500000  1
  I  I15  1  0.398144  0.744234  0.889690  1
  I  I16  1  0.601856  0.255766  0.110310  1
  I  I17  1  0.187914  0.962915  0.782286  1
  I  I18  1  0.812086  0.037085  0.217714  1
  I  I19  1  0.335051  0.089865  0.248047  1
  I  I20  1  0.664949  0.910135  0.751953  1
  I  I21  1  0.560495  0.436840  0.802722  1
  I  I22  1  0.439505  0.563160  0.197278  1
  I  I23  1  0.310667  0.830548  0.462165  1
  I  I24  1  0.689333  0.169452  0.537835  1
  I  I25  1  0.166556  0.168415  0.534406  1
  I  I26  1  0.833444  0.831585  0.465594  1
  I  I27  1  0.927540  0.574485  0.161374  1
  I  I28  1  0.072460  0.425515  0.838626  1
  I  I29  1  0.924832  0.743546  0.890337  1
  I  I30  1  0.075168  0.256454  0.109663  1
