# generated using pymatgen
data_DyEr3Tm4Ga3Co
_symmetry_space_group_name_H-M   'P 1'
_cell_length_a   9.90488800
_cell_length_b   9.90488882
_cell_length_c   6.86282100
_cell_angle_alpha   90.00000000
_cell_angle_beta   90.00000000
_cell_angle_gamma   120.00000394
_symmetry_Int_Tables_number   1
_chemical_formula_structural   DyEr3Tm4Ga3Co
_chemical_formula_sum   'Dy2 Er6 Tm8 Ga6 Co2'
_cell_volume   583.08579338
_cell_formula_units_Z   2
loop_
 _symmetry_equiv_pos_site_id
 _symmetry_equiv_pos_as_xyz
  1  'x, y, z'
loop_
 _atom_site_type_symbol
 _atom_site_label
 _atom_site_symmetry_multiplicity
 _atom_site_fract_x
 _atom_site_fract_y
 _atom_site_fract_z
 _atom_site_occupancy
  Dy  Dy0  1  0.000000  0.000000  0.270291  1
  Dy  Dy1  1  0.000000  0.000000  0.770291  1
  Er  Er2  1  0.463823  0.536177  0.293262  1
  Er  Er3  1  0.536177  0.463823  0.793262  1
  Er  Er4  1  0.463823  0.927646  0.293262  1
  Er  Er5  1  0.072354  0.536177  0.293262  1
  Er  Er6  1  0.927646  0.463823  0.793262  1
  Er  Er7  1  0.536177  0.072354  0.793262  1
  Tm  Tm8  1  0.173601  0.826399  0.990639  1
  Tm  Tm9  1  0.826399  0.173601  0.490639  1
  Tm  Tm10  1  0.173601  0.347202  0.990639  1
  Tm  Tm11  1  0.652798  0.826399  0.990639  1
  Tm  Tm12  1  0.347202  0.173601  0.490639  1
  Tm  Tm13  1  0.826399  0.652798  0.490639  1
  Tm  Tm14  1  0.333333  0.666667  0.672683  1
  Tm  Tm15  1  0.666667  0.333333  0.172683  1
  Ga  Ga16  1  0.163788  0.836212  0.540363  1
  Ga  Ga17  1  0.836212  0.163788  0.040363  1
  Ga  Ga18  1  0.163788  0.327576  0.540363  1
  Ga  Ga19  1  0.672424  0.836212  0.540363  1
  Ga  Ga20  1  0.327576  0.163788  0.040363  1
  Ga  Ga21  1  0.836212  0.672424  0.040363  1
  Co  Co22  1  0.333333  0.666667  0.057294  1
  Co  Co23  1  0.666667  0.333333  0.557294  1
