# generated using pymatgen
data_CdNi5P8(PbO14)2
_symmetry_space_group_name_H-M   'P 1'
_cell_length_a   7.85275128
_cell_length_b   7.62490301
_cell_length_c   9.61942848
_cell_angle_alpha   67.80101888
_cell_angle_beta   90.09980700
_cell_angle_gamma   89.52312548
_symmetry_Int_Tables_number   1
_chemical_formula_structural   CdNi5P8(PbO14)2
_chemical_formula_sum   'Cd1 Ni5 P8 Pb2 O28'
_cell_volume   533.25849509
_cell_formula_units_Z   1
loop_
 _symmetry_equiv_pos_site_id
 _symmetry_equiv_pos_as_xyz
  1  'x, y, z'
loop_
 _atom_site_type_symbol
 _atom_site_label
 _atom_site_symmetry_multiplicity
 _atom_site_fract_x
 _atom_site_fract_y
 _atom_site_fract_z
 _atom_site_occupancy
  Cd  Cd0  1  0.618863  0.805254  0.039405  1
  Ni  Ni1  1  0.876620  0.818063  0.520769  1
  Ni  Ni2  1  0.366996  0.191349  0.972457  1
  Ni  Ni3  1  0.126225  0.179727  0.474356  1
  Ni  Ni4  1  0.002553  0.000696  0.998929  1
  Ni  Ni5  1  0.500417  0.995411  0.500081  1
  P  P6  1  0.559282  0.604676  0.795720  1
  P  P7  1  0.204887  0.888655  0.306924  1
  P  P8  1  0.435476  0.384931  0.208781  1
  P  P9  1  0.055065  0.392724  0.699252  1
  P  P10  1  0.701097  0.120378  0.195086  1
  P  P11  1  0.800566  0.111618  0.689307  1
  P  P12  1  0.296876  0.896276  0.803419  1
  P  P13  1  0.953128  0.605440  0.300601  1
  Pb  Pb14  1  0.493395  0.492234  0.506919  1
  Pb  Pb15  1  0.001485  0.502614  0.996472  1
  O  O16  1  0.110743  0.267082  0.863913  1
  O  O17  1  0.870935  0.318178  0.671254  1
  O  O18  1  0.626811  0.150665  0.611128  1
  O  O19  1  0.384961  0.692858  0.832158  1
  O  O20  1  0.901069  0.732820  0.135527  1
  O  O21  1  0.127014  0.847651  0.885240  1
  O  O22  1  0.457941  0.584099  0.208173  1
  O  O23  1  0.413550  0.997816  0.876491  1
  O  O24  1  0.566559  0.050128  0.112602  1
  O  O25  1  0.377134  0.846989  0.386938  1
  O  O26  1  0.689824  0.606038  0.912655  1
  O  O27  1  0.925579  0.028542  0.606688  1
  O  O28  1  0.136300  0.681402  0.327716  1
  O  O29  1  0.828352  0.631997  0.412559  1
  O  O30  1  0.289265  0.990300  0.631553  1
  O  O31  1  0.177797  0.365189  0.585852  1
  O  O32  1  0.628706  0.322948  0.188917  1
  O  O33  1  0.375955  0.250740  0.367531  1
  O  O34  1  0.616184  0.732873  0.633765  1
  O  O35  1  0.020217  0.595412  0.687652  1
  O  O36  1  0.709463  0.001896  0.364538  1
  O  O37  1  0.324035  0.370681  0.083855  1
  O  O38  1  0.799607  0.004062  0.859778  1
  O  O39  1  0.076506  0.971740  0.386892  1
  O  O40  1  0.870247  0.157684  0.111853  1
  O  O41  1  0.505562  0.409755  0.800217  1
  O  O42  1  0.988349  0.403687  0.310495  1
  O  O43  1  0.208402  0.996721  0.135583  1
