# generated using pymatgen
data_Nd12Co3PtBr12
_symmetry_space_group_name_H-M   'P 1'
_cell_length_a   10.39944452
_cell_length_b   10.39944389
_cell_length_c   10.39944303
_cell_angle_alpha   109.73655091
_cell_angle_beta   109.73654155
_cell_angle_gamma   109.73654022
_symmetry_Int_Tables_number   1
_chemical_formula_structural   Nd12Co3PtBr12
_chemical_formula_sum   'Nd12 Co3 Pt1 Br12'
_cell_volume   857.17146428
_cell_formula_units_Z   1
loop_
 _symmetry_equiv_pos_site_id
 _symmetry_equiv_pos_as_xyz
  1  'x, y, z'
loop_
 _atom_site_type_symbol
 _atom_site_label
 _atom_site_symmetry_multiplicity
 _atom_site_fract_x
 _atom_site_fract_y
 _atom_site_fract_z
 _atom_site_occupancy
  Nd  Nd0  1  0.466559  0.490435  0.226836  1
  Nd  Nd1  1  0.750000  0.231018  0.268982  1
  Nd  Nd2  1  0.750000  0.018047  0.481953  1
  Nd  Nd3  1  0.226836  0.466559  0.490435  1
  Nd  Nd4  1  0.268982  0.750000  0.231018  1
  Nd  Nd5  1  0.033441  0.273164  0.009565  1
  Nd  Nd6  1  0.009565  0.033441  0.273164  1
  Nd  Nd7  1  0.481953  0.750000  0.018047  1
  Nd  Nd8  1  0.490435  0.226836  0.466559  1
  Nd  Nd9  1  0.018047  0.481953  0.750000  1
  Nd  Nd10  1  0.273164  0.009565  0.033441  1
  Nd  Nd11  1  0.231018  0.268982  0.750000  1
  Co  Co12  1  0.500583  0.999417  0.250000  1
  Co  Co13  1  0.999417  0.250000  0.500583  1
  Co  Co14  1  0.250000  0.500583  0.999417  1
  Pt  Pt15  1  0.250000  0.250000  0.250000  1
  Br  Br16  1  0.250000  0.756953  0.743047  1
  Br  Br17  1  0.509950  0.505855  0.755914  1
  Br  Br18  1  0.990050  0.744086  0.994145  1
  Br  Br19  1  0.743047  0.250000  0.756953  1
  Br  Br20  1  0.994145  0.990050  0.744086  1
  Br  Br21  1  0.250000  0.995129  0.504871  1
  Br  Br22  1  0.755914  0.509950  0.505855  1
  Br  Br23  1  0.504871  0.250000  0.995129  1
  Br  Br24  1  0.756953  0.743047  0.250000  1
  Br  Br25  1  0.744086  0.994145  0.990050  1
  Br  Br26  1  0.995129  0.504871  0.250000  1
  Br  Br27  1  0.505855  0.755914  0.509950  1
