# generated using pymatgen
data_Ho4TcCl4
_symmetry_space_group_name_H-M   'P 1'
_cell_length_a   8.57039005
_cell_length_b   8.57038883
_cell_length_c   6.51944723
_cell_angle_alpha   89.79227509
_cell_angle_beta   89.79228857
_cell_angle_gamma   89.47364914
_symmetry_Int_Tables_number   1
_chemical_formula_structural   Ho4TcCl4
_chemical_formula_sum   'Ho8 Tc2 Cl8'
_cell_volume   478.83722594
_cell_formula_units_Z   2
loop_
 _symmetry_equiv_pos_site_id
 _symmetry_equiv_pos_as_xyz
  1  'x, y, z'
loop_
 _atom_site_type_symbol
 _atom_site_label
 _atom_site_symmetry_multiplicity
 _atom_site_fract_x
 _atom_site_fract_y
 _atom_site_fract_z
 _atom_site_occupancy
  Ho  Ho0  1  0.104761  0.742418  0.987024  1
  Ho  Ho1  1  0.257582  0.895239  0.512976  1
  Ho  Ho2  1  0.895239  0.257582  0.012976  1
  Ho  Ho3  1  0.742418  0.104761  0.487024  1
  Ho  Ho4  1  0.743788  0.896571  0.007274  1
  Ho  Ho5  1  0.103429  0.256212  0.492726  1
  Ho  Ho6  1  0.256212  0.103429  0.992726  1
  Ho  Ho7  1  0.896571  0.743788  0.507274  1
  Tc  Tc8  1  0.007728  0.992272  0.250000  1
  Tc  Tc9  1  0.992272  0.007728  0.750000  1
  Cl  Cl10  1  0.421192  0.820468  0.900986  1
  Cl  Cl11  1  0.179532  0.578808  0.599014  1
  Cl  Cl12  1  0.578808  0.179532  0.099014  1
  Cl  Cl13  1  0.820468  0.421192  0.400986  1
  Cl  Cl14  1  0.811726  0.581628  0.901117  1
  Cl  Cl15  1  0.418372  0.188274  0.598883  1
  Cl  Cl16  1  0.188274  0.418372  0.098883  1
  Cl  Cl17  1  0.581628  0.811726  0.401117  1
