# generated using pymatgen
data_YbDyRh2O7
_symmetry_space_group_name_H-M   'P 1'
_cell_length_a   7.21235683
_cell_length_b   7.21235623
_cell_length_c   7.20064300
_cell_angle_alpha   60.05370404
_cell_angle_beta   60.05370681
_cell_angle_gamma   60.09025090
_symmetry_Int_Tables_number   1
_chemical_formula_structural   YbDyRh2O7
_chemical_formula_sum   'Yb2 Dy2 Rh4 O14'
_cell_volume   265.25192625
_cell_formula_units_Z   2
loop_
 _symmetry_equiv_pos_site_id
 _symmetry_equiv_pos_as_xyz
  1  'x, y, z'
loop_
 _atom_site_type_symbol
 _atom_site_label
 _atom_site_symmetry_multiplicity
 _atom_site_fract_x
 _atom_site_fract_y
 _atom_site_fract_z
 _atom_site_occupancy
  Yb  Yb0  1  0.125000  0.625000  0.125000  1
  Yb  Yb1  1  0.625000  0.125000  0.125000  1
  Dy  Dy2  1  0.125000  0.125000  0.625000  1
  Dy  Dy3  1  0.125000  0.125000  0.125000  1
  Rh  Rh4  1  0.625000  0.625000  0.625000  1
  Rh  Rh5  1  0.125000  0.625000  0.625000  1
  Rh  Rh6  1  0.625000  0.125000  0.625000  1
  Rh  Rh7  1  0.625000  0.625000  0.125000  1
  O  O8  1  0.293416  0.710159  0.701853  1
  O  O9  1  0.539841  0.956584  0.955428  1
  O  O10  1  0.710159  0.293416  0.701853  1
  O  O11  1  0.292367  0.292367  0.707633  1
  O  O12  1  0.704191  0.704191  0.295809  1
  O  O13  1  0.003947  0.003947  0.996053  1
  O  O14  1  0.293416  0.710159  0.294572  1
  O  O15  1  0.956584  0.539841  0.955428  1
  O  O16  1  0.957633  0.957633  0.542367  1
  O  O17  1  0.545809  0.545809  0.954191  1
  O  O18  1  0.246053  0.246053  0.253947  1
  O  O19  1  0.539841  0.956584  0.548147  1
  O  O20  1  0.710159  0.293416  0.294572  1
  O  O21  1  0.956584  0.539841  0.548147  1
