# generated using pymatgen
data_BaSc2CoH12Ir
_symmetry_space_group_name_H-M   'P 1'
_cell_length_a   4.72143600
_cell_length_b   4.72143778
_cell_length_c   8.37002200
_cell_angle_alpha   90.00000000
_cell_angle_beta   90.00000000
_cell_angle_gamma   120.00000152
_symmetry_Int_Tables_number   1
_chemical_formula_structural   BaSc2CoH12Ir
_chemical_formula_sum   'Ba1 Sc2 Co1 H12 Ir1'
_cell_volume   161.58669670
_cell_formula_units_Z   1
loop_
 _symmetry_equiv_pos_site_id
 _symmetry_equiv_pos_as_xyz
  1  'x, y, z'
loop_
 _atom_site_type_symbol
 _atom_site_label
 _atom_site_symmetry_multiplicity
 _atom_site_fract_x
 _atom_site_fract_y
 _atom_site_fract_z
 _atom_site_occupancy
  Ba  Ba0  1  0.000000  0.000000  0.978306  1
  Sc  Sc1  1  0.666667  0.333333  0.391988  1
  Sc  Sc2  1  0.333333  0.666667  0.642367  1
  Co  Co3  1  0.666667  0.333333  0.717505  1
  H  H4  1  0.161821  0.838179  0.396306  1
  H  H5  1  0.676359  0.838179  0.396306  1
  H  H6  1  0.161821  0.323641  0.396306  1
  H  H7  1  0.824860  0.175140  0.604621  1
  H  H8  1  0.350279  0.175140  0.604621  1
  H  H9  1  0.824860  0.649721  0.604621  1
  H  H10  1  0.500891  0.001779  0.826170  1
  H  H11  1  0.500891  0.499109  0.826170  1
  H  H12  1  0.998221  0.499109  0.826170  1
  H  H13  1  0.499904  0.999808  0.167795  1
  H  H14  1  0.499904  0.500096  0.167795  1
  H  H15  1  0.000192  0.500096  0.167795  1
  Ir  Ir16  1  0.333333  0.666667  0.285157  1
