# generated using pymatgen
data_Ca4PaGaRh4
_symmetry_space_group_name_H-M   'P 1'
_cell_length_a   5.85635913
_cell_length_b   5.85635834
_cell_length_c   7.84509145
_cell_angle_alpha   80.11572061
_cell_angle_beta   80.11574046
_cell_angle_gamma   61.40418800
_symmetry_Int_Tables_number   1
_chemical_formula_structural   Ca4PaGaRh4
_chemical_formula_sum   'Ca4 Pa1 Ga1 Rh4'
_cell_volume   231.48601523
_cell_formula_units_Z   1
loop_
 _symmetry_equiv_pos_site_id
 _symmetry_equiv_pos_as_xyz
  1  'x, y, z'
loop_
 _atom_site_type_symbol
 _atom_site_label
 _atom_site_symmetry_multiplicity
 _atom_site_fract_x
 _atom_site_fract_y
 _atom_site_fract_z
 _atom_site_occupancy
  Ca  Ca0  1  0.770181  0.521686  0.367796  1
  Ca  Ca1  1  0.478314  0.229819  0.132204  1
  Ca  Ca2  1  0.221956  0.469400  0.660113  1
  Ca  Ca3  1  0.530600  0.778044  0.839887  1
  Pa  Pa4  1  0.103811  0.896189  0.250000  1
  Ga  Ga5  1  0.903705  0.096295  0.750000  1
  Rh  Rh6  1  0.000379  0.737351  0.014088  1
  Rh  Rh7  1  0.262649  0.999621  0.485912  1
  Rh  Rh8  1  0.993471  0.265067  0.001214  1
  Rh  Rh9  1  0.734933  0.006529  0.498786  1
