# generated using pymatgen
data_Pr12Ga8Pd3Ru5
_symmetry_space_group_name_H-M   'P 1'
_cell_length_a   5.79010476
_cell_length_b   8.21563955
_cell_length_c   13.81475265
_cell_angle_alpha   90.08236511
_cell_angle_beta   89.53896713
_cell_angle_gamma   90.04103679
_symmetry_Int_Tables_number   1
_chemical_formula_structural   Pr12Ga8Pd3Ru5
_chemical_formula_sum   'Pr12 Ga8 Pd3 Ru5'
_cell_volume   657.13756629
_cell_formula_units_Z   1
loop_
 _symmetry_equiv_pos_site_id
 _symmetry_equiv_pos_as_xyz
  1  'x, y, z'
loop_
 _atom_site_type_symbol
 _atom_site_label
 _atom_site_symmetry_multiplicity
 _atom_site_fract_x
 _atom_site_fract_y
 _atom_site_fract_z
 _atom_site_occupancy
  Pr  Pr0  1  0.145521  0.892406  0.596820  1
  Pr  Pr1  1  0.852662  0.108370  0.094550  1
  Pr  Pr2  1  0.146445  0.609013  0.404054  1
  Pr  Pr3  1  0.849893  0.401036  0.902667  1
  Pr  Pr4  1  0.858798  0.094053  0.399810  1
  Pr  Pr5  1  0.144698  0.897906  0.899200  1
  Pr  Pr6  1  0.859252  0.406177  0.601561  1
  Pr  Pr7  1  0.150436  0.593502  0.095770  1
  Pr  Pr8  1  0.369214  0.263306  0.753312  1
  Pr  Pr9  1  0.637149  0.741097  0.246723  1
  Pr  Pr10  1  0.370107  0.243634  0.252259  1
  Pr  Pr11  1  0.628028  0.753333  0.754578  1
  Ga  Ga12  1  0.863600  0.106558  0.752348  1
  Ga  Ga13  1  0.139557  0.892203  0.250218  1
  Ga  Ga14  1  0.867279  0.392285  0.248376  1
  Ga  Ga15  1  0.137437  0.606519  0.749384  1
  Ga  Ga16  1  0.357620  0.250055  0.500921  1
  Ga  Ga17  1  0.630327  0.746122  0.998523  1
  Ga  Ga18  1  0.624846  0.751121  0.499452  1
  Ga  Ga19  1  0.376847  0.252570  0.997218  1
  Pd  Pd20  1  0.637670  0.036067  0.593922  1
  Pd  Pd21  1  0.360505  0.969088  0.092565  1
  Pd  Pd22  1  0.639705  0.463267  0.407492  1
  Ru  Ru23  1  0.355731  0.534716  0.907350  1
  Ru  Ru24  1  0.356254  0.973591  0.409400  1
  Ru  Ru25  1  0.643919  0.025028  0.910143  1
  Ru  Ru26  1  0.356071  0.528563  0.588030  1
  Ru  Ru27  1  0.640428  0.468413  0.093354  1
