# generated using pymatgen
data_K2Yb3Nb2O9
_symmetry_space_group_name_H-M   'P 1'
_cell_length_a   8.60160454
_cell_length_b   8.60160449
_cell_length_c   8.60160500
_cell_angle_alpha   38.80278441
_cell_angle_beta   38.80278481
_cell_angle_gamma   38.80279051
_symmetry_Int_Tables_number   1
_chemical_formula_structural   K2Yb3Nb2O9
_chemical_formula_sum   'K2 Yb3 Nb2 O9'
_cell_volume   224.66142067
_cell_formula_units_Z   1
loop_
 _symmetry_equiv_pos_site_id
 _symmetry_equiv_pos_as_xyz
  1  'x, y, z'
loop_
 _atom_site_type_symbol
 _atom_site_label
 _atom_site_symmetry_multiplicity
 _atom_site_fract_x
 _atom_site_fract_y
 _atom_site_fract_z
 _atom_site_occupancy
  K  K0  1  0.207718  0.207718  0.207718  1
  K  K1  1  0.792282  0.792282  0.792282  1
  Yb  Yb2  1  0.369943  0.369943  0.369943  1
  Yb  Yb3  1  0.500000  0.500000  0.500000  1
  Yb  Yb4  1  0.630057  0.630057  0.630057  1
  Nb  Nb5  1  0.063684  0.063684  0.063684  1
  Nb  Nb6  1  0.936316  0.936316  0.936316  1
  O  O7  1  0.224162  0.312961  0.774810  1
  O  O8  1  0.687039  0.775838  0.225190  1
  O  O9  1  0.774810  0.224162  0.312961  1
  O  O10  1  0.225190  0.687039  0.775838  1
  O  O11  1  0.312961  0.774810  0.224162  1
  O  O12  1  0.270001  0.000000  0.729999  1
  O  O13  1  0.729999  0.270001  0.000000  1
  O  O14  1  0.000000  0.729999  0.270001  1
  O  O15  1  0.775838  0.225190  0.687039  1
