# generated using pymatgen
data_Nd3Zr7(Si5Ir2)4
_symmetry_space_group_name_H-M   'P 1'
_cell_length_a   12.51803700
_cell_length_b   12.51803664
_cell_length_c   4.17856600
_cell_angle_alpha   90.00000000
_cell_angle_beta   90.00000000
_cell_angle_gamma   90.20309364
_symmetry_Int_Tables_number   1
_chemical_formula_structural   Nd3Zr7(Si5Ir2)4
_chemical_formula_sum   'Nd3 Zr7 Si20 Ir8'
_cell_volume   654.78238451
_cell_formula_units_Z   1
loop_
 _symmetry_equiv_pos_site_id
 _symmetry_equiv_pos_as_xyz
  1  'x, y, z'
loop_
 _atom_site_type_symbol
 _atom_site_label
 _atom_site_symmetry_multiplicity
 _atom_site_fract_x
 _atom_site_fract_y
 _atom_site_fract_z
 _atom_site_occupancy
  Nd  Nd0  1  0.116181  0.616053  0.500000  1
  Nd  Nd1  1  0.883947  0.383819  0.500000  1
  Nd  Nd2  1  0.614696  0.885304  0.500000  1
  Zr  Zr3  1  0.383370  0.116630  0.500000  1
  Zr  Zr4  1  0.673809  0.176306  0.500000  1
  Zr  Zr5  1  0.323694  0.826191  0.500000  1
  Zr  Zr6  1  0.178663  0.321337  0.500000  1
  Zr  Zr7  1  0.824111  0.675889  0.500000  1
  Zr  Zr8  1  0.000279  0.999796  0.000000  1
  Zr  Zr9  1  0.500204  0.499721  0.000000  1
  Si  Si10  1  0.565594  0.068197  0.000000  1
  Si  Si11  1  0.431803  0.934406  0.000000  1
  Si  Si12  1  0.069073  0.430927  0.000000  1
  Si  Si13  1  0.931897  0.568103  0.000000  1
  Si  Si14  1  0.202972  0.162117  0.000000  1
  Si  Si15  1  0.799802  0.836970  0.000000  1
  Si  Si16  1  0.164095  0.801867  0.000000  1
  Si  Si17  1  0.698133  0.335905  0.000000  1
  Si  Si18  1  0.836386  0.200195  0.000000  1
  Si  Si19  1  0.299805  0.663614  0.000000  1
  Si  Si20  1  0.663030  0.700198  0.000000  1
  Si  Si21  1  0.337883  0.297028  0.000000  1
  Si  Si22  1  0.009519  0.151544  0.500000  1
  Si  Si23  1  0.991327  0.848180  0.500000  1
  Si  Si24  1  0.154631  0.994411  0.500000  1
  Si  Si25  1  0.505589  0.345369  0.500000  1
  Si  Si26  1  0.847701  0.010513  0.500000  1
  Si  Si27  1  0.489487  0.652299  0.500000  1
  Si  Si28  1  0.651820  0.508673  0.500000  1
  Si  Si29  1  0.348456  0.490481  0.500000  1
  Ir  Ir30  1  0.024997  0.239984  0.000000  1
  Ir  Ir31  1  0.977149  0.759500  0.000000  1
  Ir  Ir32  1  0.244893  0.979398  0.000000  1
  Ir  Ir33  1  0.520602  0.255107  0.000000  1
  Ir  Ir34  1  0.757659  0.023778  0.000000  1
  Ir  Ir35  1  0.476222  0.742341  0.000000  1
  Ir  Ir36  1  0.740500  0.522851  0.000000  1
  Ir  Ir37  1  0.260016  0.475003  0.000000  1
