# generated using pymatgen
data_Tb5CoPd2
_symmetry_space_group_name_H-M   'P 1'
_cell_length_a   8.07227700
_cell_length_b   8.19868000
_cell_length_c   11.77853300
_cell_angle_alpha   90.00000000
_cell_angle_beta   90.00000000
_cell_angle_gamma   90.00000000
_symmetry_Int_Tables_number   1
_chemical_formula_structural   Tb5CoPd2
_chemical_formula_sum   'Tb20 Co4 Pd8'
_cell_volume   779.52705940
_cell_formula_units_Z   4
loop_
 _symmetry_equiv_pos_site_id
 _symmetry_equiv_pos_as_xyz
  1  'x, y, z'
loop_
 _atom_site_type_symbol
 _atom_site_label
 _atom_site_symmetry_multiplicity
 _atom_site_fract_x
 _atom_site_fract_y
 _atom_site_fract_z
 _atom_site_occupancy
  Tb  Tb0  1  0.164616  0.750000  0.212338  1
  Tb  Tb1  1  0.664616  0.250000  0.287662  1
  Tb  Tb2  1  0.835384  0.250000  0.787662  1
  Tb  Tb3  1  0.335384  0.750000  0.712338  1
  Tb  Tb4  1  0.462419  0.750000  0.004441  1
  Tb  Tb5  1  0.962419  0.250000  0.495559  1
  Tb  Tb6  1  0.537581  0.250000  0.995559  1
  Tb  Tb7  1  0.037581  0.750000  0.504441  1
  Tb  Tb8  1  0.625508  0.750000  0.303672  1
  Tb  Tb9  1  0.125508  0.250000  0.196328  1
  Tb  Tb10  1  0.374492  0.250000  0.696328  1
  Tb  Tb11  1  0.874492  0.750000  0.803672  1
  Tb  Tb12  1  0.828279  0.965158  0.079453  1
  Tb  Tb13  1  0.328279  0.034842  0.420547  1
  Tb  Tb14  1  0.171721  0.465158  0.920547  1
  Tb  Tb15  1  0.671721  0.534842  0.579453  1
  Tb  Tb16  1  0.171721  0.034842  0.920547  1
  Tb  Tb17  1  0.671721  0.965158  0.579453  1
  Tb  Tb18  1  0.828279  0.534842  0.079453  1
  Tb  Tb19  1  0.328279  0.465158  0.420547  1
  Co  Co20  1  0.437807  0.750000  0.493949  1
  Co  Co21  1  0.937807  0.250000  0.006051  1
  Co  Co22  1  0.562193  0.250000  0.506051  1
  Co  Co23  1  0.062193  0.750000  0.993949  1
  Pd  Pd24  1  0.932606  0.980141  0.328488  1
  Pd  Pd25  1  0.432606  0.019859  0.171512  1
  Pd  Pd26  1  0.067394  0.480141  0.671512  1
  Pd  Pd27  1  0.567394  0.519859  0.828488  1
  Pd  Pd28  1  0.067394  0.019859  0.671512  1
  Pd  Pd29  1  0.567394  0.980141  0.828488  1
  Pd  Pd30  1  0.932606  0.519859  0.328488  1
  Pd  Pd31  1  0.432606  0.480141  0.171512  1
