# generated using pymatgen
data_NaSr2Pr(Si5Pt3)2
_symmetry_space_group_name_H-M   'P 1'
_cell_length_a   8.35869312
_cell_length_b   8.36693253
_cell_length_c   8.36693283
_cell_angle_alpha   138.07848500
_cell_angle_beta   105.12151550
_cell_angle_gamma   89.73211794
_symmetry_Int_Tables_number   1
_chemical_formula_structural   NaSr2Pr(Si5Pt3)2
_chemical_formula_sum   'Na1 Sr2 Pr1 Si10 Pt6'
_cell_volume   360.76843722
_cell_formula_units_Z   1
loop_
 _symmetry_equiv_pos_site_id
 _symmetry_equiv_pos_as_xyz
  1  'x, y, z'
loop_
 _atom_site_type_symbol
 _atom_site_label
 _atom_site_symmetry_multiplicity
 _atom_site_fract_x
 _atom_site_fract_y
 _atom_site_fract_z
 _atom_site_occupancy
  Na  Na0  1  0.864708  0.628624  0.236084  1
  Sr  Sr1  1  0.134507  0.369471  0.765036  1
  Sr  Sr2  1  0.392820  0.128238  0.264582  1
  Pr  Pr3  1  0.605111  0.871499  0.733612  1
  Si  Si4  1  0.501011  0.747132  0.248922  1
  Si  Si5  1  0.501011  0.252088  0.753878  1
  Si  Si6  1  0.227969  0.979181  0.747496  1
  Si  Si7  1  0.772555  0.522747  0.753389  1
  Si  Si8  1  0.772555  0.019165  0.249807  1
  Si  Si9  1  0.227969  0.480473  0.248788  1
  Si  Si10  1  0.033948  0.884280  0.149669  1
  Si  Si11  1  0.962047  0.112261  0.849786  1
  Si  Si12  1  0.743376  0.392054  0.351322  1
  Si  Si13  1  0.260042  0.612677  0.647364  1
  Pt  Pt14  1  0.999511  0.752926  0.751877  1
  Pt  Pt15  1  0.999511  0.247634  0.246585  1
  Pt  Pt16  1  0.252187  0.864001  0.388186  1
  Pt  Pt17  1  0.745600  0.134314  0.611285  1
  Pt  Pt18  1  0.479450  0.364596  0.114853  1
  Pt  Pt19  1  0.524117  0.636640  0.887477  1
