# generated using pymatgen
data_NdHo3Ir2(RhO7)2
_symmetry_space_group_name_H-M   'P 1'
_cell_length_a   7.29946340
_cell_length_b   7.29937089
_cell_length_c   7.29946284
_cell_angle_alpha   59.35631632
_cell_angle_beta   59.42832045
_cell_angle_gamma   59.35631977
_symmetry_Int_Tables_number   1
_chemical_formula_structural   NdHo3Ir2(RhO7)2
_chemical_formula_sum   'Nd1 Ho3 Ir2 Rh2 O14'
_cell_volume   271.13349495
_cell_formula_units_Z   1
loop_
 _symmetry_equiv_pos_site_id
 _symmetry_equiv_pos_as_xyz
  1  'x, y, z'
loop_
 _atom_site_type_symbol
 _atom_site_label
 _atom_site_symmetry_multiplicity
 _atom_site_fract_x
 _atom_site_fract_y
 _atom_site_fract_z
 _atom_site_occupancy
  Nd  Nd0  1  0.125000  0.125000  0.125000  1
  Ho  Ho1  1  0.625000  0.125000  0.125000  1
  Ho  Ho2  1  0.125000  0.625000  0.125000  1
  Ho  Ho3  1  0.125000  0.125000  0.625000  1
  Ir  Ir4  1  0.625000  0.125000  0.625000  1
  Ir  Ir5  1  0.625000  0.625000  0.625000  1
  Rh  Rh6  1  0.125000  0.625000  0.625000  1
  Rh  Rh7  1  0.625000  0.625000  0.125000  1
  O  O8  1  0.708328  0.714868  0.291270  1
  O  O9  1  0.292046  0.286311  0.699135  1
  O  O10  1  0.708803  0.291630  0.708803  1
  O  O11  1  0.284682  0.706426  0.284682  1
  O  O12  1  0.291270  0.714868  0.708328  1
  O  O13  1  0.699135  0.286311  0.292046  1
  O  O14  1  0.541672  0.535132  0.958730  1
  O  O15  1  0.957954  0.963689  0.550865  1
  O  O16  1  0.541197  0.958370  0.541197  1
  O  O17  1  0.965318  0.543574  0.965318  1
  O  O18  1  0.958730  0.535132  0.541672  1
  O  O19  1  0.550865  0.963689  0.957954  1
  O  O20  1  0.254513  0.252014  0.254513  1
  O  O21  1  0.995487  0.997986  0.995487  1
