# generated using pymatgen
data_Ho9Zn4
_symmetry_space_group_name_H-M   'P 1'
_cell_length_a   8.47511830
_cell_length_b   8.47511857
_cell_length_c   8.47518625
_cell_angle_alpha   94.94153472
_cell_angle_beta   94.96177065
_cell_angle_gamma   145.82935271
_symmetry_Int_Tables_number   1
_chemical_formula_structural   Ho9Zn4
_chemical_formula_sum   'Ho9 Zn4'
_cell_volume   326.82281025
_cell_formula_units_Z   1
loop_
 _symmetry_equiv_pos_site_id
 _symmetry_equiv_pos_as_xyz
  1  'x, y, z'
loop_
 _atom_site_type_symbol
 _atom_site_label
 _atom_site_symmetry_multiplicity
 _atom_site_fract_x
 _atom_site_fract_y
 _atom_site_fract_z
 _atom_site_occupancy
  Ho  Ho0  1  0.499999  0.499999  0.000000  1
  Ho  Ho1  1  0.182135  0.888373  0.070509  1
  Ho  Ho2  1  0.111625  0.182133  0.293758  1
  Ho  Ho3  1  0.882412  0.401663  0.284077  1
  Ho  Ho4  1  0.598361  0.882434  0.480797  1
  Ho  Ho5  1  0.401638  0.117565  0.519202  1
  Ho  Ho6  1  0.117587  0.598336  0.715923  1
  Ho  Ho7  1  0.888374  0.817866  0.706242  1
  Ho  Ho8  1  0.817864  0.111626  0.929491  1
  Zn  Zn9  1  0.392005  0.735207  0.127214  1
  Zn  Zn10  1  0.735170  0.607999  0.343172  1
  Zn  Zn11  1  0.264829  0.392000  0.656828  1
  Zn  Zn12  1  0.607994  0.264792  0.872786  1
