# generated using pymatgen
data_YHo3(MoOs3)2
_symmetry_space_group_name_H-M   'P 1'
_cell_length_a   5.47540900
_cell_length_b   5.47540763
_cell_length_c   8.55737600
_cell_angle_alpha   90.00000000
_cell_angle_beta   90.00000000
_cell_angle_gamma   120.00000222
_symmetry_Int_Tables_number   1
_chemical_formula_structural   YHo3(MoOs3)2
_chemical_formula_sum   'Y1 Ho3 Mo2 Os6'
_cell_volume   222.17964026
_cell_formula_units_Z   1
loop_
 _symmetry_equiv_pos_site_id
 _symmetry_equiv_pos_as_xyz
  1  'x, y, z'
loop_
 _atom_site_type_symbol
 _atom_site_label
 _atom_site_symmetry_multiplicity
 _atom_site_fract_x
 _atom_site_fract_y
 _atom_site_fract_z
 _atom_site_occupancy
  Y  Y0  1  0.333333  0.666667  0.065191  1
  Ho  Ho1  1  0.333333  0.666667  0.435951  1
  Ho  Ho2  1  0.666667  0.333333  0.564734  1
  Ho  Ho3  1  0.666667  0.333333  0.934990  1
  Mo  Mo4  1  0.000000  0.000000  0.499845  1
  Mo  Mo5  1  0.000000  0.000000  0.999701  1
  Os  Os6  1  0.827156  0.172844  0.250522  1
  Os  Os7  1  0.827156  0.654312  0.250522  1
  Os  Os8  1  0.345688  0.172844  0.250522  1
  Os  Os9  1  0.172632  0.827368  0.749341  1
  Os  Os10  1  0.172632  0.345264  0.749341  1
  Os  Os11  1  0.654736  0.827368  0.749341  1
