# generated using pymatgen
data_Nd3Y(ScPt)4
_symmetry_space_group_name_H-M   'P 1'
_cell_length_a   4.69574900
_cell_length_b   7.10386101
_cell_length_c   8.52877303
_cell_angle_alpha   90.11829586
_cell_angle_beta   90.00000000
_cell_angle_gamma   90.00000000
_symmetry_Int_Tables_number   1
_chemical_formula_structural   Nd3Y(ScPt)4
_chemical_formula_sum   'Nd3 Y1 Sc4 Pt4'
_cell_volume   284.50176281
_cell_formula_units_Z   1
loop_
 _symmetry_equiv_pos_site_id
 _symmetry_equiv_pos_as_xyz
  1  'x, y, z'
loop_
 _atom_site_type_symbol
 _atom_site_label
 _atom_site_symmetry_multiplicity
 _atom_site_fract_x
 _atom_site_fract_y
 _atom_site_fract_z
 _atom_site_occupancy
  Nd  Nd0  1  0.250000  0.516711  0.819574  1
  Nd  Nd1  1  0.750000  0.983033  0.322852  1
  Nd  Nd2  1  0.750000  0.483413  0.178165  1
  Y  Y3  1  0.250000  0.018924  0.679070  1
  Sc  Sc4  1  0.250000  0.139375  0.070222  1
  Sc  Sc5  1  0.250000  0.639261  0.429640  1
  Sc  Sc6  1  0.750000  0.861067  0.922849  1
  Sc  Sc7  1  0.750000  0.358805  0.573538  1
  Pt  Pt8  1  0.250000  0.261346  0.409259  1
  Pt  Pt9  1  0.250000  0.763759  0.094953  1
  Pt  Pt10  1  0.750000  0.740157  0.598300  1
  Pt  Pt11  1  0.750000  0.234148  0.901577  1
