# generated using pymatgen
data_Lu8B24RuRh2W
_symmetry_space_group_name_H-M   'P 1'
_cell_length_a   3.59382500
_cell_length_b   9.06581214
_cell_length_c   11.44097565
_cell_angle_alpha   90.34786000
_cell_angle_beta   90.00000000
_cell_angle_gamma   90.00000000
_symmetry_Int_Tables_number   1
_chemical_formula_structural   Lu8B24RuRh2W
_chemical_formula_sum   'Lu8 B24 Ru1 Rh2 W1'
_cell_volume   372.75089743
_cell_formula_units_Z   1
loop_
 _symmetry_equiv_pos_site_id
 _symmetry_equiv_pos_as_xyz
  1  'x, y, z'
loop_
 _atom_site_type_symbol
 _atom_site_label
 _atom_site_symmetry_multiplicity
 _atom_site_fract_x
 _atom_site_fract_y
 _atom_site_fract_z
 _atom_site_occupancy
  Lu  Lu0  1  0.500000  0.320086  0.413870  1
  Lu  Lu1  1  0.500000  0.682155  0.589466  1
  Lu  Lu2  1  0.500000  0.176528  0.915609  1
  Lu  Lu3  1  0.500000  0.823165  0.083135  1
  Lu  Lu4  1  0.500000  0.441649  0.127703  1
  Lu  Lu5  1  0.500000  0.554984  0.874269  1
  Lu  Lu6  1  0.500000  0.055181  0.625604  1
  Lu  Lu7  1  0.500000  0.945120  0.371072  1
  B  B8  1  0.000000  0.106481  0.470287  1
  B  B9  1  0.000000  0.894549  0.526747  1
  B  B10  1  0.000000  0.394274  0.971644  1
  B  B11  1  0.000000  0.602636  0.030294  1
  B  B12  1  0.000000  0.132119  0.316031  1
  B  B13  1  0.000000  0.868401  0.681647  1
  B  B14  1  0.000000  0.367005  0.816842  1
  B  B15  1  0.000000  0.631959  0.182863  1
  B  B16  1  0.000000  0.054380  0.067694  1
  B  B17  1  0.000000  0.949405  0.936557  1
  B  B18  1  0.000000  0.446948  0.565139  1
  B  B19  1  0.000000  0.553799  0.434802  1
  B  B20  1  0.000000  0.481438  0.288518  1
  B  B21  1  0.000000  0.517757  0.711395  1
  B  B22  1  0.000000  0.022083  0.786162  1
  B  B23  1  0.000000  0.982610  0.213333  1
  B  B24  1  0.000000  0.248723  0.080704  1
  B  B25  1  0.000000  0.747953  0.922599  1
  B  B26  1  0.000000  0.250807  0.578019  1
  B  B27  1  0.000000  0.749743  0.421122  1
  B  B28  1  0.000000  0.293264  0.235731  1
  B  B29  1  0.000000  0.703142  0.762998  1
  B  B30  1  0.000000  0.207940  0.734762  1
  B  B31  1  0.000000  0.792494  0.263160  1
  Ru  Ru32  1  0.500000  0.139726  0.180602  1
  Rh  Rh33  1  0.500000  0.361563  0.678546  1
  Rh  Rh34  1  0.500000  0.638080  0.320744  1
  W  W35  1  0.500000  0.861850  0.820329  1
