# generated using pymatgen
data_LaNdPa2(Ge2Ir)4
_symmetry_space_group_name_H-M   'P 1'
_cell_length_a   9.58330528
_cell_length_b   9.58330629
_cell_length_c   9.58330616
_cell_angle_alpha   153.35777417
_cell_angle_beta   125.57085375
_cell_angle_gamma   61.60592521
_symmetry_Int_Tables_number   1
_chemical_formula_structural   LaNdPa2(Ge2Ir)4
_chemical_formula_sum   'La1 Nd1 Pa2 Ge8 Ir4'
_cell_volume   318.63086303
_cell_formula_units_Z   1
loop_
 _symmetry_equiv_pos_site_id
 _symmetry_equiv_pos_as_xyz
  1  'x, y, z'
loop_
 _atom_site_type_symbol
 _atom_site_label
 _atom_site_symmetry_multiplicity
 _atom_site_fract_x
 _atom_site_fract_y
 _atom_site_fract_z
 _atom_site_occupancy
  La  La0  1  0.736992  0.000000  0.736992  1
  Nd  Nd1  1  0.263430  0.000000  0.263430  1
  Pa  Pa2  1  0.707685  0.207796  0.499889  1
  Pa  Pa3  1  0.292094  0.792204  0.499889  1
  Ge  Ge4  1  0.422225  0.422968  0.999257  1
  Ge  Ge5  1  0.576289  0.577032  0.999257  1
  Ge  Ge6  1  0.924197  0.423320  0.500877  1
  Ge  Ge7  1  0.077558  0.576680  0.500877  1
  Ge  Ge8  1  0.044600  0.197948  0.846653  1
  Ge  Ge9  1  0.955817  0.802407  0.153408  1
  Ge  Ge10  1  0.648705  0.802052  0.846653  1
  Ge  Ge11  1  0.351001  0.197593  0.153408  1
  Ir  Ir12  1  0.097082  0.348283  0.748799  1
  Ir  Ir13  1  0.902867  0.651961  0.250906  1
  Ir  Ir14  1  0.400514  0.651717  0.748799  1
  Ir  Ir15  1  0.598946  0.348039  0.250906  1
