# generated using pymatgen
data_Dy4TcOs6Ru
_symmetry_space_group_name_H-M   'P 1'
_cell_length_a   5.24794576
_cell_length_b   5.24794703
_cell_length_c   9.02338830
_cell_angle_alpha   89.97381378
_cell_angle_beta   90.02618732
_cell_angle_gamma   118.64665892
_symmetry_Int_Tables_number   1
_chemical_formula_structural   Dy4TcOs6Ru
_chemical_formula_sum   'Dy4 Tc1 Os6 Ru1'
_cell_volume   218.09285952
_cell_formula_units_Z   1
loop_
 _symmetry_equiv_pos_site_id
 _symmetry_equiv_pos_as_xyz
  1  'x, y, z'
loop_
 _atom_site_type_symbol
 _atom_site_label
 _atom_site_symmetry_multiplicity
 _atom_site_fract_x
 _atom_site_fract_y
 _atom_site_fract_z
 _atom_site_occupancy
  Dy  Dy0  1  0.330827  0.669173  0.436335  1
  Dy  Dy1  1  0.666116  0.333884  0.565774  1
  Dy  Dy2  1  0.665794  0.334206  0.934781  1
  Dy  Dy3  1  0.330881  0.669119  0.063865  1
  Tc  Tc4  1  0.833969  0.166031  0.249420  1
  Os  Os5  1  0.994477  0.005523  0.999516  1
  Os  Os6  1  0.828216  0.654788  0.249246  1
  Os  Os7  1  0.345212  0.171784  0.249246  1
  Os  Os8  1  0.175229  0.824771  0.750921  1
  Os  Os9  1  0.170785  0.336233  0.750569  1
  Os  Os10  1  0.663767  0.829215  0.750569  1
  Ru  Ru11  1  0.994729  0.005271  0.499758  1
