# generated using pymatgen
data_Mo2(OsRu)3
_symmetry_space_group_name_H-M   'P 1'
_cell_length_a   5.53553400
_cell_length_b   5.53553394
_cell_length_c   4.38224000
_cell_angle_alpha   90.00000000
_cell_angle_beta   90.00000000
_cell_angle_gamma   120.00000035
_symmetry_Int_Tables_number   1
_chemical_formula_structural   Mo2(OsRu)3
_chemical_formula_sum   'Mo2 Os3 Ru3'
_cell_volume   116.29092620
_cell_formula_units_Z   1
loop_
 _symmetry_equiv_pos_site_id
 _symmetry_equiv_pos_as_xyz
  1  'x, y, z'
loop_
 _atom_site_type_symbol
 _atom_site_label
 _atom_site_symmetry_multiplicity
 _atom_site_fract_x
 _atom_site_fract_y
 _atom_site_fract_z
 _atom_site_occupancy
  Mo  Mo0  1  0.666667  0.333333  0.250000  1
  Mo  Mo1  1  0.333333  0.666667  0.750000  1
  Os  Os2  1  0.833536  0.166464  0.750000  1
  Os  Os3  1  0.332929  0.166464  0.750000  1
  Os  Os4  1  0.833536  0.667071  0.750000  1
  Ru  Ru5  1  0.166831  0.833169  0.250000  1
  Ru  Ru6  1  0.666337  0.833169  0.250000  1
  Ru  Ru7  1  0.166831  0.333663  0.250000  1
