# generated using pymatgen
data_Ce5PrNd2(Si3Rh4)2
_symmetry_space_group_name_H-M   'P 1'
_cell_length_a   10.68378216
_cell_length_b   10.70700210
_cell_length_c   7.97174925
_cell_angle_alpha   69.73182054
_cell_angle_beta   69.73192249
_cell_angle_gamma   30.93589620
_symmetry_Int_Tables_number   1
_chemical_formula_structural   Ce5PrNd2(Si3Rh4)2
_chemical_formula_sum   'Ce5 Pr1 Nd2 Si6 Rh8'
_cell_volume   437.45908096
_cell_formula_units_Z   1
loop_
 _symmetry_equiv_pos_site_id
 _symmetry_equiv_pos_as_xyz
  1  'x, y, z'
loop_
 _atom_site_type_symbol
 _atom_site_label
 _atom_site_symmetry_multiplicity
 _atom_site_fract_x
 _atom_site_fract_y
 _atom_site_fract_z
 _atom_site_occupancy
  Ce  Ce0  1  0.556049  0.779875  0.103341  1
  Ce  Ce1  1  0.786504  0.082835  0.166863  1
  Ce  Ce2  1  0.924397  0.205782  0.329442  1
  Ce  Ce3  1  0.216216  0.916182  0.834086  1
  Ce  Ce4  1  0.080214  0.790766  0.668071  1
  Pr  Pr5  1  0.206949  0.454727  0.398052  1
  Nd  Nd6  1  0.795019  0.541440  0.602964  1
  Nd  Nd7  1  0.448939  0.209973  0.898499  1
  Si  Si8  1  0.946628  0.708385  0.060791  1
  Si  Si9  1  0.299604  0.049390  0.434334  1
  Si  Si10  1  0.057494  0.290029  0.937580  1
  Si  Si11  1  0.707713  0.949576  0.559860  1
  Si  Si12  1  0.644714  0.355598  0.749435  1
  Si  Si13  1  0.351996  0.647619  0.249922  1
  Rh  Rh14  1  0.581380  0.299240  0.514264  1
  Rh  Rh15  1  0.701812  0.421304  0.988226  1
  Rh  Rh16  1  0.420985  0.703858  0.478836  1
  Rh  Rh17  1  0.295462  0.584836  0.011813  1
  Rh  Rh18  1  0.639335  0.926438  0.316964  1
  Rh  Rh19  1  0.062294  0.369866  0.185769  1
  Rh  Rh20  1  0.372664  0.059520  0.685381  1
  Rh  Rh21  1  0.903631  0.652760  0.825508  1
