# generated using pymatgen
data_Lu12Ga3Tc2
_symmetry_space_group_name_H-M   'P 1'
_cell_length_a   8.19728370
_cell_length_b   8.19734004
_cell_length_c   8.19728526
_cell_angle_alpha   110.08367491
_cell_angle_beta   110.14209215
_cell_angle_gamma   108.19511384
_symmetry_Int_Tables_number   1
_chemical_formula_structural   Lu12Ga3Tc2
_chemical_formula_sum   'Lu12 Ga3 Tc2'
_cell_volume   423.86862985
_cell_formula_units_Z   1
loop_
 _symmetry_equiv_pos_site_id
 _symmetry_equiv_pos_as_xyz
  1  'x, y, z'
loop_
 _atom_site_type_symbol
 _atom_site_label
 _atom_site_symmetry_multiplicity
 _atom_site_fract_x
 _atom_site_fract_y
 _atom_site_fract_z
 _atom_site_occupancy
  Lu  Lu0  1  0.318477  0.318564  0.637151  1
  Lu  Lu1  1  0.681523  0.681436  0.362849  1
  Lu  Lu2  1  0.318589  0.681436  0.999914  1
  Lu  Lu3  1  0.681411  0.318564  0.000086  1
  Lu  Lu4  1  0.443709  0.188722  0.255013  1
  Lu  Lu5  1  0.556291  0.811278  0.744987  1
  Lu  Lu6  1  0.933709  0.188722  0.745012  1
  Lu  Lu7  1  0.188686  0.933836  0.745151  1
  Lu  Lu8  1  0.066291  0.811278  0.254988  1
  Lu  Lu9  1  0.811314  0.066164  0.254849  1
  Lu  Lu10  1  0.188691  0.443637  0.254946  1
  Lu  Lu11  1  0.811309  0.556363  0.745054  1
  Ga  Ga12  1  0.000000  0.000000  0.000000  1
  Ga  Ga13  1  0.500000  0.000000  0.500000  1
  Ga  Ga14  1  0.000000  0.500000  0.500000  1
  Tc  Tc15  1  0.335067  0.335189  0.000124  1
  Tc  Tc16  1  0.664933  0.664811  0.999876  1
