# generated using pymatgen
data_PrNdCo4(B2Ru)4
_symmetry_space_group_name_H-M   'P 1'
_cell_length_a   7.29930414
_cell_length_b   7.30151813
_cell_length_c   3.90279900
_cell_angle_alpha   90.00000000
_cell_angle_beta   90.00000000
_cell_angle_gamma   90.06383805
_symmetry_Int_Tables_number   1
_chemical_formula_structural   PrNdCo4(B2Ru)4
_chemical_formula_sum   'Pr1 Nd1 Co4 B8 Ru4'
_cell_volume   208.00345218
_cell_formula_units_Z   1
loop_
 _symmetry_equiv_pos_site_id
 _symmetry_equiv_pos_as_xyz
  1  'x, y, z'
loop_
 _atom_site_type_symbol
 _atom_site_label
 _atom_site_symmetry_multiplicity
 _atom_site_fract_x
 _atom_site_fract_y
 _atom_site_fract_z
 _atom_site_occupancy
  Pr  Pr0  1  0.500000  0.500000  0.578586  1
  Nd  Nd1  1  0.000000  0.000000  0.081673  1
  Co  Co2  1  0.622332  0.114818  0.378866  1
  Co  Co3  1  0.377668  0.885182  0.378866  1
  Co  Co4  1  0.615074  0.877718  0.878843  1
  Co  Co5  1  0.384926  0.122282  0.878843  1
  B  B6  1  0.340608  0.819093  0.881906  1
  B  B7  1  0.659392  0.180907  0.881906  1
  B  B8  1  0.317696  0.158549  0.381269  1
  B  B9  1  0.682304  0.841451  0.381269  1
  B  B10  1  0.172018  0.730764  0.597770  1
  B  B11  1  0.827982  0.269236  0.597770  1
  B  B12  1  0.228063  0.327008  0.097750  1
  B  B13  1  0.771937  0.672992  0.097750  1
  Ru  Ru14  1  0.840559  0.389936  0.101849  1
  Ru  Ru15  1  0.159441  0.610064  0.101849  1
  Ru  Ru16  1  0.890180  0.660952  0.601618  1
  Ru  Ru17  1  0.109820  0.339048  0.601618  1
