# generated using pymatgen
data_Sr4CrCuH12
_symmetry_space_group_name_H-M   'P 1'
_cell_length_a   7.58830066
_cell_length_b   7.58829989
_cell_length_c   5.51758393
_cell_angle_alpha   89.97560145
_cell_angle_beta   89.97560295
_cell_angle_gamma   137.37020418
_symmetry_Int_Tables_number   1
_chemical_formula_structural   Sr4CrCuH12
_chemical_formula_sum   'Sr4 Cr1 Cu1 H12'
_cell_volume   215.17521353
_cell_formula_units_Z   1
loop_
 _symmetry_equiv_pos_site_id
 _symmetry_equiv_pos_as_xyz
  1  'x, y, z'
loop_
 _atom_site_type_symbol
 _atom_site_label
 _atom_site_symmetry_multiplicity
 _atom_site_fract_x
 _atom_site_fract_y
 _atom_site_fract_z
 _atom_site_occupancy
  Sr  Sr0  1  0.148147  0.851853  0.500000  1
  Sr  Sr1  1  0.647391  0.352609  0.000000  1
  Sr  Sr2  1  0.851853  0.148147  0.500000  1
  Sr  Sr3  1  0.352609  0.647391  0.000000  1
  Cr  Cr4  1  0.500000  0.500000  0.500000  1
  Cu  Cu5  1  0.000000  0.000000  0.000000  1
  H  H6  1  0.999699  0.500397  0.751485  1
  H  H7  1  0.499603  0.000301  0.248515  1
  H  H8  1  0.000301  0.499603  0.248515  1
  H  H9  1  0.500397  0.999699  0.751485  1
  H  H10  1  0.378194  0.621806  0.500000  1
  H  H11  1  0.887402  0.112598  0.000000  1
  H  H12  1  0.621806  0.378194  0.500000  1
  H  H13  1  0.112598  0.887402  0.000000  1
  H  H14  1  0.273510  0.273510  0.726656  1
  H  H15  1  0.726490  0.726490  0.273344  1
  H  H16  1  0.272025  0.272025  0.272255  1
  H  H17  1  0.727975  0.727975  0.727745  1
