# generated using pymatgen
data_LiTb6Co16P12Ru
_symmetry_space_group_name_H-M   'P 1'
_cell_length_a   3.71796300
_cell_length_b   10.56062100
_cell_length_c   12.25423400
_cell_angle_alpha   90.00000000
_cell_angle_beta   90.00000000
_cell_angle_gamma   90.00000000
_symmetry_Int_Tables_number   1
_chemical_formula_structural   LiTb6Co16P12Ru
_chemical_formula_sum   'Li1 Tb6 Co16 P12 Ru1'
_cell_volume   481.15022092
_cell_formula_units_Z   1
loop_
 _symmetry_equiv_pos_site_id
 _symmetry_equiv_pos_as_xyz
  1  'x, y, z'
loop_
 _atom_site_type_symbol
 _atom_site_label
 _atom_site_symmetry_multiplicity
 _atom_site_fract_x
 _atom_site_fract_y
 _atom_site_fract_z
 _atom_site_occupancy
  Li  Li0  1  0.500000  0.500000  0.153045  1
  Tb  Tb1  1  0.000000  0.500000  0.522037  1
  Tb  Tb2  1  0.500000  0.000000  0.475489  1
  Tb  Tb3  1  0.500000  0.818030  0.206204  1
  Tb  Tb4  1  0.500000  0.181970  0.206204  1
  Tb  Tb5  1  0.000000  0.682477  0.793846  1
  Tb  Tb6  1  0.000000  0.317523  0.793846  1
  Co  Co7  1  0.500000  0.500000  0.704521  1
  Co  Co8  1  0.000000  0.000000  0.296348  1
  Co  Co9  1  0.000000  0.500000  0.985483  1
  Co  Co10  1  0.500000  0.000000  0.011778  1
  Co  Co11  1  0.500000  0.331307  0.995306  1
  Co  Co12  1  0.500000  0.668693  0.995306  1
  Co  Co13  1  0.000000  0.166042  0.006600  1
  Co  Co14  1  0.000000  0.833958  0.006600  1
  Co  Co15  1  0.500000  0.295851  0.432411  1
  Co  Co16  1  0.500000  0.704149  0.432411  1
  Co  Co17  1  0.000000  0.202143  0.570878  1
  Co  Co18  1  0.000000  0.797857  0.570878  1
  Co  Co19  1  0.500000  0.880133  0.708063  1
  Co  Co20  1  0.500000  0.119867  0.708063  1
  Co  Co21  1  0.000000  0.621769  0.293270  1
  Co  Co22  1  0.000000  0.378231  0.293270  1
  P  P23  1  0.500000  0.500000  0.884780  1
  P  P24  1  0.000000  0.000000  0.117406  1
  P  P25  1  0.500000  0.500000  0.345484  1
  P  P26  1  0.000000  0.000000  0.649898  1
  P  P27  1  0.500000  0.310299  0.616279  1
  P  P28  1  0.500000  0.689701  0.616279  1
  P  P29  1  0.000000  0.190209  0.384938  1
  P  P30  1  0.000000  0.809791  0.384938  1
  P  P31  1  0.500000  0.845427  0.893343  1
  P  P32  1  0.500000  0.154573  0.893343  1
  P  P33  1  0.000000  0.654972  0.105739  1
  P  P34  1  0.000000  0.345028  0.105739  1
  Ru  Ru35  1  0.000000  0.000000  0.839976  1
