# generated using pymatgen
data_RbSc6(CI6)2
_symmetry_space_group_name_H-M   'P 1'
_cell_length_a   9.23826495
_cell_length_b   9.37321566
_cell_length_c   9.45371599
_cell_angle_alpha   72.82696033
_cell_angle_beta   72.58957342
_cell_angle_gamma   73.49066970
_symmetry_Int_Tables_number   1
_chemical_formula_structural   RbSc6(CI6)2
_chemical_formula_sum   'Rb1 Sc6 C2 I12'
_cell_volume   728.86950902
_cell_formula_units_Z   1
loop_
 _symmetry_equiv_pos_site_id
 _symmetry_equiv_pos_as_xyz
  1  'x, y, z'
loop_
 _atom_site_type_symbol
 _atom_site_label
 _atom_site_symmetry_multiplicity
 _atom_site_fract_x
 _atom_site_fract_y
 _atom_site_fract_z
 _atom_site_occupancy
  Rb  Rb0  1  0.000024  0.499994  0.999994  1
  Sc  Sc1  1  0.470497  0.103439  0.199670  1
  Sc  Sc2  1  0.748008  0.028534  0.417752  1
  Sc  Sc3  1  0.579802  0.759058  0.476958  1
  Sc  Sc4  1  0.420211  0.240944  0.523041  1
  Sc  Sc5  1  0.252000  0.971466  0.582252  1
  Sc  Sc6  1  0.529483  0.896552  0.800359  1
  C  C7  1  0.491973  0.024896  0.423736  1
  C  C8  1  0.508027  0.975109  0.576274  1
  I  I9  1  0.787473  0.146909  0.086058  1
  I  I10  1  0.573321  0.790608  0.142063  1
  I  I11  1  0.359512  0.417346  0.222767  1
  I  I12  1  0.143523  0.066240  0.294225  1
  I  I13  1  0.905939  0.728594  0.361758  1
  I  I14  1  0.705980  0.343654  0.438925  1
  I  I15  1  0.294032  0.656353  0.561062  1
  I  I16  1  0.094081  0.271406  0.638231  1
  I  I17  1  0.856461  0.933764  0.705776  1
  I  I18  1  0.640484  0.582648  0.777217  1
  I  I19  1  0.426677  0.209390  0.857934  1
  I  I20  1  0.212497  0.853094  0.913950  1
