# generated using pymatgen
data_Nd3SnBiRh3Pb
_symmetry_space_group_name_H-M   'P 1'
_cell_length_a   7.66858217
_cell_length_b   7.69445627
_cell_length_c   4.11456400
_cell_angle_alpha   90.00000000
_cell_angle_beta   90.00000000
_cell_angle_gamma   119.73215305
_symmetry_Int_Tables_number   1
_chemical_formula_structural   Nd3SnBiRh3Pb
_chemical_formula_sum   'Nd3 Sn1 Bi1 Rh3 Pb1'
_cell_volume   210.82072914
_cell_formula_units_Z   1
loop_
 _symmetry_equiv_pos_site_id
 _symmetry_equiv_pos_as_xyz
  1  'x, y, z'
loop_
 _atom_site_type_symbol
 _atom_site_label
 _atom_site_symmetry_multiplicity
 _atom_site_fract_x
 _atom_site_fract_y
 _atom_site_fract_z
 _atom_site_occupancy
  Nd  Nd0  1  0.005122  0.593038  0.000000  1
  Nd  Nd1  1  0.407181  0.403157  0.000000  1
  Nd  Nd2  1  0.586803  0.001642  0.000000  1
  Sn  Sn3  1  0.257976  0.001440  0.500000  1
  Bi  Bi4  1  0.744326  0.743639  0.500000  1
  Rh  Rh5  1  0.010883  0.999367  0.000000  1
  Rh  Rh6  1  0.655938  0.325255  0.500000  1
  Rh  Rh7  1  0.329987  0.673714  0.500000  1
  Pb  Pb8  1  0.001784  0.258748  0.500000  1
