# generated using pymatgen
data_Ce8Si12GeIr3
_symmetry_space_group_name_H-M   'P 1'
_cell_length_a   8.22438500
_cell_length_b   8.22438409
_cell_length_c   8.31725300
_cell_angle_alpha   90.00000000
_cell_angle_beta   90.00000000
_cell_angle_gamma   120.00000769
_symmetry_Int_Tables_number   1
_chemical_formula_structural   Ce8Si12GeIr3
_chemical_formula_sum   'Ce8 Si12 Ge1 Ir3'
_cell_volume   487.21127143
_cell_formula_units_Z   1
loop_
 _symmetry_equiv_pos_site_id
 _symmetry_equiv_pos_as_xyz
  1  'x, y, z'
loop_
 _atom_site_type_symbol
 _atom_site_label
 _atom_site_symmetry_multiplicity
 _atom_site_fract_x
 _atom_site_fract_y
 _atom_site_fract_z
 _atom_site_occupancy
  Ce  Ce0  1  0.501635  0.003267  0.249861  1
  Ce  Ce1  1  0.500577  0.001155  0.749577  1
  Ce  Ce2  1  0.996733  0.498365  0.249861  1
  Ce  Ce3  1  0.998845  0.499423  0.749577  1
  Ce  Ce4  1  0.501635  0.498365  0.249861  1
  Ce  Ce5  1  0.500577  0.499423  0.749577  1
  Ce  Ce6  1  0.000000  0.000000  0.252475  1
  Ce  Ce7  1  0.000000  0.000000  0.748330  1
  Si  Si8  1  0.166184  0.332369  0.001801  1
  Si  Si9  1  0.834537  0.669074  0.998617  1
  Si  Si10  1  0.667631  0.833816  0.001801  1
  Si  Si11  1  0.833496  0.666993  0.498550  1
  Si  Si12  1  0.330926  0.165463  0.998617  1
  Si  Si13  1  0.162443  0.324886  0.501751  1
  Si  Si14  1  0.166184  0.833816  0.001801  1
  Si  Si15  1  0.333007  0.166504  0.498550  1
  Si  Si16  1  0.834537  0.165463  0.998617  1
  Si  Si17  1  0.675114  0.837557  0.501751  1
  Si  Si18  1  0.833496  0.166504  0.498550  1
  Si  Si19  1  0.162443  0.837557  0.501751  1
  Ge  Ge20  1  0.333333  0.666667  0.496224  1
  Ir  Ir21  1  0.333333  0.666667  0.998477  1
  Ir  Ir22  1  0.666667  0.333333  0.000402  1
  Ir  Ir23  1  0.666667  0.333333  0.503623  1
