# generated using pymatgen
data_SmSi3NiRh4
_symmetry_space_group_name_H-M   'P 1'
_cell_length_a   3.86376300
_cell_length_b   11.07861000
_cell_length_c   12.50772400
_cell_angle_alpha   90.00000000
_cell_angle_beta   90.00000000
_cell_angle_gamma   90.00000000
_symmetry_Int_Tables_number   1
_chemical_formula_structural   SmSi3NiRh4
_chemical_formula_sum   'Sm4 Si12 Ni4 Rh16'
_cell_volume   535.39466939
_cell_formula_units_Z   4
loop_
 _symmetry_equiv_pos_site_id
 _symmetry_equiv_pos_as_xyz
  1  'x, y, z'
loop_
 _atom_site_type_symbol
 _atom_site_label
 _atom_site_symmetry_multiplicity
 _atom_site_fract_x
 _atom_site_fract_y
 _atom_site_fract_z
 _atom_site_occupancy
  Sm  Sm0  1  0.250000  0.588495  0.702979  1
  Sm  Sm1  1  0.250000  0.911505  0.202979  1
  Sm  Sm2  1  0.750000  0.411505  0.297021  1
  Sm  Sm3  1  0.750000  0.088495  0.797021  1
  Si  Si4  1  0.250000  0.412274  0.104974  1
  Si  Si5  1  0.250000  0.087726  0.604974  1
  Si  Si6  1  0.750000  0.587726  0.895026  1
  Si  Si7  1  0.750000  0.912274  0.395026  1
  Si  Si8  1  0.250000  0.279360  0.878928  1
  Si  Si9  1  0.250000  0.220640  0.378928  1
  Si  Si10  1  0.750000  0.720640  0.121072  1
  Si  Si11  1  0.750000  0.779360  0.621072  1
  Si  Si12  1  0.250000  0.602334  0.391045  1
  Si  Si13  1  0.250000  0.897666  0.891045  1
  Si  Si14  1  0.750000  0.397666  0.608955  1
  Si  Si15  1  0.750000  0.102334  0.108955  1
  Ni  Ni16  1  0.250000  0.474171  0.933722  1
  Ni  Ni17  1  0.250000  0.025829  0.433722  1
  Ni  Ni18  1  0.750000  0.525829  0.066278  1
  Ni  Ni19  1  0.750000  0.974171  0.566278  1
  Rh  Rh20  1  0.250000  0.709782  0.986914  1
  Rh  Rh21  1  0.250000  0.790218  0.486914  1
  Rh  Rh22  1  0.750000  0.290218  0.013086  1
  Rh  Rh23  1  0.750000  0.209782  0.513086  1
  Rh  Rh24  1  0.250000  0.405794  0.488313  1
  Rh  Rh25  1  0.250000  0.094206  0.988313  1
  Rh  Rh26  1  0.750000  0.594206  0.511687  1
  Rh  Rh27  1  0.750000  0.905794  0.011687  1
  Rh  Rh28  1  0.250000  0.221002  0.182697  1
  Rh  Rh29  1  0.250000  0.278998  0.682697  1
  Rh  Rh30  1  0.750000  0.778998  0.817303  1
  Rh  Rh31  1  0.750000  0.721002  0.317303  1
  Rh  Rh32  1  0.250000  0.894509  0.696243  1
  Rh  Rh33  1  0.250000  0.605491  0.196243  1
  Rh  Rh34  1  0.750000  0.105491  0.303757  1
  Rh  Rh35  1  0.750000  0.394509  0.803757  1
