# generated using pymatgen
data_TbDy6Cd(Co3Sn11)2
_symmetry_space_group_name_H-M   'P 1'
_cell_length_a   9.68167900
_cell_length_b   9.68167828
_cell_length_c   10.02020200
_cell_angle_alpha   90.00000000
_cell_angle_beta   90.00000000
_cell_angle_gamma   119.99999221
_symmetry_Int_Tables_number   1
_chemical_formula_structural   TbDy6Cd(Co3Sn11)2
_chemical_formula_sum   'Tb1 Dy6 Cd1 Co6 Sn22'
_cell_volume   813.40805506
_cell_formula_units_Z   1
loop_
 _symmetry_equiv_pos_site_id
 _symmetry_equiv_pos_as_xyz
  1  'x, y, z'
loop_
 _atom_site_type_symbol
 _atom_site_label
 _atom_site_symmetry_multiplicity
 _atom_site_fract_x
 _atom_site_fract_y
 _atom_site_fract_z
 _atom_site_occupancy
  Tb  Tb0  1  0.000000  0.000000  0.000000  1
  Dy  Dy1  1  0.478945  0.521055  0.305813  1
  Dy  Dy2  1  0.521055  0.478945  0.694187  1
  Dy  Dy3  1  0.478945  0.957891  0.305813  1
  Dy  Dy4  1  0.521055  0.042109  0.694187  1
  Dy  Dy5  1  0.042109  0.521055  0.305813  1
  Dy  Dy6  1  0.957891  0.478945  0.694187  1
  Cd  Cd7  1  0.000000  0.000000  0.500000  1
  Co  Co8  1  0.832117  0.167883  0.196793  1
  Co  Co9  1  0.167883  0.832117  0.803207  1
  Co  Co10  1  0.832117  0.664233  0.196793  1
  Co  Co11  1  0.167883  0.335767  0.803207  1
  Co  Co12  1  0.335767  0.167883  0.196793  1
  Co  Co13  1  0.664233  0.832117  0.803207  1
  Sn  Sn14  1  0.346064  0.000000  0.000000  1
  Sn  Sn15  1  0.653936  0.000000  0.000000  1
  Sn  Sn16  1  0.000000  0.346064  0.000000  1
  Sn  Sn17  1  0.000000  0.653936  0.000000  1
  Sn  Sn18  1  0.653936  0.653936  0.000000  1
  Sn  Sn19  1  0.346064  0.346064  0.000000  1
  Sn  Sn20  1  0.333333  0.666667  0.818542  1
  Sn  Sn21  1  0.666667  0.333333  0.181458  1
  Sn  Sn22  1  0.782161  0.217839  0.452986  1
  Sn  Sn23  1  0.217839  0.782161  0.547014  1
  Sn  Sn24  1  0.782161  0.564320  0.452986  1
  Sn  Sn25  1  0.217839  0.435680  0.547014  1
  Sn  Sn26  1  0.435680  0.217839  0.452986  1
  Sn  Sn27  1  0.564320  0.782161  0.547014  1
  Sn  Sn28  1  0.333333  0.666667  0.118161  1
  Sn  Sn29  1  0.666667  0.333333  0.881839  1
  Sn  Sn30  1  0.116326  0.883674  0.271308  1
  Sn  Sn31  1  0.883674  0.116326  0.728692  1
  Sn  Sn32  1  0.116326  0.232653  0.271308  1
  Sn  Sn33  1  0.883674  0.767347  0.728692  1
  Sn  Sn34  1  0.767347  0.883674  0.271308  1
  Sn  Sn35  1  0.232653  0.116326  0.728692  1
