# generated using pymatgen
data_Li2Tm5P12Ir17
_symmetry_space_group_name_H-M   'P 1'
_cell_length_a   12.73341278
_cell_length_b   12.73341377
_cell_length_c   3.94605500
_cell_angle_alpha   90.00000000
_cell_angle_beta   90.00000000
_cell_angle_gamma   120.45160373
_symmetry_Int_Tables_number   1
_chemical_formula_structural   Li2Tm5P12Ir17
_chemical_formula_sum   'Li2 Tm5 P12 Ir17'
_cell_volume   551.55530658
_cell_formula_units_Z   1
loop_
 _symmetry_equiv_pos_site_id
 _symmetry_equiv_pos_as_xyz
  1  'x, y, z'
loop_
 _atom_site_type_symbol
 _atom_site_label
 _atom_site_symmetry_multiplicity
 _atom_site_fract_x
 _atom_site_fract_y
 _atom_site_fract_z
 _atom_site_occupancy
  Li  Li0  1  0.442675  0.999755  0.000000  1
  Li  Li1  1  0.999755  0.442675  0.000000  1
  Tm  Tm2  1  0.329108  0.667326  0.000000  1
  Tm  Tm3  1  0.667326  0.329108  0.000000  1
  Tm  Tm4  1  0.807918  0.998760  0.500000  1
  Tm  Tm5  1  0.998760  0.807918  0.500000  1
  Tm  Tm6  1  0.189198  0.189198  0.500000  1
  P  P7  1  0.179860  0.002699  0.000000  1
  P  P8  1  0.002699  0.179860  0.000000  1
  P  P9  1  0.822974  0.822974  0.000000  1
  P  P10  1  0.170193  0.487227  0.500000  1
  P  P11  1  0.516089  0.692653  0.500000  1
  P  P12  1  0.312185  0.832083  0.500000  1
  P  P13  1  0.692653  0.516089  0.500000  1
  P  P14  1  0.832083  0.312185  0.500000  1
  P  P15  1  0.487227  0.170193  0.500000  1
  P  P16  1  0.631907  0.999683  0.000000  1
  P  P17  1  0.999683  0.631907  0.000000  1
  P  P18  1  0.359408  0.359408  0.000000  1
  Ir  Ir19  1  0.540950  0.540950  0.000000  1
  Ir  Ir20  1  0.361801  0.497160  0.500000  1
  Ir  Ir21  1  0.507238  0.868475  0.500000  1
  Ir  Ir22  1  0.130730  0.643549  0.500000  1
  Ir  Ir23  1  0.868475  0.507238  0.500000  1
  Ir  Ir24  1  0.643549  0.130730  0.500000  1
  Ir  Ir25  1  0.497160  0.361801  0.500000  1
  Ir  Ir26  1  0.185274  0.377520  0.000000  1
  Ir  Ir27  1  0.626822  0.803983  0.000000  1
  Ir  Ir28  1  0.191471  0.822542  0.000000  1
  Ir  Ir29  1  0.803983  0.626822  0.000000  1
  Ir  Ir30  1  0.822542  0.191471  0.000000  1
  Ir  Ir31  1  0.377520  0.185274  0.000000  1
  Ir  Ir32  1  0.281236  0.003797  0.500000  1
  Ir  Ir33  1  0.003797  0.281236  0.500000  1
  Ir  Ir34  1  0.713600  0.713600  0.500000  1
  Ir  Ir35  1  0.002151  0.002151  0.000000  1
