# generated using pymatgen
data_NbTc5S8
_symmetry_space_group_name_H-M   'P 1'
_cell_length_a   6.38571909
_cell_length_b   6.46932913
_cell_length_c   6.50703200
_cell_angle_alpha   93.16387444
_cell_angle_beta   93.39714314
_cell_angle_gamma   94.05864486
_symmetry_Int_Tables_number   1
_chemical_formula_structural   NbTc5S8
_chemical_formula_sum   'Nb1 Tc5 S8'
_cell_volume   267.19227543
_cell_formula_units_Z   1
loop_
 _symmetry_equiv_pos_site_id
 _symmetry_equiv_pos_as_xyz
  1  'x, y, z'
loop_
 _atom_site_type_symbol
 _atom_site_label
 _atom_site_symmetry_multiplicity
 _atom_site_fract_x
 _atom_site_fract_y
 _atom_site_fract_z
 _atom_site_occupancy
  Nb  Nb0  1  0.593271  0.452238  0.781314  1
  Tc  Tc1  1  0.446902  0.770734  0.587324  1
  Tc  Tc2  1  0.773858  0.592301  0.451760  1
  Tc  Tc3  1  0.411387  0.547597  0.230899  1
  Tc  Tc4  1  0.550837  0.225738  0.410933  1
  Tc  Tc5  1  0.224839  0.405498  0.546666  1
  S  S6  1  0.728985  0.377103  0.140745  1
  S  S7  1  0.370696  0.121887  0.718014  1
  S  S8  1  0.785647  0.795671  0.772399  1
  S  S9  1  0.219164  0.217450  0.222217  1
  S  S10  1  0.874143  0.275840  0.621566  1
  S  S11  1  0.262066  0.624731  0.867117  1
  S  S12  1  0.627458  0.869648  0.276151  1
  S  S13  1  0.130747  0.723566  0.372894  1
