# generated using pymatgen
data_Tb4Ga3Re3Os2
_symmetry_space_group_name_H-M   'P 1'
_cell_length_a   5.36263000
_cell_length_b   5.36263016
_cell_length_c   9.03780400
_cell_angle_alpha   90.00000000
_cell_angle_beta   90.00000000
_cell_angle_gamma   119.99999899
_symmetry_Int_Tables_number   1
_chemical_formula_structural   Tb4Ga3Re3Os2
_chemical_formula_sum   'Tb4 Ga3 Re3 Os2'
_cell_volume   225.08638948
_cell_formula_units_Z   1
loop_
 _symmetry_equiv_pos_site_id
 _symmetry_equiv_pos_as_xyz
  1  'x, y, z'
loop_
 _atom_site_type_symbol
 _atom_site_label
 _atom_site_symmetry_multiplicity
 _atom_site_fract_x
 _atom_site_fract_y
 _atom_site_fract_z
 _atom_site_occupancy
  Tb  Tb0  1  0.666666  0.333333  0.058875  1
  Tb  Tb1  1  0.666666  0.333333  0.441126  1
  Tb  Tb2  1  0.333333  0.666666  0.556410  1
  Tb  Tb3  1  0.333333  0.666666  0.943590  1
  Ga  Ga4  1  0.329079  0.164539  0.750000  1
  Ga  Ga5  1  0.835460  0.164539  0.750000  1
  Ga  Ga6  1  0.835461  0.670922  0.750000  1
  Re  Re7  1  0.168976  0.337952  0.250000  1
  Re  Re8  1  0.168977  0.831025  0.250000  1
  Re  Re9  1  0.662048  0.831025  0.250000  1
  Os  Os10  1  0.000000  0.000000  0.997632  1
  Os  Os11  1  0.000000  0.000000  0.502368  1
