# generated using pymatgen
data_CrIn(BrO3)6
_symmetry_space_group_name_H-M   'P 1'
_cell_length_a   9.24881100
_cell_length_b   9.24880985
_cell_length_c   5.76919400
_cell_angle_alpha   90.00000000
_cell_angle_beta   90.00000000
_cell_angle_gamma   119.99999110
_symmetry_Int_Tables_number   1
_chemical_formula_structural   CrIn(BrO3)6
_chemical_formula_sum   'Cr1 In1 Br6 O18'
_cell_volume   427.38332061
_cell_formula_units_Z   1
loop_
 _symmetry_equiv_pos_site_id
 _symmetry_equiv_pos_as_xyz
  1  'x, y, z'
loop_
 _atom_site_type_symbol
 _atom_site_label
 _atom_site_symmetry_multiplicity
 _atom_site_fract_x
 _atom_site_fract_y
 _atom_site_fract_z
 _atom_site_occupancy
  Cr  Cr0  1  0.333333  0.666667  0.192313  1
  In  In1  1  0.666667  0.333333  0.687031  1
  Br  Br2  1  0.670013  0.012053  0.355984  1
  Br  Br3  1  0.317435  0.971243  0.869484  1
  Br  Br4  1  0.028757  0.346192  0.869484  1
  Br  Br5  1  0.342040  0.329987  0.355984  1
  Br  Br6  1  0.987947  0.657960  0.355984  1
  Br  Br7  1  0.653808  0.682565  0.869484  1
  O  O8  1  0.774347  0.837421  0.040805  1
  O  O9  1  0.952850  0.773207  0.536728  1
  O  O10  1  0.820356  0.047150  0.536728  1
  O  O11  1  0.162579  0.936926  0.040805  1
  O  O12  1  0.063074  0.225653  0.040805  1
  O  O13  1  0.226793  0.179644  0.536728  1
  O  O14  1  0.712514  0.536278  0.928427  1
  O  O15  1  0.195162  0.719662  0.411739  1
  O  O16  1  0.542139  0.433022  0.472784  1
  O  O17  1  0.127756  0.545785  0.990066  1
  O  O18  1  0.418029  0.872244  0.990066  1
  O  O19  1  0.566978  0.109117  0.472784  1
  O  O20  1  0.890883  0.457861  0.472784  1
  O  O21  1  0.454215  0.581971  0.990066  1
  O  O22  1  0.280338  0.475499  0.411739  1
  O  O23  1  0.823764  0.287486  0.928427  1
  O  O24  1  0.463722  0.176236  0.928427  1
  O  O25  1  0.524501  0.804838  0.411739  1
