# generated using pymatgen
data_Nd16Cd3NiHgOs3
_symmetry_space_group_name_H-M   'P 1'
_cell_length_a   9.87663914
_cell_length_b   9.99154331
_cell_length_c   9.99154324
_cell_angle_alpha   59.77624881
_cell_angle_beta   59.48596608
_cell_angle_gamma   59.48596942
_symmetry_Int_Tables_number   1
_chemical_formula_structural   Nd16Cd3NiHgOs3
_chemical_formula_sum   'Nd16 Cd3 Ni1 Hg1 Os3'
_cell_volume   690.57810567
_cell_formula_units_Z   1
loop_
 _symmetry_equiv_pos_site_id
 _symmetry_equiv_pos_as_xyz
  1  'x, y, z'
loop_
 _atom_site_type_symbol
 _atom_site_label
 _atom_site_symmetry_multiplicity
 _atom_site_fract_x
 _atom_site_fract_y
 _atom_site_fract_z
 _atom_site_occupancy
  Nd  Nd0  1  0.598834  0.595537  0.595537  1
  Nd  Nd1  1  0.599917  0.596522  0.207587  1
  Nd  Nd2  1  0.599917  0.207587  0.596522  1
  Nd  Nd3  1  0.211297  0.595776  0.595776  1
  Nd  Nd4  1  0.058168  0.440206  0.440206  1
  Nd  Nd5  1  0.437510  0.058767  0.058767  1
  Nd  Nd6  1  0.439478  0.058849  0.442366  1
  Nd  Nd7  1  0.058852  0.441058  0.058686  1
  Nd  Nd8  1  0.439478  0.442366  0.058849  1
  Nd  Nd9  1  0.058852  0.058686  0.441058  1
  Nd  Nd10  1  0.190053  0.809107  0.809107  1
  Nd  Nd11  1  0.806642  0.189313  0.189313  1
  Nd  Nd12  1  0.805334  0.188048  0.817141  1
  Nd  Nd13  1  0.190560  0.808537  0.193441  1
  Nd  Nd14  1  0.805334  0.817141  0.188048  1
  Nd  Nd15  1  0.190560  0.193441  0.808537  1
  Cd  Cd16  1  0.828143  0.828864  0.511372  1
  Cd  Cd17  1  0.828143  0.511372  0.828864  1
  Cd  Cd18  1  0.510705  0.828710  0.828710  1
  Ni  Ni19  1  0.828693  0.390740  0.390740  1
  Hg  Hg20  1  0.833549  0.832298  0.832298  1
  Os  Os21  1  0.392600  0.387629  0.387629  1
  Os  Os22  1  0.393692  0.388335  0.831115  1
  Os  Os23  1  0.393692  0.831115  0.388335  1
