# generated using pymatgen
data_Cs2VAs2
_symmetry_space_group_name_H-M   'P 1'
_cell_length_a   8.98855579
_cell_length_b   8.98855596
_cell_length_c   8.98855613
_cell_angle_alpha   138.33517834
_cell_angle_beta   127.04248851
_cell_angle_gamma   69.54609911
_symmetry_Int_Tables_number   1
_chemical_formula_structural   Cs2VAs2
_chemical_formula_sum   'Cs4 V2 As4'
_cell_volume   378.35845072
_cell_formula_units_Z   2
loop_
 _symmetry_equiv_pos_site_id
 _symmetry_equiv_pos_as_xyz
  1  'x, y, z'
loop_
 _atom_site_type_symbol
 _atom_site_label
 _atom_site_symmetry_multiplicity
 _atom_site_fract_x
 _atom_site_fract_y
 _atom_site_fract_z
 _atom_site_occupancy
  Cs  Cs0  1  0.686987  0.350174  0.336812  1
  Cs  Cs1  1  0.013361  0.850174  0.163188  1
  Cs  Cs2  1  0.986639  0.149826  0.836812  1
  Cs  Cs3  1  0.313013  0.649826  0.663188  1
  V  V4  1  0.500000  0.750000  0.250000  1
  V  V5  1  0.500000  0.250000  0.750000  1
  As  As6  1  0.252270  0.408681  0.843588  1
  As  As7  1  0.747730  0.591319  0.156412  1
  As  As8  1  0.434907  0.091319  0.343588  1
  As  As9  1  0.565093  0.908681  0.656412  1
