# generated using pymatgen
data_Tb2Er2Lu(ReO6)2
_symmetry_space_group_name_H-M   'P 1'
_cell_length_a   6.80208093
_cell_length_b   6.80208180
_cell_length_c   7.48554090
_cell_angle_alpha   73.95759800
_cell_angle_beta   73.95759713
_cell_angle_gamma   49.25272472
_symmetry_Int_Tables_number   1
_chemical_formula_structural   Tb2Er2Lu(ReO6)2
_chemical_formula_sum   'Tb2 Er2 Lu1 Re2 O12'
_cell_volume   249.97010451
_cell_formula_units_Z   1
loop_
 _symmetry_equiv_pos_site_id
 _symmetry_equiv_pos_as_xyz
  1  'x, y, z'
loop_
 _atom_site_type_symbol
 _atom_site_label
 _atom_site_symmetry_multiplicity
 _atom_site_fract_x
 _atom_site_fract_y
 _atom_site_fract_z
 _atom_site_occupancy
  Tb  Tb0  1  0.696762  0.696762  0.641823  1
  Tb  Tb1  1  0.303238  0.303238  0.358177  1
  Er  Er2  1  0.685078  0.685078  0.175459  1
  Er  Er3  1  0.314922  0.314922  0.824541  1
  Lu  Lu4  1  0.000000  0.000000  0.500000  1
  Re  Re5  1  0.786123  0.213877  0.000000  1
  Re  Re6  1  0.213877  0.786123  0.000000  1
  O  O7  1  0.000244  0.000244  0.209389  1
  O  O8  1  0.999756  0.999756  0.790611  1
  O  O9  1  0.582190  0.085606  0.083577  1
  O  O10  1  0.417810  0.914394  0.916423  1
  O  O11  1  0.914394  0.417810  0.916423  1
  O  O12  1  0.085606  0.582190  0.083577  1
  O  O13  1  0.499988  0.499988  0.177469  1
  O  O14  1  0.500012  0.500012  0.822531  1
  O  O15  1  0.401326  0.900501  0.425056  1
  O  O16  1  0.598674  0.099499  0.574944  1
  O  O17  1  0.099499  0.598674  0.574944  1
  O  O18  1  0.900501  0.401326  0.425056  1
