# generated using pymatgen
data_DyZn2CdNi2
_symmetry_space_group_name_H-M   'P 1'
_cell_length_a   5.22943923
_cell_length_b   5.10513389
_cell_length_c   5.10513311
_cell_angle_alpha   60.42808436
_cell_angle_beta   59.19121008
_cell_angle_gamma   59.19121144
_symmetry_Int_Tables_number   1
_chemical_formula_structural   DyZn2CdNi2
_chemical_formula_sum   'Dy1 Zn2 Cd1 Ni2'
_cell_volume   95.47399493
_cell_formula_units_Z   1
loop_
 _symmetry_equiv_pos_site_id
 _symmetry_equiv_pos_as_xyz
  1  'x, y, z'
loop_
 _atom_site_type_symbol
 _atom_site_label
 _atom_site_symmetry_multiplicity
 _atom_site_fract_x
 _atom_site_fract_y
 _atom_site_fract_z
 _atom_site_occupancy
  Dy  Dy0  1  0.242983  0.257017  0.257017  1
  Zn  Zn1  1  0.627326  0.622974  0.122374  1
  Zn  Zn2  1  0.627326  0.122374  0.622974  1
  Cd  Cd3  1  0.001419  0.998581  0.998581  1
  Ni  Ni4  1  0.123091  0.624527  0.624527  1
  Ni  Ni5  1  0.627856  0.624527  0.624527  1
