# generated using pymatgen
data_TbDyEr2(CuPt)2
_symmetry_space_group_name_H-M   'P 1'
_cell_length_a   4.45617800
_cell_length_b   5.48950334
_cell_length_c   7.12490952
_cell_angle_alpha   90.13260394
_cell_angle_beta   90.00000000
_cell_angle_gamma   90.00000000
_symmetry_Int_Tables_number   1
_chemical_formula_structural   TbDyEr2(CuPt)2
_chemical_formula_sum   'Tb1 Dy1 Er2 Cu2 Pt2'
_cell_volume   174.29052367
_cell_formula_units_Z   1
loop_
 _symmetry_equiv_pos_site_id
 _symmetry_equiv_pos_as_xyz
  1  'x, y, z'
loop_
 _atom_site_type_symbol
 _atom_site_label
 _atom_site_symmetry_multiplicity
 _atom_site_fract_x
 _atom_site_fract_y
 _atom_site_fract_z
 _atom_site_occupancy
  Tb  Tb0  1  0.500000  0.606043  0.816242  1
  Dy  Dy1  1  0.000000  0.115966  0.683522  1
  Er  Er2  1  0.000000  0.884681  0.184932  1
  Er  Er3  1  0.500000  0.394569  0.315843  1
  Cu  Cu4  1  0.500000  0.893405  0.462131  1
  Cu  Cu5  1  0.500000  0.106956  0.965549  1
  Pt  Pt6  1  0.000000  0.614641  0.532520  1
  Pt  Pt7  1  0.000000  0.383739  0.039264  1
