# generated using pymatgen
data_Ca2Y2As6Ir7
_symmetry_space_group_name_H-M   'P 1'
_cell_length_a   7.30957912
_cell_length_b   7.29009362
_cell_length_c   7.29009338
_cell_angle_alpha   109.28734638
_cell_angle_beta   109.50896602
_cell_angle_gamma   109.50896524
_symmetry_Int_Tables_number   1
_chemical_formula_structural   Ca2Y2As6Ir7
_chemical_formula_sum   'Ca2 Y2 As6 Ir7'
_cell_volume   299.44330814
_cell_formula_units_Z   1
loop_
 _symmetry_equiv_pos_site_id
 _symmetry_equiv_pos_as_xyz
  1  'x, y, z'
loop_
 _atom_site_type_symbol
 _atom_site_label
 _atom_site_symmetry_multiplicity
 _atom_site_fract_x
 _atom_site_fract_y
 _atom_site_fract_z
 _atom_site_occupancy
  Ca  Ca0  1  0.000000  0.000000  0.500000  1
  Ca  Ca1  1  0.000000  0.500000  0.000000  1
  Y  Y2  1  0.500000  0.000000  0.000000  1
  Y  Y3  1  0.500000  0.500000  0.500000  1
  As  As4  1  0.681185  0.679162  0.002023  1
  As  As5  1  0.318815  0.320838  0.997977  1
  As  As6  1  0.000000  0.679038  0.679038  1
  As  As7  1  0.000000  0.320962  0.320962  1
  As  As8  1  0.681185  0.002023  0.679162  1
  As  As9  1  0.318815  0.997977  0.320838  1
  Ir  Ir10  1  0.000000  0.000000  0.000000  1
  Ir  Ir11  1  0.253272  0.503253  0.750019  1
  Ir  Ir12  1  0.746728  0.249981  0.496747  1
  Ir  Ir13  1  0.500000  0.250000  0.750000  1
  Ir  Ir14  1  0.500000  0.750000  0.250000  1
  Ir  Ir15  1  0.746728  0.496747  0.249981  1
  Ir  Ir16  1  0.253272  0.750019  0.503253  1
