# generated using pymatgen
data_TbSm3Sc2(Si3Ru)8
_symmetry_space_group_name_H-M   'P 1'
_cell_length_a   10.08383524
_cell_length_b   10.08383550
_cell_length_c   8.15064941
_cell_angle_alpha   90.06661323
_cell_angle_beta   89.93338807
_cell_angle_gamma   132.38299044
_symmetry_Int_Tables_number   1
_chemical_formula_structural   TbSm3Sc2(Si3Ru)8
_chemical_formula_sum   'Tb1 Sm3 Sc2 Si24 Ru8'
_cell_volume   612.18866743
_cell_formula_units_Z   1
loop_
 _symmetry_equiv_pos_site_id
 _symmetry_equiv_pos_as_xyz
  1  'x, y, z'
loop_
 _atom_site_type_symbol
 _atom_site_label
 _atom_site_symmetry_multiplicity
 _atom_site_fract_x
 _atom_site_fract_y
 _atom_site_fract_z
 _atom_site_occupancy
  Tb  Tb0  1  0.002320  0.502320  0.750000  1
  Sm  Sm1  1  0.502530  0.002530  0.750000  1
  Sm  Sm2  1  0.997489  0.497489  0.250000  1
  Sm  Sm3  1  0.497231  0.997231  0.250000  1
  Sc  Sc4  1  0.499924  0.499969  0.500170  1
  Sc  Sc5  1  0.999969  0.999924  0.999830  1
  Si  Si6  1  0.795416  0.205879  0.500967  1
  Si  Si7  1  0.294039  0.704450  0.999153  1
  Si  Si8  1  0.204450  0.794039  0.500847  1
  Si  Si9  1  0.705879  0.295416  0.999033  1
  Si  Si10  1  0.331446  0.331191  0.832310  1
  Si  Si11  1  0.668612  0.668673  0.167815  1
  Si  Si12  1  0.168673  0.168612  0.332185  1
  Si  Si13  1  0.831191  0.831446  0.667690  1
  Si  Si14  1  0.120031  0.888533  0.729228  1
  Si  Si15  1  0.112015  0.880340  0.270124  1
  Si  Si16  1  0.610827  0.378881  0.229545  1
  Si  Si17  1  0.620625  0.388873  0.770325  1
  Si  Si18  1  0.878881  0.110827  0.270455  1
  Si  Si19  1  0.888873  0.120625  0.729675  1
  Si  Si20  1  0.388533  0.620031  0.770772  1
  Si  Si21  1  0.380340  0.612015  0.229876  1
  Si  Si22  1  0.345730  0.114534  0.504539  1
  Si  Si23  1  0.885996  0.655691  0.496492  1
  Si  Si24  1  0.385381  0.154255  0.004624  1
  Si  Si25  1  0.844615  0.614022  0.994741  1
  Si  Si26  1  0.654255  0.885381  0.495376  1
  Si  Si27  1  0.114022  0.344615  0.505259  1
  Si  Si28  1  0.614534  0.845730  0.995461  1
  Si  Si29  1  0.155691  0.385996  0.003508  1
  Ru  Ru30  1  0.668513  0.334790  0.500275  1
  Ru  Ru31  1  0.165363  0.831495  0.998765  1
  Ru  Ru32  1  0.331495  0.665363  0.501235  1
  Ru  Ru33  1  0.834790  0.168513  0.999725  1
  Ru  Ru34  1  0.126292  0.126211  0.627204  1
  Ru  Ru35  1  0.873827  0.873989  0.372638  1
  Ru  Ru36  1  0.373989  0.373827  0.127362  1
  Ru  Ru37  1  0.626211  0.626292  0.872796  1
