# generated using pymatgen
data_Tb19ErPb16
_symmetry_space_group_name_H-M   'P 1'
_cell_length_a   8.24494813
_cell_length_b   8.32950113
_cell_length_c   15.74390400
_cell_angle_alpha   90.00000000
_cell_angle_beta   90.00000000
_cell_angle_gamma   90.02005692
_symmetry_Int_Tables_number   1
_chemical_formula_structural   Tb19ErPb16
_chemical_formula_sum   'Tb19 Er1 Pb16'
_cell_volume   1081.23308226
_cell_formula_units_Z   1
loop_
 _symmetry_equiv_pos_site_id
 _symmetry_equiv_pos_as_xyz
  1  'x, y, z'
loop_
 _atom_site_type_symbol
 _atom_site_label
 _atom_site_symmetry_multiplicity
 _atom_site_fract_x
 _atom_site_fract_y
 _atom_site_fract_z
 _atom_site_occupancy
  Tb  Tb0  1  0.377470  0.840405  0.879753  1
  Tb  Tb1  1  0.877478  0.659588  0.620315  1
  Tb  Tb2  1  0.622273  0.159417  0.379644  1
  Tb  Tb3  1  0.122684  0.340295  0.120338  1
  Tb  Tb4  1  0.622273  0.159417  0.120356  1
  Tb  Tb5  1  0.122684  0.340295  0.379662  1
  Tb  Tb6  1  0.377470  0.840405  0.620247  1
  Tb  Tb7  1  0.877478  0.659588  0.879685  1
  Tb  Tb8  1  0.534436  0.323101  0.899861  1
  Tb  Tb9  1  0.034402  0.176896  0.600085  1
  Tb  Tb10  1  0.465486  0.677062  0.399867  1
  Tb  Tb11  1  0.965718  0.823215  0.100154  1
  Tb  Tb12  1  0.465486  0.677062  0.100133  1
  Tb  Tb13  1  0.965718  0.823215  0.399846  1
  Tb  Tb14  1  0.534436  0.323101  0.600139  1
  Tb  Tb15  1  0.034402  0.176896  0.899915  1
  Tb  Tb16  1  0.208750  0.503653  0.750000  1
  Tb  Tb17  1  0.708741  0.996417  0.750000  1
  Tb  Tb18  1  0.791279  0.496441  0.250000  1
  Er  Er19  1  0.291050  0.003686  0.250000  1
  Pb  Pb20  1  0.280841  0.032520  0.042967  1
  Pb  Pb21  1  0.780814  0.467407  0.457385  1
  Pb  Pb22  1  0.719188  0.967369  0.542494  1
  Pb  Pb23  1  0.219172  0.532598  0.957505  1
  Pb  Pb24  1  0.719188  0.967369  0.957506  1
  Pb  Pb25  1  0.219172  0.532598  0.542495  1
  Pb  Pb26  1  0.280841  0.032520  0.457033  1
  Pb  Pb27  1  0.780814  0.467407  0.042615  1
  Pb  Pb28  1  0.572909  0.626177  0.750000  1
  Pb  Pb29  1  0.072899  0.873846  0.750000  1
  Pb  Pb30  1  0.426903  0.373333  0.250000  1
  Pb  Pb31  1  0.927932  0.125765  0.250000  1
  Pb  Pb32  1  0.345573  0.151590  0.750000  1
  Pb  Pb33  1  0.845604  0.348215  0.750000  1
  Pb  Pb34  1  0.653978  0.848442  0.250000  1
  Pb  Pb35  1  0.154459  0.652689  0.250000  1
