# generated using pymatgen
data_Er2Ga3SnPt3
_symmetry_space_group_name_H-M   'P 1'
_cell_length_a   6.75528983
_cell_length_b   7.16325396
_cell_length_c   4.17723500
_cell_angle_alpha   90.00000000
_cell_angle_beta   90.00000000
_cell_angle_gamma   122.01870163
_symmetry_Int_Tables_number   1
_chemical_formula_structural   Er2Ga3SnPt3
_chemical_formula_sum   'Er2 Ga3 Sn1 Pt3'
_cell_volume   171.38591047
_cell_formula_units_Z   1
loop_
 _symmetry_equiv_pos_site_id
 _symmetry_equiv_pos_as_xyz
  1  'x, y, z'
loop_
 _atom_site_type_symbol
 _atom_site_label
 _atom_site_symmetry_multiplicity
 _atom_site_fract_x
 _atom_site_fract_y
 _atom_site_fract_z
 _atom_site_occupancy
  Er  Er0  1  0.419748  0.423020  0.500000  1
  Er  Er1  1  0.580252  0.003273  0.500000  1
  Ga  Ga2  1  0.733420  0.751704  0.000000  1
  Ga  Ga3  1  0.266580  0.018285  0.000000  1
  Ga  Ga4  1  0.000000  0.223878  0.000000  1
  Sn  Sn5  1  0.000000  0.594582  0.500000  1
  Pt  Pt6  1  0.697105  0.350588  0.000000  1
  Pt  Pt7  1  0.302895  0.653483  0.000000  1
  Pt  Pt8  1  0.000000  0.981187  0.500000  1
