# generated using pymatgen
data_Dy10HgBi5Cl2
_symmetry_space_group_name_H-M   'P 1'
_cell_length_a   9.26777500
_cell_length_b   9.18129368
_cell_length_c   6.51954100
_cell_angle_alpha   90.00000000
_cell_angle_beta   90.00000000
_cell_angle_gamma   120.31208366
_symmetry_Int_Tables_number   1
_chemical_formula_structural   Dy10HgBi5Cl2
_chemical_formula_sum   'Dy10 Hg1 Bi5 Cl2'
_cell_volume   478.90861824
_cell_formula_units_Z   1
loop_
 _symmetry_equiv_pos_site_id
 _symmetry_equiv_pos_as_xyz
  1  'x, y, z'
loop_
 _atom_site_type_symbol
 _atom_site_label
 _atom_site_symmetry_multiplicity
 _atom_site_fract_x
 _atom_site_fract_y
 _atom_site_fract_z
 _atom_site_occupancy
  Dy  Dy0  1  0.271497  0.000000  0.750000  1
  Dy  Dy1  1  0.730192  0.000000  0.250000  1
  Dy  Dy2  1  0.990907  0.259170  0.750000  1
  Dy  Dy3  1  0.000476  0.735567  0.250000  1
  Dy  Dy4  1  0.731737  0.740830  0.750000  1
  Dy  Dy5  1  0.264909  0.264433  0.250000  1
  Dy  Dy6  1  0.338449  0.673350  0.500210  1
  Dy  Dy7  1  0.665100  0.326650  0.500210  1
  Dy  Dy8  1  0.665100  0.326650  0.999790  1
  Dy  Dy9  1  0.338449  0.673350  0.999790  1
  Hg  Hg10  1  0.612855  0.000000  0.750000  1
  Bi  Bi11  1  0.386734  0.000000  0.250000  1
  Bi  Bi12  1  0.997674  0.613109  0.750000  1
  Bi  Bi13  1  0.001405  0.387304  0.250000  1
  Bi  Bi14  1  0.384564  0.386891  0.750000  1
  Bi  Bi15  1  0.614101  0.612696  0.250000  1
  Cl  Cl16  1  0.002924  0.000000  0.499010  1
  Cl  Cl17  1  0.002924  0.000000  0.000990  1
