# generated using pymatgen
data_LiTb8InIr2
_symmetry_space_group_name_H-M   'P 1'
_cell_length_a   9.70010358
_cell_length_b   9.69389882
_cell_length_c   9.69389883
_cell_angle_alpha   59.96577063
_cell_angle_beta   59.97882774
_cell_angle_gamma   59.97882460
_symmetry_Int_Tables_number   1
_chemical_formula_structural   LiTb8InIr2
_chemical_formula_sum   'Li2 Tb16 In2 Ir4'
_cell_volume   644.17945777
_cell_formula_units_Z   2
loop_
 _symmetry_equiv_pos_site_id
 _symmetry_equiv_pos_as_xyz
  1  'x, y, z'
loop_
 _atom_site_type_symbol
 _atom_site_label
 _atom_site_symmetry_multiplicity
 _atom_site_fract_x
 _atom_site_fract_y
 _atom_site_fract_z
 _atom_site_occupancy
  Li  Li0  1  0.325874  0.322731  0.322731  1
  Li  Li1  1  0.028663  0.322731  0.322731  1
  Tb  Tb2  1  0.097824  0.707719  0.096634  1
  Tb  Tb3  1  0.939680  0.938500  0.561499  1
  Tb  Tb4  1  0.939680  0.561499  0.938500  1
  Tb  Tb5  1  0.311852  0.688550  0.311692  1
  Tb  Tb6  1  0.933626  0.566374  0.566374  1
  Tb  Tb7  1  0.311852  0.311692  0.688550  1
  Tb  Tb8  1  0.100229  0.098511  0.098511  1
  Tb  Tb9  1  0.560321  0.561499  0.938500  1
  Tb  Tb10  1  0.097824  0.096634  0.707719  1
  Tb  Tb11  1  0.687906  0.311692  0.688550  1
  Tb  Tb12  1  0.687906  0.688550  0.311692  1
  Tb  Tb13  1  0.688829  0.311171  0.311171  1
  Tb  Tb14  1  0.312862  0.687138  0.687138  1
  Tb  Tb15  1  0.560321  0.938500  0.561499  1
  Tb  Tb16  1  0.702749  0.098511  0.098511  1
  Tb  Tb17  1  0.557866  0.942134  0.942134  1
  In  In18  1  0.329105  0.007388  0.334401  1
  In  In19  1  0.329105  0.334401  0.007388  1
  Ir  Ir20  1  0.889102  0.892981  0.892981  1
  Ir  Ir21  1  0.890943  0.893054  0.325060  1
  Ir  Ir22  1  0.324935  0.892981  0.892981  1
  Ir  Ir23  1  0.890943  0.325060  0.893054  1
