# generated using pymatgen
data_Er3In4PtRh
_symmetry_space_group_name_H-M   'P 1'
_cell_length_a   7.90423200
_cell_length_b   7.90423175
_cell_length_c   3.77482100
_cell_angle_alpha   90.00000000
_cell_angle_beta   90.00000000
_cell_angle_gamma   119.99999267
_symmetry_Int_Tables_number   1
_chemical_formula_structural   Er3In4PtRh
_chemical_formula_sum   'Er3 In4 Pt1 Rh1'
_cell_volume   204.24261881
_cell_formula_units_Z   1
loop_
 _symmetry_equiv_pos_site_id
 _symmetry_equiv_pos_as_xyz
  1  'x, y, z'
loop_
 _atom_site_type_symbol
 _atom_site_label
 _atom_site_symmetry_multiplicity
 _atom_site_fract_x
 _atom_site_fract_y
 _atom_site_fract_z
 _atom_site_occupancy
  Er  Er0  1  0.701187  0.955861  0.500000  1
  Er  Er1  1  0.254673  0.298813  0.500000  1
  Er  Er2  1  0.044139  0.745327  0.500000  1
  In  In3  1  0.925261  0.338934  0.000000  1
  In  In4  1  0.413674  0.074739  0.000000  1
  In  In5  1  0.661066  0.586326  0.000000  1
  In  In6  1  0.333333  0.666667  0.000000  1
  Pt  Pt7  1  0.000000  0.000000  0.000000  1
  Rh  Rh8  1  0.666667  0.333333  0.500000  1
