# generated using pymatgen
data_Ti2GaRu2Pt3
_symmetry_space_group_name_H-M   'P 1'
_cell_length_a   5.45494800
_cell_length_b   5.45494703
_cell_length_c   3.89373100
_cell_angle_alpha   90.00000000
_cell_angle_beta   90.00000000
_cell_angle_gamma   93.62864782
_symmetry_Int_Tables_number   1
_chemical_formula_structural   Ti2GaRu2Pt3
_chemical_formula_sum   'Ti2 Ga1 Ru2 Pt3'
_cell_volume   115.63133875
_cell_formula_units_Z   1
loop_
 _symmetry_equiv_pos_site_id
 _symmetry_equiv_pos_as_xyz
  1  'x, y, z'
loop_
 _atom_site_type_symbol
 _atom_site_label
 _atom_site_symmetry_multiplicity
 _atom_site_fract_x
 _atom_site_fract_y
 _atom_site_fract_z
 _atom_site_occupancy
  Ti  Ti0  1  0.713262  0.280218  0.500000  1
  Ti  Ti1  1  0.280218  0.713262  0.500000  1
  Ga  Ga2  1  0.003867  0.003867  0.000000  1
  Ru  Ru3  1  0.499447  0.499447  0.000000  1
  Ru  Ru4  1  0.230092  0.230092  0.500000  1
  Pt  Pt5  1  0.997602  0.496772  0.000000  1
  Pt  Pt6  1  0.496772  0.997602  0.000000  1
  Pt  Pt7  1  0.778741  0.778741  0.500000  1
