# generated using pymatgen
data_La3Er(SiPd14)2
_symmetry_space_group_name_H-M   'P 1'
_cell_length_a   8.98829100
_cell_length_b   8.98829100
_cell_length_c   7.15599800
_cell_angle_alpha   90.00000000
_cell_angle_beta   90.00000000
_cell_angle_gamma   90.00000000
_symmetry_Int_Tables_number   1
_chemical_formula_structural   La3Er(SiPd14)2
_chemical_formula_sum   'La3 Er1 Si2 Pd28'
_cell_volume   578.12860664
_cell_formula_units_Z   1
loop_
 _symmetry_equiv_pos_site_id
 _symmetry_equiv_pos_as_xyz
  1  'x, y, z'
loop_
 _atom_site_type_symbol
 _atom_site_label
 _atom_site_symmetry_multiplicity
 _atom_site_fract_x
 _atom_site_fract_y
 _atom_site_fract_z
 _atom_site_occupancy
  La  La0  1  0.500000  0.000000  0.937521  1
  La  La1  1  0.000000  0.500000  0.062479  1
  La  La2  1  0.000000  0.000000  0.500000  1
  Er  Er3  1  0.500000  0.500000  0.500000  1
  Si  Si4  1  0.500000  0.000000  0.448042  1
  Si  Si5  1  0.000000  0.500000  0.551958  1
  Pd  Pd6  1  0.335837  0.832957  0.613955  1
  Pd  Pd7  1  0.335837  0.167043  0.613955  1
  Pd  Pd8  1  0.664163  0.832957  0.613955  1
  Pd  Pd9  1  0.664163  0.167043  0.613955  1
  Pd  Pd10  1  0.167043  0.664163  0.386045  1
  Pd  Pd11  1  0.167043  0.335837  0.386045  1
  Pd  Pd12  1  0.832957  0.664163  0.386045  1
  Pd  Pd13  1  0.832957  0.335837  0.386045  1
  Pd  Pd14  1  0.500000  0.766937  0.261471  1
  Pd  Pd15  1  0.500000  0.233063  0.261471  1
  Pd  Pd16  1  0.271444  0.000000  0.256405  1
  Pd  Pd17  1  0.728556  0.000000  0.256405  1
  Pd  Pd18  1  0.000000  0.728556  0.743595  1
  Pd  Pd19  1  0.000000  0.271444  0.743595  1
  Pd  Pd20  1  0.233063  0.500000  0.738529  1
  Pd  Pd21  1  0.766937  0.500000  0.738529  1
  Pd  Pd22  1  0.500000  0.350660  0.851617  1
  Pd  Pd23  1  0.500000  0.649340  0.851617  1
  Pd  Pd24  1  0.848696  0.000000  0.854651  1
  Pd  Pd25  1  0.151304  0.000000  0.854651  1
  Pd  Pd26  1  0.000000  0.151304  0.145349  1
  Pd  Pd27  1  0.000000  0.848696  0.145349  1
  Pd  Pd28  1  0.649340  0.500000  0.148383  1
  Pd  Pd29  1  0.350660  0.500000  0.148383  1
  Pd  Pd30  1  0.250985  0.749015  0.000000  1
  Pd  Pd31  1  0.250985  0.250985  0.000000  1
  Pd  Pd32  1  0.749015  0.749015  0.000000  1
  Pd  Pd33  1  0.749015  0.250985  0.000000  1
