# generated using pymatgen
data_Pr4Ga24CoAu
_symmetry_space_group_name_H-M   'P 1'
_cell_length_a   6.17956600
_cell_length_b   6.17956600
_cell_length_c   15.53033400
_cell_angle_alpha   90.00000000
_cell_angle_beta   90.00000000
_cell_angle_gamma   90.00000000
_symmetry_Int_Tables_number   1
_chemical_formula_structural   Pr4Ga24CoAu
_chemical_formula_sum   'Pr4 Ga24 Co1 Au1'
_cell_volume   593.05742275
_cell_formula_units_Z   1
loop_
 _symmetry_equiv_pos_site_id
 _symmetry_equiv_pos_as_xyz
  1  'x, y, z'
loop_
 _atom_site_type_symbol
 _atom_site_label
 _atom_site_symmetry_multiplicity
 _atom_site_fract_x
 _atom_site_fract_y
 _atom_site_fract_z
 _atom_site_occupancy
  Pr  Pr0  1  0.750000  0.250000  0.249049  1
  Pr  Pr1  1  0.250000  0.750000  0.241419  1
  Pr  Pr2  1  0.250000  0.750000  0.758581  1
  Pr  Pr3  1  0.750000  0.250000  0.750951  1
  Ga  Ga4  1  0.250000  0.250000  0.184430  1
  Ga  Ga5  1  0.750000  0.750000  0.184430  1
  Ga  Ga6  1  0.750000  0.750000  0.815570  1
  Ga  Ga7  1  0.250000  0.250000  0.815570  1
  Ga  Ga8  1  0.250000  0.250000  0.344673  1
  Ga  Ga9  1  0.750000  0.750000  0.344673  1
  Ga  Ga10  1  0.750000  0.750000  0.655327  1
  Ga  Ga11  1  0.250000  0.250000  0.655327  1
  Ga  Ga12  1  0.514779  0.014779  0.913985  1
  Ga  Ga13  1  0.985274  0.014726  0.914345  1
  Ga  Ga14  1  0.514726  0.485274  0.914345  1
  Ga  Ga15  1  0.985221  0.485221  0.913985  1
  Ga  Ga16  1  0.514726  0.014726  0.085655  1
  Ga  Ga17  1  0.985221  0.014779  0.086015  1
  Ga  Ga18  1  0.514779  0.485221  0.086015  1
  Ga  Ga19  1  0.985274  0.485274  0.085655  1
  Ga  Ga20  1  0.579275  0.079275  0.432237  1
  Ga  Ga21  1  0.082564  0.917436  0.430407  1
  Ga  Ga22  1  0.417436  0.582564  0.430407  1
  Ga  Ga23  1  0.920725  0.420725  0.432237  1
  Ga  Ga24  1  0.417436  0.917436  0.569593  1
  Ga  Ga25  1  0.920725  0.079275  0.567763  1
  Ga  Ga26  1  0.579275  0.420725  0.567763  1
  Ga  Ga27  1  0.082564  0.582564  0.569593  1
  Co  Co28  1  0.750000  0.250000  0.000000  1
  Au  Au29  1  0.250000  0.750000  0.000000  1
