# generated using pymatgen
data_La2Pr2RuAu3
_symmetry_space_group_name_H-M   'P 1'
_cell_length_a   4.85685600
_cell_length_b   5.82130905
_cell_length_c   7.55869155
_cell_angle_alpha   92.97923521
_cell_angle_beta   90.00000000
_cell_angle_gamma   90.00000000
_symmetry_Int_Tables_number   1
_chemical_formula_structural   La2Pr2RuAu3
_chemical_formula_sum   'La2 Pr2 Ru1 Au3'
_cell_volume   213.42000888
_cell_formula_units_Z   1
loop_
 _symmetry_equiv_pos_site_id
 _symmetry_equiv_pos_as_xyz
  1  'x, y, z'
loop_
 _atom_site_type_symbol
 _atom_site_label
 _atom_site_symmetry_multiplicity
 _atom_site_fract_x
 _atom_site_fract_y
 _atom_site_fract_z
 _atom_site_occupancy
  La  La0  1  0.250000  0.606499  0.169489  1
  La  La1  1  0.250000  0.859247  0.695730  1
  Pr  Pr2  1  0.750000  0.351707  0.824724  1
  Pr  Pr3  1  0.750000  0.138348  0.304786  1
  Ru  Ru4  1  0.250000  0.200000  0.042507  1
  Au  Au5  1  0.750000  0.855174  0.956589  1
  Au  Au6  1  0.750000  0.648006  0.466724  1
  Au  Au7  1  0.250000  0.341019  0.539450  1
