# generated using pymatgen
data_La5GaHgRu3
_symmetry_space_group_name_H-M   'P 1'
_cell_length_a   8.76377849
_cell_length_b   8.76377777
_cell_length_c   8.65493800
_cell_angle_alpha   109.73396140
_cell_angle_beta   109.39284297
_cell_angle_gamma   109.79286632
_symmetry_Int_Tables_number   1
_chemical_formula_structural   La5GaHgRu3
_chemical_formula_sum   'La10 Ga2 Hg2 Ru6'
_cell_volume   508.48502969
_cell_formula_units_Z   2
loop_
 _symmetry_equiv_pos_site_id
 _symmetry_equiv_pos_as_xyz
  1  'x, y, z'
loop_
 _atom_site_type_symbol
 _atom_site_label
 _atom_site_symmetry_multiplicity
 _atom_site_fract_x
 _atom_site_fract_y
 _atom_site_fract_z
 _atom_site_occupancy
  La  La0  1  0.244369  0.685818  0.436838  1
  La  La1  1  0.748981  0.807532  0.063163  1
  La  La2  1  0.436226  0.247813  0.688996  1
  La  La3  1  0.694790  0.444791  0.250000  1
  La  La4  1  0.058819  0.747230  0.811004  1
  La  La5  1  0.815208  0.065208  0.750000  1
  La  La6  1  0.207681  0.210700  0.206874  1
  La  La7  1  0.503827  0.000807  0.293126  1
  La  La8  1  0.283897  0.499289  0.997163  1
  La  La9  1  0.002125  0.286733  0.502838  1
  Ga  Ga10  1  0.915990  0.502552  0.002559  1
  Ga  Ga11  1  0.999993  0.913431  0.497442  1
  Hg  Hg12  1  0.501938  0.001608  0.914956  1
  Hg  Hg13  1  0.586652  0.586981  0.585044  1
  Ru  Ru14  1  0.232232  0.123030  0.864724  1
  Ru  Ru15  1  0.758306  0.367506  0.635275  1
  Ru  Ru16  1  0.898751  0.269849  0.130982  1
  Ru  Ru17  1  0.117555  0.867555  0.250001  1
  Ru  Ru18  1  0.638865  0.767769  0.369017  1
  Ru  Ru19  1  0.353800  0.603800  0.750000  1
