# generated using pymatgen
data_HfZr4Si4Mo2W
_symmetry_space_group_name_H-M   'P 1'
_cell_length_a   3.57889300
_cell_length_b   7.04462130
_cell_length_c   8.40264349
_cell_angle_alpha   89.76274861
_cell_angle_beta   90.00000000
_cell_angle_gamma   90.00000000
_symmetry_Int_Tables_number   1
_chemical_formula_structural   HfZr4Si4Mo2W
_chemical_formula_sum   'Hf1 Zr4 Si4 Mo2 W1'
_cell_volume   211.84517643
_cell_formula_units_Z   1
loop_
 _symmetry_equiv_pos_site_id
 _symmetry_equiv_pos_as_xyz
  1  'x, y, z'
loop_
 _atom_site_type_symbol
 _atom_site_label
 _atom_site_symmetry_multiplicity
 _atom_site_fract_x
 _atom_site_fract_y
 _atom_site_fract_z
 _atom_site_occupancy
  Hf  Hf0  1  0.250000  0.128397  0.939871  1
  Zr  Zr1  1  0.250000  0.042923  0.334913  1
  Zr  Zr2  1  0.250000  0.546042  0.167327  1
  Zr  Zr3  1  0.750000  0.953132  0.663065  1
  Zr  Zr4  1  0.750000  0.464531  0.824169  1
  Si  Si5  1  0.250000  0.257371  0.631887  1
  Si  Si6  1  0.250000  0.752746  0.862940  1
  Si  Si7  1  0.750000  0.742552  0.363041  1
  Si  Si8  1  0.750000  0.246059  0.149827  1
  Mo  Mo9  1  0.750000  0.860884  0.062527  1
  Mo  Mo10  1  0.750000  0.374402  0.439920  1
  W  W11  1  0.250000  0.630961  0.560513  1
