# generated using pymatgen
data_Y3ThAl6(Ga2Ir)6
_symmetry_space_group_name_H-M   'P 1'
_cell_length_a   7.60160879
_cell_length_b   7.61164843
_cell_length_c   9.52645517
_cell_angle_alpha   90.14918739
_cell_angle_beta   89.94101924
_cell_angle_gamma   119.70737970
_symmetry_Int_Tables_number   1
_chemical_formula_structural   Y3ThAl6(Ga2Ir)6
_chemical_formula_sum   'Y3 Th1 Al6 Ga12 Ir6'
_cell_volume   478.75987334
_cell_formula_units_Z   1
loop_
 _symmetry_equiv_pos_site_id
 _symmetry_equiv_pos_as_xyz
  1  'x, y, z'
loop_
 _atom_site_type_symbol
 _atom_site_label
 _atom_site_symmetry_multiplicity
 _atom_site_fract_x
 _atom_site_fract_y
 _atom_site_fract_z
 _atom_site_occupancy
  Y  Y0  1  0.000130  0.330905  0.748749  1
  Y  Y1  1  0.673974  0.999168  0.253989  1
  Y  Y2  1  0.326788  0.999405  0.745683  1
  Th  Th3  1  0.998139  0.668920  0.251701  1
  Al  Al4  1  0.663946  0.998845  0.926428  1
  Al  Al5  1  0.340494  0.006056  0.070950  1
  Al  Al6  1  0.331642  0.331599  0.554963  1
  Al  Al7  1  0.663405  0.667387  0.452065  1
  Al  Al8  1  0.664228  0.666916  0.049442  1
  Al  Al9  1  0.331107  0.331666  0.943814  1
  Ga  Ga10  1  0.132188  0.131787  0.249417  1
  Ga  Ga11  1  0.871650  0.877065  0.750435  1
  Ga  Ga12  1  0.998671  0.328886  0.075854  1
  Ga  Ga13  1  0.001404  0.666131  0.916127  1
  Ga  Ga14  1  0.998646  0.664466  0.585501  1
  Ga  Ga15  1  0.341292  0.004625  0.420311  1
  Ga  Ga16  1  0.001127  0.329878  0.422793  1
  Ga  Ga17  1  0.664490  0.001454  0.582354  1
  Ga  Ga18  1  0.351691  0.551806  0.249866  1
  Ga  Ga19  1  0.651656  0.447013  0.750127  1
  Ga  Ga20  1  0.544201  0.342306  0.249078  1
  Ga  Ga21  1  0.449537  0.655615  0.750755  1
  Ir  Ir22  1  0.668899  0.327912  0.999131  1
  Ir  Ir23  1  0.330597  0.673531  0.001106  1
  Ir  Ir24  1  0.327607  0.668023  0.500119  1
  Ir  Ir25  1  0.671545  0.333374  0.499413  1
  Ir  Ir26  1  0.000516  0.997761  0.000615  1
  Ir  Ir27  1  0.000430  0.997500  0.499213  1
