# generated using pymatgen
data_Y2Lu3P12Ru18Pt
_symmetry_space_group_name_H-M   'P 1'
_cell_length_a   12.55335600
_cell_length_b   12.45160242
_cell_length_c   3.97560600
_cell_angle_alpha   90.00000000
_cell_angle_beta   90.00000000
_cell_angle_gamma   119.73222148
_symmetry_Int_Tables_number   1
_chemical_formula_structural   Y2Lu3P12Ru18Pt
_chemical_formula_sum   'Y2 Lu3 P12 Ru18 Pt1'
_cell_volume   539.61574044
_cell_formula_units_Z   1
loop_
 _symmetry_equiv_pos_site_id
 _symmetry_equiv_pos_as_xyz
  1  'x, y, z'
loop_
 _atom_site_type_symbol
 _atom_site_label
 _atom_site_symmetry_multiplicity
 _atom_site_fract_x
 _atom_site_fract_y
 _atom_site_fract_z
 _atom_site_occupancy
  Y  Y0  1  0.816466  0.815471  0.500000  1
  Y  Y1  1  0.183534  0.999006  0.500000  1
  Lu  Lu2  1  0.000000  0.182182  0.500000  1
  Lu  Lu3  1  0.661027  0.329478  0.000000  1
  Lu  Lu4  1  0.338973  0.668452  0.000000  1
  P  P5  1  0.000000  0.812340  0.000000  1
  P  P6  1  0.182279  0.184220  0.000000  1
  P  P7  1  0.817721  0.001941  0.000000  1
  P  P8  1  0.693036  0.173848  0.500000  1
  P  P9  1  0.817318  0.517857  0.500000  1
  P  P10  1  0.474920  0.305974  0.500000  1
  P  P11  1  0.182682  0.700540  0.500000  1
  P  P12  1  0.525080  0.831055  0.500000  1
  P  P13  1  0.306964  0.480813  0.500000  1
  P  P14  1  0.000000  0.363298  0.000000  1
  P  P15  1  0.626974  0.627476  0.000000  1
  P  P16  1  0.373026  0.000502  0.000000  1
  Ru  Ru17  1  0.444170  0.446716  0.000000  1
  Ru  Ru18  1  0.555830  0.002547  0.000000  1
  Ru  Ru19  1  0.000000  0.710060  0.500000  1
  Ru  Ru20  1  0.280558  0.283469  0.500000  1
  Ru  Ru21  1  0.719442  0.002911  0.500000  1
  Ru  Ru22  1  0.808156  0.186900  0.000000  1
  Ru  Ru23  1  0.814203  0.619342  0.000000  1
  Ru  Ru24  1  0.375095  0.191869  0.000000  1
  Ru  Ru25  1  0.185797  0.805138  0.000000  1
  Ru  Ru26  1  0.624905  0.816773  0.000000  1
  Ru  Ru27  1  0.191844  0.378743  0.000000  1
  Ru  Ru28  1  0.871574  0.367248  0.500000  1
  Ru  Ru29  1  0.629627  0.507139  0.500000  1
  Ru  Ru30  1  0.493233  0.129035  0.500000  1
  Ru  Ru31  1  0.370373  0.877513  0.500000  1
  Ru  Ru32  1  0.506767  0.635800  0.500000  1
  Ru  Ru33  1  0.128426  0.495674  0.500000  1
  Ru  Ru34  1  0.000000  0.998883  0.000000  1
  Pt  Pt35  1  0.000000  0.549788  0.000000  1
