# generated using pymatgen
data_La2YbPr2Si3
_symmetry_space_group_name_H-M   'P 1'
_cell_length_a   7.83998632
_cell_length_b   7.83998777
_cell_length_c   8.98903393
_cell_angle_alpha   115.85442566
_cell_angle_beta   115.85443508
_cell_angle_gamma   90.00000007
_symmetry_Int_Tables_number   1
_chemical_formula_structural   La2YbPr2Si3
_chemical_formula_sum   'La4 Yb2 Pr4 Si6'
_cell_volume   434.93025604
_cell_formula_units_Z   2
loop_
 _symmetry_equiv_pos_site_id
 _symmetry_equiv_pos_as_xyz
  1  'x, y, z'
loop_
 _atom_site_type_symbol
 _atom_site_label
 _atom_site_symmetry_multiplicity
 _atom_site_fract_x
 _atom_site_fract_y
 _atom_site_fract_z
 _atom_site_occupancy
  La  La0  1  0.967165  0.824978  0.292143  1
  La  La1  1  0.324978  0.467165  0.292143  1
  La  La2  1  0.824978  0.324978  0.292143  1
  La  La3  1  0.467165  0.967165  0.292143  1
  Yb  Yb4  1  0.499366  0.499366  0.998733  1
  Yb  Yb5  1  0.999366  0.999366  0.998733  1
  Pr  Pr6  1  0.034612  0.175126  0.709738  1
  Pr  Pr7  1  0.675126  0.534612  0.709738  1
  Pr  Pr8  1  0.175126  0.675126  0.709738  1
  Pr  Pr9  1  0.534612  0.034612  0.709738  1
  Si  Si10  1  0.751692  0.751692  0.503384  1
  Si  Si11  1  0.251692  0.251692  0.503384  1
  Si  Si12  1  0.611704  0.885356  0.997061  1
  Si  Si13  1  0.385356  0.111704  0.997061  1
  Si  Si14  1  0.885356  0.385356  0.997061  1
  Si  Si15  1  0.111704  0.611704  0.997061  1
