# generated using pymatgen
data_Ce2FeIr2Ru
_symmetry_space_group_name_H-M   'P 1'
_cell_length_a   5.18087945
_cell_length_b   5.12653486
_cell_length_c   5.12653419
_cell_angle_alpha   65.33947682
_cell_angle_beta   65.28844826
_cell_angle_gamma   65.28844095
_symmetry_Int_Tables_number   1
_chemical_formula_structural   Ce2FeIr2Ru
_chemical_formula_sum   'Ce2 Fe1 Ir2 Ru1'
_cell_volume   107.40442779
_cell_formula_units_Z   1
loop_
 _symmetry_equiv_pos_site_id
 _symmetry_equiv_pos_as_xyz
  1  'x, y, z'
loop_
 _atom_site_type_symbol
 _atom_site_label
 _atom_site_symmetry_multiplicity
 _atom_site_fract_x
 _atom_site_fract_y
 _atom_site_fract_z
 _atom_site_occupancy
  Ce  Ce0  1  0.622611  0.626933  0.626933  1
  Ce  Ce1  1  0.377389  0.373067  0.373067  1
  Fe  Fe2  1  0.000000  0.000000  0.000000  1
  Ir  Ir3  1  0.000000  0.500000  0.000000  1
  Ir  Ir4  1  0.000000  0.000000  0.500000  1
  Ru  Ru5  1  0.500000  0.000000  0.000000  1
