# generated using pymatgen
data_Tm2Al6(GaIr)3
_symmetry_space_group_name_H-M   'P 1'
_cell_length_a   7.50644823
_cell_length_b   7.50644689
_cell_length_c   9.54250700
_cell_angle_alpha   90.00000000
_cell_angle_beta   90.00000000
_cell_angle_gamma   119.65732584
_symmetry_Int_Tables_number   1
_chemical_formula_structural   Tm2Al6(GaIr)3
_chemical_formula_sum   'Tm4 Al12 Ga6 Ir6'
_cell_volume   467.25216272
_cell_formula_units_Z   2
loop_
 _symmetry_equiv_pos_site_id
 _symmetry_equiv_pos_as_xyz
  1  'x, y, z'
loop_
 _atom_site_type_symbol
 _atom_site_label
 _atom_site_symmetry_multiplicity
 _atom_site_fract_x
 _atom_site_fract_y
 _atom_site_fract_z
 _atom_site_occupancy
  Tm  Tm0  1  0.995854  0.669973  0.250000  1
  Tm  Tm1  1  0.004146  0.330027  0.750000  1
  Tm  Tm2  1  0.669973  0.995854  0.250000  1
  Tm  Tm3  1  0.330027  0.004146  0.750000  1
  Al  Al4  1  0.001090  0.334569  0.073575  1
  Al  Al5  1  0.998910  0.665431  0.926425  1
  Al  Al6  1  0.998910  0.665431  0.573575  1
  Al  Al7  1  0.334569  0.001090  0.426425  1
  Al  Al8  1  0.001090  0.334569  0.426425  1
  Al  Al9  1  0.665431  0.998910  0.573575  1
  Al  Al10  1  0.665431  0.998910  0.926425  1
  Al  Al11  1  0.334569  0.001090  0.073575  1
  Al  Al12  1  0.333579  0.333579  0.555731  1
  Al  Al13  1  0.666421  0.666421  0.444269  1
  Al  Al14  1  0.666421  0.666421  0.055731  1
  Al  Al15  1  0.333579  0.333579  0.944269  1
  Ga  Ga16  1  0.127599  0.127599  0.250000  1
  Ga  Ga17  1  0.872401  0.872401  0.750000  1
  Ga  Ga18  1  0.338807  0.547762  0.250000  1
  Ga  Ga19  1  0.661193  0.452238  0.750000  1
  Ga  Ga20  1  0.547762  0.338807  0.250000  1
  Ga  Ga21  1  0.452238  0.661193  0.750000  1
  Ir  Ir22  1  0.672006  0.327994  0.000000  1
  Ir  Ir23  1  0.327994  0.672006  0.000000  1
  Ir  Ir24  1  0.327994  0.672006  0.500000  1
  Ir  Ir25  1  0.672006  0.327994  0.500000  1
  Ir  Ir26  1  0.000000  0.000000  0.000000  1
  Ir  Ir27  1  0.000000  0.000000  0.500000  1
