# generated using pymatgen
data_LaNd3Cd2CuPd3
_symmetry_space_group_name_H-M   'P 1'
_cell_length_a   7.81839470
_cell_length_b   7.81839438
_cell_length_c   3.95219600
_cell_angle_alpha   90.00000000
_cell_angle_beta   90.00000000
_cell_angle_gamma   90.62902754
_symmetry_Int_Tables_number   1
_chemical_formula_structural   LaNd3Cd2CuPd3
_chemical_formula_sum   'La1 Nd3 Cd2 Cu1 Pd3'
_cell_volume   241.57248465
_cell_formula_units_Z   1
loop_
 _symmetry_equiv_pos_site_id
 _symmetry_equiv_pos_as_xyz
  1  'x, y, z'
loop_
 _atom_site_type_symbol
 _atom_site_label
 _atom_site_symmetry_multiplicity
 _atom_site_fract_x
 _atom_site_fract_y
 _atom_site_fract_z
 _atom_site_occupancy
  La  La0  1  0.675317  0.175317  0.500000  1
  Nd  Nd1  1  0.326998  0.826998  0.500000  1
  Nd  Nd2  1  0.172928  0.324005  0.500000  1
  Nd  Nd3  1  0.824005  0.672928  0.500000  1
  Cd  Cd4  1  0.004327  0.995389  0.000000  1
  Cd  Cd5  1  0.495389  0.504327  0.000000  1
  Cu  Cu6  1  0.121538  0.621538  0.000000  1
  Pd  Pd7  1  0.878563  0.378563  0.000000  1
  Pd  Pd8  1  0.628423  0.872513  0.000000  1
  Pd  Pd9  1  0.372513  0.128423  0.000000  1
