# generated using pymatgen
data_LuAg(PSe3)2
_symmetry_space_group_name_H-M   'P 1'
_cell_length_a   6.61100600
_cell_length_b   6.61100551
_cell_length_c   14.52628700
_cell_angle_alpha   90.00000000
_cell_angle_beta   90.00000000
_cell_angle_gamma   120.00001245
_symmetry_Int_Tables_number   1
_chemical_formula_structural   LuAg(PSe3)2
_chemical_formula_sum   'Lu2 Ag2 P4 Se12'
_cell_volume   549.81966414
_cell_formula_units_Z   2
loop_
 _symmetry_equiv_pos_site_id
 _symmetry_equiv_pos_as_xyz
  1  'x, y, z'
loop_
 _atom_site_type_symbol
 _atom_site_label
 _atom_site_symmetry_multiplicity
 _atom_site_fract_x
 _atom_site_fract_y
 _atom_site_fract_z
 _atom_site_occupancy
  Lu  Lu0  1  0.000000  0.000000  0.250000  1
  Lu  Lu1  1  0.000000  0.000000  0.750000  1
  Ag  Ag2  1  0.666667  0.333333  0.250000  1
  Ag  Ag3  1  0.333333  0.666667  0.750000  1
  P  P4  1  0.666667  0.333333  0.671836  1
  P  P5  1  0.666667  0.333333  0.828164  1
  P  P6  1  0.333333  0.666667  0.328164  1
  P  P7  1  0.333333  0.666667  0.171836  1
  Se  Se8  1  0.978820  0.319834  0.873987  1
  Se  Se9  1  0.341014  0.319834  0.626013  1
  Se  Se10  1  0.978820  0.658986  0.626013  1
  Se  Se11  1  0.680166  0.021180  0.626013  1
  Se  Se12  1  0.319834  0.341014  0.126013  1
  Se  Se13  1  0.658986  0.978820  0.126013  1
  Se  Se14  1  0.021180  0.680166  0.126013  1
  Se  Se15  1  0.658986  0.680166  0.373987  1
  Se  Se16  1  0.021180  0.341014  0.373987  1
  Se  Se17  1  0.319834  0.978820  0.373987  1
  Se  Se18  1  0.680166  0.658986  0.873987  1
  Se  Se19  1  0.341014  0.021180  0.873987  1
