# generated using pymatgen
data_Al6V12ZnCoN4
_symmetry_space_group_name_H-M   'P 1'
_cell_length_a   6.59104595
_cell_length_b   6.59541945
_cell_length_c   6.58905919
_cell_angle_alpha   89.97366630
_cell_angle_beta   89.90603513
_cell_angle_gamma   89.96718102
_symmetry_Int_Tables_number   1
_chemical_formula_structural   Al6V12ZnCoN4
_chemical_formula_sum   'Al6 V12 Zn1 Co1 N4'
_cell_volume   286.43063615
_cell_formula_units_Z   1
loop_
 _symmetry_equiv_pos_site_id
 _symmetry_equiv_pos_as_xyz
  1  'x, y, z'
loop_
 _atom_site_type_symbol
 _atom_site_label
 _atom_site_symmetry_multiplicity
 _atom_site_fract_x
 _atom_site_fract_y
 _atom_site_fract_z
 _atom_site_occupancy
  Al  Al0  1  0.165828  0.811358  0.320958  1
  Al  Al1  1  0.315180  0.177524  0.825753  1
  Al  Al2  1  0.829959  0.327783  0.191475  1
  Al  Al3  1  0.693192  0.674258  0.666679  1
  Al  Al4  1  0.574061  0.428538  0.930093  1
  Al  Al5  1  0.428304  0.926393  0.569721  1
  V  V6  1  0.789532  0.956868  0.379776  1
  V  V7  1  0.707691  0.040216  0.871281  1
  V  V8  1  0.208648  0.460810  0.122284  1
  V  V9  1  0.288546  0.540250  0.625847  1
  V  V10  1  0.957502  0.378622  0.788089  1
  V  V11  1  0.041970  0.875637  0.706015  1
  V  V12  1  0.461884  0.126914  0.209093  1
  V  V13  1  0.542117  0.624794  0.291067  1
  V  V14  1  0.377063  0.790030  0.958628  1
  V  V15  1  0.872531  0.706816  0.041962  1
  V  V16  1  0.125913  0.211985  0.461492  1
  V  V17  1  0.623158  0.291564  0.540099  1
  Zn  Zn18  1  0.067610  0.068740  0.073646  1
  Co  Co19  1  0.931309  0.569448  0.427841  1
  N  N20  1  0.874918  0.127831  0.624474  1
  N  N21  1  0.627896  0.876126  0.126733  1
  N  N22  1  0.122474  0.629321  0.874460  1
  N  N23  1  0.372713  0.378174  0.372534  1
