# generated using pymatgen
data_Y17Ho3(IrPt)6
_symmetry_space_group_name_H-M   'P 1'
_cell_length_a   11.06909760
_cell_length_b   11.06662901
_cell_length_c   6.34279600
_cell_angle_alpha   89.99633348
_cell_angle_beta   90.01987640
_cell_angle_gamma   89.99958646
_symmetry_Int_Tables_number   1
_chemical_formula_structural   Y17Ho3(IrPt)6
_chemical_formula_sum   'Y17 Ho3 Ir6 Pt6'
_cell_volume   776.97721775
_cell_formula_units_Z   1
loop_
 _symmetry_equiv_pos_site_id
 _symmetry_equiv_pos_as_xyz
  1  'x, y, z'
loop_
 _atom_site_type_symbol
 _atom_site_label
 _atom_site_symmetry_multiplicity
 _atom_site_fract_x
 _atom_site_fract_y
 _atom_site_fract_z
 _atom_site_occupancy
  Y  Y0  1  0.295267  0.090542  0.372627  1
  Y  Y1  1  0.295146  0.909558  0.872616  1
  Y  Y2  1  0.704695  0.087226  0.871717  1
  Y  Y3  1  0.704562  0.912688  0.371660  1
  Y  Y4  1  0.583947  0.791903  0.872502  1
  Y  Y5  1  0.584053  0.208102  0.372423  1
  Y  Y6  1  0.410881  0.792666  0.377316  1
  Y  Y7  1  0.410992  0.207325  0.877378  1
  Y  Y8  1  0.209805  0.414074  0.624378  1
  Y  Y9  1  0.209800  0.585838  0.124334  1
  Y  Y10  1  0.794640  0.412546  0.125869  1
  Y  Y11  1  0.794652  0.587554  0.625955  1
  Y  Y12  1  0.913705  0.704947  0.127554  1
  Y  Y13  1  0.913614  0.295182  0.627583  1
  Y  Y14  1  0.091399  0.704598  0.628107  1
  Y  Y15  1  0.091291  0.295261  0.128073  1
  Y  Y16  1  0.999780  0.999655  0.499930  1
  Ho  Ho17  1  0.999758  0.000312  0.999931  1
  Ho  Ho18  1  0.497086  0.499149  0.000068  1
  Ho  Ho19  1  0.497113  0.500843  0.500068  1
  Ir  Ir20  1  0.347273  0.346700  0.249965  1
  Ir  Ir21  1  0.347212  0.653250  0.750035  1
  Ir  Ir22  1  0.500178  0.999798  0.121590  1
  Ir  Ir23  1  0.500186  0.000200  0.621606  1
  Ir  Ir24  1  0.999511  0.500082  0.878452  1
  Ir  Ir25  1  0.999515  0.499919  0.378434  1
  Pt  Pt26  1  0.845912  0.153411  0.249312  1
  Pt  Pt27  1  0.845871  0.846635  0.751604  1
  Pt  Pt28  1  0.152719  0.153316  0.750633  1
  Pt  Pt29  1  0.152699  0.846666  0.248325  1
  Pt  Pt30  1  0.653391  0.347025  0.750005  1
  Pt  Pt31  1  0.653347  0.653026  0.249949  1
