# generated using pymatgen
data_Ba4H12RhAu
_symmetry_space_group_name_H-M   'P 1'
_cell_length_a   7.93796192
_cell_length_b   7.93796231
_cell_length_c   6.03698583
_cell_angle_alpha   89.97436957
_cell_angle_beta   89.97436699
_cell_angle_gamma   135.34516880
_symmetry_Int_Tables_number   1
_chemical_formula_structural   Ba4H12RhAu
_chemical_formula_sum   'Ba4 H12 Rh1 Au1'
_cell_volume   267.35649641
_cell_formula_units_Z   1
loop_
 _symmetry_equiv_pos_site_id
 _symmetry_equiv_pos_as_xyz
  1  'x, y, z'
loop_
 _atom_site_type_symbol
 _atom_site_label
 _atom_site_symmetry_multiplicity
 _atom_site_fract_x
 _atom_site_fract_y
 _atom_site_fract_z
 _atom_site_occupancy
  Ba  Ba0  1  0.357910  0.642090  0.000000  1
  Ba  Ba1  1  0.855312  0.144688  0.500000  1
  Ba  Ba2  1  0.642090  0.357910  0.000000  1
  Ba  Ba3  1  0.144688  0.855312  0.500000  1
  H  H4  1  0.000113  0.500819  0.245191  1
  H  H5  1  0.499181  0.999887  0.754809  1
  H  H6  1  0.999887  0.499181  0.754809  1
  H  H7  1  0.500819  0.000113  0.245191  1
  H  H8  1  0.114198  0.885802  0.000000  1
  H  H9  1  0.614819  0.385181  0.500000  1
  H  H10  1  0.885802  0.114198  0.000000  1
  H  H11  1  0.385181  0.614819  0.500000  1
  H  H12  1  0.697786  0.697786  0.301582  1
  H  H13  1  0.302214  0.302214  0.698418  1
  H  H14  1  0.697659  0.697659  0.697924  1
  H  H15  1  0.302341  0.302341  0.302076  1
  Rh  Rh16  1  0.500000  0.500000  0.500000  1
  Au  Au17  1  0.000000  0.000000  0.000000  1
