# generated using pymatgen
data_Tm4Lu5Sc11Bi12
_symmetry_space_group_name_H-M   'P 1'
_cell_length_a   7.91408068
_cell_length_b   9.16427150
_cell_length_c   11.70223549
_cell_angle_alpha   90.05822519
_cell_angle_beta   90.06747397
_cell_angle_gamma   89.96980584
_symmetry_Int_Tables_number   1
_chemical_formula_structural   Tm4Lu5Sc11Bi12
_chemical_formula_sum   'Tm4 Lu5 Sc11 Bi12'
_cell_volume   848.72436184
_cell_formula_units_Z   1
loop_
 _symmetry_equiv_pos_site_id
 _symmetry_equiv_pos_as_xyz
  1  'x, y, z'
loop_
 _atom_site_type_symbol
 _atom_site_label
 _atom_site_symmetry_multiplicity
 _atom_site_fract_x
 _atom_site_fract_y
 _atom_site_fract_z
 _atom_site_occupancy
  Tm  Tm0  1  0.184174  0.249457  0.781191  1
  Tm  Tm1  1  0.815599  0.750632  0.218078  1
  Tm  Tm2  1  0.315543  0.750440  0.280839  1
  Tm  Tm3  1  0.683706  0.250264  0.719361  1
  Lu  Lu4  1  0.351821  0.250946  0.280371  1
  Lu  Lu5  1  0.647784  0.750017  0.719513  1
  Lu  Lu6  1  0.146229  0.751519  0.781838  1
  Lu  Lu7  1  0.851134  0.250058  0.218976  1
  Lu  Lu8  1  0.309381  0.565197  0.559960  1
  Sc  Sc9  1  0.018081  0.249601  0.509967  1
  Sc  Sc10  1  0.980650  0.751724  0.489228  1
  Sc  Sc11  1  0.482072  0.750221  0.010419  1
  Sc  Sc12  1  0.518048  0.249950  0.990677  1
  Sc  Sc13  1  0.192110  0.067101  0.059063  1
  Sc  Sc14  1  0.807750  0.932891  0.940772  1
  Sc  Sc15  1  0.307537  0.931299  0.559473  1
  Sc  Sc16  1  0.807647  0.567538  0.940891  1
  Sc  Sc17  1  0.694501  0.067575  0.439925  1
  Sc  Sc18  1  0.191895  0.432838  0.059254  1
  Sc  Sc19  1  0.692955  0.432461  0.440698  1
  Bi  Bi20  1  0.404430  0.243668  0.538678  1
  Bi  Bi21  1  0.601269  0.752408  0.458923  1
  Bi  Bi22  1  0.097641  0.749974  0.039817  1
  Bi  Bi23  1  0.902538  0.250304  0.960592  1
  Bi  Bi24  1  0.065673  0.005011  0.330407  1
  Bi  Bi25  1  0.934172  0.996229  0.668901  1
  Bi  Bi26  1  0.434454  0.995648  0.831482  1
  Bi  Bi27  1  0.932229  0.504355  0.669710  1
  Bi  Bi28  1  0.565240  0.004810  0.169076  1
  Bi  Bi29  1  0.063945  0.495708  0.329776  1
  Bi  Bi30  1  0.565414  0.495992  0.169395  1
  Bi  Bi31  1  0.434376  0.504164  0.832751  1
