# generated using pymatgen
data_DyYIrRhO7
_symmetry_space_group_name_H-M   'P 1'
_cell_length_a   7.24686545
_cell_length_b   7.24839487
_cell_length_c   7.24651561
_cell_angle_alpha   59.98320012
_cell_angle_beta   59.99749768
_cell_angle_gamma   60.00689276
_symmetry_Int_Tables_number   1
_chemical_formula_structural   DyYIrRhO7
_chemical_formula_sum   'Dy2 Y2 Ir2 Rh2 O14'
_cell_volume   269.13210377
_cell_formula_units_Z   2
loop_
 _symmetry_equiv_pos_site_id
 _symmetry_equiv_pos_as_xyz
  1  'x, y, z'
loop_
 _atom_site_type_symbol
 _atom_site_label
 _atom_site_symmetry_multiplicity
 _atom_site_fract_x
 _atom_site_fract_y
 _atom_site_fract_z
 _atom_site_occupancy
  Dy  Dy0  1  0.125000  0.625000  0.125000  1
  Dy  Dy1  1  0.125000  0.125000  0.625000  1
  Y  Y2  1  0.625000  0.125000  0.125000  1
  Y  Y3  1  0.125000  0.125000  0.125000  1
  Ir  Ir4  1  0.125000  0.625000  0.625000  1
  Ir  Ir5  1  0.625000  0.625000  0.625000  1
  Rh  Rh6  1  0.625000  0.125000  0.625000  1
  Rh  Rh7  1  0.625000  0.625000  0.125000  1
  O  O8  1  0.715312  0.708186  0.290627  1
  O  O9  1  0.285558  0.290804  0.708257  1
  O  O10  1  0.715423  0.290715  0.708286  1
  O  O11  1  0.285856  0.708158  0.290716  1
  O  O12  1  0.291024  0.708921  0.708912  1
  O  O13  1  0.715538  0.284681  0.284250  1
  O  O14  1  0.534688  0.541814  0.959373  1
  O  O15  1  0.964442  0.959196  0.541743  1
  O  O16  1  0.534577  0.959285  0.541714  1
  O  O17  1  0.964144  0.541842  0.959284  1
  O  O18  1  0.958976  0.541079  0.541088  1
  O  O19  1  0.534462  0.965319  0.965750  1
  O  O20  1  0.248532  0.251464  0.251463  1
  O  O21  1  0.001468  0.998536  0.998537  1
