# generated using pymatgen
data_TbHo7CdInPd2
_symmetry_space_group_name_H-M   'P 1'
_cell_length_a   9.68153853
_cell_length_b   9.68153766
_cell_length_c   9.68505700
_cell_angle_alpha   59.98797102
_cell_angle_beta   59.98797401
_cell_angle_gamma   60.04233739
_symmetry_Int_Tables_number   1
_chemical_formula_structural   TbHo7CdInPd2
_chemical_formula_sum   'Tb2 Ho14 Cd2 In2 Pd4'
_cell_volume   642.00090400
_cell_formula_units_Z   2
loop_
 _symmetry_equiv_pos_site_id
 _symmetry_equiv_pos_as_xyz
  1  'x, y, z'
loop_
 _atom_site_type_symbol
 _atom_site_label
 _atom_site_symmetry_multiplicity
 _atom_site_fract_x
 _atom_site_fract_y
 _atom_site_fract_z
 _atom_site_occupancy
  Tb  Tb0  1  0.352881  0.352881  0.353181  1
  Tb  Tb1  1  0.352881  0.352881  0.941058  1
  Ho  Ho2  1  0.353585  0.939663  0.353377  1
  Ho  Ho3  1  0.939663  0.353585  0.353377  1
  Ho  Ho4  1  0.810389  0.190119  0.189743  1
  Ho  Ho5  1  0.190119  0.810389  0.809749  1
  Ho  Ho6  1  0.190119  0.810389  0.189743  1
  Ho  Ho7  1  0.810389  0.190119  0.809749  1
  Ho  Ho8  1  0.189084  0.189084  0.810916  1
  Ho  Ho9  1  0.809300  0.809300  0.190700  1
  Ho  Ho10  1  0.935892  0.565690  0.565587  1
  Ho  Ho11  1  0.565690  0.935892  0.932831  1
  Ho  Ho12  1  0.565690  0.935892  0.565587  1
  Ho  Ho13  1  0.935892  0.565690  0.932831  1
  Ho  Ho14  1  0.566135  0.566135  0.933865  1
  Ho  Ho15  1  0.935313  0.935313  0.564687  1
  Cd  Cd16  1  0.582149  0.251388  0.583231  1
  Cd  Cd17  1  0.251388  0.582149  0.583231  1
  In  In18  1  0.582270  0.582270  0.583262  1
  In  In19  1  0.582270  0.582270  0.252198  1
  Pd  Pd20  1  0.143640  0.143640  0.144797  1
  Pd  Pd21  1  0.143640  0.143640  0.567923  1
  Pd  Pd22  1  0.142853  0.568770  0.144188  1
  Pd  Pd23  1  0.568770  0.142853  0.144188  1
