# generated using pymatgen
data_EuCu(Sb4Ru)3
_symmetry_space_group_name_H-M   'P 1'
_cell_length_a   8.17994531
_cell_length_b   8.17994570
_cell_length_c   8.19379100
_cell_angle_alpha   109.50551374
_cell_angle_beta   109.50551471
_cell_angle_gamma   109.43690734
_symmetry_Int_Tables_number   1
_chemical_formula_structural   EuCu(Sb4Ru)3
_chemical_formula_sum   'Eu1 Cu1 Sb12 Ru3'
_cell_volume   421.87114379
_cell_formula_units_Z   1
loop_
 _symmetry_equiv_pos_site_id
 _symmetry_equiv_pos_as_xyz
  1  'x, y, z'
loop_
 _atom_site_type_symbol
 _atom_site_label
 _atom_site_symmetry_multiplicity
 _atom_site_fract_x
 _atom_site_fract_y
 _atom_site_fract_z
 _atom_site_occupancy
  Eu  Eu0  1  0.000000  0.000000  0.000000  1
  Cu  Cu1  1  0.000000  0.000000  0.500000  1
  Sb  Sb2  1  0.654304  0.840168  0.502224  1
  Sb  Sb3  1  0.345696  0.159832  0.497776  1
  Sb  Sb4  1  0.840168  0.185864  0.337943  1
  Sb  Sb5  1  0.814136  0.654304  0.152079  1
  Sb  Sb6  1  0.842350  0.502519  0.661165  1
  Sb  Sb7  1  0.185864  0.345696  0.847921  1
  Sb  Sb8  1  0.159832  0.814136  0.662057  1
  Sb  Sb9  1  0.502519  0.660169  0.841354  1
  Sb  Sb10  1  0.497481  0.339831  0.158646  1
  Sb  Sb11  1  0.157650  0.497481  0.338835  1
  Sb  Sb12  1  0.339831  0.842350  0.181185  1
  Sb  Sb13  1  0.660169  0.157650  0.818815  1
  Ru  Ru14  1  0.500000  0.500000  0.500000  1
  Ru  Ru15  1  0.500000  0.000000  0.000000  1
  Ru  Ru16  1  0.000000  0.500000  0.000000  1
