# generated using pymatgen
data_Tb6Th2AlPt24
_symmetry_space_group_name_H-M   'P 1'
_cell_length_a   8.40245725
_cell_length_b   8.40245751
_cell_length_c   8.40245700
_cell_angle_alpha   89.98591209
_cell_angle_beta   89.98591209
_cell_angle_gamma   89.98590862
_symmetry_Int_Tables_number   1
_chemical_formula_structural   Tb6Th2AlPt24
_chemical_formula_sum   'Tb6 Th2 Al1 Pt24'
_cell_volume   593.22424990
_cell_formula_units_Z   1
loop_
 _symmetry_equiv_pos_site_id
 _symmetry_equiv_pos_as_xyz
  1  'x, y, z'
loop_
 _atom_site_type_symbol
 _atom_site_label
 _atom_site_symmetry_multiplicity
 _atom_site_fract_x
 _atom_site_fract_y
 _atom_site_fract_z
 _atom_site_occupancy
  Tb  Tb0  1  0.748274  0.748274  0.251366  1
  Tb  Tb1  1  0.748274  0.251366  0.748274  1
  Tb  Tb2  1  0.251726  0.251726  0.748634  1
  Tb  Tb3  1  0.251726  0.748634  0.251726  1
  Tb  Tb4  1  0.251366  0.748274  0.748274  1
  Tb  Tb5  1  0.748634  0.251726  0.251726  1
  Th  Th6  1  0.251894  0.251894  0.251894  1
  Th  Th7  1  0.748106  0.748106  0.748106  1
  Al  Al8  1  0.000000  0.000000  0.000000  1
  Pt  Pt9  1  0.260319  0.500619  0.999073  1
  Pt  Pt10  1  0.739681  0.499381  0.000927  1
  Pt  Pt11  1  0.999073  0.260319  0.500619  1
  Pt  Pt12  1  0.500619  0.260319  0.999073  1
  Pt  Pt13  1  0.000927  0.739681  0.499381  1
  Pt  Pt14  1  0.499381  0.739681  0.000927  1
  Pt  Pt15  1  0.500619  0.999073  0.260319  1
  Pt  Pt16  1  0.260319  0.999073  0.500619  1
  Pt  Pt17  1  0.499381  0.000927  0.739681  1
  Pt  Pt18  1  0.739681  0.000927  0.499381  1
  Pt  Pt19  1  0.999073  0.500619  0.260319  1
  Pt  Pt20  1  0.000927  0.499381  0.739681  1
  Pt  Pt21  1  0.253266  0.501014  0.501014  1
  Pt  Pt22  1  0.746734  0.498986  0.498986  1
  Pt  Pt23  1  0.501014  0.253266  0.501014  1
  Pt  Pt24  1  0.498986  0.746734  0.498986  1
  Pt  Pt25  1  0.501014  0.501014  0.253266  1
  Pt  Pt26  1  0.498986  0.498986  0.746734  1
  Pt  Pt27  1  0.290531  0.998680  0.998680  1
  Pt  Pt28  1  0.709469  0.001320  0.001320  1
  Pt  Pt29  1  0.998680  0.290531  0.998680  1
  Pt  Pt30  1  0.001320  0.709469  0.001320  1
  Pt  Pt31  1  0.998680  0.998680  0.290531  1
  Pt  Pt32  1  0.001320  0.001320  0.709469  1
