# generated using pymatgen
data_Tb5Sm2TmC10
_symmetry_space_group_name_H-M   'P 1'
_cell_length_a   3.70774900
_cell_length_b   6.65675853
_cell_length_c   12.01845401
_cell_angle_alpha   89.82094266
_cell_angle_beta   90.00000000
_cell_angle_gamma   90.00000000
_symmetry_Int_Tables_number   1
_chemical_formula_structural   Tb5Sm2TmC10
_chemical_formula_sum   'Tb5 Sm2 Tm1 C10'
_cell_volume   296.63310315
_cell_formula_units_Z   1
loop_
 _symmetry_equiv_pos_site_id
 _symmetry_equiv_pos_as_xyz
  1  'x, y, z'
loop_
 _atom_site_type_symbol
 _atom_site_label
 _atom_site_symmetry_multiplicity
 _atom_site_fract_x
 _atom_site_fract_y
 _atom_site_fract_z
 _atom_site_occupancy
  Tb  Tb0  1  0.000000  0.236974  0.042147  1
  Tb  Tb1  1  0.500000  0.109367  0.802678  1
  Tb  Tb2  1  0.500000  0.894813  0.197056  1
  Tb  Tb3  1  0.500000  0.603142  0.697252  1
  Tb  Tb4  1  0.500000  0.390028  0.304576  1
  Sm  Sm5  1  0.000000  0.753008  0.457071  1
  Sm  Sm6  1  0.000000  0.745745  0.955472  1
  Tm  Tm7  1  0.000000  0.266155  0.542300  1
  C  C8  1  0.500000  0.505342  0.502770  1
  C  C9  1  0.500000  0.990232  0.001729  1
  C  C10  1  0.000000  0.362709  0.733138  1
  C  C11  1  0.000000  0.643539  0.260215  1
  C  C12  1  0.000000  0.858047  0.757390  1
  C  C13  1  0.000000  0.134490  0.238565  1
  C  C14  1  0.000000  0.379927  0.843827  1
  C  C15  1  0.000000  0.567727  0.158422  1
  C  C16  1  0.000000  0.121456  0.349460  1
  C  C17  1  0.000000  0.937297  0.655933  1
