# generated using pymatgen
data_TlVGaF6
_symmetry_space_group_name_H-M   'P 1'
_cell_length_a   7.48893600
_cell_length_b   7.48893677
_cell_length_c   7.48893700
_cell_angle_alpha   120.53756067
_cell_angle_beta   119.43408926
_cell_angle_gamma   90.02720766
_symmetry_Int_Tables_number   1
_chemical_formula_structural   TlVGaF6
_chemical_formula_sum   'Tl2 V2 Ga2 F12'
_cell_volume   297.02167290
_cell_formula_units_Z   2
loop_
 _symmetry_equiv_pos_site_id
 _symmetry_equiv_pos_as_xyz
  1  'x, y, z'
loop_
 _atom_site_type_symbol
 _atom_site_label
 _atom_site_symmetry_multiplicity
 _atom_site_fract_x
 _atom_site_fract_y
 _atom_site_fract_z
 _atom_site_occupancy
  Tl  Tl0  1  0.352944  0.602944  0.750000  1
  Tl  Tl1  1  0.647056  0.397056  0.250000  1
  V  V2  1  0.000000  0.000000  0.500000  1
  V  V3  1  0.000000  0.500000  0.000000  1
  Ga  Ga4  1  0.000000  0.000000  0.000000  1
  Ga  Ga5  1  0.500000  0.000000  0.500000  1
  F  F6  1  0.299787  0.049787  0.250000  1
  F  F7  1  0.904198  0.654198  0.250000  1
  F  F8  1  0.336641  0.694101  0.277724  1
  F  F9  1  0.916377  0.058916  0.222276  1
  F  F10  1  0.336641  0.058916  0.642539  1
  F  F11  1  0.916377  0.694101  0.857461  1
  F  F12  1  0.700213  0.950213  0.750000  1
  F  F13  1  0.095802  0.345802  0.750000  1
  F  F14  1  0.663359  0.305899  0.722276  1
  F  F15  1  0.083623  0.941084  0.777724  1
  F  F16  1  0.663359  0.941084  0.357461  1
  F  F17  1  0.083623  0.305899  0.142539  1
