# generated using pymatgen
data_Tb20Ir7Pt5
_symmetry_space_group_name_H-M   'P 1'
_cell_length_a   11.06932627
_cell_length_b   11.06932627
_cell_length_c   6.35637201
_cell_angle_alpha   90.00426030
_cell_angle_beta   90.00426030
_cell_angle_gamma   89.86001782
_symmetry_Int_Tables_number   1
_chemical_formula_structural   Tb20Ir7Pt5
_chemical_formula_sum   'Tb20 Ir7 Pt5'
_cell_volume   778.84383178
_cell_formula_units_Z   1
loop_
 _symmetry_equiv_pos_site_id
 _symmetry_equiv_pos_as_xyz
  1  'x, y, z'
loop_
 _atom_site_type_symbol
 _atom_site_label
 _atom_site_symmetry_multiplicity
 _atom_site_fract_x
 _atom_site_fract_y
 _atom_site_fract_z
 _atom_site_occupancy
  Tb  Tb0  1  0.295132  0.090703  0.374701  1
  Tb  Tb1  1  0.295269  0.909276  0.874013  1
  Tb  Tb2  1  0.704980  0.087187  0.874623  1
  Tb  Tb3  1  0.704812  0.908884  0.374320  1
  Tb  Tb4  1  0.586563  0.790701  0.879472  1
  Tb  Tb5  1  0.584978  0.206462  0.375585  1
  Tb  Tb6  1  0.413581  0.791667  0.379070  1
  Tb  Tb7  1  0.410745  0.207434  0.880682  1
  Tb  Tb8  1  0.209299  0.413437  0.620528  1
  Tb  Tb9  1  0.208333  0.586419  0.120930  1
  Tb  Tb10  1  0.793538  0.415022  0.124415  1
  Tb  Tb11  1  0.792566  0.589255  0.619318  1
  Tb  Tb12  1  0.909297  0.704868  0.125299  1
  Tb  Tb13  1  0.912813  0.295020  0.625377  1
  Tb  Tb14  1  0.090724  0.704731  0.625987  1
  Tb  Tb15  1  0.091116  0.295188  0.125680  1
  Tb  Tb16  1  0.999843  0.999860  0.499691  1
  Tb  Tb17  1  0.000140  0.000157  0.000309  1
  Tb  Tb18  1  0.498405  0.501216  0.000456  1
  Tb  Tb19  1  0.498784  0.501595  0.499544  1
  Ir  Ir20  1  0.654223  0.653645  0.250108  1
  Ir  Ir21  1  0.346355  0.345777  0.249892  1
  Ir  Ir22  1  0.345107  0.654893  0.750000  1
  Ir  Ir23  1  0.500337  0.000441  0.121282  1
  Ir  Ir24  1  0.500230  0.000652  0.622310  1
  Ir  Ir25  1  0.999348  0.499770  0.877690  1
  Ir  Ir26  1  0.999559  0.499663  0.378718  1
  Pt  Pt27  1  0.845823  0.154177  0.250000  1
  Pt  Pt28  1  0.846354  0.846888  0.750319  1
  Pt  Pt29  1  0.153112  0.153646  0.749681  1
  Pt  Pt30  1  0.153648  0.846352  0.250000  1
  Pt  Pt31  1  0.654984  0.345016  0.750000  1
