# generated using pymatgen
data_La7Pr9MgCd3OsPt3
_symmetry_space_group_name_H-M   'P 1'
_cell_length_a   10.15784337
_cell_length_b   10.15759409
_cell_length_c   10.19747827
_cell_angle_alpha   59.63382945
_cell_angle_beta   59.78623115
_cell_angle_gamma   59.73166993
_symmetry_Int_Tables_number   1
_chemical_formula_structural   La7Pr9MgCd3OsPt3
_chemical_formula_sum   'La7 Pr9 Mg1 Cd3 Os1 Pt3'
_cell_volume   739.21451864
_cell_formula_units_Z   1
loop_
 _symmetry_equiv_pos_site_id
 _symmetry_equiv_pos_as_xyz
  1  'x, y, z'
loop_
 _atom_site_type_symbol
 _atom_site_label
 _atom_site_symmetry_multiplicity
 _atom_site_fract_x
 _atom_site_fract_y
 _atom_site_fract_z
 _atom_site_occupancy
  La  La0  1  0.350966  0.351023  0.351320  1
  La  La1  1  0.345965  0.344839  0.956579  1
  La  La2  1  0.346403  0.957398  0.345437  1
  La  La3  1  0.957534  0.345790  0.346036  1
  La  La4  1  0.817514  0.188340  0.187611  1
  La  La5  1  0.187443  0.809416  0.808998  1
  La  La6  1  0.188228  0.817815  0.188928  1
  Pr  Pr7  1  0.807709  0.188444  0.808594  1
  Pr  Pr8  1  0.189553  0.191355  0.813263  1
  Pr  Pr9  1  0.807075  0.807929  0.189462  1
  Pr  Pr10  1  0.936643  0.565250  0.565074  1
  Pr  Pr11  1  0.557942  0.936841  0.936946  1
  Pr  Pr12  1  0.565203  0.937133  0.565113  1
  Pr  Pr13  1  0.936903  0.557451  0.937340  1
  Pr  Pr14  1  0.564942  0.564433  0.938263  1
  Pr  Pr15  1  0.937328  0.938003  0.556847  1
  Mg  Mg16  1  0.575930  0.574999  0.574957  1
  Cd  Cd17  1  0.581651  0.581446  0.257037  1
  Cd  Cd18  1  0.580795  0.256970  0.581924  1
  Cd  Cd19  1  0.257340  0.580259  0.581502  1
  Os  Os20  1  0.140786  0.141037  0.146530  1
  Pt  Pt21  1  0.145820  0.143683  0.573207  1
  Pt  Pt22  1  0.146612  0.574091  0.143678  1
  Pt  Pt23  1  0.573717  0.146054  0.145353  1
