# generated using pymatgen
data_Dy3Sc5Pt4
_symmetry_space_group_name_H-M   'P 1'
_cell_length_a   4.61938800
_cell_length_b   6.89815522
_cell_length_c   8.34196661
_cell_angle_alpha   90.87162102
_cell_angle_beta   90.00000000
_cell_angle_gamma   90.00000000
_symmetry_Int_Tables_number   1
_chemical_formula_structural   Dy3Sc5Pt4
_chemical_formula_sum   'Dy3 Sc5 Pt4'
_cell_volume   265.78813896
_cell_formula_units_Z   1
loop_
 _symmetry_equiv_pos_site_id
 _symmetry_equiv_pos_as_xyz
  1  'x, y, z'
loop_
 _atom_site_type_symbol
 _atom_site_label
 _atom_site_symmetry_multiplicity
 _atom_site_fract_x
 _atom_site_fract_y
 _atom_site_fract_z
 _atom_site_occupancy
  Dy  Dy0  1  0.250000  0.519237  0.179828  1
  Dy  Dy1  1  0.750000  0.983811  0.674471  1
  Dy  Dy2  1  0.750000  0.486028  0.821942  1
  Sc  Sc3  1  0.250000  0.142046  0.930528  1
  Sc  Sc4  1  0.250000  0.642101  0.570056  1
  Sc  Sc5  1  0.750000  0.865202  0.081978  1
  Sc  Sc6  1  0.750000  0.347650  0.423089  1
  Sc  Sc7  1  0.250000  0.014973  0.328272  1
  Pt  Pt8  1  0.250000  0.249325  0.592325  1
  Pt  Pt9  1  0.250000  0.754935  0.903087  1
  Pt  Pt10  1  0.750000  0.745461  0.399216  1
  Pt  Pt11  1  0.750000  0.249231  0.095208  1
