# generated using pymatgen
data_TbY7Th4(ZnAu5)4
_symmetry_space_group_name_H-M   'P 1'
_cell_length_a   8.50489315
_cell_length_b   8.50489241
_cell_length_c   13.59083216
_cell_angle_alpha   89.98406257
_cell_angle_beta   90.01593858
_cell_angle_gamma   127.22823121
_symmetry_Int_Tables_number   1
_chemical_formula_structural   TbY7Th4(ZnAu5)4
_chemical_formula_sum   'Tb1 Y7 Th4 Zn4 Au20'
_cell_volume   782.75039857
_cell_formula_units_Z   1
loop_
 _symmetry_equiv_pos_site_id
 _symmetry_equiv_pos_as_xyz
  1  'x, y, z'
loop_
 _atom_site_type_symbol
 _atom_site_label
 _atom_site_symmetry_multiplicity
 _atom_site_fract_x
 _atom_site_fract_y
 _atom_site_fract_z
 _atom_site_occupancy
  Tb  Tb0  1  0.117691  0.882309  0.451843  1
  Y  Y1  1  0.630662  0.369338  0.460645  1
  Y  Y2  1  0.369446  0.630554  0.539442  1
  Y  Y3  1  0.630656  0.369344  0.039336  1
  Y  Y4  1  0.369364  0.630636  0.960596  1
  Y  Y5  1  0.882278  0.117722  0.951841  1
  Y  Y6  1  0.117659  0.882341  0.048133  1
  Y  Y7  1  0.882237  0.117763  0.548192  1
  Th  Th8  1  0.930906  0.069094  0.249855  1
  Th  Th9  1  0.069029  0.930971  0.750137  1
  Th  Th10  1  0.319434  0.680566  0.249832  1
  Th  Th11  1  0.680512  0.319488  0.750058  1
  Zn  Zn12  1  0.719164  0.280836  0.249992  1
  Zn  Zn13  1  0.280829  0.719171  0.749989  1
  Zn  Zn14  1  0.533928  0.466072  0.249985  1
  Zn  Zn15  1  0.466112  0.533888  0.750024  1
  Au  Au16  1  0.318996  0.065425  0.249981  1
  Au  Au17  1  0.065518  0.318981  0.750027  1
  Au  Au18  1  0.681019  0.934482  0.750027  1
  Au  Au19  1  0.934575  0.681004  0.249981  1
  Au  Au20  1  0.570478  0.005168  0.397840  1
  Au  Au21  1  0.005056  0.570523  0.602179  1
  Au  Au22  1  0.570613  0.005195  0.102180  1
  Au  Au23  1  0.005129  0.570493  0.897834  1
  Au  Au24  1  0.429477  0.994944  0.602179  1
  Au  Au25  1  0.994832  0.429522  0.397840  1
  Au  Au26  1  0.429507  0.994871  0.897834  1
  Au  Au27  1  0.994805  0.429387  0.102180  1
  Au  Au28  1  0.684417  0.739914  0.396041  1
  Au  Au29  1  0.740008  0.684440  0.603964  1
  Au  Au30  1  0.684357  0.739939  0.103961  1
  Au  Au31  1  0.739952  0.684353  0.896043  1
  Au  Au32  1  0.315560  0.259992  0.603964  1
  Au  Au33  1  0.260086  0.315583  0.396041  1
  Au  Au34  1  0.315647  0.260048  0.896043  1
  Au  Au35  1  0.260061  0.315643  0.103961  1
