# generated using pymatgen
data_Y4Al4Ir2PdRh
_symmetry_space_group_name_H-M   'P 1'
_cell_length_a   4.29989800
_cell_length_b   6.91055263
_cell_length_c   7.91669751
_cell_angle_alpha   89.63226244
_cell_angle_beta   90.00000000
_cell_angle_gamma   90.00000000
_symmetry_Int_Tables_number   1
_chemical_formula_structural   Y4Al4Ir2PdRh
_chemical_formula_sum   'Y4 Al4 Ir2 Pd1 Rh1'
_cell_volume   235.23722002
_cell_formula_units_Z   1
loop_
 _symmetry_equiv_pos_site_id
 _symmetry_equiv_pos_as_xyz
  1  'x, y, z'
loop_
 _atom_site_type_symbol
 _atom_site_label
 _atom_site_symmetry_multiplicity
 _atom_site_fract_x
 _atom_site_fract_y
 _atom_site_fract_z
 _atom_site_occupancy
  Y  Y0  1  0.250000  0.026892  0.323300  1
  Y  Y1  1  0.250000  0.538583  0.182100  1
  Y  Y2  1  0.750000  0.971046  0.679425  1
  Y  Y3  1  0.750000  0.469683  0.814955  1
  Al  Al4  1  0.250000  0.138517  0.934017  1
  Al  Al5  1  0.250000  0.639233  0.561343  1
  Al  Al6  1  0.750000  0.855865  0.063299  1
  Al  Al7  1  0.750000  0.362591  0.440632  1
  Ir  Ir8  1  0.250000  0.269391  0.619332  1
  Ir  Ir9  1  0.750000  0.731291  0.379621  1
  Pd  Pd10  1  0.750000  0.228402  0.118351  1
  Rh  Rh11  1  0.250000  0.768506  0.883625  1
