# generated using pymatgen
data_Ac3Ni2Sn7
_symmetry_space_group_name_H-M   'P 1'
_cell_length_a   14.22640132
_cell_length_b   14.22640192
_cell_length_c   4.69044500
_cell_angle_alpha   90.00000000
_cell_angle_beta   90.00000000
_cell_angle_gamma   160.19785010
_symmetry_Int_Tables_number   1
_chemical_formula_structural   Ac3Ni2Sn7
_chemical_formula_sum   'Ac3 Ni2 Sn7'
_cell_volume   321.59793798
_cell_formula_units_Z   1
loop_
 _symmetry_equiv_pos_site_id
 _symmetry_equiv_pos_as_xyz
  1  'x, y, z'
loop_
 _atom_site_type_symbol
 _atom_site_label
 _atom_site_symmetry_multiplicity
 _atom_site_fract_x
 _atom_site_fract_y
 _atom_site_fract_z
 _atom_site_occupancy
  Ac  Ac0  1  0.500000  0.500000  0.500000  1
  Ac  Ac1  1  0.815276  0.184724  0.000000  1
  Ac  Ac2  1  0.184724  0.815276  0.000000  1
  Ni  Ni3  1  0.627458  0.372542  0.500000  1
  Ni  Ni4  1  0.372542  0.627458  0.500000  1
  Sn  Sn5  1  0.000000  0.000000  0.000000  1
  Sn  Sn6  1  0.588736  0.411264  0.000000  1
  Sn  Sn7  1  0.411264  0.588736  0.000000  1
  Sn  Sn8  1  0.910410  0.089590  0.500000  1
  Sn  Sn9  1  0.089590  0.910410  0.500000  1
  Sn  Sn10  1  0.719668  0.280332  0.500000  1
  Sn  Sn11  1  0.280332  0.719668  0.500000  1
