# generated using pymatgen
data_Ac10Pr9NdSn16
_symmetry_space_group_name_H-M   'P 1'
_cell_length_a   8.57356807
_cell_length_b   8.73070939
_cell_length_c   16.59185759
_cell_angle_alpha   89.75333290
_cell_angle_beta   89.99725942
_cell_angle_gamma   89.98574391
_symmetry_Int_Tables_number   1
_chemical_formula_structural   Ac10Pr9NdSn16
_chemical_formula_sum   'Ac10 Pr9 Nd1 Sn16'
_cell_volume   1241.94426274
_cell_formula_units_Z   1
loop_
 _symmetry_equiv_pos_site_id
 _symmetry_equiv_pos_as_xyz
  1  'x, y, z'
loop_
 _atom_site_type_symbol
 _atom_site_label
 _atom_site_symmetry_multiplicity
 _atom_site_fract_x
 _atom_site_fract_y
 _atom_site_fract_z
 _atom_site_occupancy
  Ac  Ac0  1  0.491242  0.818458  0.904324  1
  Ac  Ac1  1  0.991232  0.681534  0.595681  1
  Ac  Ac2  1  0.510181  0.178400  0.401198  1
  Ac  Ac3  1  0.010219  0.321676  0.098801  1
  Ac  Ac4  1  0.509668  0.182236  0.099291  1
  Ac  Ac5  1  0.009738  0.317785  0.400706  1
  Ac  Ac6  1  0.488465  0.816977  0.596577  1
  Ac  Ac7  1  0.988487  0.683007  0.903376  1
  Ac  Ac8  1  0.641959  0.339372  0.882980  1
  Ac  Ac9  1  0.141939  0.160661  0.617015  1
  Pr  Pr10  1  0.858219  0.840085  0.124810  1
  Pr  Pr11  1  0.355099  0.661314  0.122047  1
  Pr  Pr12  1  0.855114  0.838715  0.377980  1
  Pr  Pr13  1  0.645780  0.338134  0.622003  1
  Pr  Pr14  1  0.145767  0.161853  0.878012  1
  Pr  Pr15  1  0.310449  0.498065  0.751372  1
  Pr  Pr16  1  0.810430  0.001934  0.748646  1
  Pr  Pr17  1  0.690482  0.500450  0.250650  1
  Pr  Pr18  1  0.190660  0.999445  0.249397  1
  Nd  Nd19  1  0.358145  0.659919  0.375114  1
  Sn  Sn20  1  0.194536  0.959877  0.042990  1
  Sn  Sn21  1  0.694141  0.540212  0.456958  1
  Sn  Sn22  1  0.792275  0.039329  0.541438  1
  Sn  Sn23  1  0.292230  0.460664  0.958558  1
  Sn  Sn24  1  0.814878  0.035852  0.958813  1
  Sn  Sn25  1  0.314945  0.464415  0.540956  1
  Sn  Sn26  1  0.196176  0.950056  0.451440  1
  Sn  Sn27  1  0.695936  0.549542  0.048500  1
  Sn  Sn28  1  0.688293  0.643829  0.748426  1
  Sn  Sn29  1  0.188256  0.856153  0.751564  1
  Sn  Sn30  1  0.312403  0.360515  0.249781  1
  Sn  Sn31  1  0.812336  0.139758  0.250363  1
  Sn  Sn32  1  0.444860  0.117723  0.751647  1
  Sn  Sn33  1  0.944845  0.382282  0.748323  1
  Sn  Sn34  1  0.555071  0.874782  0.249672  1
  Sn  Sn35  1  0.055545  0.624991  0.250591  1
