# generated using pymatgen
data_Li3TbY2Pt3
_symmetry_space_group_name_H-M   'P 1'
_cell_length_a   7.13205174
_cell_length_b   7.14424893
_cell_length_c   4.08670500
_cell_angle_alpha   90.00000000
_cell_angle_beta   90.00000000
_cell_angle_gamma   120.05658924
_symmetry_Int_Tables_number   1
_chemical_formula_structural   Li3TbY2Pt3
_chemical_formula_sum   'Li3 Tb1 Y2 Pt3'
_cell_volume   180.22998820
_cell_formula_units_Z   1
loop_
 _symmetry_equiv_pos_site_id
 _symmetry_equiv_pos_as_xyz
  1  'x, y, z'
loop_
 _atom_site_type_symbol
 _atom_site_label
 _atom_site_symmetry_multiplicity
 _atom_site_fract_x
 _atom_site_fract_y
 _atom_site_fract_z
 _atom_site_occupancy
  Li  Li0  1  0.765865  0.766682  0.000000  1
  Li  Li1  1  0.234135  0.000817  0.000000  1
  Li  Li2  1  0.000000  0.232246  0.000000  1
  Tb  Tb3  1  0.000000  0.590880  0.500000  1
  Y  Y4  1  0.408783  0.409063  0.500000  1
  Y  Y5  1  0.591217  0.000280  0.500000  1
  Pt  Pt6  1  0.667125  0.333924  0.000000  1
  Pt  Pt7  1  0.332875  0.666800  0.000000  1
  Pt  Pt8  1  0.000000  0.999308  0.500000  1
