# generated using pymatgen
data_RbInSiS4
_symmetry_space_group_name_H-M   'P 1'
_cell_length_a   16.77442100
_cell_length_b   7.65413800
_cell_length_c   12.38268600
_cell_angle_alpha   90.00000000
_cell_angle_beta   90.00000000
_cell_angle_gamma   90.00000000
_symmetry_Int_Tables_number   1
_chemical_formula_structural   RbInSiS4
_chemical_formula_sum   'Rb8 In8 Si8 S32'
_cell_volume   1589.85928263
_cell_formula_units_Z   8
loop_
 _symmetry_equiv_pos_site_id
 _symmetry_equiv_pos_as_xyz
  1  'x, y, z'
loop_
 _atom_site_type_symbol
 _atom_site_label
 _atom_site_symmetry_multiplicity
 _atom_site_fract_x
 _atom_site_fract_y
 _atom_site_fract_z
 _atom_site_occupancy
  Rb  Rb0  1  0.158111  0.249999  0.036203  1
  Rb  Rb1  1  0.556843  0.249999  0.133446  1
  Rb  Rb2  1  0.056843  0.249999  0.366554  1
  Rb  Rb3  1  0.658111  0.249999  0.463797  1
  Rb  Rb4  1  0.341889  0.750000  0.536202  1
  Rb  Rb5  1  0.943157  0.750000  0.633447  1
  Rb  Rb6  1  0.443157  0.750000  0.866553  1
  Rb  Rb7  1  0.841889  0.750000  0.963797  1
  In  In8  1  0.346833  0.508256  0.222332  1
  In  In9  1  0.346833  0.991743  0.222332  1
  In  In10  1  0.846833  0.508256  0.277669  1
  In  In11  1  0.846833  0.991743  0.277669  1
  In  In12  1  0.153167  0.008256  0.722331  1
  In  In13  1  0.153167  0.491744  0.722331  1
  In  In14  1  0.653167  0.008256  0.777669  1
  In  In15  1  0.653167  0.491744  0.777669  1
  Si  Si16  1  0.019116  0.750000  0.191963  1
  Si  Si17  1  0.671044  0.750000  0.207171  1
  Si  Si18  1  0.171044  0.750000  0.292829  1
  Si  Si19  1  0.519116  0.750000  0.308037  1
  Si  Si20  1  0.480884  0.249999  0.691963  1
  Si  Si21  1  0.828955  0.249999  0.707170  1
  Si  Si22  1  0.328956  0.249999  0.792830  1
  Si  Si23  1  0.980884  0.249999  0.808038  1
  S  S24  1  0.342048  0.750000  0.095354  1
  S  S25  1  0.354974  0.249999  0.107672  1
  S  S26  1  0.137427  0.750000  0.122879  1
  S  S27  1  0.552061  0.750000  0.138441  1
  S  S28  1  0.961818  0.514480  0.145342  1
  S  S29  1  0.961818  0.985520  0.145342  1
  S  S30  1  0.726718  0.515072  0.156225  1
  S  S31  1  0.726718  0.984928  0.156225  1
  S  S32  1  0.226718  0.515072  0.343775  1
  S  S33  1  0.226718  0.984928  0.343775  1
  S  S34  1  0.461818  0.514480  0.354657  1
  S  S35  1  0.461818  0.985520  0.354657  1
  S  S36  1  0.052061  0.750000  0.361558  1
  S  S37  1  0.637427  0.750000  0.377120  1
  S  S38  1  0.854975  0.249999  0.392328  1
  S  S39  1  0.842048  0.750000  0.404647  1
  S  S40  1  0.157952  0.249999  0.595353  1
  S  S41  1  0.145026  0.750000  0.607672  1
  S  S42  1  0.362573  0.249999  0.622880  1
  S  S43  1  0.947939  0.249999  0.638442  1
  S  S44  1  0.538182  0.014480  0.645343  1
  S  S45  1  0.538182  0.485520  0.645343  1
  S  S46  1  0.773282  0.015072  0.656225  1
  S  S47  1  0.773282  0.484928  0.656225  1
  S  S48  1  0.273282  0.015072  0.843775  1
  S  S49  1  0.273282  0.484928  0.843775  1
  S  S50  1  0.038182  0.014480  0.854657  1
  S  S51  1  0.038182  0.485520  0.854657  1
  S  S52  1  0.447939  0.249999  0.861559  1
  S  S53  1  0.862573  0.249999  0.877121  1
  S  S54  1  0.645026  0.750000  0.892329  1
  S  S55  1  0.657952  0.249999  0.904646  1
