# generated using pymatgen
data_NiAs6Os
_symmetry_space_group_name_H-M   'P 1'
_cell_length_a   7.33955928
_cell_length_b   7.33955964
_cell_length_c   8.49507217
_cell_angle_alpha   55.13824819
_cell_angle_beta   55.13824752
_cell_angle_gamma   71.09904732
_symmetry_Int_Tables_number   1
_chemical_formula_structural   NiAs6Os
_chemical_formula_sum   'Ni2 As12 Os2'
_cell_volume   308.10312078
_cell_formula_units_Z   2
loop_
 _symmetry_equiv_pos_site_id
 _symmetry_equiv_pos_as_xyz
  1  'x, y, z'
loop_
 _atom_site_type_symbol
 _atom_site_label
 _atom_site_symmetry_multiplicity
 _atom_site_fract_x
 _atom_site_fract_y
 _atom_site_fract_z
 _atom_site_occupancy
  Ni  Ni0  1  0.000000  0.500000  0.500000  1
  Ni  Ni1  1  0.500000  0.000000  0.500000  1
  As  As2  1  0.146592  0.146592  0.197907  1
  As  As3  1  0.853408  0.853408  0.802093  1
  As  As4  1  0.849788  0.849788  0.497111  1
  As  As5  1  0.150212  0.150212  0.502889  1
  As  As6  1  0.802898  0.505405  0.347937  1
  As  As7  1  0.197102  0.494595  0.652063  1
  As  As8  1  0.505405  0.802898  0.347937  1
  As  As9  1  0.494595  0.197102  0.652063  1
  As  As10  1  0.657357  0.350043  0.847653  1
  As  As11  1  0.342643  0.649957  0.152347  1
  As  As12  1  0.649957  0.342643  0.152347  1
  As  As13  1  0.350043  0.657357  0.847653  1
  Os  Os14  1  0.000000  0.500000  0.000000  1
  Os  Os15  1  0.500000  0.000000  0.000000  1
