# generated using pymatgen
data_Lu3Zn2In3Co
_symmetry_space_group_name_H-M   'P 1'
_cell_length_a   7.58858300
_cell_length_b   7.58858168
_cell_length_c   3.75343500
_cell_angle_alpha   90.00000000
_cell_angle_beta   90.00000000
_cell_angle_gamma   119.99999267
_symmetry_Int_Tables_number   1
_chemical_formula_structural   Lu3Zn2In3Co
_chemical_formula_sum   'Lu3 Zn2 In3 Co1'
_cell_volume   187.18923302
_cell_formula_units_Z   1
loop_
 _symmetry_equiv_pos_site_id
 _symmetry_equiv_pos_as_xyz
  1  'x, y, z'
loop_
 _atom_site_type_symbol
 _atom_site_label
 _atom_site_symmetry_multiplicity
 _atom_site_fract_x
 _atom_site_fract_y
 _atom_site_fract_z
 _atom_site_occupancy
  Lu  Lu0  1  0.032877  0.611841  0.500000  1
  Lu  Lu1  1  0.578965  0.967123  0.500000  1
  Lu  Lu2  1  0.388159  0.421035  0.500000  1
  Zn  Zn3  1  0.000000  0.000000  0.500000  1
  Zn  Zn4  1  0.666667  0.333333  0.000000  1
  In  In5  1  0.995594  0.265667  0.000000  1
  In  In6  1  0.270073  0.004406  0.000000  1
  In  In7  1  0.734333  0.729927  0.000000  1
  Co  Co8  1  0.333333  0.666667  0.000000  1
