# generated using pymatgen
data_Ho20Bi8RuPt3
_symmetry_space_group_name_H-M   'P 1'
_cell_length_a   8.02412592
_cell_length_b   9.01861300
_cell_length_c   12.38524662
_cell_angle_alpha   90.00000000
_cell_angle_beta   89.89801401
_cell_angle_gamma   90.00000000
_symmetry_Int_Tables_number   1
_chemical_formula_structural   Ho20Bi8RuPt3
_chemical_formula_sum   'Ho20 Bi8 Ru1 Pt3'
_cell_volume   896.27536048
_cell_formula_units_Z   1
loop_
 _symmetry_equiv_pos_site_id
 _symmetry_equiv_pos_as_xyz
  1  'x, y, z'
loop_
 _atom_site_type_symbol
 _atom_site_label
 _atom_site_symmetry_multiplicity
 _atom_site_fract_x
 _atom_site_fract_y
 _atom_site_fract_z
 _atom_site_occupancy
  Ho  Ho0  1  0.842023  0.750000  0.795599  1
  Ho  Ho1  1  0.161699  0.250000  0.208643  1
  Ho  Ho2  1  0.335578  0.250000  0.711232  1
  Ho  Ho3  1  0.666718  0.750000  0.286380  1
  Ho  Ho4  1  0.375253  0.750000  0.695975  1
  Ho  Ho5  1  0.625649  0.250000  0.302759  1
  Ho  Ho6  1  0.875485  0.250000  0.802029  1
  Ho  Ho7  1  0.121548  0.750000  0.195179  1
  Ho  Ho8  1  0.948280  0.750000  0.500314  1
  Ho  Ho9  1  0.049250  0.250000  0.501582  1
  Ho  Ho10  1  0.449134  0.250000  0.999501  1
  Ho  Ho11  1  0.551993  0.750000  0.000537  1
  Ho  Ho12  1  0.677067  0.045918  0.566658  1
  Ho  Ho13  1  0.321098  0.954723  0.431916  1
  Ho  Ho14  1  0.176372  0.950081  0.935729  1
  Ho  Ho15  1  0.321098  0.545277  0.431916  1
  Ho  Ho16  1  0.823701  0.040329  0.065171  1
  Ho  Ho17  1  0.677067  0.454082  0.566658  1
  Ho  Ho18  1  0.823701  0.459671  0.065171  1
  Ho  Ho19  1  0.176372  0.549919  0.935729  1
  Bi  Bi20  1  0.568575  0.490242  0.826976  1
  Bi  Bi21  1  0.431383  0.509324  0.172983  1
  Bi  Bi22  1  0.069601  0.511000  0.672671  1
  Bi  Bi23  1  0.431383  0.990676  0.172983  1
  Bi  Bi24  1  0.930711  0.488597  0.328625  1
  Bi  Bi25  1  0.568575  0.009758  0.826976  1
  Bi  Bi26  1  0.930711  0.011403  0.328625  1
  Bi  Bi27  1  0.069601  0.989000  0.672671  1
  Ru  Ru28  1  0.924047  0.750000  0.013663  1
  Pt  Pt29  1  0.574420  0.750000  0.508529  1
  Pt  Pt30  1  0.423933  0.250000  0.489114  1
  Pt  Pt31  1  0.077976  0.250000  0.987508  1
