# generated using pymatgen
data_Dy4Al16Si2Ir5Rh
_symmetry_space_group_name_H-M   'P 1'
_cell_length_a   7.53572499
_cell_length_b   7.53572505
_cell_length_c   9.35746705
_cell_angle_alpha   89.99416794
_cell_angle_beta   89.99416938
_cell_angle_gamma   119.63877341
_symmetry_Int_Tables_number   1
_chemical_formula_structural   Dy4Al16Si2Ir5Rh
_chemical_formula_sum   'Dy4 Al16 Si2 Ir5 Rh1'
_cell_volume   461.85786999
_cell_formula_units_Z   1
loop_
 _symmetry_equiv_pos_site_id
 _symmetry_equiv_pos_as_xyz
  1  'x, y, z'
loop_
 _atom_site_type_symbol
 _atom_site_label
 _atom_site_symmetry_multiplicity
 _atom_site_fract_x
 _atom_site_fract_y
 _atom_site_fract_z
 _atom_site_occupancy
  Dy  Dy0  1  0.994890  0.674301  0.750069  1
  Dy  Dy1  1  0.005110  0.325699  0.249931  1
  Dy  Dy2  1  0.674301  0.994890  0.750069  1
  Dy  Dy3  1  0.325699  0.005110  0.249931  1
  Al  Al4  1  0.001228  0.335911  0.576459  1
  Al  Al5  1  0.998772  0.664089  0.423541  1
  Al  Al6  1  0.998775  0.663846  0.076377  1
  Al  Al7  1  0.336154  0.001225  0.923623  1
  Al  Al8  1  0.001225  0.336154  0.923623  1
  Al  Al9  1  0.663846  0.998775  0.076377  1
  Al  Al10  1  0.664089  0.998772  0.423541  1
  Al  Al11  1  0.335911  0.001228  0.576459  1
  Al  Al12  1  0.335436  0.335436  0.056963  1
  Al  Al13  1  0.664564  0.664564  0.943037  1
  Al  Al14  1  0.664589  0.664589  0.556981  1
  Al  Al15  1  0.335411  0.335411  0.443019  1
  Al  Al16  1  0.335529  0.548200  0.750033  1
  Al  Al17  1  0.664471  0.451800  0.249967  1
  Al  Al18  1  0.548200  0.335529  0.750033  1
  Al  Al19  1  0.451800  0.664471  0.249967  1
  Si  Si20  1  0.128054  0.128054  0.749795  1
  Si  Si21  1  0.871946  0.871946  0.250205  1
  Ir  Ir22  1  0.671831  0.328169  0.500000  1
  Ir  Ir23  1  0.328169  0.671831  0.500000  1
  Ir  Ir24  1  0.328217  0.671783  0.000000  1
  Ir  Ir25  1  0.671783  0.328217  0.000000  1
  Ir  Ir26  1  0.000000  0.000000  0.000000  1
  Rh  Rh27  1  0.000000  0.000000  0.500000  1
