# generated using pymatgen
data_Tb4Hf2ZrO12
_symmetry_space_group_name_H-M   'P 1'
_cell_length_a   6.35793355
_cell_length_b   6.41921861
_cell_length_c   6.61230366
_cell_angle_alpha   99.87845237
_cell_angle_beta   98.11689293
_cell_angle_gamma   99.81068016
_symmetry_Int_Tables_number   1
_chemical_formula_structural   Tb4Hf2ZrO12
_chemical_formula_sum   'Tb4 Hf2 Zr1 O12'
_cell_volume   257.90989556
_cell_formula_units_Z   1
loop_
 _symmetry_equiv_pos_site_id
 _symmetry_equiv_pos_as_xyz
  1  'x, y, z'
loop_
 _atom_site_type_symbol
 _atom_site_label
 _atom_site_symmetry_multiplicity
 _atom_site_fract_x
 _atom_site_fract_y
 _atom_site_fract_z
 _atom_site_occupancy
  Tb  Tb0  1  0.384787  0.699674  0.865759  1
  Tb  Tb1  1  0.699037  0.865969  0.389424  1
  Tb  Tb2  1  0.615074  0.298996  0.132886  1
  Tb  Tb3  1  0.303358  0.135773  0.610648  1
  Hf  Hf4  1  0.998832  0.998873  0.998175  1
  Hf  Hf5  1  0.848351  0.398384  0.667525  1
  Zr  Zr6  1  0.151380  0.602542  0.329917  1
  O  O7  1  0.016947  0.678905  0.879939  1
  O  O8  1  0.686851  0.934193  0.057677  1
  O  O9  1  0.920524  0.091631  0.701795  1
  O  O10  1  0.981159  0.316365  0.122103  1
  O  O11  1  0.312097  0.064446  0.940865  1
  O  O12  1  0.078036  0.913330  0.299928  1
  O  O13  1  0.594176  0.190618  0.437313  1
  O  O14  1  0.167742  0.429924  0.576649  1
  O  O15  1  0.415794  0.583192  0.179043  1
  O  O16  1  0.409451  0.811053  0.563680  1
  O  O17  1  0.828401  0.570066  0.428176  1
  O  O18  1  0.588002  0.416064  0.818498  1
