# generated using pymatgen
data_Pu2TiIr3
_symmetry_space_group_name_H-M   'P 1'
_cell_length_a   5.18635796
_cell_length_b   5.18635759
_cell_length_c   5.18635900
_cell_angle_alpha   65.54265996
_cell_angle_beta   65.54266185
_cell_angle_gamma   65.54267201
_symmetry_Int_Tables_number   1
_chemical_formula_structural   Pu2TiIr3
_chemical_formula_sum   'Pu2 Ti1 Ir3'
_cell_volume   110.52624344
_cell_formula_units_Z   1
loop_
 _symmetry_equiv_pos_site_id
 _symmetry_equiv_pos_as_xyz
  1  'x, y, z'
loop_
 _atom_site_type_symbol
 _atom_site_label
 _atom_site_symmetry_multiplicity
 _atom_site_fract_x
 _atom_site_fract_y
 _atom_site_fract_z
 _atom_site_occupancy
  Pu  Pu0  1  0.379751  0.379751  0.379751  1
  Pu  Pu1  1  0.620249  0.620249  0.620249  1
  Ti  Ti2  1  0.000000  0.000000  0.000000  1
  Ir  Ir3  1  0.500000  0.000000  0.000000  1
  Ir  Ir4  1  0.000000  0.000000  0.500000  1
  Ir  Ir5  1  0.000000  0.500000  0.000000  1
