# generated using pymatgen
data_Y2HoFeCo3
_symmetry_space_group_name_H-M   'P 1'
_cell_length_a   5.50604910
_cell_length_b   5.50604824
_cell_length_c   12.72695200
_cell_angle_alpha   90.00000000
_cell_angle_beta   90.00000000
_cell_angle_gamma   138.12449485
_symmetry_Int_Tables_number   1
_chemical_formula_structural   Y2HoFeCo3
_chemical_formula_sum   'Y4 Ho2 Fe2 Co6'
_cell_volume   257.55208188
_cell_formula_units_Z   2
loop_
 _symmetry_equiv_pos_site_id
 _symmetry_equiv_pos_as_xyz
  1  'x, y, z'
loop_
 _atom_site_type_symbol
 _atom_site_label
 _atom_site_symmetry_multiplicity
 _atom_site_fract_x
 _atom_site_fract_y
 _atom_site_fract_z
 _atom_site_occupancy
  Y  Y0  1  0.711319  0.288681  0.604792  1
  Y  Y1  1  0.288681  0.711319  0.395208  1
  Y  Y2  1  0.288681  0.711319  0.104792  1
  Y  Y3  1  0.711319  0.288681  0.895208  1
  Ho  Ho4  1  0.002229  0.997771  0.250000  1
  Ho  Ho5  1  0.997771  0.002229  0.750000  1
  Fe  Fe6  1  0.000000  0.000000  0.000000  1
  Fe  Fe7  1  0.000000  0.000000  0.500000  1
  Co  Co8  1  0.694167  0.305833  0.250000  1
  Co  Co9  1  0.305833  0.694167  0.750000  1
  Co  Co10  1  0.427856  0.572144  0.590521  1
  Co  Co11  1  0.572144  0.427856  0.409479  1
  Co  Co12  1  0.572144  0.427856  0.090521  1
  Co  Co13  1  0.427856  0.572144  0.909479  1
