# generated using pymatgen
data_Tb10Si5Pb
_symmetry_space_group_name_H-M   'P 1'
_cell_length_a   8.57704600
_cell_length_b   8.61678090
_cell_length_c   6.46213600
_cell_angle_alpha   90.00000000
_cell_angle_beta   90.00000000
_cell_angle_gamma   119.84756734
_symmetry_Int_Tables_number   1
_chemical_formula_structural   Tb10Si5Pb
_chemical_formula_sum   'Tb10 Si5 Pb1'
_cell_volume   414.24240025
_cell_formula_units_Z   1
loop_
 _symmetry_equiv_pos_site_id
 _symmetry_equiv_pos_as_xyz
  1  'x, y, z'
loop_
 _atom_site_type_symbol
 _atom_site_label
 _atom_site_symmetry_multiplicity
 _atom_site_fract_x
 _atom_site_fract_y
 _atom_site_fract_z
 _atom_site_occupancy
  Tb  Tb0  1  0.987640  0.746510  0.750000  1
  Tb  Tb1  1  0.998068  0.242802  0.250000  1
  Tb  Tb2  1  0.755266  0.757198  0.250000  1
  Tb  Tb3  1  0.766922  0.000000  0.750000  1
  Tb  Tb4  1  0.241130  0.253490  0.750000  1
  Tb  Tb5  1  0.240912  0.000000  0.250000  1
  Tb  Tb6  1  0.331127  0.655848  0.496260  1
  Tb  Tb7  1  0.675281  0.344152  0.003740  1
  Tb  Tb8  1  0.675281  0.344152  0.496260  1
  Tb  Tb9  1  0.331127  0.655848  0.003740  1
  Si  Si10  1  0.393385  0.391542  0.250000  1
  Si  Si11  1  0.001843  0.608458  0.250000  1
  Si  Si12  1  0.998000  0.394332  0.750000  1
  Si  Si13  1  0.603668  0.605668  0.750000  1
  Si  Si14  1  0.605959  0.000000  0.250000  1
  Pb  Pb15  1  0.394390  0.000000  0.750000  1
