# generated using pymatgen
data_HoMg2Pa3Rh4
_symmetry_space_group_name_H-M   'P 1'
_cell_length_a   7.66344281
_cell_length_b   7.66344268
_cell_length_c   3.63503200
_cell_angle_alpha   90.00000000
_cell_angle_beta   90.00000000
_cell_angle_gamma   92.20220142
_symmetry_Int_Tables_number   1
_chemical_formula_structural   HoMg2Pa3Rh4
_chemical_formula_sum   'Ho1 Mg2 Pa3 Rh4'
_cell_volume   213.32178139
_cell_formula_units_Z   1
loop_
 _symmetry_equiv_pos_site_id
 _symmetry_equiv_pos_as_xyz
  1  'x, y, z'
loop_
 _atom_site_type_symbol
 _atom_site_label
 _atom_site_symmetry_multiplicity
 _atom_site_fract_x
 _atom_site_fract_y
 _atom_site_fract_z
 _atom_site_occupancy
  Ho  Ho0  1  0.832454  0.667546  0.500000  1
  Mg  Mg1  1  0.999561  0.991932  0.000000  1
  Mg  Mg2  1  0.508068  0.500439  0.000000  1
  Pa  Pa3  1  0.670666  0.167128  0.500000  1
  Pa  Pa4  1  0.332872  0.829334  0.500000  1
  Pa  Pa5  1  0.168163  0.331837  0.500000  1
  Rh  Rh6  1  0.150751  0.630881  0.000000  1
  Rh  Rh7  1  0.869119  0.349249  0.000000  1
  Rh  Rh8  1  0.614993  0.885007  0.000000  1
  Rh  Rh9  1  0.353353  0.146647  0.000000  1
