# generated using pymatgen
data_EuIn4Ag
_symmetry_space_group_name_H-M   'P 1'
_cell_length_a   9.03002015
_cell_length_b   9.03002057
_cell_length_c   7.56434300
_cell_angle_alpha   90.00000000
_cell_angle_beta   90.00000000
_cell_angle_gamma   149.89332753
_symmetry_Int_Tables_number   1
_chemical_formula_structural   EuIn4Ag
_chemical_formula_sum   'Eu2 In8 Ag2'
_cell_volume   309.39703339
_cell_formula_units_Z   2
loop_
 _symmetry_equiv_pos_site_id
 _symmetry_equiv_pos_as_xyz
  1  'x, y, z'
loop_
 _atom_site_type_symbol
 _atom_site_label
 _atom_site_symmetry_multiplicity
 _atom_site_fract_x
 _atom_site_fract_y
 _atom_site_fract_z
 _atom_site_occupancy
  Eu  Eu0  1  0.622727  0.377273  0.750000  1
  Eu  Eu1  1  0.377273  0.622727  0.250000  1
  In  In2  1  0.823101  0.176899  0.951860  1
  In  In3  1  0.176899  0.823101  0.048140  1
  In  In4  1  0.823101  0.176899  0.548140  1
  In  In5  1  0.176899  0.823101  0.451860  1
  In  In6  1  0.436121  0.563879  0.750000  1
  In  In7  1  0.563879  0.436121  0.250000  1
  In  In8  1  0.000000  0.000000  0.000000  1
  In  In9  1  0.000000  0.000000  0.500000  1
  Ag  Ag10  1  0.274919  0.725081  0.750000  1
  Ag  Ag11  1  0.725081  0.274919  0.250000  1
