# generated using pymatgen
data_Sc2Fe14(SiC)3
_symmetry_space_group_name_H-M   'P 1'
_cell_length_a   6.37892876
_cell_length_b   6.37892943
_cell_length_c   6.37892883
_cell_angle_alpha   82.79038416
_cell_angle_beta   82.79037939
_cell_angle_gamma   82.79038908
_symmetry_Int_Tables_number   1
_chemical_formula_structural   Sc2Fe14(SiC)3
_chemical_formula_sum   'Sc2 Fe14 Si3 C3'
_cell_volume   253.88194345
_cell_formula_units_Z   1
loop_
 _symmetry_equiv_pos_site_id
 _symmetry_equiv_pos_as_xyz
  1  'x, y, z'
loop_
 _atom_site_type_symbol
 _atom_site_label
 _atom_site_symmetry_multiplicity
 _atom_site_fract_x
 _atom_site_fract_y
 _atom_site_fract_z
 _atom_site_occupancy
  Sc  Sc0  1  0.655000  0.655000  0.655000  1
  Sc  Sc1  1  0.345000  0.345000  0.345000  1
  Fe  Fe2  1  0.715771  0.284229  0.000000  1
  Fe  Fe3  1  0.000000  0.715771  0.284229  1
  Fe  Fe4  1  0.284229  0.000000  0.715771  1
  Fe  Fe5  1  0.000000  0.284229  0.715771  1
  Fe  Fe6  1  0.715771  0.000000  0.284229  1
  Fe  Fe7  1  0.284229  0.715771  0.000000  1
  Fe  Fe8  1  0.342653  0.859017  0.342653  1
  Fe  Fe9  1  0.342653  0.342653  0.859017  1
  Fe  Fe10  1  0.859017  0.342653  0.342653  1
  Fe  Fe11  1  0.657347  0.140983  0.657347  1
  Fe  Fe12  1  0.657347  0.657347  0.140983  1
  Fe  Fe13  1  0.140983  0.657347  0.657347  1
  Fe  Fe14  1  0.901220  0.901220  0.901220  1
  Fe  Fe15  1  0.098780  0.098780  0.098780  1
  Si  Si16  1  0.000000  0.000000  0.500000  1
  Si  Si17  1  0.500000  0.000000  0.000000  1
  Si  Si18  1  0.000000  0.500000  0.000000  1
  C  C19  1  0.500000  0.500000  0.000000  1
  C  C20  1  0.000000  0.500000  0.500000  1
  C  C21  1  0.500000  0.000000  0.500000  1
