# generated using pymatgen
data_Y7Hf9(Si4W)4
_symmetry_space_group_name_H-M   'P 1'
_cell_length_a   7.13447656
_cell_length_b   7.12908171
_cell_length_c   13.04915551
_cell_angle_alpha   90.15132731
_cell_angle_beta   90.02182257
_cell_angle_gamma   89.96005717
_symmetry_Int_Tables_number   1
_chemical_formula_structural   Y7Hf9(Si4W)4
_chemical_formula_sum   'Y7 Hf9 Si16 W4'
_cell_volume   663.70709918
_cell_formula_units_Z   1
loop_
 _symmetry_equiv_pos_site_id
 _symmetry_equiv_pos_as_xyz
  1  'x, y, z'
loop_
 _atom_site_type_symbol
 _atom_site_label
 _atom_site_symmetry_multiplicity
 _atom_site_fract_x
 _atom_site_fract_y
 _atom_site_fract_z
 _atom_site_occupancy
  Y  Y0  1  0.498625  0.154485  0.533326  1
  Y  Y1  1  0.501676  0.846429  0.035779  1
  Y  Y2  1  0.655812  0.002427  0.282964  1
  Y  Y3  1  0.345647  0.998201  0.785074  1
  Y  Y4  1  0.845141  0.501799  0.966560  1
  Y  Y5  1  0.153612  0.497911  0.466001  1
  Y  Y6  1  0.001546  0.654783  0.715470  1
  Hf  Hf7  1  0.005711  0.348191  0.215149  1
  Hf  Hf8  1  0.493552  0.353603  0.124920  1
  Hf  Hf9  1  0.505686  0.646661  0.623038  1
  Hf  Hf10  1  0.853182  0.007584  0.875609  1
  Hf  Hf11  1  0.143769  0.993610  0.371738  1
  Hf  Hf12  1  0.646748  0.503605  0.374043  1
  Hf  Hf13  1  0.352987  0.494109  0.877635  1
  Hf  Hf14  1  0.005531  0.854661  0.127381  1
  Hf  Hf15  1  0.993195  0.147081  0.625264  1
  Si  Si16  1  0.803581  0.145902  0.071827  1
  Si  Si17  1  0.201206  0.860097  0.565705  1
  Si  Si18  1  0.639991  0.701239  0.816511  1
  Si  Si19  1  0.353767  0.300214  0.315683  1
  Si  Si20  1  0.860583  0.203650  0.430351  1
  Si  Si21  1  0.139588  0.797955  0.934464  1
  Si  Si22  1  0.708199  0.635749  0.181688  1
  Si  Si23  1  0.299283  0.359565  0.683753  1
  Si  Si24  1  0.552019  0.205585  0.934442  1
  Si  Si25  1  0.448626  0.794426  0.432389  1
  Si  Si26  1  0.704738  0.948974  0.683627  1
  Si  Si27  1  0.293028  0.054477  0.183365  1
  Si  Si28  1  0.795071  0.449267  0.565673  1
  Si  Si29  1  0.201686  0.548434  0.068492  1
  Si  Si30  1  0.950695  0.697966  0.315032  1
  Si  Si31  1  0.051145  0.295404  0.816524  1
  W  W32  1  0.675690  0.323935  0.750066  1
  W  W33  1  0.320709  0.671944  0.249817  1
  W  W34  1  0.824241  0.822548  0.498516  1
  W  W35  1  0.173734  0.177529  0.002125  1
