# generated using pymatgen
data_SmCr(BO2)5
_symmetry_space_group_name_H-M   'P 1'
_cell_length_a   8.53134332
_cell_length_b   7.88121700
_cell_length_c   9.57854200
_cell_angle_alpha   90.00000000
_cell_angle_beta   92.58186040
_cell_angle_gamma   90.00000000
_symmetry_Int_Tables_number   1
_chemical_formula_structural   SmCr(BO2)5
_chemical_formula_sum   'Sm4 Cr4 B20 O40'
_cell_volume   643.38218094
_cell_formula_units_Z   4
loop_
 _symmetry_equiv_pos_site_id
 _symmetry_equiv_pos_as_xyz
  1  'x, y, z'
loop_
 _atom_site_type_symbol
 _atom_site_label
 _atom_site_symmetry_multiplicity
 _atom_site_fract_x
 _atom_site_fract_y
 _atom_site_fract_z
 _atom_site_occupancy
  Sm  Sm0  1  0.185960  0.174324  0.234802  1
  Sm  Sm1  1  0.314040  0.674323  0.265198  1
  Sm  Sm2  1  0.685960  0.325677  0.734802  1
  Sm  Sm3  1  0.814040  0.825677  0.765198  1
  Cr  Cr4  1  0.591578  0.402681  0.123378  1
  Cr  Cr5  1  0.908422  0.902682  0.376622  1
  Cr  Cr6  1  0.091578  0.097319  0.623378  1
  Cr  Cr7  1  0.408422  0.597319  0.876622  1
  B  B8  1  0.160195  0.394565  0.007671  1
  B  B9  1  0.776923  0.032647  0.059746  1
  B  B10  1  0.566198  0.817483  0.094452  1
  B  B11  1  0.017672  0.823597  0.100022  1
  B  B12  1  0.918649  0.572934  0.248813  1
  B  B13  1  0.581350  0.072934  0.251188  1
  B  B14  1  0.482327  0.323597  0.399978  1
  B  B15  1  0.933801  0.317483  0.405548  1
  B  B16  1  0.723076  0.532648  0.440254  1
  B  B17  1  0.339805  0.894565  0.492329  1
  B  B18  1  0.660195  0.105435  0.507671  1
  B  B19  1  0.276923  0.467353  0.559745  1
  B  B20  1  0.066198  0.682518  0.594452  1
  B  B21  1  0.517673  0.676403  0.600022  1
  B  B22  1  0.418649  0.927067  0.748812  1
  B  B23  1  0.081350  0.427067  0.751188  1
  B  B24  1  0.982327  0.176403  0.899978  1
  B  B25  1  0.433801  0.182517  0.905548  1
  B  B26  1  0.223076  0.967353  0.940254  1
  B  B27  1  0.839805  0.605436  0.992329  1
  O  O28  1  0.678411  0.882124  0.012033  1
  O  O29  1  0.049965  0.264628  0.022744  1
  O  O30  1  0.175079  0.890870  0.074039  1
  O  O31  1  0.499139  0.656899  0.077887  1
  O  O32  1  0.823279  0.532355  0.120584  1
  O  O33  1  0.249029  0.437616  0.123292  1
  O  O34  1  0.914394  0.965687  0.149343  1
  O  O35  1  0.681108  0.147149  0.143503  1
  O  O36  1  0.508996  0.910496  0.202656  1
  O  O37  1  0.039334  0.701252  0.218791  1
  O  O38  1  0.460667  0.201252  0.281209  1
  O  O39  1  0.991005  0.410497  0.297344  1
  O  O40  1  0.818892  0.647149  0.356498  1
  O  O41  1  0.585606  0.465687  0.350657  1
  O  O42  1  0.250970  0.937616  0.376708  1
  O  O43  1  0.676722  0.032355  0.379417  1
  O  O44  1  0.000861  0.156899  0.422113  1
  O  O45  1  0.324921  0.390870  0.425961  1
  O  O46  1  0.450035  0.764628  0.477256  1
  O  O47  1  0.821589  0.382123  0.487968  1
  O  O48  1  0.178411  0.617877  0.512033  1
  O  O49  1  0.549966  0.235372  0.522744  1
  O  O50  1  0.675078  0.609130  0.574040  1
  O  O51  1  0.999139  0.843101  0.577887  1
  O  O52  1  0.323279  0.967645  0.620584  1
  O  O53  1  0.749029  0.062384  0.623292  1
  O  O54  1  0.414394  0.534312  0.649343  1
  O  O55  1  0.181108  0.352851  0.643503  1
  O  O56  1  0.008995  0.589504  0.702655  1
  O  O57  1  0.539334  0.798749  0.718791  1
  O  O58  1  0.960666  0.298749  0.781209  1
  O  O59  1  0.491005  0.089504  0.797344  1
  O  O60  1  0.318893  0.852850  0.856498  1
  O  O61  1  0.085606  0.034312  0.850657  1
  O  O62  1  0.750971  0.562384  0.876708  1
  O  O63  1  0.176722  0.467646  0.879417  1
  O  O64  1  0.500861  0.343101  0.922113  1
  O  O65  1  0.824922  0.109130  0.925961  1
  O  O66  1  0.950034  0.735371  0.977256  1
  O  O67  1  0.321589  0.117877  0.987968  1
