# generated using pymatgen
data_Pr4Mg(CdAg5)2
_symmetry_space_group_name_H-M   'P 1'
_cell_length_a   8.77069139
_cell_length_b   8.77069078
_cell_length_c   10.53941200
_cell_angle_alpha   90.00000000
_cell_angle_beta   90.00000000
_cell_angle_gamma   107.75661879
_symmetry_Int_Tables_number   1
_chemical_formula_structural   Pr4Mg(CdAg5)2
_chemical_formula_sum   'Pr8 Mg2 Cd4 Ag20'
_cell_volume   772.12109928
_cell_formula_units_Z   2
loop_
 _symmetry_equiv_pos_site_id
 _symmetry_equiv_pos_as_xyz
  1  'x, y, z'
loop_
 _atom_site_type_symbol
 _atom_site_label
 _atom_site_symmetry_multiplicity
 _atom_site_fract_x
 _atom_site_fract_y
 _atom_site_fract_z
 _atom_site_occupancy
  Pr  Pr0  1  0.702676  0.297324  0.000000  1
  Pr  Pr1  1  0.297324  0.702676  0.000000  1
  Pr  Pr2  1  0.797324  0.202676  0.500000  1
  Pr  Pr3  1  0.202676  0.797324  0.500000  1
  Pr  Pr4  1  0.302337  0.302337  0.204061  1
  Pr  Pr5  1  0.697663  0.697663  0.795939  1
  Pr  Pr6  1  0.197663  0.197663  0.704061  1
  Pr  Pr7  1  0.802337  0.802337  0.295939  1
  Mg  Mg8  1  0.000000  0.000000  0.000000  1
  Mg  Mg9  1  0.500000  0.500000  0.500000  1
  Cd  Cd10  1  0.025306  0.525306  0.250000  1
  Cd  Cd11  1  0.974694  0.474694  0.750000  1
  Cd  Cd12  1  0.474694  0.974694  0.750000  1
  Cd  Cd13  1  0.525306  0.025306  0.250000  1
  Ag  Ag14  1  0.096719  0.096719  0.406269  1
  Ag  Ag15  1  0.903281  0.903281  0.593731  1
  Ag  Ag16  1  0.403281  0.403281  0.906269  1
  Ag  Ag17  1  0.596719  0.596719  0.093731  1
  Ag  Ag18  1  0.898357  0.173711  0.206459  1
  Ag  Ag19  1  0.101643  0.826289  0.793541  1
  Ag  Ag20  1  0.601643  0.326289  0.706459  1
  Ag  Ag21  1  0.673711  0.398357  0.293541  1
  Ag  Ag22  1  0.398357  0.673711  0.293541  1
  Ag  Ag23  1  0.326289  0.601643  0.706459  1
  Ag  Ag24  1  0.826289  0.101643  0.793541  1
  Ag  Ag25  1  0.173711  0.898357  0.206459  1
  Ag  Ag26  1  0.930205  0.663394  0.025984  1
  Ag  Ag27  1  0.069795  0.336606  0.974016  1
  Ag  Ag28  1  0.569795  0.836606  0.525984  1
  Ag  Ag29  1  0.163394  0.430205  0.474016  1
  Ag  Ag30  1  0.430205  0.163394  0.474016  1
  Ag  Ag31  1  0.836606  0.569795  0.525984  1
  Ag  Ag32  1  0.336606  0.069795  0.974016  1
  Ag  Ag33  1  0.663394  0.930205  0.025984  1
