# generated using pymatgen
data_Pr4YIr2Ru
_symmetry_space_group_name_H-M   'P 1'
_cell_length_a   11.24858000
_cell_length_b   11.24858000
_cell_length_c   6.61820400
_cell_angle_alpha   90.00000000
_cell_angle_beta   90.00000000
_cell_angle_gamma   90.00000000
_symmetry_Int_Tables_number   1
_chemical_formula_structural   Pr4YIr2Ru
_chemical_formula_sum   'Pr16 Y4 Ir8 Ru4'
_cell_volume   837.40500548
_cell_formula_units_Z   4
loop_
 _symmetry_equiv_pos_site_id
 _symmetry_equiv_pos_as_xyz
  1  'x, y, z'
loop_
 _atom_site_type_symbol
 _atom_site_label
 _atom_site_symmetry_multiplicity
 _atom_site_fract_x
 _atom_site_fract_y
 _atom_site_fract_z
 _atom_site_occupancy
  Pr  Pr0  1  0.291351  0.086508  0.381218  1
  Pr  Pr1  1  0.291351  0.913492  0.881218  1
  Pr  Pr2  1  0.708649  0.086508  0.881218  1
  Pr  Pr3  1  0.708649  0.913492  0.381218  1
  Pr  Pr4  1  0.586508  0.791351  0.881218  1
  Pr  Pr5  1  0.586508  0.208649  0.381218  1
  Pr  Pr6  1  0.413492  0.791351  0.381218  1
  Pr  Pr7  1  0.413492  0.208649  0.881218  1
  Pr  Pr8  1  0.208649  0.413492  0.618782  1
  Pr  Pr9  1  0.208649  0.586508  0.118782  1
  Pr  Pr10  1  0.791351  0.413492  0.118782  1
  Pr  Pr11  1  0.791351  0.586508  0.618782  1
  Pr  Pr12  1  0.913492  0.708649  0.118782  1
  Pr  Pr13  1  0.913492  0.291351  0.618782  1
  Pr  Pr14  1  0.086508  0.708649  0.618782  1
  Pr  Pr15  1  0.086508  0.291351  0.118782  1
  Y  Y16  1  0.000000  0.000000  0.500000  1
  Y  Y17  1  0.000000  0.000000  0.000000  1
  Y  Y18  1  0.500000  0.500000  0.000000  1
  Y  Y19  1  0.500000  0.500000  0.500000  1
  Ir  Ir20  1  0.852128  0.147872  0.250000  1
  Ir  Ir21  1  0.852128  0.852128  0.750000  1
  Ir  Ir22  1  0.147872  0.147872  0.750000  1
  Ir  Ir23  1  0.147872  0.852128  0.250000  1
  Ir  Ir24  1  0.647872  0.352128  0.750000  1
  Ir  Ir25  1  0.647872  0.647872  0.250000  1
  Ir  Ir26  1  0.352128  0.352128  0.250000  1
  Ir  Ir27  1  0.352128  0.647872  0.750000  1
  Ru  Ru28  1  0.500000  0.000000  0.118283  1
  Ru  Ru29  1  0.500000  0.000000  0.618283  1
  Ru  Ru30  1  0.000000  0.500000  0.881717  1
  Ru  Ru31  1  0.000000  0.500000  0.381717  1
