# generated using pymatgen
data_NdEr2Mg3AgPb2
_symmetry_space_group_name_H-M   'P 1'
_cell_length_a   7.60943911
_cell_length_b   7.60943873
_cell_length_c   4.62725900
_cell_angle_alpha   90.00000000
_cell_angle_beta   90.00000000
_cell_angle_gamma   120.71737088
_symmetry_Int_Tables_number   1
_chemical_formula_structural   NdEr2Mg3AgPb2
_chemical_formula_sum   'Nd1 Er2 Mg3 Ag1 Pb2'
_cell_volume   230.34283945
_cell_formula_units_Z   1
loop_
 _symmetry_equiv_pos_site_id
 _symmetry_equiv_pos_as_xyz
  1  'x, y, z'
loop_
 _atom_site_type_symbol
 _atom_site_label
 _atom_site_symmetry_multiplicity
 _atom_site_fract_x
 _atom_site_fract_y
 _atom_site_fract_z
 _atom_site_occupancy
  Nd  Nd0  1  0.415845  0.415845  0.000000  1
  Er  Er1  1  0.588745  0.002181  0.000000  1
  Er  Er2  1  0.002181  0.588745  0.000000  1
  Mg  Mg3  1  0.232864  0.999205  0.500000  1
  Mg  Mg4  1  0.999205  0.232864  0.500000  1
  Mg  Mg5  1  0.766556  0.766556  0.500000  1
  Ag  Ag6  1  0.991462  0.991462  0.000000  1
  Pb  Pb7  1  0.331552  0.671590  0.500000  1
  Pb  Pb8  1  0.671590  0.331552  0.500000  1
