# generated using pymatgen
data_Ce5(CdAu5)2
_symmetry_space_group_name_H-M   'P 1'
_cell_length_a   8.73158900
_cell_length_b   8.73158970
_cell_length_c   10.38242300
_cell_angle_alpha   90.00000000
_cell_angle_beta   90.00000000
_cell_angle_gamma   71.98708769
_symmetry_Int_Tables_number   1
_chemical_formula_structural   Ce5(CdAu5)2
_chemical_formula_sum   'Ce10 Cd4 Au20'
_cell_volume   752.76572469
_cell_formula_units_Z   2
loop_
 _symmetry_equiv_pos_site_id
 _symmetry_equiv_pos_as_xyz
  1  'x, y, z'
loop_
 _atom_site_type_symbol
 _atom_site_label
 _atom_site_symmetry_multiplicity
 _atom_site_fract_x
 _atom_site_fract_y
 _atom_site_fract_z
 _atom_site_occupancy
  Ce  Ce0  1  0.000000  0.000000  0.000000  1
  Ce  Ce1  1  0.302895  0.302895  0.000000  1
  Ce  Ce2  1  0.697106  0.697106  0.000000  1
  Ce  Ce3  1  0.698497  0.301502  0.202610  1
  Ce  Ce4  1  0.198497  0.801502  0.297390  1
  Ce  Ce5  1  0.197105  0.197105  0.500000  1
  Ce  Ce6  1  0.500000  0.500000  0.500000  1
  Ce  Ce7  1  0.802895  0.802895  0.500000  1
  Ce  Ce8  1  0.801502  0.198497  0.702610  1
  Ce  Ce9  1  0.301502  0.698497  0.797390  1
  Cd  Cd10  1  0.480062  0.019938  0.250000  1
  Cd  Cd11  1  0.980062  0.519938  0.250000  1
  Cd  Cd12  1  0.019938  0.480062  0.750000  1
  Cd  Cd13  1  0.519938  0.980062  0.750000  1
  Au  Au14  1  0.066154  0.646752  0.015090  1
  Au  Au15  1  0.353248  0.933846  0.015090  1
  Au  Au16  1  0.400573  0.599427  0.094176  1
  Au  Au17  1  0.116351  0.167165  0.210417  1
  Au  Au18  1  0.832836  0.883650  0.210417  1
  Au  Au19  1  0.332835  0.383649  0.289584  1
  Au  Au20  1  0.616350  0.667165  0.289584  1
  Au  Au21  1  0.900573  0.099427  0.405825  1
  Au  Au22  1  0.566154  0.146752  0.484910  1
  Au  Au23  1  0.853248  0.433846  0.484910  1
  Au  Au24  1  0.146752  0.566154  0.515089  1
  Au  Au25  1  0.433846  0.853248  0.515089  1
  Au  Au26  1  0.099427  0.900573  0.594176  1
  Au  Au27  1  0.383649  0.332835  0.710416  1
  Au  Au28  1  0.667165  0.616350  0.710416  1
  Au  Au29  1  0.167165  0.116351  0.789584  1
  Au  Au30  1  0.883650  0.832836  0.789584  1
  Au  Au31  1  0.599427  0.400573  0.905825  1
  Au  Au32  1  0.646752  0.066154  0.984910  1
  Au  Au33  1  0.933846  0.353248  0.984910  1
