# generated using pymatgen
data_Ba3Ga10CoO20
_symmetry_space_group_name_H-M   'P 1'
_cell_length_a   9.97467677
_cell_length_b   9.97467637
_cell_length_c   5.17997161
_cell_angle_alpha   76.13077867
_cell_angle_beta   76.13077819
_cell_angle_gamma   72.25431316
_symmetry_Int_Tables_number   1
_chemical_formula_structural   Ba3Ga10CoO20
_chemical_formula_sum   'Ba3 Ga10 Co1 O20'
_cell_volume   468.74077066
_cell_formula_units_Z   1
loop_
 _symmetry_equiv_pos_site_id
 _symmetry_equiv_pos_as_xyz
  1  'x, y, z'
loop_
 _atom_site_type_symbol
 _atom_site_label
 _atom_site_symmetry_multiplicity
 _atom_site_fract_x
 _atom_site_fract_y
 _atom_site_fract_z
 _atom_site_occupancy
  Ba  Ba0  1  0.280805  0.280805  0.735641  1
  Ba  Ba1  1  0.719195  0.719195  0.264359  1
  Ba  Ba2  1  0.000000  0.000000  0.000000  1
  Ga  Ga3  1  0.008012  0.285346  0.337103  1
  Ga  Ga4  1  0.285346  0.008012  0.337103  1
  Ga  Ga5  1  0.991988  0.714654  0.662897  1
  Ga  Ga6  1  0.714654  0.991988  0.662897  1
  Ga  Ga7  1  0.630231  0.369769  0.500000  1
  Ga  Ga8  1  0.369769  0.630231  0.500000  1
  Ga  Ga9  1  0.844851  0.426588  0.833015  1
  Ga  Ga10  1  0.426588  0.844851  0.833015  1
  Ga  Ga11  1  0.155149  0.573412  0.166985  1
  Ga  Ga12  1  0.573412  0.155149  0.166985  1
  Co  Co13  1  0.500000  0.500000  0.000000  1
  O  O14  1  0.901274  0.901274  0.524946  1
  O  O15  1  0.098726  0.098726  0.475054  1
  O  O16  1  0.319033  0.545113  0.895979  1
  O  O17  1  0.545113  0.319033  0.895979  1
  O  O18  1  0.680967  0.454887  0.104021  1
  O  O19  1  0.454887  0.680967  0.104021  1
  O  O20  1  0.827728  0.341477  0.558041  1
  O  O21  1  0.341477  0.827728  0.558041  1
  O  O22  1  0.172272  0.658523  0.441959  1
  O  O23  1  0.658523  0.172272  0.441959  1
  O  O24  1  0.603835  0.872109  0.674064  1
  O  O25  1  0.872109  0.603835  0.674064  1
  O  O26  1  0.396165  0.127891  0.325936  1
  O  O27  1  0.127891  0.396165  0.325936  1
  O  O28  1  0.562651  0.562651  0.624484  1
  O  O29  1  0.437349  0.437349  0.375516  1
  O  O30  1  0.991475  0.288801  0.985413  1
  O  O31  1  0.288801  0.991475  0.985413  1
  O  O32  1  0.008525  0.711199  0.014587  1
  O  O33  1  0.711199  0.008525  0.014587  1
