# generated using pymatgen
data_Ho8Ti11Si16Ru
_symmetry_space_group_name_H-M   'P 1'
_cell_length_a   7.01602053
_cell_length_b   7.01602053
_cell_length_c   12.84419824
_cell_angle_alpha   89.98442515
_cell_angle_beta   90.01557485
_cell_angle_gamma   89.85695797
_symmetry_Int_Tables_number   1
_chemical_formula_structural   Ho8Ti11Si16Ru
_chemical_formula_sum   'Ho8 Ti11 Si16 Ru1'
_cell_volume   632.24778532
_cell_formula_units_Z   1
loop_
 _symmetry_equiv_pos_site_id
 _symmetry_equiv_pos_as_xyz
  1  'x, y, z'
loop_
 _atom_site_type_symbol
 _atom_site_label
 _atom_site_symmetry_multiplicity
 _atom_site_fract_x
 _atom_site_fract_y
 _atom_site_fract_z
 _atom_site_occupancy
  Ho  Ho0  1  0.340703  0.003573  0.467227  1
  Ho  Ho1  1  0.496982  0.841375  0.717920  1
  Ho  Ho2  1  0.500084  0.159350  0.215273  1
  Ho  Ho3  1  0.841375  0.496982  0.282080  1
  Ho  Ho4  1  0.159350  0.500084  0.784727  1
  Ho  Ho5  1  0.658150  0.998643  0.967870  1
  Ho  Ho6  1  0.003573  0.340703  0.532773  1
  Ho  Ho7  1  0.998643  0.658150  0.032130  1
  Ti  Ti8  1  0.174826  0.827489  0.248868  1
  Ti  Ti9  1  0.827489  0.174826  0.751132  1
  Ti  Ti10  1  0.673639  0.673639  0.500000  1
  Ti  Ti11  1  0.150442  0.004733  0.875542  1
  Ti  Ti12  1  0.492854  0.654444  0.125403  1
  Ti  Ti13  1  0.507077  0.349014  0.627219  1
  Ti  Ti14  1  0.654444  0.492854  0.874597  1
  Ti  Ti15  1  0.349014  0.507077  0.372781  1
  Ti  Ti16  1  0.848831  0.993653  0.375378  1
  Ti  Ti17  1  0.004733  0.150442  0.124458  1
  Ti  Ti18  1  0.993653  0.848831  0.624622  1
  Si  Si19  1  0.202759  0.131821  0.684766  1
  Si  Si20  1  0.372071  0.700606  0.933946  1
  Si  Si21  1  0.631493  0.296009  0.434102  1
  Si  Si22  1  0.700606  0.372071  0.066054  1
  Si  Si23  1  0.296009  0.631493  0.565898  1
  Si  Si24  1  0.796661  0.868791  0.183972  1
  Si  Si25  1  0.131821  0.202759  0.315234  1
  Si  Si26  1  0.868791  0.796661  0.816028  1
  Si  Si27  1  0.287930  0.953165  0.064797  1
  Si  Si28  1  0.546782  0.792094  0.315536  1
  Si  Si29  1  0.449752  0.209506  0.817522  1
  Si  Si30  1  0.792094  0.546782  0.684464  1
  Si  Si31  1  0.209506  0.449752  0.182478  1
  Si  Si32  1  0.708234  0.047921  0.565535  1
  Si  Si33  1  0.953165  0.287930  0.935203  1
  Si  Si34  1  0.047921  0.708234  0.434465  1
  Ru  Ru35  1  0.328543  0.328543  0.000000  1
