# generated using pymatgen
data_Ba3La2Al9
_symmetry_space_group_name_H-M   'P 1'
_cell_length_a   12.42396299
_cell_length_b   12.42396282
_cell_length_c   12.42396444
_cell_angle_alpha   27.67618159
_cell_angle_beta   27.67617222
_cell_angle_gamma   27.67617295
_symmetry_Int_Tables_number   1
_chemical_formula_structural   Ba3La2Al9
_chemical_formula_sum   'Ba3 La2 Al9'
_cell_volume   365.24842767
_cell_formula_units_Z   1
loop_
 _symmetry_equiv_pos_site_id
 _symmetry_equiv_pos_as_xyz
  1  'x, y, z'
loop_
 _atom_site_type_symbol
 _atom_site_label
 _atom_site_symmetry_multiplicity
 _atom_site_fract_x
 _atom_site_fract_y
 _atom_site_fract_z
 _atom_site_occupancy
  Ba  Ba0  1  0.500000  0.500000  0.500000  1
  Ba  Ba1  1  0.217444  0.217444  0.217444  1
  Ba  Ba2  1  0.782556  0.782556  0.782556  1
  La  La3  1  0.314921  0.314921  0.314921  1
  La  La4  1  0.685079  0.685079  0.685079  1
  Al  Al5  1  0.000000  0.000000  0.000000  1
  Al  Al6  1  0.120047  0.120047  0.120047  1
  Al  Al7  1  0.879953  0.879953  0.879953  1
  Al  Al8  1  0.716239  0.235100  0.235100  1
  Al  Al9  1  0.235100  0.235100  0.716239  1
  Al  Al10  1  0.235100  0.716239  0.235100  1
  Al  Al11  1  0.764900  0.283761  0.764900  1
  Al  Al12  1  0.283761  0.764900  0.764900  1
  Al  Al13  1  0.764900  0.764900  0.283761  1
