# generated using pymatgen
data_Nd12Si8IrRh11
_symmetry_space_group_name_H-M   'P 1'
_cell_length_a   5.73083808
_cell_length_b   7.78016911
_cell_length_c   15.02861100
_cell_angle_alpha   90.00000000
_cell_angle_beta   90.00000000
_cell_angle_gamma   90.01934198
_symmetry_Int_Tables_number   1
_chemical_formula_structural   Nd12Si8IrRh11
_chemical_formula_sum   'Nd12 Si8 Ir1 Rh11'
_cell_volume   670.07897864
_cell_formula_units_Z   1
loop_
 _symmetry_equiv_pos_site_id
 _symmetry_equiv_pos_as_xyz
  1  'x, y, z'
loop_
 _atom_site_type_symbol
 _atom_site_label
 _atom_site_symmetry_multiplicity
 _atom_site_fract_x
 _atom_site_fract_y
 _atom_site_fract_z
 _atom_site_occupancy
  Nd  Nd0  1  0.139683  0.473077  0.891429  1
  Nd  Nd1  1  0.360559  0.973027  0.891124  1
  Nd  Nd2  1  0.615737  0.333503  0.750000  1
  Nd  Nd3  1  0.386252  0.667904  0.250000  1
  Nd  Nd4  1  0.638904  0.028571  0.390735  1
  Nd  Nd5  1  0.860937  0.526090  0.109326  1
  Nd  Nd6  1  0.860937  0.526090  0.390674  1
  Nd  Nd7  1  0.360559  0.973027  0.608876  1
  Nd  Nd8  1  0.884129  0.833829  0.750000  1
  Nd  Nd9  1  0.139683  0.473077  0.608571  1
  Nd  Nd10  1  0.638904  0.028571  0.109265  1
  Nd  Nd11  1  0.107437  0.166337  0.250000  1
  Si  Si12  1  0.368869  0.373755  0.099628  1
  Si  Si13  1  0.632451  0.625990  0.901975  1
  Si  Si14  1  0.867647  0.126022  0.901777  1
  Si  Si15  1  0.368869  0.373755  0.400372  1
  Si  Si16  1  0.867647  0.126022  0.598223  1
  Si  Si17  1  0.632451  0.625990  0.598025  1
  Si  Si18  1  0.131799  0.873836  0.401736  1
  Si  Si19  1  0.131799  0.873836  0.098264  1
  Ir  Ir20  1  0.576784  0.320634  0.250000  1
  Rh  Rh21  1  0.601749  0.337160  0.962352  1
  Rh  Rh22  1  0.396174  0.661868  0.037863  1
  Rh  Rh23  1  0.396174  0.661868  0.462137  1
  Rh  Rh24  1  0.075758  0.179646  0.750000  1
  Rh  Rh25  1  0.105670  0.162301  0.462542  1
  Rh  Rh26  1  0.425170  0.679184  0.750000  1
  Rh  Rh27  1  0.924236  0.820515  0.250000  1
  Rh  Rh28  1  0.105670  0.162301  0.037458  1
  Rh  Rh29  1  0.601749  0.337160  0.537648  1
  Rh  Rh30  1  0.897806  0.837527  0.537774  1
  Rh  Rh31  1  0.897806  0.837527  0.962226  1
