# generated using pymatgen
data_K2AsF5
_symmetry_space_group_name_H-M   'P 1'
_cell_length_a   6.04848806
_cell_length_b   7.32298875
_cell_length_c   4.55500571
_cell_angle_alpha   126.66764597
_cell_angle_beta   89.91505756
_cell_angle_gamma   115.06146668
_symmetry_Int_Tables_number   1
_chemical_formula_structural   K2AsF5
_chemical_formula_sum   'K2 As1 F5'
_cell_volume   137.53476180
_cell_formula_units_Z   1
loop_
 _symmetry_equiv_pos_site_id
 _symmetry_equiv_pos_as_xyz
  1  'x, y, z'
loop_
 _atom_site_type_symbol
 _atom_site_label
 _atom_site_symmetry_multiplicity
 _atom_site_fract_x
 _atom_site_fract_y
 _atom_site_fract_z
 _atom_site_occupancy
  K  K0  1  0.059763  0.278738  0.528139  1
  K  K1  1  0.746695  0.648568  0.319238  1
  As  As2  1  0.401521  0.961199  0.954088  1
  F  F3  1  0.725107  0.152869  0.897415  1
  F  F4  1  0.540861  0.741669  0.909319  1
  F  F5  1  0.277540  0.708046  0.428720  1
  F  F6  1  0.259145  0.142694  0.888488  1
  F  F7  1  0.038281  0.725695  0.891935  1
