# generated using pymatgen
data_Pr4Ga10(PtRh)3
_symmetry_space_group_name_H-M   'P 1'
_cell_length_a   8.71363513
_cell_length_b   8.72420348
_cell_length_c   8.72443567
_cell_angle_alpha   140.84833815
_cell_angle_beta   107.73722878
_cell_angle_gamma   85.41607445
_symmetry_Int_Tables_number   1
_chemical_formula_structural   Pr4Ga10(PtRh)3
_chemical_formula_sum   'Pr4 Ga10 Pt3 Rh3'
_cell_volume   385.12722718
_cell_formula_units_Z   1
loop_
 _symmetry_equiv_pos_site_id
 _symmetry_equiv_pos_as_xyz
  1  'x, y, z'
loop_
 _atom_site_type_symbol
 _atom_site_label
 _atom_site_symmetry_multiplicity
 _atom_site_fract_x
 _atom_site_fract_y
 _atom_site_fract_z
 _atom_site_occupancy
  Pr  Pr0  1  0.864738  0.636181  0.228580  1
  Pr  Pr1  1  0.135916  0.363102  0.772797  1
  Pr  Pr2  1  0.589483  0.863217  0.726307  1
  Pr  Pr3  1  0.410683  0.137335  0.273340  1
  Ga  Ga4  1  0.501891  0.747497  0.250398  1
  Ga  Ga5  1  0.501860  0.251492  0.754424  1
  Ga  Ga6  1  0.210416  0.961229  0.755261  1
  Ga  Ga7  1  0.792144  0.542725  0.748693  1
  Ga  Ga8  1  0.792130  0.043444  0.249425  1
  Ga  Ga9  1  0.210375  0.455153  0.249216  1
  Ga  Ga10  1  0.072493  0.908499  0.164030  1
  Ga  Ga11  1  0.928177  0.091160  0.836972  1
  Ga  Ga12  1  0.254967  0.591533  0.663472  1
  Ga  Ga13  1  0.737940  0.407200  0.330744  1
  Pt  Pt14  1  0.256005  0.853896  0.402037  1
  Pt  Pt15  1  0.746973  0.147195  0.599875  1
  Pt  Pt16  1  0.547351  0.646177  0.901111  1
  Rh  Rh17  1  0.449318  0.354651  0.094645  1
  Rh  Rh18  1  0.998561  0.748613  0.748796  1
  Rh  Rh19  1  0.998581  0.249702  0.249877  1
