# generated using pymatgen
data_Ca2Sm2Sn2Sb4Rh7
_symmetry_space_group_name_H-M   'P 1'
_cell_length_a   7.65495104
_cell_length_b   7.65495276
_cell_length_c   7.66127263
_cell_angle_alpha   109.41137173
_cell_angle_beta   109.41136982
_cell_angle_gamma   109.55762397
_symmetry_Int_Tables_number   1
_chemical_formula_structural   Ca2Sm2Sn2Sb4Rh7
_chemical_formula_sum   'Ca2 Sm2 Sn2 Sb4 Rh7'
_cell_volume   345.73359702
_cell_formula_units_Z   1
loop_
 _symmetry_equiv_pos_site_id
 _symmetry_equiv_pos_as_xyz
  1  'x, y, z'
loop_
 _atom_site_type_symbol
 _atom_site_label
 _atom_site_symmetry_multiplicity
 _atom_site_fract_x
 _atom_site_fract_y
 _atom_site_fract_z
 _atom_site_occupancy
  Ca  Ca0  1  0.491692  0.999025  0.000000  1
  Ca  Ca1  1  0.000975  0.508308  0.000000  1
  Sm  Sm2  1  0.998998  0.001002  0.500000  1
  Sm  Sm3  1  0.498998  0.501002  0.500000  1
  Sn  Sn4  1  0.990125  0.312513  0.302639  1
  Sn  Sn5  1  0.687487  0.009875  0.697361  1
  Sb  Sb6  1  0.680266  0.684935  0.000000  1
  Sb  Sb7  1  0.001848  0.673987  0.675834  1
  Sb  Sb8  1  0.326013  0.998152  0.324166  1
  Sb  Sb9  1  0.315065  0.319734  0.000000  1
  Rh  Rh10  1  0.005524  0.994476  0.000000  1
  Rh  Rh11  1  0.505453  0.751086  0.256541  1
  Rh  Rh12  1  0.746306  0.502073  0.248378  1
  Rh  Rh13  1  0.252202  0.747798  0.500000  1
  Rh  Rh14  1  0.248914  0.494547  0.743459  1
  Rh  Rh15  1  0.497927  0.253694  0.751622  1
  Rh  Rh16  1  0.752202  0.247798  0.500000  1
