# generated using pymatgen
data_Hf18Ti3Fe2Re3Pt2
_symmetry_space_group_name_H-M   'P 1'
_cell_length_a   8.47305900
_cell_length_b   8.60336420
_cell_length_c   8.64909456
_cell_angle_alpha   119.82568057
_cell_angle_beta   90.00000000
_cell_angle_gamma   90.00000000
_symmetry_Int_Tables_number   1
_chemical_formula_structural   Hf18Ti3Fe2Re3Pt2
_chemical_formula_sum   'Hf18 Ti3 Fe2 Re3 Pt2'
_cell_volume   546.97818005
_cell_formula_units_Z   1
loop_
 _symmetry_equiv_pos_site_id
 _symmetry_equiv_pos_as_xyz
  1  'x, y, z'
loop_
 _atom_site_type_symbol
 _atom_site_label
 _atom_site_symmetry_multiplicity
 _atom_site_fract_x
 _atom_site_fract_y
 _atom_site_fract_z
 _atom_site_occupancy
  Hf  Hf0  1  0.560124  0.798291  0.596593  1
  Hf  Hf1  1  0.553711  0.798440  0.205759  1
  Hf  Hf2  1  0.553694  0.407302  0.205749  1
  Hf  Hf3  1  0.438919  0.201132  0.402256  1
  Hf  Hf4  1  0.434557  0.201782  0.798532  1
  Hf  Hf5  1  0.434564  0.596777  0.798553  1
  Hf  Hf6  1  0.061081  0.201132  0.402256  1
  Hf  Hf7  1  0.065443  0.201782  0.798532  1
  Hf  Hf8  1  0.065436  0.596777  0.798553  1
  Hf  Hf9  1  0.939876  0.798291  0.596593  1
  Hf  Hf10  1  0.946289  0.798440  0.205759  1
  Hf  Hf11  1  0.946306  0.407302  0.205749  1
  Hf  Hf12  1  0.750000  0.460241  0.920507  1
  Hf  Hf13  1  0.750000  0.451519  0.535228  1
  Hf  Hf14  1  0.750000  0.083698  0.535223  1
  Hf  Hf15  1  0.250000  0.540898  0.081779  1
  Hf  Hf16  1  0.250000  0.543532  0.461010  1
  Hf  Hf17  1  0.250000  0.917474  0.460995  1
  Ti  Ti18  1  0.750000  0.112185  0.224381  1
  Ti  Ti19  1  0.497298  0.997999  0.995989  1
  Ti  Ti20  1  0.002702  0.997999  0.995989  1
  Fe  Fe21  1  0.750000  0.666774  0.333604  1
  Fe  Fe22  1  0.250000  0.334120  0.668189  1
  Re  Re23  1  0.250000  0.886499  0.772980  1
  Re  Re24  1  0.250000  0.884316  0.111123  1
  Re  Re25  1  0.250000  0.226813  0.111112  1
  Pt  Pt26  1  0.750000  0.119654  0.888490  1
  Pt  Pt27  1  0.750000  0.768827  0.888512  1
