# generated using pymatgen
data_Tb5YbTmCoI12
_symmetry_space_group_name_H-M   'P 1'
_cell_length_a   9.70594613
_cell_length_b   9.81079125
_cell_length_c   9.78780745
_cell_angle_alpha   106.88841004
_cell_angle_beta   107.03548000
_cell_angle_gamma   106.97582225
_symmetry_Int_Tables_number   1
_chemical_formula_structural   Tb5YbTmCoI12
_chemical_formula_sum   'Tb5 Yb1 Tm1 Co1 I12'
_cell_volume   776.90466085
_cell_formula_units_Z   1
loop_
 _symmetry_equiv_pos_site_id
 _symmetry_equiv_pos_as_xyz
  1  'x, y, z'
loop_
 _atom_site_type_symbol
 _atom_site_label
 _atom_site_symmetry_multiplicity
 _atom_site_fract_x
 _atom_site_fract_y
 _atom_site_fract_z
 _atom_site_occupancy
  Tb  Tb0  1  0.095511  0.296370  0.024725  1
  Tb  Tb1  1  0.283583  0.022754  0.092727  1
  Tb  Tb2  1  0.976086  0.903645  0.703150  1
  Tb  Tb3  1  0.904534  0.704015  0.976392  1
  Tb  Tb4  1  0.716763  0.977877  0.909343  1
  Yb  Yb5  1  0.499950  0.499997  0.500142  1
  Tm  Tm6  1  0.023808  0.094701  0.291064  1
  Co  Co7  1  0.000249  0.000069  0.000095  1
  I  I8  1  0.149555  0.455083  0.379872  1
  I  I9  1  0.458379  0.378872  0.152011  1
  I  I10  1  0.377074  0.151010  0.456785  1
  I  I11  1  0.848949  0.541562  0.620595  1
  I  I12  1  0.541691  0.621173  0.848178  1
  I  I13  1  0.619955  0.848877  0.543391  1
  I  I14  1  0.681943  0.072342  0.224782  1
  I  I15  1  0.072024  0.223848  0.677339  1
  I  I16  1  0.225774  0.680072  0.072977  1
  I  I17  1  0.321193  0.928439  0.777504  1
  I  I18  1  0.928743  0.779346  0.321734  1
  I  I19  1  0.774237  0.319948  0.927195  1
