# generated using pymatgen
data_CaY3(HfIr)4
_symmetry_space_group_name_H-M   'P 1'
_cell_length_a   4.52960900
_cell_length_b   7.12463683
_cell_length_c   8.31190948
_cell_angle_alpha   89.84777234
_cell_angle_beta   90.00000000
_cell_angle_gamma   90.00000000
_symmetry_Int_Tables_number   1
_chemical_formula_structural   CaY3(HfIr)4
_chemical_formula_sum   'Ca1 Y3 Hf4 Ir4'
_cell_volume   268.23949246
_cell_formula_units_Z   1
loop_
 _symmetry_equiv_pos_site_id
 _symmetry_equiv_pos_as_xyz
  1  'x, y, z'
loop_
 _atom_site_type_symbol
 _atom_site_label
 _atom_site_symmetry_multiplicity
 _atom_site_fract_x
 _atom_site_fract_y
 _atom_site_fract_z
 _atom_site_occupancy
  Ca  Ca0  1  0.250000  0.982234  0.322238  1
  Y  Y1  1  0.250000  0.487170  0.176683  1
  Y  Y2  1  0.750000  0.014060  0.676314  1
  Y  Y3  1  0.750000  0.515660  0.821391  1
  Hf  Hf4  1  0.250000  0.356040  0.571515  1
  Hf  Hf5  1  0.250000  0.860300  0.926173  1
  Hf  Hf6  1  0.750000  0.641888  0.430723  1
  Hf  Hf7  1  0.750000  0.142233  0.071513  1
  Ir  Ir8  1  0.250000  0.229289  0.905385  1
  Ir  Ir9  1  0.250000  0.721771  0.602703  1
  Ir  Ir10  1  0.750000  0.769973  0.088879  1
  Ir  Ir11  1  0.750000  0.279382  0.406482  1
