# generated using pymatgen
data_PrHo4Tl3InPd2
_symmetry_space_group_name_H-M   'P 1'
_cell_length_a   3.64311000
_cell_length_b   8.28086423
_cell_length_c   18.52068680
_cell_angle_alpha   89.93728573
_cell_angle_beta   90.00000000
_cell_angle_gamma   90.00000000
_symmetry_Int_Tables_number   1
_chemical_formula_structural   PrHo4Tl3InPd2
_chemical_formula_sum   'Pr2 Ho8 Tl6 In2 Pd4'
_cell_volume   558.73358340
_cell_formula_units_Z   2
loop_
 _symmetry_equiv_pos_site_id
 _symmetry_equiv_pos_as_xyz
  1  'x, y, z'
loop_
 _atom_site_type_symbol
 _atom_site_label
 _atom_site_symmetry_multiplicity
 _atom_site_fract_x
 _atom_site_fract_y
 _atom_site_fract_z
 _atom_site_occupancy
  Pr  Pr0  1  0.000000  0.500000  0.500000  1
  Pr  Pr1  1  0.000000  0.000000  0.000000  1
  Ho  Ho2  1  0.000000  0.741195  0.282052  1
  Ho  Ho3  1  0.000000  0.258805  0.717948  1
  Ho  Ho4  1  0.000000  0.759051  0.782986  1
  Ho  Ho5  1  0.000000  0.240949  0.217014  1
  Ho  Ho6  1  0.000000  0.621307  0.086158  1
  Ho  Ho7  1  0.000000  0.378693  0.913842  1
  Ho  Ho8  1  0.000000  0.880063  0.587347  1
  Ho  Ho9  1  0.000000  0.119937  0.412653  1
  Tl  Tl10  1  0.500000  0.698832  0.932848  1
  Tl  Tl11  1  0.500000  0.301168  0.067152  1
  Tl  Tl12  1  0.500000  0.802959  0.433569  1
  Tl  Tl13  1  0.500000  0.197041  0.566431  1
  Tl  Tl14  1  0.500000  0.583661  0.653327  1
  Tl  Tl15  1  0.500000  0.416339  0.346673  1
  In  In16  1  0.500000  0.915507  0.153704  1
  In  In17  1  0.500000  0.084493  0.846296  1
  Pd  Pd18  1  0.500000  0.531439  0.196072  1
  Pd  Pd19  1  0.500000  0.468561  0.803928  1
  Pd  Pd20  1  0.500000  0.973528  0.698226  1
  Pd  Pd21  1  0.500000  0.026472  0.301774  1
