# generated using pymatgen
data_Sr4CdSi6Pd
_symmetry_space_group_name_H-M   'P 1'
_cell_length_a   11.89917302
_cell_length_b   10.27056881
_cell_length_c   8.46428976
_cell_angle_alpha   78.20554548
_cell_angle_beta   57.66227415
_cell_angle_gamma   44.13218724
_symmetry_Int_Tables_number   1
_chemical_formula_structural   Sr4CdSi6Pd
_chemical_formula_sum   'Sr8 Cd2 Si12 Pd2'
_cell_volume   579.55642874
_cell_formula_units_Z   2
loop_
 _symmetry_equiv_pos_site_id
 _symmetry_equiv_pos_as_xyz
  1  'x, y, z'
loop_
 _atom_site_type_symbol
 _atom_site_label
 _atom_site_symmetry_multiplicity
 _atom_site_fract_x
 _atom_site_fract_y
 _atom_site_fract_z
 _atom_site_occupancy
  Sr  Sr0  1  0.116089  0.132852  0.880463  1
  Sr  Sr1  1  0.880464  0.870598  0.116088  1
  Sr  Sr2  1  0.117149  0.133912  0.379402  1
  Sr  Sr3  1  0.379403  0.369537  0.117148  1
  Sr  Sr4  1  0.631206  0.617172  0.372305  1
  Sr  Sr5  1  0.372305  0.379318  0.631206  1
  Sr  Sr6  1  0.632829  0.618794  0.870682  1
  Sr  Sr7  1  0.870683  0.877696  0.632828  1
  Cd  Cd8  1  0.167359  0.832641  0.167359  1
  Cd  Cd9  1  0.417359  0.082641  0.417359  1
  Si  Si10  1  0.920745  0.586296  0.411223  1
  Si  Si11  1  0.062913  0.437681  0.593160  1
  Si  Si12  1  0.411223  0.081736  0.920745  1
  Si  Si13  1  0.593160  0.906245  0.062913  1
  Si  Si14  1  0.343755  0.656840  0.812319  1
  Si  Si15  1  0.663704  0.329255  0.168264  1
  Si  Si16  1  0.812319  0.187087  0.343755  1
  Si  Si17  1  0.168264  0.838777  0.663704  1
  Si  Si18  1  0.917911  0.582090  0.917910  1
  Si  Si19  1  0.593584  0.906417  0.593583  1
  Si  Si20  1  0.343584  0.656417  0.343584  1
  Si  Si21  1  0.667910  0.332090  0.667910  1
  Pd  Pd22  1  0.083042  0.416958  0.083042  1
  Pd  Pd23  1  0.833042  0.166958  0.833042  1
