# generated using pymatgen
data_Sr2NdTl(Pt2O7)2
_symmetry_space_group_name_H-M   'P 1'
_cell_length_a   7.39201546
_cell_length_b   7.49262376
_cell_length_c   7.49262231
_cell_angle_alpha   59.67309769
_cell_angle_beta   59.56301765
_cell_angle_gamma   59.56301699
_symmetry_Int_Tables_number   1
_chemical_formula_structural   Sr2NdTl(Pt2O7)2
_chemical_formula_sum   'Sr2 Nd1 Tl1 Pt4 O14'
_cell_volume   290.76705814
_cell_formula_units_Z   1
loop_
 _symmetry_equiv_pos_site_id
 _symmetry_equiv_pos_as_xyz
  1  'x, y, z'
loop_
 _atom_site_type_symbol
 _atom_site_label
 _atom_site_symmetry_multiplicity
 _atom_site_fract_x
 _atom_site_fract_y
 _atom_site_fract_z
 _atom_site_occupancy
  Sr  Sr0  1  0.625000  0.625000  0.125000  1
  Sr  Sr1  1  0.625000  0.125000  0.625000  1
  Nd  Nd2  1  0.625000  0.625000  0.625000  1
  Tl  Tl3  1  0.125000  0.625000  0.625000  1
  Pt  Pt4  1  0.125000  0.125000  0.625000  1
  Pt  Pt5  1  0.125000  0.625000  0.125000  1
  Pt  Pt6  1  0.625000  0.125000  0.125000  1
  Pt  Pt7  1  0.125000  0.125000  0.125000  1
  O  O8  1  0.468215  0.516320  0.516320  1
  O  O9  1  0.781785  0.733680  0.733680  1
  O  O10  1  0.456807  0.035241  0.456244  1
  O  O11  1  0.194061  0.799179  0.205570  1
  O  O12  1  0.456807  0.456244  0.035241  1
  O  O13  1  0.043779  0.453182  0.453182  1
  O  O14  1  0.453643  0.047702  0.047702  1
  O  O15  1  0.055939  0.044430  0.450821  1
  O  O16  1  0.055939  0.450821  0.044430  1
  O  O17  1  0.796357  0.202298  0.202298  1
  O  O18  1  0.206221  0.796818  0.796818  1
  O  O19  1  0.793193  0.214759  0.793756  1
  O  O20  1  0.194061  0.205570  0.799179  1
  O  O21  1  0.793193  0.793756  0.214759  1
