# generated using pymatgen
data_Nd6Cd22AgS
_symmetry_space_group_name_H-M   'P 1'
_cell_length_a   10.05541941
_cell_length_b   10.05541924
_cell_length_c   10.08475300
_cell_angle_alpha   59.90344921
_cell_angle_beta   59.90344975
_cell_angle_gamma   59.89392055
_symmetry_Int_Tables_number   1
_chemical_formula_structural   Nd6Cd22AgS
_chemical_formula_sum   'Nd6 Cd22 Ag1 S1'
_cell_volume   719.39421333
_cell_formula_units_Z   1
loop_
 _symmetry_equiv_pos_site_id
 _symmetry_equiv_pos_as_xyz
  1  'x, y, z'
loop_
 _atom_site_type_symbol
 _atom_site_label
 _atom_site_symmetry_multiplicity
 _atom_site_fract_x
 _atom_site_fract_y
 _atom_site_fract_z
 _atom_site_occupancy
  Nd  Nd0  1  0.796417  0.796417  0.203583  1
  Nd  Nd1  1  0.202840  0.797160  0.201189  1
  Nd  Nd2  1  0.797160  0.202840  0.201189  1
  Nd  Nd3  1  0.203583  0.203583  0.796417  1
  Nd  Nd4  1  0.797160  0.202840  0.798811  1
  Nd  Nd5  1  0.202840  0.797160  0.798811  1
  Cd  Cd6  1  0.836781  0.836781  0.496350  1
  Cd  Cd7  1  0.834456  0.499169  0.833188  1
  Cd  Cd8  1  0.499169  0.834456  0.833188  1
  Cd  Cd9  1  0.836781  0.836781  0.830089  1
  Cd  Cd10  1  0.163219  0.163219  0.503650  1
  Cd  Cd11  1  0.165544  0.500831  0.166812  1
  Cd  Cd12  1  0.500831  0.165544  0.166812  1
  Cd  Cd13  1  0.163219  0.163219  0.169911  1
  Cd  Cd14  1  0.621739  0.621739  0.135342  1
  Cd  Cd15  1  0.629778  0.133919  0.618151  1
  Cd  Cd16  1  0.133919  0.629778  0.618151  1
  Cd  Cd17  1  0.621739  0.621739  0.621178  1
  Cd  Cd18  1  0.378261  0.378261  0.864658  1
  Cd  Cd19  1  0.370222  0.866081  0.381849  1
  Cd  Cd20  1  0.866081  0.370222  0.381849  1
  Cd  Cd21  1  0.378261  0.378261  0.378822  1
  Cd  Cd22  1  0.500000  0.000000  0.500000  1
  Cd  Cd23  1  0.000000  0.500000  0.500000  1
  Cd  Cd24  1  0.500000  0.500000  0.000000  1
  Cd  Cd25  1  0.000000  0.500000  0.000000  1
  Cd  Cd26  1  0.500000  0.000000  0.000000  1
  Cd  Cd27  1  0.500000  0.500000  0.500000  1
  Ag  Ag28  1  0.000000  0.000000  0.500000  1
  S  S29  1  0.000000  0.000000  0.000000  1
