# generated using pymatgen
data_Yb3Pa(GaCu5)4
_symmetry_space_group_name_H-M   'P 1'
_cell_length_a   4.97962900
_cell_length_b   8.01152505
_cell_length_c   10.15609600
_cell_angle_alpha   89.99374229
_cell_angle_beta   90.00000000
_cell_angle_gamma   90.00000000
_symmetry_Int_Tables_number   1
_chemical_formula_structural   Yb3Pa(GaCu5)4
_chemical_formula_sum   'Yb3 Pa1 Ga4 Cu20'
_cell_volume   405.17158197
_cell_formula_units_Z   1
loop_
 _symmetry_equiv_pos_site_id
 _symmetry_equiv_pos_as_xyz
  1  'x, y, z'
loop_
 _atom_site_type_symbol
 _atom_site_label
 _atom_site_symmetry_multiplicity
 _atom_site_fract_x
 _atom_site_fract_y
 _atom_site_fract_z
 _atom_site_occupancy
  Yb  Yb0  1  0.750000  0.242651  0.937262  1
  Yb  Yb1  1  0.750000  0.744317  0.561024  1
  Yb  Yb2  1  0.250000  0.255294  0.441378  1
  Pa  Pa3  1  0.250000  0.757790  0.061401  1
  Ga  Ga4  1  0.250000  0.644415  0.356743  1
  Ga  Ga5  1  0.750000  0.356385  0.645401  1
  Ga  Ga6  1  0.750000  0.854439  0.856099  1
  Ga  Ga7  1  0.250000  0.145756  0.143376  1
  Cu  Cu8  1  0.250000  0.819014  0.755761  1
  Cu  Cu9  1  0.750000  0.182559  0.247581  1
  Cu  Cu10  1  0.750000  0.682779  0.251552  1
  Cu  Cu11  1  0.250000  0.318589  0.744732  1
  Cu  Cu12  1  0.505006  0.565850  0.807013  1
  Cu  Cu13  1  0.494096  0.433013  0.194160  1
  Cu  Cu14  1  0.494996  0.934524  0.306175  1
  Cu  Cu15  1  0.005904  0.433013  0.194160  1
  Cu  Cu16  1  0.505194  0.066346  0.692761  1
  Cu  Cu17  1  0.994994  0.565850  0.807013  1
  Cu  Cu18  1  0.994806  0.066346  0.692761  1
  Cu  Cu19  1  0.005004  0.934524  0.306175  1
  Cu  Cu20  1  0.250000  0.904279  0.516741  1
  Cu  Cu21  1  0.750000  0.095116  0.483878  1
  Cu  Cu22  1  0.750000  0.586486  0.015544  1
  Cu  Cu23  1  0.250000  0.402871  0.982894  1
  Cu  Cu24  1  0.250000  0.564932  0.589724  1
  Cu  Cu25  1  0.750000  0.436062  0.410621  1
  Cu  Cu26  1  0.750000  0.939287  0.089495  1
  Cu  Cu27  1  0.250000  0.067512  0.908575  1
