# generated using pymatgen
data_HoErFe10Co2P7
_symmetry_space_group_name_H-M   'P 1'
_cell_length_a   8.94736700
_cell_length_b   8.95170690
_cell_length_c   3.62009900
_cell_angle_alpha   90.00000000
_cell_angle_beta   90.00000000
_cell_angle_gamma   120.06284382
_symmetry_Int_Tables_number   1
_chemical_formula_structural   HoErFe10Co2P7
_chemical_formula_sum   'Ho1 Er1 Fe10 Co2 P7'
_cell_volume   250.94400004
_cell_formula_units_Z   1
loop_
 _symmetry_equiv_pos_site_id
 _symmetry_equiv_pos_as_xyz
  1  'x, y, z'
loop_
 _atom_site_type_symbol
 _atom_site_label
 _atom_site_symmetry_multiplicity
 _atom_site_fract_x
 _atom_site_fract_y
 _atom_site_fract_z
 _atom_site_occupancy
  Ho  Ho0  1  0.333374  0.666644  0.500000  1
  Er  Er1  1  0.000326  0.999446  0.000000  1
  Fe  Fe2  1  0.094469  0.391086  0.000000  1
  Fe  Fe3  1  0.786803  0.179970  0.000000  1
  Fe  Fe4  1  0.393531  0.214159  0.000000  1
  Fe  Fe5  1  0.821412  0.607588  0.000000  1
  Fe  Fe6  1  0.716034  0.947312  0.500000  1
  Fe  Fe7  1  0.231888  0.284240  0.500000  1
  Fe  Fe8  1  0.054195  0.769006  0.500000  1
  Fe  Fe9  1  0.544324  0.111923  0.500000  1
  Fe  Fe10  1  0.567660  0.456972  0.500000  1
  Fe  Fe11  1  0.883064  0.430467  0.500000  1
  Co  Co12  1  0.297571  0.903932  0.000000  1
  Co  Co13  1  0.606435  0.702978  0.000000  1
  P  P14  1  0.556653  0.925062  0.000000  1
  P  P15  1  0.367383  0.443188  0.000000  1
  P  P16  1  0.075134  0.630050  0.000000  1
  P  P17  1  0.955248  0.219413  0.500000  1
  P  P18  1  0.265160  0.046989  0.500000  1
  P  P19  1  0.782624  0.735777  0.500000  1
  P  P20  1  0.666717  0.333799  0.000000  1
