# generated using pymatgen
data_Mg3PaAs6Ru7
_symmetry_space_group_name_H-M   'P 1'
_cell_length_a   7.09764107
_cell_length_b   7.09764018
_cell_length_c   6.98875400
_cell_angle_alpha   109.16075127
_cell_angle_beta   109.16074877
_cell_angle_gamma   109.77990268
_symmetry_Int_Tables_number   1
_chemical_formula_structural   Mg3PaAs6Ru7
_chemical_formula_sum   'Mg3 Pa1 As6 Ru7'
_cell_volume   272.05429091
_cell_formula_units_Z   1
loop_
 _symmetry_equiv_pos_site_id
 _symmetry_equiv_pos_as_xyz
  1  'x, y, z'
loop_
 _atom_site_type_symbol
 _atom_site_label
 _atom_site_symmetry_multiplicity
 _atom_site_fract_x
 _atom_site_fract_y
 _atom_site_fract_z
 _atom_site_occupancy
  Mg  Mg0  1  0.500000  0.000000  0.000000  1
  Mg  Mg1  1  0.000000  0.500000  0.000000  1
  Mg  Mg2  1  0.500000  0.500000  0.500000  1
  Pa  Pa3  1  0.000000  0.000000  0.500000  1
  As  As4  1  0.316401  0.000000  0.303893  1
  As  As5  1  0.000000  0.316401  0.303893  1
  As  As6  1  0.000000  0.683599  0.696107  1
  As  As7  1  0.316401  0.316401  0.012508  1
  As  As8  1  0.683599  0.683599  0.987492  1
  As  As9  1  0.683599  0.000000  0.696107  1
  Ru  Ru10  1  0.750340  0.500679  0.250340  1
  Ru  Ru11  1  0.500679  0.750340  0.250340  1
  Ru  Ru12  1  0.499321  0.249660  0.749660  1
  Ru  Ru13  1  0.750340  0.249660  0.500000  1
  Ru  Ru14  1  0.249660  0.750340  0.500000  1
  Ru  Ru15  1  0.249660  0.499321  0.749660  1
  Ru  Ru16  1  0.000000  0.000000  0.000000  1
