# generated using pymatgen
data_Ho9Er3InCo4Cu
_symmetry_space_group_name_H-M   'P 1'
_cell_length_a   8.26212174
_cell_length_b   8.26206476
_cell_length_c   8.26212200
_cell_angle_alpha   111.09881961
_cell_angle_beta   110.77978164
_cell_angle_gamma   106.57376712
_symmetry_Int_Tables_number   1
_chemical_formula_structural   Ho9Er3InCo4Cu
_chemical_formula_sum   'Ho9 Er3 In1 Co4 Cu1'
_cell_volume   433.32773777
_cell_formula_units_Z   1
loop_
 _symmetry_equiv_pos_site_id
 _symmetry_equiv_pos_as_xyz
  1  'x, y, z'
loop_
 _atom_site_type_symbol
 _atom_site_label
 _atom_site_symmetry_multiplicity
 _atom_site_fract_x
 _atom_site_fract_y
 _atom_site_fract_z
 _atom_site_occupancy
  Ho  Ho0  1  0.683927  0.988966  0.305037  1
  Ho  Ho1  1  0.185681  0.289977  0.475638  1
  Ho  Ho2  1  0.814339  0.710025  0.524375  1
  Ho  Ho3  1  0.185650  0.710025  0.895684  1
  Ho  Ho4  1  0.814339  0.289977  0.104298  1
  Ho  Ho5  1  0.417396  0.218372  0.199039  1
  Ho  Ho6  1  0.582592  0.781634  0.800944  1
  Ho  Ho7  1  0.019332  0.218372  0.800976  1
  Ho  Ho8  1  0.980690  0.781634  0.199042  1
  Er  Er9  1  0.316072  0.621125  0.305053  1
  Er  Er10  1  0.683921  0.378871  0.694950  1
  Er  Er11  1  0.316072  0.011017  0.694947  1
  In  In12  1  0.499995  0.499986  0.999992  1
  Co  Co13  1  0.112740  0.612740  0.500000  1
  Co  Co14  1  0.887276  0.387285  0.500009  1
  Co  Co15  1  0.375776  0.999998  0.375795  1
  Co  Co16  1  0.624202  0.999998  0.624222  1
  Cu  Cu17  1  0.000001  0.000000  0.999999  1
