# generated using pymatgen
data_PrSmMnCo16
_symmetry_space_group_name_H-M   'P 1'
_cell_length_a   6.33810977
_cell_length_b   6.33810908
_cell_length_c   6.33810900
_cell_angle_alpha   83.22527069
_cell_angle_beta   83.22527566
_cell_angle_gamma   83.22526908
_symmetry_Int_Tables_number   1
_chemical_formula_structural   PrSmMnCo16
_chemical_formula_sum   'Pr1 Sm1 Mn1 Co16'
_cell_volume   249.66737024
_cell_formula_units_Z   1
loop_
 _symmetry_equiv_pos_site_id
 _symmetry_equiv_pos_as_xyz
  1  'x, y, z'
loop_
 _atom_site_type_symbol
 _atom_site_label
 _atom_site_symmetry_multiplicity
 _atom_site_fract_x
 _atom_site_fract_y
 _atom_site_fract_z
 _atom_site_occupancy
  Pr  Pr0  1  0.346494  0.346494  0.346494  1
  Sm  Sm1  1  0.656189  0.656189  0.656189  1
  Mn  Mn2  1  0.096369  0.096369  0.096369  1
  Co  Co3  1  0.714296  0.285652  0.998265  1
  Co  Co4  1  0.998265  0.714296  0.285652  1
  Co  Co5  1  0.285652  0.998265  0.714296  1
  Co  Co6  1  0.998265  0.285652  0.714296  1
  Co  Co7  1  0.714296  0.998265  0.285652  1
  Co  Co8  1  0.285652  0.714296  0.998265  1
  Co  Co9  1  0.345795  0.345795  0.849093  1
  Co  Co10  1  0.849093  0.345795  0.345795  1
  Co  Co11  1  0.345795  0.849093  0.345795  1
  Co  Co12  1  0.657899  0.657899  0.150716  1
  Co  Co13  1  0.150716  0.657899  0.657899  1
  Co  Co14  1  0.657899  0.150716  0.657899  1
  Co  Co15  1  0.996814  0.996814  0.504752  1
  Co  Co16  1  0.504752  0.996814  0.996814  1
  Co  Co17  1  0.996814  0.504752  0.996814  1
  Co  Co18  1  0.898944  0.898944  0.898944  1
