# generated using pymatgen
data_Ta12Al9Co3C4
_symmetry_space_group_name_H-M   'P 1'
_cell_length_a   8.25933392
_cell_length_b   8.25933447
_cell_length_c   8.25933421
_cell_angle_alpha   59.97872821
_cell_angle_beta   59.97872605
_cell_angle_gamma   59.97872731
_symmetry_Int_Tables_number   1
_chemical_formula_structural   Ta12Al9Co3C4
_chemical_formula_sum   'Ta12 Al9 Co3 C4'
_cell_volume   398.20854787
_cell_formula_units_Z   1
loop_
 _symmetry_equiv_pos_site_id
 _symmetry_equiv_pos_as_xyz
  1  'x, y, z'
loop_
 _atom_site_type_symbol
 _atom_site_label
 _atom_site_symmetry_multiplicity
 _atom_site_fract_x
 _atom_site_fract_y
 _atom_site_fract_z
 _atom_site_occupancy
  Ta  Ta0  1  0.186786  0.813442  0.186786  1
  Ta  Ta1  1  0.812782  0.188448  0.812782  1
  Ta  Ta2  1  0.063214  0.436558  0.063214  1
  Ta  Ta3  1  0.061552  0.437218  0.437218  1
  Ta  Ta4  1  0.436558  0.063214  0.063214  1
  Ta  Ta5  1  0.437218  0.061552  0.437218  1
  Ta  Ta6  1  0.812782  0.812782  0.188448  1
  Ta  Ta7  1  0.063214  0.063214  0.436558  1
  Ta  Ta8  1  0.186786  0.186786  0.813442  1
  Ta  Ta9  1  0.188448  0.812782  0.812782  1
  Ta  Ta10  1  0.437218  0.437218  0.061552  1
  Ta  Ta11  1  0.813442  0.186786  0.186786  1
  Al  Al12  1  0.625000  0.625000  0.625000  1
  Al  Al13  1  0.840096  0.840096  0.501455  1
  Al  Al14  1  0.501455  0.840096  0.840096  1
  Al  Al15  1  0.409904  0.748545  0.409904  1
  Al  Al16  1  0.748545  0.409904  0.409904  1
  Al  Al17  1  0.416906  0.416906  0.416906  1
  Al  Al18  1  0.409904  0.409904  0.748545  1
  Al  Al19  1  0.840096  0.501455  0.840096  1
  Al  Al20  1  0.833094  0.833094  0.833094  1
  Co  Co21  1  0.125000  0.625000  0.625000  1
  Co  Co22  1  0.625000  0.625000  0.125000  1
  Co  Co23  1  0.625000  0.125000  0.625000  1
  C  C24  1  0.125000  0.125000  0.125000  1
  C  C25  1  0.125000  0.125000  0.625000  1
  C  C26  1  0.625000  0.125000  0.125000  1
  C  C27  1  0.125000  0.625000  0.125000  1
