# generated using pymatgen
data_Ce4As3N4
_symmetry_space_group_name_H-M   'P 1'
_cell_length_a   7.01671209
_cell_length_b   7.01671088
_cell_length_c   8.02287703
_cell_angle_alpha   89.98973152
_cell_angle_beta   90.01026886
_cell_angle_gamma   146.83618117
_symmetry_Int_Tables_number   1
_chemical_formula_structural   Ce4As3N4
_chemical_formula_sum   'Ce4 As3 N4'
_cell_volume   216.07884697
_cell_formula_units_Z   1
loop_
 _symmetry_equiv_pos_site_id
 _symmetry_equiv_pos_as_xyz
  1  'x, y, z'
loop_
 _atom_site_type_symbol
 _atom_site_label
 _atom_site_symmetry_multiplicity
 _atom_site_fract_x
 _atom_site_fract_y
 _atom_site_fract_z
 _atom_site_occupancy
  Ce  Ce0  1  0.324100  0.675900  0.241730  1
  Ce  Ce1  1  0.981936  0.018064  0.499990  1
  Ce  Ce2  1  0.994053  0.005947  0.000004  1
  Ce  Ce3  1  0.324130  0.675870  0.758253  1
  As  As4  1  0.627241  0.372759  0.724453  1
  As  As5  1  0.627259  0.372741  0.275601  1
  As  As6  1  0.700178  0.299822  0.000020  1
  N  N7  1  0.412954  0.587046  0.000087  1
  N  N8  1  0.905994  0.094006  0.751606  1
  N  N9  1  0.905878  0.094122  0.248371  1
  N  N10  1  0.394169  0.605831  0.499884  1
