# generated using pymatgen
data_Er4Lu4Cr3OsC8
_symmetry_space_group_name_H-M   'P 1'
_cell_length_a   4.97002400
_cell_length_b   6.43038186
_cell_length_c   9.60943757
_cell_angle_alpha   90.07385634
_cell_angle_beta   90.00000000
_cell_angle_gamma   90.00000000
_symmetry_Int_Tables_number   1
_chemical_formula_structural   Er4Lu4Cr3OsC8
_chemical_formula_sum   'Er4 Lu4 Cr3 Os1 C8'
_cell_volume   307.10922264
_cell_formula_units_Z   1
loop_
 _symmetry_equiv_pos_site_id
 _symmetry_equiv_pos_as_xyz
  1  'x, y, z'
loop_
 _atom_site_type_symbol
 _atom_site_label
 _atom_site_symmetry_multiplicity
 _atom_site_fract_x
 _atom_site_fract_y
 _atom_site_fract_z
 _atom_site_occupancy
  Er  Er0  1  0.250000  0.532692  0.215400  1
  Er  Er1  1  0.750000  0.464254  0.785532  1
  Er  Er2  1  0.750000  0.967169  0.712292  1
  Er  Er3  1  0.250000  0.033115  0.283886  1
  Lu  Lu4  1  0.250000  0.679081  0.557938  1
  Lu  Lu5  1  0.750000  0.326238  0.440925  1
  Lu  Lu6  1  0.750000  0.824155  0.058115  1
  Lu  Lu7  1  0.250000  0.172220  0.943761  1
  Cr  Cr8  1  0.250000  0.722436  0.863133  1
  Cr  Cr9  1  0.750000  0.274246  0.139460  1
  Cr  Cr10  1  0.750000  0.774751  0.363151  1
  Os  Os11  1  0.250000  0.222291  0.635003  1
  C  C12  1  0.250000  0.459404  0.764735  1
  C  C13  1  0.750000  0.546130  0.237858  1
  C  C14  1  0.750000  0.044234  0.263050  1
  C  C15  1  0.250000  0.947700  0.742171  1
  C  C16  1  0.250000  0.817690  0.042441  1
  C  C17  1  0.750000  0.183421  0.960441  1
  C  C18  1  0.750000  0.681339  0.542788  1
  C  C19  1  0.250000  0.327434  0.447921  1
