# generated using pymatgen
data_Tc(S2F3)2
_symmetry_space_group_name_H-M   'P 1'
_cell_length_a   6.51659095
_cell_length_b   6.35770923
_cell_length_c   6.87085353
_cell_angle_alpha   66.47385047
_cell_angle_beta   61.62125067
_cell_angle_gamma   59.54181461
_symmetry_Int_Tables_number   1
_chemical_formula_structural   Tc(S2F3)2
_chemical_formula_sum   'Tc1 S4 F6'
_cell_volume   211.13999208
_cell_formula_units_Z   1
loop_
 _symmetry_equiv_pos_site_id
 _symmetry_equiv_pos_as_xyz
  1  'x, y, z'
loop_
 _atom_site_type_symbol
 _atom_site_label
 _atom_site_symmetry_multiplicity
 _atom_site_fract_x
 _atom_site_fract_y
 _atom_site_fract_z
 _atom_site_occupancy
  Tc  Tc0  1  0.000000  0.000000  0.000000  1
  S  S1  1  0.546749  0.688146  0.301043  1
  S  S2  1  0.246458  0.592244  0.507534  1
  S  S3  1  0.753542  0.407756  0.492466  1
  S  S4  1  0.453253  0.311853  0.698958  1
  F  F5  1  0.009909  0.660633  0.161633  1
  F  F6  1  0.145483  0.990083  0.200862  1
  F  F7  1  0.660131  0.133033  0.211865  1
  F  F8  1  0.339868  0.866967  0.788136  1
  F  F9  1  0.854517  0.009916  0.799139  1
  F  F10  1  0.990092  0.339368  0.838366  1
