# generated using pymatgen
data_TbHo9(SiHg)4
_symmetry_space_group_name_H-M   'P 1'
_cell_length_a   8.75092416
_cell_length_b   8.74765975
_cell_length_c   7.54184339
_cell_angle_alpha   89.96845705
_cell_angle_beta   90.00505428
_cell_angle_gamma   129.13158105
_symmetry_Int_Tables_number   1
_chemical_formula_structural   TbHo9(SiHg)4
_chemical_formula_sum   'Tb1 Ho9 Si4 Hg4'
_cell_volume   447.83317911
_cell_formula_units_Z   1
loop_
 _symmetry_equiv_pos_site_id
 _symmetry_equiv_pos_as_xyz
  1  'x, y, z'
loop_
 _atom_site_type_symbol
 _atom_site_label
 _atom_site_symmetry_multiplicity
 _atom_site_fract_x
 _atom_site_fract_y
 _atom_site_fract_z
 _atom_site_occupancy
  Tb  Tb0  1  0.054082  0.309325  0.323966  1
  Ho  Ho1  1  0.946080  0.691213  0.675738  1
  Ho  Ho2  1  0.446055  0.191342  0.824319  1
  Ho  Ho3  1  0.808685  0.554003  0.175604  1
  Ho  Ho4  1  0.553866  0.808531  0.175543  1
  Ho  Ho5  1  0.191543  0.446223  0.824393  1
  Ho  Ho6  1  0.691235  0.945842  0.675871  1
  Ho  Ho7  1  0.308608  0.053901  0.324235  1
  Ho  Ho8  1  0.000073  0.999804  0.999860  1
  Ho  Ho9  1  0.500091  0.500009  0.500027  1
  Si  Si10  1  0.380960  0.380427  0.121831  1
  Si  Si11  1  0.619711  0.619626  0.877741  1
  Si  Si12  1  0.119733  0.119472  0.622717  1
  Si  Si13  1  0.880066  0.879778  0.377794  1
  Hg  Hg14  1  0.782162  0.217215  0.999414  1
  Hg  Hg15  1  0.217315  0.782561  0.000048  1
  Hg  Hg16  1  0.716592  0.282493  0.500432  1
  Hg  Hg17  1  0.283143  0.718238  0.500468  1
