# generated using pymatgen
data_DyLu19(NiSb2)4
_symmetry_space_group_name_H-M   'P 1'
_cell_length_a   7.76918915
_cell_length_b   8.67450700
_cell_length_c   11.89754203
_cell_angle_alpha   90.00000000
_cell_angle_beta   89.99301849
_cell_angle_gamma   90.00000000
_symmetry_Int_Tables_number   1
_chemical_formula_structural   DyLu19(NiSb2)4
_chemical_formula_sum   'Dy1 Lu19 Ni4 Sb8'
_cell_volume   801.82158094
_cell_formula_units_Z   1
loop_
 _symmetry_equiv_pos_site_id
 _symmetry_equiv_pos_as_xyz
  1  'x, y, z'
loop_
 _atom_site_type_symbol
 _atom_site_label
 _atom_site_symmetry_multiplicity
 _atom_site_fract_x
 _atom_site_fract_y
 _atom_site_fract_z
 _atom_site_occupancy
  Dy  Dy0  1  0.874844  0.250000  0.803706  1
  Lu  Lu1  1  0.321054  0.541023  0.434269  1
  Lu  Lu2  1  0.179282  0.541545  0.934461  1
  Lu  Lu3  1  0.321054  0.958977  0.434269  1
  Lu  Lu4  1  0.124553  0.750000  0.195944  1
  Lu  Lu5  1  0.841623  0.750000  0.793401  1
  Lu  Lu6  1  0.375419  0.750000  0.695830  1
  Lu  Lu7  1  0.954015  0.750000  0.500199  1
  Lu  Lu8  1  0.453806  0.250000  0.999684  1
  Lu  Lu9  1  0.678844  0.459046  0.565484  1
  Lu  Lu10  1  0.821003  0.040912  0.066035  1
  Lu  Lu11  1  0.658466  0.750000  0.293442  1
  Lu  Lu12  1  0.545850  0.750000  0.000363  1
  Lu  Lu13  1  0.046128  0.250000  0.499541  1
  Lu  Lu14  1  0.678844  0.040954  0.565484  1
  Lu  Lu15  1  0.179282  0.958455  0.934461  1
  Lu  Lu16  1  0.624560  0.250000  0.304137  1
  Lu  Lu17  1  0.341481  0.250000  0.706546  1
  Lu  Lu18  1  0.821003  0.459088  0.066035  1
  Lu  Lu19  1  0.158397  0.250000  0.206517  1
  Ni  Ni20  1  0.925632  0.750000  0.011969  1
  Ni  Ni21  1  0.574836  0.750000  0.512133  1
  Ni  Ni22  1  0.075398  0.250000  0.988428  1
  Ni  Ni23  1  0.425665  0.250000  0.488126  1
  Sb  Sb24  1  0.929401  0.490929  0.327520  1
  Sb  Sb25  1  0.429387  0.509008  0.172530  1
  Sb  Sb26  1  0.429387  0.990992  0.172530  1
  Sb  Sb27  1  0.569707  0.491431  0.827509  1
  Sb  Sb28  1  0.070985  0.509544  0.672209  1
  Sb  Sb29  1  0.569707  0.008569  0.827509  1
  Sb  Sb30  1  0.929401  0.009071  0.327520  1
  Sb  Sb31  1  0.070985  0.990456  0.672209  1
