# generated using pymatgen
data_Rb3CrSe4
_symmetry_space_group_name_H-M   'P 1'
_cell_length_a   9.90311600
_cell_length_b   9.91655900
_cell_length_c   11.55218000
_cell_angle_alpha   90.00000000
_cell_angle_beta   90.00000000
_cell_angle_gamma   90.00000000
_symmetry_Int_Tables_number   1
_chemical_formula_structural   Rb3CrSe4
_chemical_formula_sum   'Rb12 Cr4 Se16'
_cell_volume   1134.47992037
_cell_formula_units_Z   4
loop_
 _symmetry_equiv_pos_site_id
 _symmetry_equiv_pos_as_xyz
  1  'x, y, z'
loop_
 _atom_site_type_symbol
 _atom_site_label
 _atom_site_symmetry_multiplicity
 _atom_site_fract_x
 _atom_site_fract_y
 _atom_site_fract_z
 _atom_site_occupancy
  Rb  Rb0  1  0.046749  0.791765  0.456730  1
  Rb  Rb1  1  0.453251  0.291765  0.543270  1
  Rb  Rb2  1  0.546749  0.708235  0.043270  1
  Rb  Rb3  1  0.953251  0.208235  0.956730  1
  Rb  Rb4  1  0.953251  0.208235  0.543270  1
  Rb  Rb5  1  0.546749  0.708235  0.456730  1
  Rb  Rb6  1  0.453251  0.291765  0.956730  1
  Rb  Rb7  1  0.046749  0.791765  0.043270  1
  Rb  Rb8  1  0.146159  0.587813  0.750000  1
  Rb  Rb9  1  0.353841  0.087813  0.250000  1
  Rb  Rb10  1  0.646159  0.912187  0.750000  1
  Rb  Rb11  1  0.853841  0.412187  0.250000  1
  Cr  Cr12  1  0.780171  0.983126  0.250000  1
  Cr  Cr13  1  0.719829  0.483126  0.750000  1
  Cr  Cr14  1  0.280171  0.516874  0.250000  1
  Cr  Cr15  1  0.219829  0.016874  0.750000  1
  Se  Se16  1  0.794441  0.754865  0.250000  1
  Se  Se17  1  0.705559  0.254865  0.750000  1
  Se  Se18  1  0.294441  0.745135  0.250000  1
  Se  Se19  1  0.205559  0.245135  0.750000  1
  Se  Se20  1  0.007691  0.928160  0.750000  1
  Se  Se21  1  0.492309  0.428160  0.250000  1
  Se  Se22  1  0.507691  0.571840  0.750000  1
  Se  Se23  1  0.992309  0.071840  0.250000  1
  Se  Se24  1  0.329902  0.950266  0.587603  1
  Se  Se25  1  0.170098  0.450266  0.412397  1
  Se  Se26  1  0.829902  0.549734  0.912397  1
  Se  Se27  1  0.670098  0.049734  0.087603  1
  Se  Se28  1  0.670098  0.049734  0.412397  1
  Se  Se29  1  0.829902  0.549734  0.587603  1
  Se  Se30  1  0.170098  0.450266  0.087603  1
  Se  Se31  1  0.329902  0.950266  0.912397  1
