# generated using pymatgen
data_La5Yb5(SnBi)4
_symmetry_space_group_name_H-M   'P 1'
_cell_length_a   8.54930000
_cell_length_b   8.57654366
_cell_length_c   16.31979700
_cell_angle_alpha   90.08140886
_cell_angle_beta   90.00000000
_cell_angle_gamma   90.00000000
_symmetry_Int_Tables_number   1
_chemical_formula_structural   La5Yb5(SnBi)4
_chemical_formula_sum   'La10 Yb10 Sn8 Bi8'
_cell_volume   1196.62252478
_cell_formula_units_Z   2
loop_
 _symmetry_equiv_pos_site_id
 _symmetry_equiv_pos_as_xyz
  1  'x, y, z'
loop_
 _atom_site_type_symbol
 _atom_site_label
 _atom_site_symmetry_multiplicity
 _atom_site_fract_x
 _atom_site_fract_y
 _atom_site_fract_z
 _atom_site_occupancy
  La  La0  1  0.386856  0.835038  0.618697  1
  La  La1  1  0.886856  0.664962  0.881303  1
  La  La2  1  0.540435  0.320863  0.895213  1
  La  La3  1  0.040435  0.179137  0.604787  1
  La  La4  1  0.459693  0.673251  0.392294  1
  La  La5  1  0.959693  0.826749  0.107706  1
  La  La6  1  0.459587  0.676784  0.104672  1
  La  La7  1  0.959587  0.823216  0.395328  1
  La  La8  1  0.541732  0.323909  0.605332  1
  La  La9  1  0.041732  0.176091  0.894668  1
  Yb  Yb10  1  0.382244  0.838718  0.878099  1
  Yb  Yb11  1  0.882244  0.661282  0.621901  1
  Yb  Yb12  1  0.615920  0.162649  0.379422  1
  Yb  Yb13  1  0.115920  0.337351  0.120578  1
  Yb  Yb14  1  0.612927  0.163034  0.122462  1
  Yb  Yb15  1  0.112927  0.336966  0.377538  1
  Yb  Yb16  1  0.215653  0.504285  0.749811  1
  Yb  Yb17  1  0.715653  0.995715  0.750189  1
  Yb  Yb18  1  0.785267  0.491459  0.250816  1
  Yb  Yb19  1  0.285267  0.008541  0.249184  1
  Sn  Sn20  1  0.584806  0.613758  0.751147  1
  Sn  Sn21  1  0.084806  0.886242  0.748853  1
  Sn  Sn22  1  0.412882  0.389293  0.249681  1
  Sn  Sn23  1  0.912882  0.110707  0.250319  1
  Sn  Sn24  1  0.337807  0.137938  0.749704  1
  Sn  Sn25  1  0.837807  0.362062  0.750296  1
  Sn  Sn26  1  0.664415  0.863494  0.250378  1
  Sn  Sn27  1  0.164415  0.636506  0.249622  1
  Bi  Bi28  1  0.275336  0.026168  0.043756  1
  Bi  Bi29  1  0.775336  0.473832  0.456244  1
  Bi  Bi30  1  0.727263  0.975277  0.544336  1
  Bi  Bi31  1  0.227263  0.524723  0.955664  1
  Bi  Bi32  1  0.721185  0.975865  0.957439  1
  Bi  Bi33  1  0.221185  0.524135  0.542561  1
  Bi  Bi34  1  0.275994  0.029065  0.454139  1
  Bi  Bi35  1  0.775994  0.470935  0.045861  1
