# generated using pymatgen
data_Li6Pr8Zn2PdRh7
_symmetry_space_group_name_H-M   'P 1'
_cell_length_a   4.09510300
_cell_length_b   7.32130249
_cell_length_c   16.68704229
_cell_angle_alpha   90.09157844
_cell_angle_beta   90.00000000
_cell_angle_gamma   90.00000000
_symmetry_Int_Tables_number   1
_chemical_formula_structural   Li6Pr8Zn2PdRh7
_chemical_formula_sum   'Li6 Pr8 Zn2 Pd1 Rh7'
_cell_volume   500.30171533
_cell_formula_units_Z   1
loop_
 _symmetry_equiv_pos_site_id
 _symmetry_equiv_pos_as_xyz
  1  'x, y, z'
loop_
 _atom_site_type_symbol
 _atom_site_label
 _atom_site_symmetry_multiplicity
 _atom_site_fract_x
 _atom_site_fract_y
 _atom_site_fract_z
 _atom_site_occupancy
  Li  Li0  1  0.250000  0.991948  0.435373  1
  Li  Li1  1  0.750000  0.509297  0.938180  1
  Li  Li2  1  0.750000  0.007368  0.561979  1
  Li  Li3  1  0.250000  0.636253  0.349579  1
  Li  Li4  1  0.750000  0.368806  0.651072  1
  Li  Li5  1  0.250000  0.489847  0.062397  1
  Pr  Pr6  1  0.750000  0.456199  0.214684  1
  Pr  Pr7  1  0.750000  0.959326  0.279853  1
  Pr  Pr8  1  0.750000  0.834809  0.060862  1
  Pr  Pr9  1  0.250000  0.035702  0.724192  1
  Pr  Pr10  1  0.250000  0.164796  0.940258  1
  Pr  Pr11  1  0.250000  0.545317  0.785125  1
  Pr  Pr12  1  0.750000  0.344475  0.433951  1
  Pr  Pr13  1  0.250000  0.668881  0.560647  1
  Zn  Zn14  1  0.750000  0.868931  0.851997  1
  Zn  Zn15  1  0.250000  0.129738  0.149092  1
  Pd  Pd16  1  0.250000  0.245230  0.562487  1
  Rh  Rh17  1  0.750000  0.242312  0.065807  1
  Rh  Rh18  1  0.250000  0.249475  0.309248  1
  Rh  Rh19  1  0.750000  0.242036  0.815214  1
  Rh  Rh20  1  0.250000  0.757216  0.934196  1
  Rh  Rh21  1  0.750000  0.751166  0.690064  1
  Rh  Rh22  1  0.750000  0.742428  0.439430  1
  Rh  Rh23  1  0.250000  0.758443  0.184311  1
