# generated using pymatgen
data_Er3GaGeIr2
_symmetry_space_group_name_H-M   'P 1'
_cell_length_a   5.53854400
_cell_length_b   7.64279200
_cell_length_c   13.56713900
_cell_angle_alpha   90.00000000
_cell_angle_beta   90.00000000
_cell_angle_gamma   90.00000000
_symmetry_Int_Tables_number   1
_chemical_formula_structural   Er3GaGeIr2
_chemical_formula_sum   'Er12 Ga4 Ge4 Ir8'
_cell_volume   574.29617679
_cell_formula_units_Z   4
loop_
 _symmetry_equiv_pos_site_id
 _symmetry_equiv_pos_as_xyz
  1  'x, y, z'
loop_
 _atom_site_type_symbol
 _atom_site_label
 _atom_site_symmetry_multiplicity
 _atom_site_fract_x
 _atom_site_fract_y
 _atom_site_fract_z
 _atom_site_occupancy
  Er  Er0  1  0.151091  0.901682  0.599736  1
  Er  Er1  1  0.848909  0.098318  0.099736  1
  Er  Er2  1  0.151091  0.598318  0.400264  1
  Er  Er3  1  0.848909  0.401682  0.900264  1
  Er  Er4  1  0.848909  0.098318  0.400264  1
  Er  Er5  1  0.151091  0.901682  0.900264  1
  Er  Er6  1  0.848909  0.401682  0.599736  1
  Er  Er7  1  0.151091  0.598318  0.099736  1
  Er  Er8  1  0.377050  0.265774  0.750000  1
  Er  Er9  1  0.622950  0.734226  0.250000  1
  Er  Er10  1  0.377050  0.234226  0.250000  1
  Er  Er11  1  0.622950  0.765774  0.750000  1
  Ga  Ga12  1  0.360921  0.250000  0.500000  1
  Ga  Ga13  1  0.639079  0.750000  0.000000  1
  Ga  Ga14  1  0.639079  0.750000  0.500000  1
  Ga  Ga15  1  0.360921  0.250000  0.000000  1
  Ge  Ge16  1  0.881710  0.119187  0.750000  1
  Ge  Ge17  1  0.118290  0.880813  0.250000  1
  Ge  Ge18  1  0.881710  0.380813  0.250000  1
  Ge  Ge19  1  0.118290  0.619187  0.750000  1
  Ir  Ir20  1  0.647417  0.035396  0.594519  1
  Ir  Ir21  1  0.352583  0.964604  0.094519  1
  Ir  Ir22  1  0.647417  0.464604  0.405481  1
  Ir  Ir23  1  0.352583  0.535396  0.905481  1
  Ir  Ir24  1  0.352583  0.964604  0.405481  1
  Ir  Ir25  1  0.647417  0.035396  0.905481  1
  Ir  Ir26  1  0.352583  0.535396  0.594519  1
  Ir  Ir27  1  0.647417  0.464604  0.094519  1
