# generated using pymatgen
data_Ce4Mn2AlB6
_symmetry_space_group_name_H-M   'P 1'
_cell_length_a   5.28687454
_cell_length_b   5.28687405
_cell_length_c   8.02839778
_cell_angle_alpha   70.77607728
_cell_angle_beta   70.77607927
_cell_angle_gamma   59.99999739
_symmetry_Int_Tables_number   1
_chemical_formula_structural   Ce4Mn2AlB6
_chemical_formula_sum   'Ce4 Mn2 Al1 B6'
_cell_volume   179.74412520
_cell_formula_units_Z   1
loop_
 _symmetry_equiv_pos_site_id
 _symmetry_equiv_pos_as_xyz
  1  'x, y, z'
loop_
 _atom_site_type_symbol
 _atom_site_label
 _atom_site_symmetry_multiplicity
 _atom_site_fract_x
 _atom_site_fract_y
 _atom_site_fract_z
 _atom_site_occupancy
  Ce  Ce0  1  0.259009  0.259009  0.222973  1
  Ce  Ce1  1  0.740991  0.740991  0.777027  1
  Ce  Ce2  1  0.407326  0.407326  0.778022  1
  Ce  Ce3  1  0.592674  0.592674  0.221979  1
  Mn  Mn4  1  0.113546  0.113546  0.659364  1
  Mn  Mn5  1  0.886454  0.886454  0.340636  1
  Al  Al6  1  0.000000  0.000000  0.000000  1
  B  B7  1  0.168041  0.831959  0.500000  1
  B  B8  1  0.831959  0.500000  0.500000  1
  B  B9  1  0.500000  0.168041  0.500000  1
  B  B10  1  0.168041  0.500000  0.500000  1
  B  B11  1  0.500000  0.831959  0.500000  1
  B  B12  1  0.831959  0.168041  0.500000  1
