# generated using pymatgen
data_PuTi(SeO3)4
_symmetry_space_group_name_H-M   'P 1'
_cell_length_a   8.84117740
_cell_length_b   5.03439482
_cell_length_c   7.28639048
_cell_angle_alpha   68.67804422
_cell_angle_beta   89.26502415
_cell_angle_gamma   89.49251973
_symmetry_Int_Tables_number   1
_chemical_formula_structural   PuTi(SeO3)4
_chemical_formula_sum   'Pu1 Ti1 Se4 O12'
_cell_volume   302.09029276
_cell_formula_units_Z   1
loop_
 _symmetry_equiv_pos_site_id
 _symmetry_equiv_pos_as_xyz
  1  'x, y, z'
loop_
 _atom_site_type_symbol
 _atom_site_label
 _atom_site_symmetry_multiplicity
 _atom_site_fract_x
 _atom_site_fract_y
 _atom_site_fract_z
 _atom_site_occupancy
  Pu  Pu0  1  0.500000  0.500000  0.500000  1
  Ti  Ti1  1  0.000000  0.500000  0.000000  1
  Se  Se2  1  0.658690  0.158251  0.164950  1
  Se  Se3  1  0.129684  0.868688  0.302765  1
  Se  Se4  1  0.341310  0.841749  0.835050  1
  Se  Se5  1  0.870316  0.131312  0.697235  1
  O  O6  1  0.142913  0.171035  0.090960  1
  O  O7  1  0.657824  0.866389  0.384556  1
  O  O8  1  0.857087  0.828965  0.909040  1
  O  O9  1  0.342176  0.133611  0.615444  1
  O  O10  1  0.057758  0.612835  0.222574  1
  O  O11  1  0.559082  0.404405  0.231523  1
  O  O12  1  0.680417  0.223960  0.677897  1
  O  O13  1  0.155486  0.737481  0.825470  1
  O  O14  1  0.319583  0.776040  0.322103  1
  O  O15  1  0.844514  0.262519  0.174530  1
  O  O16  1  0.440918  0.595595  0.768477  1
  O  O17  1  0.942242  0.387165  0.777426  1
