# generated using pymatgen
data_Sm8Ta(IrO8)3
_symmetry_space_group_name_H-M   'P 1'
_cell_length_a   5.35403956
_cell_length_b   9.25104237
_cell_length_c   10.03191700
_cell_angle_alpha   89.67655205
_cell_angle_beta   89.95628473
_cell_angle_gamma   89.96247491
_symmetry_Int_Tables_number   1
_chemical_formula_structural   Sm8Ta(IrO8)3
_chemical_formula_sum   'Sm8 Ta1 Ir3 O24'
_cell_volume   496.87716384
_cell_formula_units_Z   1
loop_
 _symmetry_equiv_pos_site_id
 _symmetry_equiv_pos_as_xyz
  1  'x, y, z'
loop_
 _atom_site_type_symbol
 _atom_site_label
 _atom_site_symmetry_multiplicity
 _atom_site_fract_x
 _atom_site_fract_y
 _atom_site_fract_z
 _atom_site_occupancy
  Sm  Sm0  1  0.038428  0.216183  0.128615  1
  Sm  Sm1  1  0.463150  0.773675  0.633008  1
  Sm  Sm2  1  0.963829  0.718174  0.373213  1
  Sm  Sm3  1  0.534052  0.285937  0.861324  1
  Sm  Sm4  1  0.028037  0.106076  0.536974  1
  Sm  Sm5  1  0.475435  0.900844  0.035557  1
  Sm  Sm6  1  0.976917  0.605706  0.960718  1
  Sm  Sm7  1  0.526542  0.401341  0.464281  1
  Ta  Ta8  1  0.040963  0.492854  0.648878  1
  Ir  Ir9  1  0.546755  0.001842  0.355835  1
  Ir  Ir10  1  0.955927  0.997164  0.855903  1
  Ir  Ir11  1  0.455709  0.502584  0.143755  1
  O  O12  1  0.436016  0.152379  0.474529  1
  O  O13  1  0.063908  0.851638  0.986240  1
  O  O14  1  0.561322  0.652475  0.021724  1
  O  O15  1  0.921456  0.342855  0.519157  1
  O  O16  1  0.727304  0.389447  0.070412  1
  O  O17  1  0.767229  0.612236  0.559819  1
  O  O18  1  0.273345  0.888369  0.433690  1
  O  O19  1  0.230336  0.112651  0.933694  1
  O  O20  1  0.245665  0.409863  0.004708  1
  O  O21  1  0.252014  0.592649  0.504685  1
  O  O22  1  0.755210  0.912151  0.496705  1
  O  O23  1  0.745804  0.092602  0.995028  1
  O  O24  1  0.183689  0.631877  0.182221  1
  O  O25  1  0.318984  0.353137  0.673509  1
  O  O26  1  0.823696  0.128901  0.315219  1
  O  O27  1  0.682542  0.864293  0.821679  1
  O  O28  1  0.340397  0.059506  0.209833  1
  O  O29  1  0.165851  0.943379  0.712157  1
  O  O30  1  0.668536  0.558324  0.285123  1
  O  O31  1  0.818075  0.455943  0.797169  1
  O  O32  1  0.319970  0.359065  0.259525  1
  O  O33  1  0.198541  0.637286  0.767392  1
  O  O34  1  0.675233  0.854689  0.239142  1
  O  O35  1  0.819131  0.141904  0.738582  1
