# generated using pymatgen
data_Yb4DyHo5(CuPb3)2
_symmetry_space_group_name_H-M   'P 1'
_cell_length_a   9.20109400
_cell_length_b   9.20182394
_cell_length_c   6.78806300
_cell_angle_alpha   90.00000000
_cell_angle_beta   90.00000000
_cell_angle_gamma   119.99737596
_symmetry_Int_Tables_number   1
_chemical_formula_structural   Yb4DyHo5(CuPb3)2
_chemical_formula_sum   'Yb4 Dy1 Ho5 Cu2 Pb6'
_cell_volume   497.73865065
_cell_formula_units_Z   1
loop_
 _symmetry_equiv_pos_site_id
 _symmetry_equiv_pos_as_xyz
  1  'x, y, z'
loop_
 _atom_site_type_symbol
 _atom_site_label
 _atom_site_symmetry_multiplicity
 _atom_site_fract_x
 _atom_site_fract_y
 _atom_site_fract_z
 _atom_site_occupancy
  Yb  Yb0  1  0.333344  0.666656  0.499989  1
  Yb  Yb1  1  0.666689  0.333344  0.499989  1
  Yb  Yb2  1  0.666689  0.333344  0.000011  1
  Yb  Yb3  1  0.333344  0.666656  0.000011  1
  Dy  Dy4  1  0.257879  0.000000  0.750000  1
  Ho  Ho5  1  0.742150  0.000000  0.250000  1
  Ho  Ho6  1  0.999995  0.257824  0.750000  1
  Ho  Ho7  1  0.999994  0.742170  0.250000  1
  Ho  Ho8  1  0.742171  0.742176  0.750000  1
  Ho  Ho9  1  0.257824  0.257830  0.250000  1
  Cu  Cu10  1  0.999939  0.000000  0.499961  1
  Cu  Cu11  1  0.999939  0.000000  0.000039  1
  Pb  Pb12  1  0.613646  0.000000  0.750000  1
  Pb  Pb13  1  0.386443  0.000000  0.250000  1
  Pb  Pb14  1  0.999932  0.613475  0.750000  1
  Pb  Pb15  1  0.999999  0.386434  0.250000  1
  Pb  Pb16  1  0.386458  0.386525  0.750000  1
  Pb  Pb17  1  0.613565  0.613566  0.250000  1
