# generated using pymatgen
data_La5Nd3Cd2IrPt
_symmetry_space_group_name_H-M   'P 1'
_cell_length_a   10.13716486
_cell_length_b   10.13716446
_cell_length_c   10.11634600
_cell_angle_alpha   60.06791186
_cell_angle_beta   60.06791316
_cell_angle_gamma   60.19310733
_symmetry_Int_Tables_number   1
_chemical_formula_structural   La5Nd3Cd2IrPt
_chemical_formula_sum   'La10 Nd6 Cd4 Ir2 Pt2'
_cell_volume   736.91573263
_cell_formula_units_Z   2
loop_
 _symmetry_equiv_pos_site_id
 _symmetry_equiv_pos_as_xyz
  1  'x, y, z'
loop_
 _atom_site_type_symbol
 _atom_site_label
 _atom_site_symmetry_multiplicity
 _atom_site_fract_x
 _atom_site_fract_y
 _atom_site_fract_z
 _atom_site_occupancy
  La  La0  1  0.348703  0.348703  0.343886  1
  La  La1  1  0.348703  0.348703  0.958708  1
  La  La2  1  0.352593  0.953904  0.346752  1
  La  La3  1  0.953904  0.352593  0.346752  1
  La  La4  1  0.803892  0.191858  0.192339  1
  La  La5  1  0.191858  0.803892  0.811912  1
  La  La6  1  0.191858  0.803892  0.192339  1
  La  La7  1  0.803892  0.191858  0.811912  1
  La  La8  1  0.193489  0.193489  0.806511  1
  La  La9  1  0.808766  0.808766  0.191234  1
  Nd  Nd10  1  0.935649  0.566557  0.564487  1
  Nd  Nd11  1  0.566557  0.935649  0.933307  1
  Nd  Nd12  1  0.566557  0.935649  0.564487  1
  Nd  Nd13  1  0.935649  0.566557  0.933307  1
  Nd  Nd14  1  0.565611  0.565611  0.934389  1
  Nd  Nd15  1  0.934388  0.934388  0.565612  1
  Cd  Cd16  1  0.580479  0.580479  0.580510  1
  Cd  Cd17  1  0.580479  0.580479  0.258532  1
  Cd  Cd18  1  0.580352  0.258666  0.580491  1
  Cd  Cd19  1  0.258666  0.580352  0.580491  1
  Ir  Ir20  1  0.140697  0.575158  0.142072  1
  Ir  Ir21  1  0.575158  0.140697  0.142072  1
  Pt  Pt22  1  0.141050  0.141050  0.142884  1
  Pt  Pt23  1  0.141050  0.141050  0.575014  1
