# generated using pymatgen
data_Tb3ZnHg2Pd2Pt
_symmetry_space_group_name_H-M   'P 1'
_cell_length_a   7.59088813
_cell_length_b   7.63069599
_cell_length_c   3.83633900
_cell_angle_alpha   90.00000000
_cell_angle_beta   90.00000000
_cell_angle_gamma   119.76504756
_symmetry_Int_Tables_number   1
_chemical_formula_structural   Tb3ZnHg2Pd2Pt
_chemical_formula_sum   'Tb3 Zn1 Hg2 Pd2 Pt1'
_cell_volume   192.89798814
_cell_formula_units_Z   1
loop_
 _symmetry_equiv_pos_site_id
 _symmetry_equiv_pos_as_xyz
  1  'x, y, z'
loop_
 _atom_site_type_symbol
 _atom_site_label
 _atom_site_symmetry_multiplicity
 _atom_site_fract_x
 _atom_site_fract_y
 _atom_site_fract_z
 _atom_site_occupancy
  Tb  Tb0  1  0.006503  0.405743  0.000000  1
  Tb  Tb1  1  0.594682  0.601323  0.000000  1
  Tb  Tb2  1  0.409256  0.993989  0.000000  1
  Zn  Zn3  1  0.736753  0.001476  0.500000  1
  Hg  Hg4  1  0.997564  0.739043  0.500000  1
  Hg  Hg5  1  0.264185  0.256004  0.500000  1
  Pd  Pd6  1  0.969982  0.001390  0.000000  1
  Pd  Pd7  1  0.672698  0.323655  0.500000  1
  Pt  Pt8  1  0.348378  0.677377  0.500000  1
