# generated using pymatgen
data_YTm2Co8ReP6
_symmetry_space_group_name_H-M   'P 1'
_cell_length_a   3.69294800
_cell_length_b   10.47076800
_cell_length_c   12.18213300
_cell_angle_alpha   90.00000000
_cell_angle_beta   90.00000000
_cell_angle_gamma   90.00000000
_symmetry_Int_Tables_number   1
_chemical_formula_structural   YTm2Co8ReP6
_chemical_formula_sum   'Y2 Tm4 Co16 Re2 P12'
_cell_volume   471.05874009
_cell_formula_units_Z   2
loop_
 _symmetry_equiv_pos_site_id
 _symmetry_equiv_pos_as_xyz
  1  'x, y, z'
loop_
 _atom_site_type_symbol
 _atom_site_label
 _atom_site_symmetry_multiplicity
 _atom_site_fract_x
 _atom_site_fract_y
 _atom_site_fract_z
 _atom_site_occupancy
  Y  Y0  1  0.000000  0.500000  0.525299  1
  Y  Y1  1  0.500000  0.000000  0.474701  1
  Tm  Tm2  1  0.500000  0.818608  0.205613  1
  Tm  Tm3  1  0.500000  0.181392  0.205613  1
  Tm  Tm4  1  0.000000  0.681392  0.794387  1
  Tm  Tm5  1  0.000000  0.318608  0.794387  1
  Co  Co6  1  0.500000  0.500000  0.703228  1
  Co  Co7  1  0.000000  0.000000  0.296772  1
  Co  Co8  1  0.000000  0.500000  0.987985  1
  Co  Co9  1  0.500000  0.000000  0.012015  1
  Co  Co10  1  0.500000  0.332503  0.989410  1
  Co  Co11  1  0.500000  0.667497  0.989410  1
  Co  Co12  1  0.000000  0.167497  0.010590  1
  Co  Co13  1  0.000000  0.832503  0.010590  1
  Co  Co14  1  0.500000  0.296624  0.430775  1
  Co  Co15  1  0.500000  0.703376  0.430775  1
  Co  Co16  1  0.000000  0.203376  0.569225  1
  Co  Co17  1  0.000000  0.796624  0.569225  1
  Co  Co18  1  0.500000  0.878660  0.708890  1
  Co  Co19  1  0.500000  0.121340  0.708890  1
  Co  Co20  1  0.000000  0.621340  0.291110  1
  Co  Co21  1  0.000000  0.378660  0.291110  1
  Re  Re22  1  0.500000  0.500000  0.156463  1
  Re  Re23  1  0.000000  0.000000  0.843537  1
  P  P24  1  0.500000  0.500000  0.879672  1
  P  P25  1  0.000000  0.000000  0.120328  1
  P  P26  1  0.500000  0.500000  0.349469  1
  P  P27  1  0.000000  0.000000  0.650531  1
  P  P28  1  0.500000  0.311948  0.617327  1
  P  P29  1  0.500000  0.688052  0.617327  1
  P  P30  1  0.000000  0.188052  0.382673  1
  P  P31  1  0.000000  0.811948  0.382673  1
  P  P32  1  0.500000  0.845140  0.891795  1
  P  P33  1  0.500000  0.154860  0.891795  1
  P  P34  1  0.000000  0.654860  0.108205  1
  P  P35  1  0.000000  0.345140  0.108205  1
