# generated using pymatgen
data_Zr2P2OsRu
_symmetry_space_group_name_H-M   'P 1'
_cell_length_a   3.90707800
_cell_length_b   6.48192300
_cell_length_c   7.36459600
_cell_angle_alpha   90.00000000
_cell_angle_beta   90.00000000
_cell_angle_gamma   90.00000000
_symmetry_Int_Tables_number   1
_chemical_formula_structural   Zr2P2OsRu
_chemical_formula_sum   'Zr4 P4 Os2 Ru2'
_cell_volume   186.51118305
_cell_formula_units_Z   2
loop_
 _symmetry_equiv_pos_site_id
 _symmetry_equiv_pos_as_xyz
  1  'x, y, z'
loop_
 _atom_site_type_symbol
 _atom_site_label
 _atom_site_symmetry_multiplicity
 _atom_site_fract_x
 _atom_site_fract_y
 _atom_site_fract_z
 _atom_site_occupancy
  Zr  Zr0  1  0.750000  0.521664  0.319765  1
  Zr  Zr1  1  0.250000  0.978311  0.821031  1
  Zr  Zr2  1  0.750000  0.021664  0.180235  1
  Zr  Zr3  1  0.250000  0.478311  0.678969  1
  P  P4  1  0.250000  0.722570  0.122715  1
  P  P5  1  0.250000  0.222570  0.377285  1
  P  P6  1  0.750000  0.276651  0.878244  1
  P  P7  1  0.750000  0.776651  0.621756  1
  Os  Os8  1  0.250000  0.348450  0.059713  1
  Os  Os9  1  0.250000  0.848450  0.440287  1
  Ru  Ru10  1  0.750000  0.152353  0.560614  1
  Ru  Ru11  1  0.750000  0.652353  0.939386  1
