# generated using pymatgen
data_Sr2Rh2I
_symmetry_space_group_name_H-M   'P 1'
_cell_length_a   4.40609300
_cell_length_b   4.40609234
_cell_length_c   18.08015100
_cell_angle_alpha   90.00000000
_cell_angle_beta   90.00000000
_cell_angle_gamma   119.99999742
_symmetry_Int_Tables_number   1
_chemical_formula_structural   Sr2Rh2I
_chemical_formula_sum   'Sr4 Rh4 I2'
_cell_volume   303.97645840
_cell_formula_units_Z   2
loop_
 _symmetry_equiv_pos_site_id
 _symmetry_equiv_pos_as_xyz
  1  'x, y, z'
loop_
 _atom_site_type_symbol
 _atom_site_label
 _atom_site_symmetry_multiplicity
 _atom_site_fract_x
 _atom_site_fract_y
 _atom_site_fract_z
 _atom_site_occupancy
  Sr  Sr0  1  0.000000  0.000000  0.110265  1
  Sr  Sr1  1  0.000000  0.000000  0.889735  1
  Sr  Sr2  1  0.000000  0.000000  0.610265  1
  Sr  Sr3  1  0.000000  0.000000  0.389735  1
  Rh  Rh4  1  0.333333  0.666667  0.500778  1
  Rh  Rh5  1  0.666667  0.333333  0.499222  1
  Rh  Rh6  1  0.666667  0.333333  0.000778  1
  Rh  Rh7  1  0.333333  0.666667  0.999222  1
  I  I8  1  0.333333  0.666667  0.250000  1
  I  I9  1  0.666667  0.333333  0.750000  1
