# generated using pymatgen
data_NbP3SeO12
_symmetry_space_group_name_H-M   'P 1'
_cell_length_a   8.70010128
_cell_length_b   8.69678005
_cell_length_c   9.07756577
_cell_angle_alpha   90.08372904
_cell_angle_beta   118.46282894
_cell_angle_gamma   120.02681991
_symmetry_Int_Tables_number   1
_chemical_formula_structural   NbP3SeO12
_chemical_formula_sum   'Nb2 P6 Se2 O24'
_cell_volume   496.12037181
_cell_formula_units_Z   2
loop_
 _symmetry_equiv_pos_site_id
 _symmetry_equiv_pos_as_xyz
  1  'x, y, z'
loop_
 _atom_site_type_symbol
 _atom_site_label
 _atom_site_symmetry_multiplicity
 _atom_site_fract_x
 _atom_site_fract_y
 _atom_site_fract_z
 _atom_site_occupancy
  Nb  Nb0  1  0.210157  0.355804  0.565229  1
  Nb  Nb1  1  0.786786  0.142745  0.929083  1
  P  P2  1  0.997012  0.958175  0.246622  1
  P  P3  1  0.289254  0.540391  0.250510  1
  P  P4  1  0.278895  0.750979  0.747385  1
  P  P5  1  0.708971  0.248077  0.251845  1
  P  P6  1  0.723406  0.472633  0.749391  1
  P  P7  1  0.002768  0.030048  0.753875  1
  Se  Se8  1  0.216897  0.862440  0.077489  1
  Se  Se9  1  0.790041  0.640925  0.433376  1
  O  O10  1  0.309360  0.725013  0.235698  1
  O  O11  1  0.872450  0.994006  0.076345  1
  O  O12  1  0.840557  0.847483  0.598911  1
  O  O13  1  0.832699  0.791142  0.266683  1
  O  O14  1  0.154562  0.926891  0.240261  1
  O  O15  1  0.475582  0.541007  0.271717  1
  O  O16  1  0.104644  0.748933  0.579702  1
  O  O17  1  0.896565  0.643430  0.914824  1
  O  O18  1  0.275410  0.766095  0.912591  1
  O  O19  1  0.492654  0.918111  0.780084  1
  O  O20  1  0.743525  0.479104  0.589099  1
  O  O21  1  0.720761  0.431393  0.264667  1
  O  O22  1  0.272008  0.571591  0.711757  1
  O  O23  1  0.270626  0.506737  0.411108  1
  O  O24  1  0.512340  0.083749  0.242170  1
  O  O25  1  0.709131  0.203235  0.086754  1
  O  O26  1  0.082462  0.372453  0.085001  1
  O  O27  1  0.906049  0.273118  0.416274  1
  O  O28  1  0.509153  0.438683  0.700730  1
  O  O29  1  0.867878  0.080730  0.781493  1
  O  O30  1  0.139958  0.194676  0.707372  1
  O  O31  1  0.135205  0.137508  0.404363  1
  O  O32  1  0.161812  0.028839  0.928772  1
  O  O33  1  0.710422  0.293854  0.788817  1
