# generated using pymatgen
data_TmZr2Sc(SiMo)4
_symmetry_space_group_name_H-M   'P 1'
_cell_length_a   3.55203600
_cell_length_b   7.07727491
_cell_length_c   8.29779624
_cell_angle_alpha   89.91577749
_cell_angle_beta   90.00000000
_cell_angle_gamma   90.00000000
_symmetry_Int_Tables_number   1
_chemical_formula_structural   TmZr2Sc(SiMo)4
_chemical_formula_sum   'Tm1 Zr2 Sc1 Si4 Mo4'
_cell_volume   208.59587765
_cell_formula_units_Z   1
loop_
 _symmetry_equiv_pos_site_id
 _symmetry_equiv_pos_as_xyz
  1  'x, y, z'
loop_
 _atom_site_type_symbol
 _atom_site_label
 _atom_site_symmetry_multiplicity
 _atom_site_fract_x
 _atom_site_fract_y
 _atom_site_fract_z
 _atom_site_occupancy
  Tm  Tm0  1  0.250000  0.542267  0.165331  1
  Zr  Zr1  1  0.750000  0.957299  0.667423  1
  Zr  Zr2  1  0.750000  0.456394  0.829831  1
  Sc  Sc3  1  0.250000  0.043274  0.335302  1
  Si  Si4  1  0.250000  0.257290  0.635160  1
  Si  Si5  1  0.250000  0.758925  0.862446  1
  Si  Si6  1  0.750000  0.745124  0.366367  1
  Si  Si7  1  0.750000  0.234097  0.138503  1
  Mo  Mo8  1  0.250000  0.129655  0.937521  1
  Mo  Mo9  1  0.250000  0.629817  0.562568  1
  Mo  Mo10  1  0.750000  0.874677  0.057675  1
  Mo  Mo11  1  0.750000  0.371184  0.441874  1
