# generated using pymatgen
data_LiEr16In3IrPt3
_symmetry_space_group_name_H-M   'P 1'
_cell_length_a   9.61133683
_cell_length_b   9.60055447
_cell_length_c   9.59112700
_cell_angle_alpha   60.03248149
_cell_angle_beta   60.06953610
_cell_angle_gamma   60.24312299
_symmetry_Int_Tables_number   1
_chemical_formula_structural   LiEr16In3IrPt3
_chemical_formula_sum   'Li1 Er16 In3 Ir1 Pt3'
_cell_volume   627.42516813
_cell_formula_units_Z   1
loop_
 _symmetry_equiv_pos_site_id
 _symmetry_equiv_pos_as_xyz
  1  'x, y, z'
loop_
 _atom_site_type_symbol
 _atom_site_label
 _atom_site_symmetry_multiplicity
 _atom_site_fract_x
 _atom_site_fract_y
 _atom_site_fract_z
 _atom_site_occupancy
  Li  Li0  1  0.722754  0.427025  0.425110  1
  Er  Er1  1  0.061769  0.061605  0.438313  1
  Er  Er2  1  0.644781  0.057871  0.648674  1
  Er  Er3  1  0.192317  0.807478  0.191712  1
  Er  Er4  1  0.435303  0.064211  0.436441  1
  Er  Er5  1  0.187994  0.193371  0.809318  1
  Er  Er6  1  0.651882  0.648089  0.652342  1
  Er  Er7  1  0.056793  0.642231  0.650489  1
  Er  Er8  1  0.435303  0.064211  0.064046  1
  Er  Er9  1  0.651882  0.648089  0.047689  1
  Er  Er10  1  0.192317  0.807478  0.808493  1
  Er  Er11  1  0.811719  0.191122  0.811528  1
  Er  Er12  1  0.811719  0.191122  0.185631  1
  Er  Er13  1  0.811874  0.810186  0.188970  1
  Er  Er14  1  0.062872  0.433704  0.438576  1
  Er  Er15  1  0.436744  0.435527  0.063865  1
  Er  Er16  1  0.062872  0.433704  0.064849  1
  In  In17  1  0.419927  0.416797  0.748170  1
  In  In18  1  0.422403  0.746387  0.415605  1
  In  In19  1  0.419927  0.416797  0.415105  1
  Ir  Ir20  1  0.861200  0.426249  0.856276  1
  Pt  Pt21  1  0.858933  0.858776  0.853362  1
  Pt  Pt22  1  0.427785  0.859197  0.856510  1
  Pt  Pt23  1  0.858933  0.858776  0.428932  1
