# generated using pymatgen
data_YbCeHo2(B4Ru)4
_symmetry_space_group_name_H-M   'P 1'
_cell_length_a   3.56993400
_cell_length_b   5.96685121
_cell_length_c   11.54962351
_cell_angle_alpha   90.07206071
_cell_angle_beta   90.00000000
_cell_angle_gamma   90.00000000
_symmetry_Int_Tables_number   1
_chemical_formula_structural   YbCeHo2(B4Ru)4
_chemical_formula_sum   'Yb1 Ce1 Ho2 B16 Ru4'
_cell_volume   246.02139653
_cell_formula_units_Z   1
loop_
 _symmetry_equiv_pos_site_id
 _symmetry_equiv_pos_as_xyz
  1  'x, y, z'
loop_
 _atom_site_type_symbol
 _atom_site_label
 _atom_site_symmetry_multiplicity
 _atom_site_fract_x
 _atom_site_fract_y
 _atom_site_fract_z
 _atom_site_occupancy
  Yb  Yb0  1  0.500000  0.870843  0.649751  1
  Ce  Ce1  1  0.500000  0.628440  0.150296  1
  Ho  Ho2  1  0.500000  0.370595  0.847602  1
  Ho  Ho3  1  0.500000  0.127524  0.352546  1
  B  B4  1  0.000000  0.976387  0.191578  1
  B  B5  1  0.000000  0.024995  0.807491  1
  B  B6  1  0.000000  0.475363  0.309936  1
  B  B7  1  0.000000  0.524072  0.691322  1
  B  B8  1  0.000000  0.788453  0.315920  1
  B  B9  1  0.000000  0.211873  0.684898  1
  B  B10  1  0.000000  0.287098  0.185608  1
  B  B11  1  0.000000  0.713822  0.813232  1
  B  B12  1  0.000000  0.863216  0.470239  1
  B  B13  1  0.000000  0.136066  0.530527  1
  B  B14  1  0.000000  0.363565  0.029984  1
  B  B15  1  0.000000  0.636724  0.968490  1
  B  B16  1  0.000000  0.889566  0.045672  1
  B  B17  1  0.000000  0.112223  0.951662  1
  B  B18  1  0.000000  0.387058  0.454669  1
  B  B19  1  0.000000  0.613343  0.547338  1
  Ru  Ru20  1  0.500000  0.639459  0.407740  1
  Ru  Ru21  1  0.500000  0.360478  0.591628  1
  Ru  Ru22  1  0.500000  0.139851  0.093396  1
  Ru  Ru23  1  0.500000  0.858983  0.908473  1
