# generated using pymatgen
data_TmCdCu3Pt
_symmetry_space_group_name_H-M   'P 1'
_cell_length_a   5.18056058
_cell_length_b   5.18056101
_cell_length_c   5.18056124
_cell_angle_alpha   59.04319222
_cell_angle_beta   59.04319109
_cell_angle_gamma   59.04319244
_symmetry_Int_Tables_number   1
_chemical_formula_structural   TmCdCu3Pt
_chemical_formula_sum   'Tm1 Cd1 Cu3 Pt1'
_cell_volume   96.16881440
_cell_formula_units_Z   1
loop_
 _symmetry_equiv_pos_site_id
 _symmetry_equiv_pos_as_xyz
  1  'x, y, z'
loop_
 _atom_site_type_symbol
 _atom_site_label
 _atom_site_symmetry_multiplicity
 _atom_site_fract_x
 _atom_site_fract_y
 _atom_site_fract_z
 _atom_site_occupancy
  Tm  Tm0  1  0.997789  0.997789  0.997789  1
  Cd  Cd1  1  0.248500  0.248500  0.248500  1
  Cu  Cu2  1  0.625500  0.625500  0.127042  1
  Cu  Cu3  1  0.625500  0.127042  0.625500  1
  Cu  Cu4  1  0.127042  0.625500  0.625500  1
  Pt  Pt5  1  0.625668  0.625668  0.625668  1
