# generated using pymatgen
data_Tb7DySc12Si15Sn
_symmetry_space_group_name_H-M   'P 1'
_cell_length_a   7.14674185
_cell_length_b   7.42835723
_cell_length_c   14.09319910
_cell_angle_alpha   89.99207786
_cell_angle_beta   89.61640322
_cell_angle_gamma   90.02840177
_symmetry_Int_Tables_number   1
_chemical_formula_structural   Tb7DySc12Si15Sn
_chemical_formula_sum   'Tb7 Dy1 Sc12 Si15 Sn1'
_cell_volume   748.17065829
_cell_formula_units_Z   1
loop_
 _symmetry_equiv_pos_site_id
 _symmetry_equiv_pos_as_xyz
  1  'x, y, z'
loop_
 _atom_site_type_symbol
 _atom_site_label
 _atom_site_symmetry_multiplicity
 _atom_site_fract_x
 _atom_site_fract_y
 _atom_site_fract_z
 _atom_site_occupancy
  Tb  Tb0  1  0.987499  0.825112  0.903774  1
  Tb  Tb1  1  0.488256  0.675554  0.903599  1
  Tb  Tb2  1  0.987468  0.831189  0.598486  1
  Tb  Tb3  1  0.512035  0.324426  0.097248  1
  Tb  Tb4  1  0.007261  0.169312  0.399094  1
  Tb  Tb5  1  0.513472  0.321613  0.399570  1
  Tb  Tb6  1  0.499962  0.683051  0.599941  1
  Dy  Dy7  1  0.012657  0.175509  0.097084  1
  Sc  Sc8  1  0.161459  0.501998  0.755239  1
  Sc  Sc9  1  0.838465  0.498308  0.249236  1
  Sc  Sc10  1  0.338809  0.001962  0.249309  1
  Sc  Sc11  1  0.662401  0.998001  0.751459  1
  Sc  Sc12  1  0.341414  0.162944  0.630525  1
  Sc  Sc13  1  0.665195  0.824997  0.372837  1
  Sc  Sc14  1  0.165345  0.683082  0.369584  1
  Sc  Sc15  1  0.669134  0.823428  0.124320  1
  Sc  Sc16  1  0.821935  0.323093  0.626596  1
  Sc  Sc17  1  0.330098  0.175617  0.875338  1
  Sc  Sc18  1  0.830637  0.323451  0.875487  1
  Sc  Sc19  1  0.169321  0.676559  0.125112  1
  Si  Si20  1  0.034090  0.119960  0.751107  1
  Si  Si21  1  0.964298  0.883264  0.247328  1
  Si  Si22  1  0.466309  0.617514  0.248713  1
  Si  Si23  1  0.532457  0.383617  0.751745  1
  Si  Si24  1  0.285505  0.871783  0.751904  1
  Si  Si25  1  0.713194  0.125092  0.247933  1
  Si  Si26  1  0.212795  0.374461  0.249276  1
  Si  Si27  1  0.788776  0.625970  0.751211  1
  Si  Si28  1  0.831526  0.539161  0.458508  1
  Si  Si29  1  0.340541  0.964075  0.460089  1
  Si  Si30  1  0.843636  0.534853  0.039613  1
  Si  Si31  1  0.659276  0.037127  0.538164  1
  Si  Si32  1  0.155974  0.464543  0.961408  1
  Si  Si33  1  0.655917  0.035462  0.960654  1
  Si  Si34  1  0.343232  0.964920  0.039781  1
  Sn  Sn35  1  0.169652  0.458991  0.538729  1
