# generated using pymatgen
data_Tb4Tm6Si7Ag
_symmetry_space_group_name_H-M   'P 1'
_cell_length_a   7.37415600
_cell_length_b   7.55844219
_cell_length_c   14.45086600
_cell_angle_alpha   90.00000000
_cell_angle_beta   90.00000000
_cell_angle_gamma   90.48176086
_symmetry_Int_Tables_number   1
_chemical_formula_structural   Tb4Tm6Si7Ag
_chemical_formula_sum   'Tb8 Tm12 Si14 Ag2'
_cell_volume   805.42135069
_cell_formula_units_Z   2
loop_
 _symmetry_equiv_pos_site_id
 _symmetry_equiv_pos_as_xyz
  1  'x, y, z'
loop_
 _atom_site_type_symbol
 _atom_site_label
 _atom_site_symmetry_multiplicity
 _atom_site_fract_x
 _atom_site_fract_y
 _atom_site_fract_z
 _atom_site_occupancy
  Tb  Tb0  1  0.017613  0.173677  0.400178  1
  Tb  Tb1  1  0.521211  0.320184  0.400268  1
  Tb  Tb2  1  0.478789  0.679816  0.900268  1
  Tb  Tb3  1  0.485038  0.680530  0.600131  1
  Tb  Tb4  1  0.977688  0.828611  0.599087  1
  Tb  Tb5  1  0.982387  0.826323  0.900178  1
  Tb  Tb6  1  0.514962  0.319470  0.100131  1
  Tb  Tb7  1  0.022312  0.171389  0.099087  1
  Tm  Tm8  1  0.330343  0.175192  0.624032  1
  Tm  Tm9  1  0.673661  0.822013  0.376544  1
  Tm  Tm10  1  0.657626  0.992259  0.750886  1
  Tm  Tm11  1  0.175098  0.674360  0.376555  1
  Tm  Tm12  1  0.824902  0.325640  0.876555  1
  Tm  Tm13  1  0.821304  0.325077  0.622267  1
  Tm  Tm14  1  0.841479  0.491751  0.251608  1
  Tm  Tm15  1  0.342374  0.007741  0.250886  1
  Tm  Tm16  1  0.326339  0.177987  0.876544  1
  Tm  Tm17  1  0.178696  0.674923  0.122267  1
  Tm  Tm18  1  0.669657  0.824808  0.124032  1
  Tm  Tm19  1  0.158521  0.508249  0.751608  1
  Si  Si20  1  0.274821  0.874846  0.749795  1
  Si  Si21  1  0.468757  0.607678  0.250313  1
  Si  Si22  1  0.028464  0.112508  0.750097  1
  Si  Si23  1  0.531243  0.392322  0.750313  1
  Si  Si24  1  0.971536  0.887492  0.250097  1
  Si  Si25  1  0.725179  0.125154  0.249795  1
  Si  Si26  1  0.348882  0.968430  0.038518  1
  Si  Si27  1  0.159578  0.468209  0.958836  1
  Si  Si28  1  0.651118  0.031570  0.538518  1
  Si  Si29  1  0.345926  0.967625  0.460647  1
  Si  Si30  1  0.840422  0.531791  0.458836  1
  Si  Si31  1  0.776546  0.627884  0.750636  1
  Si  Si32  1  0.223454  0.372116  0.250636  1
  Si  Si33  1  0.654074  0.032375  0.960647  1
  Ag  Ag34  1  0.156934  0.467103  0.539603  1
  Ag  Ag35  1  0.843066  0.532897  0.039603  1
