# generated using pymatgen
data_Li2HfSbRh4
_symmetry_space_group_name_H-M   'P 1'
_cell_length_a   6.18614000
_cell_length_b   6.16866600
_cell_length_c   6.25059300
_cell_angle_alpha   89.99965841
_cell_angle_beta   89.99978812
_cell_angle_gamma   90.00178079
_symmetry_Int_Tables_number   1
_chemical_formula_structural   Li2HfSbRh4
_chemical_formula_sum   'Li4 Hf2 Sb2 Rh8'
_cell_volume   238.52407576
_cell_formula_units_Z   2
loop_
 _symmetry_equiv_pos_site_id
 _symmetry_equiv_pos_as_xyz
  1  'x, y, z'
loop_
 _atom_site_type_symbol
 _atom_site_label
 _atom_site_symmetry_multiplicity
 _atom_site_fract_x
 _atom_site_fract_y
 _atom_site_fract_z
 _atom_site_occupancy
  Li  Li0  1  0.499942  0.750068  0.249996  1
  Li  Li1  1  0.000066  0.249930  0.249998  1
  Li  Li2  1  0.000074  0.750088  0.750012  1
  Li  Li3  1  0.499924  0.249909  0.750010  1
  Hf  Hf4  1  0.499975  0.250006  0.250016  1
  Hf  Hf5  1  0.000023  0.749995  0.250014  1
  Sb  Sb6  1  0.999980  0.250043  0.750001  1
  Sb  Sb7  1  0.500021  0.749957  0.750003  1
  Rh  Rh8  1  0.249997  0.999999  0.997260  1
  Rh  Rh9  1  0.750001  0.000005  0.997317  1
  Rh  Rh10  1  0.750001  0.499997  0.997384  1
  Rh  Rh11  1  0.249996  0.500004  0.997291  1
  Rh  Rh12  1  0.250001  0.500001  0.502681  1
  Rh  Rh13  1  0.249994  0.999998  0.502709  1
  Rh  Rh14  1  0.750000  0.500003  0.502622  1
  Rh  Rh15  1  0.750002  0.999997  0.502687  1
