# generated using pymatgen
data_LaTh3(Al3Rh)6
_symmetry_space_group_name_H-M   'P 1'
_cell_length_a   7.67664966
_cell_length_b   7.67508866
_cell_length_c   9.58039600
_cell_angle_alpha   90.00000000
_cell_angle_beta   90.00000000
_cell_angle_gamma   119.44640966
_symmetry_Int_Tables_number   1
_chemical_formula_structural   LaTh3(Al3Rh)6
_chemical_formula_sum   'La1 Th3 Al18 Rh6'
_cell_volume   491.54686400
_cell_formula_units_Z   1
loop_
 _symmetry_equiv_pos_site_id
 _symmetry_equiv_pos_as_xyz
  1  'x, y, z'
loop_
 _atom_site_type_symbol
 _atom_site_label
 _atom_site_symmetry_multiplicity
 _atom_site_fract_x
 _atom_site_fract_y
 _atom_site_fract_z
 _atom_site_occupancy
  La  La0  1  0.329800  0.005087  0.750000  1
  Th  Th1  1  0.995369  0.670940  0.250000  1
  Th  Th2  1  0.004822  0.329690  0.750000  1
  Th  Th3  1  0.670115  0.994953  0.250000  1
  Al  Al4  1  0.132340  0.132317  0.250000  1
  Al  Al5  1  0.868090  0.868705  0.750000  1
  Al  Al6  1  0.004513  0.335220  0.073586  1
  Al  Al7  1  0.996545  0.665742  0.926040  1
  Al  Al8  1  0.996545  0.665742  0.573960  1
  Al  Al9  1  0.335170  0.004575  0.427362  1
  Al  Al10  1  0.004513  0.335220  0.426414  1
  Al  Al11  1  0.663957  0.995562  0.573973  1
  Al  Al12  1  0.663957  0.995562  0.926027  1
  Al  Al13  1  0.335170  0.004575  0.072638  1
  Al  Al14  1  0.336111  0.335455  0.546764  1
  Al  Al15  1  0.663889  0.663853  0.453865  1
  Al  Al16  1  0.663889  0.663853  0.046135  1
  Al  Al17  1  0.336111  0.335455  0.953236  1
  Al  Al18  1  0.340074  0.544655  0.250000  1
  Al  Al19  1  0.660322  0.454427  0.750000  1
  Al  Al20  1  0.544879  0.340129  0.250000  1
  Al  Al21  1  0.454080  0.658628  0.750000  1
  Rh  Rh22  1  0.673411  0.329218  0.001547  1
  Rh  Rh23  1  0.328123  0.670986  0.001696  1
  Rh  Rh24  1  0.328123  0.670986  0.498304  1
  Rh  Rh25  1  0.673411  0.329218  0.498453  1
  Rh  Rh26  1  0.998336  0.999623  0.001684  1
  Rh  Rh27  1  0.998336  0.999623  0.498316  1
