# generated using pymatgen
data_CeNd7Zn8Ir5Rh3
_symmetry_space_group_name_H-M   'P 1'
_cell_length_a   4.00437200
_cell_length_b   7.35845205
_cell_length_c   16.55162486
_cell_angle_alpha   90.14792493
_cell_angle_beta   90.00000000
_cell_angle_gamma   90.00000000
_symmetry_Int_Tables_number   1
_chemical_formula_structural   CeNd7Zn8Ir5Rh3
_chemical_formula_sum   'Ce1 Nd7 Zn8 Ir5 Rh3'
_cell_volume   487.70821074
_cell_formula_units_Z   1
loop_
 _symmetry_equiv_pos_site_id
 _symmetry_equiv_pos_as_xyz
  1  'x, y, z'
loop_
 _atom_site_type_symbol
 _atom_site_label
 _atom_site_symmetry_multiplicity
 _atom_site_fract_x
 _atom_site_fract_y
 _atom_site_fract_z
 _atom_site_occupancy
  Ce  Ce0  1  0.750000  0.328393  0.439997  1
  Nd  Nd1  1  0.250000  0.167763  0.938869  1
  Nd  Nd2  1  0.250000  0.666690  0.560771  1
  Nd  Nd3  1  0.750000  0.952071  0.284241  1
  Nd  Nd4  1  0.750000  0.832516  0.060453  1
  Nd  Nd5  1  0.750000  0.453264  0.217221  1
  Nd  Nd6  1  0.250000  0.049152  0.715696  1
  Nd  Nd7  1  0.250000  0.548025  0.783554  1
  Zn  Zn8  1  0.750000  0.998187  0.559580  1
  Zn  Zn9  1  0.250000  0.620155  0.349304  1
  Zn  Zn10  1  0.750000  0.377126  0.650221  1
  Zn  Zn11  1  0.250000  0.498759  0.059925  1
  Zn  Zn12  1  0.750000  0.500883  0.939805  1
  Zn  Zn13  1  0.250000  0.993608  0.438958  1
  Zn  Zn14  1  0.250000  0.124204  0.151555  1
  Zn  Zn15  1  0.750000  0.876137  0.848526  1
  Ir  Ir16  1  0.750000  0.751468  0.434040  1
  Ir  Ir17  1  0.250000  0.251045  0.320308  1
  Ir  Ir18  1  0.750000  0.255593  0.813580  1
  Ir  Ir19  1  0.750000  0.757124  0.687516  1
  Ir  Ir20  1  0.250000  0.248486  0.558636  1
  Rh  Rh21  1  0.250000  0.747607  0.185045  1
  Rh  Rh22  1  0.750000  0.256356  0.066439  1
  Rh  Rh23  1  0.250000  0.745389  0.935760  1
