# generated using pymatgen
data_LaNdCo9NiP6
_symmetry_space_group_name_H-M   'P 1'
_cell_length_a   6.02655542
_cell_length_b   6.02655512
_cell_length_c   11.40401936
_cell_angle_alpha   90.32235388
_cell_angle_beta   89.67764579
_cell_angle_gamma   144.97673435
_symmetry_Int_Tables_number   1
_chemical_formula_structural   LaNdCo9NiP6
_chemical_formula_sum   'La1 Nd1 Co9 Ni1 P6'
_cell_volume   237.70139094
_cell_formula_units_Z   1
loop_
 _symmetry_equiv_pos_site_id
 _symmetry_equiv_pos_as_xyz
  1  'x, y, z'
loop_
 _atom_site_type_symbol
 _atom_site_label
 _atom_site_symmetry_multiplicity
 _atom_site_fract_x
 _atom_site_fract_y
 _atom_site_fract_z
 _atom_site_occupancy
  La  La0  1  0.662362  0.337638  0.752318  1
  Nd  Nd1  1  0.338702  0.661298  0.247438  1
  Co  Co2  1  0.052959  0.947041  0.143327  1
  Co  Co3  1  0.051838  0.948162  0.358475  1
  Co  Co4  1  0.698100  0.301900  0.430482  1
  Co  Co5  1  0.302228  0.697772  0.567048  1
  Co  Co6  1  0.302166  0.697834  0.933044  1
  Co  Co7  1  0.697959  0.302041  0.069403  1
  Co  Co8  1  0.500035  0.499965  0.000725  1
  Co  Co9  1  0.947087  0.052913  0.640500  1
  Co  Co10  1  0.946136  0.053864  0.857767  1
  Ni  Ni11  1  0.500387  0.499613  0.499549  1
  P  P12  1  0.609143  0.390857  0.250131  1
  P  P13  1  0.391169  0.608831  0.749925  1
  P  P14  1  0.119305  0.880695  0.537340  1
  P  P15  1  0.880626  0.119374  0.460801  1
  P  P16  1  0.882580  0.117420  0.038752  1
  P  P17  1  0.117219  0.882781  0.962974  1
