# generated using pymatgen
data_Dy17Y(HoSn8)2
_symmetry_space_group_name_H-M   'P 1'
_cell_length_a   8.02519400
_cell_length_b   8.16089910
_cell_length_c   15.47592800
_cell_angle_alpha   90.00000000
_cell_angle_beta   90.00000000
_cell_angle_gamma   89.94253500
_symmetry_Int_Tables_number   1
_chemical_formula_structural   Dy17Y(HoSn8)2
_chemical_formula_sum   'Dy17 Y1 Ho2 Sn16'
_cell_volume   1013.56132477
_cell_formula_units_Z   1
loop_
 _symmetry_equiv_pos_site_id
 _symmetry_equiv_pos_as_xyz
  1  'x, y, z'
loop_
 _atom_site_type_symbol
 _atom_site_label
 _atom_site_symmetry_multiplicity
 _atom_site_fract_x
 _atom_site_fract_y
 _atom_site_fract_z
 _atom_site_occupancy
  Dy  Dy0  1  0.367788  0.837221  0.877709  1
  Dy  Dy1  1  0.867733  0.662818  0.622175  1
  Dy  Dy2  1  0.632050  0.162932  0.377823  1
  Dy  Dy3  1  0.132095  0.337163  0.121748  1
  Dy  Dy4  1  0.632050  0.162932  0.122177  1
  Dy  Dy5  1  0.132095  0.337163  0.378252  1
  Dy  Dy6  1  0.367788  0.837221  0.622291  1
  Dy  Dy7  1  0.867733  0.662818  0.877825  1
  Dy  Dy8  1  0.520889  0.320918  0.902534  1
  Dy  Dy9  1  0.020995  0.179408  0.597552  1
  Dy  Dy10  1  0.479314  0.679302  0.402805  1
  Dy  Dy11  1  0.979298  0.820651  0.097474  1
  Dy  Dy12  1  0.479314  0.679302  0.097195  1
  Dy  Dy13  1  0.979298  0.820651  0.402526  1
  Dy  Dy14  1  0.520889  0.320918  0.597466  1
  Dy  Dy15  1  0.020995  0.179408  0.902448  1
  Dy  Dy16  1  0.698749  0.997225  0.750000  1
  Y  Y17  1  0.198964  0.503271  0.750000  1
  Ho  Ho18  1  0.800898  0.496913  0.250000  1
  Ho  Ho19  1  0.300947  0.002952  0.250000  1
  Sn  Sn20  1  0.292598  0.036292  0.041672  1
  Sn  Sn21  1  0.792516  0.463402  0.458280  1
  Sn  Sn22  1  0.707533  0.963670  0.541722  1
  Sn  Sn23  1  0.207618  0.536121  0.957890  1
  Sn  Sn24  1  0.707533  0.963670  0.958278  1
  Sn  Sn25  1  0.207618  0.536121  0.542110  1
  Sn  Sn26  1  0.292598  0.036292  0.458328  1
  Sn  Sn27  1  0.792516  0.463402  0.041720  1
  Sn  Sn28  1  0.565220  0.617865  0.750000  1
  Sn  Sn29  1  0.065429  0.881532  0.750000  1
  Sn  Sn30  1  0.434417  0.381356  0.250000  1
  Sn  Sn31  1  0.934965  0.118684  0.250000  1
  Sn  Sn32  1  0.329890  0.148436  0.750000  1
  Sn  Sn33  1  0.829946  0.352233  0.750000  1
  Sn  Sn34  1  0.669712  0.851837  0.250000  1
  Sn  Sn35  1  0.170010  0.647900  0.250000  1
