# generated using pymatgen
data_NdTmNi7
_symmetry_space_group_name_H-M   'P 1'
_cell_length_a   4.95450284
_cell_length_b   4.95450276
_cell_length_c   12.30741360
_cell_angle_alpha   78.38810721
_cell_angle_beta   78.38810755
_cell_angle_gamma   60.00000662
_symmetry_Int_Tables_number   1
_chemical_formula_structural   NdTmNi7
_chemical_formula_sum   'Nd2 Tm2 Ni14'
_cell_volume   254.47132595
_cell_formula_units_Z   2
loop_
 _symmetry_equiv_pos_site_id
 _symmetry_equiv_pos_as_xyz
  1  'x, y, z'
loop_
 _atom_site_type_symbol
 _atom_site_label
 _atom_site_symmetry_multiplicity
 _atom_site_fract_x
 _atom_site_fract_y
 _atom_site_fract_z
 _atom_site_occupancy
  Nd  Nd0  1  0.948242  0.948242  0.155274  1
  Nd  Nd1  1  0.051758  0.051758  0.844726  1
  Tm  Tm2  1  0.851921  0.851921  0.444238  1
  Tm  Tm3  1  0.148079  0.148079  0.555762  1
  Ni  Ni4  1  0.500000  0.500000  0.500000  1
  Ni  Ni5  1  0.722231  0.722231  0.833306  1
  Ni  Ni6  1  0.277769  0.277769  0.166694  1
  Ni  Ni7  1  0.611291  0.611291  0.166125  1
  Ni  Ni8  1  0.388709  0.388709  0.833875  1
  Ni  Ni9  1  0.000000  0.500000  0.000000  1
  Ni  Ni10  1  0.500000  0.000000  0.000000  1
  Ni  Ni11  1  0.500000  0.500000  0.000000  1
  Ni  Ni12  1  0.388131  0.388131  0.332678  1
  Ni  Ni13  1  0.891060  0.388131  0.332678  1
  Ni  Ni14  1  0.388131  0.891060  0.332678  1
  Ni  Ni15  1  0.611869  0.611869  0.667322  1
  Ni  Ni16  1  0.108940  0.611869  0.667322  1
  Ni  Ni17  1  0.611869  0.108940  0.667322  1
