# generated using pymatgen
data_YHo2Mg3Si2Au
_symmetry_space_group_name_H-M   'P 1'
_cell_length_a   7.23715666
_cell_length_b   7.23715671
_cell_length_c   4.29682400
_cell_angle_alpha   90.00000000
_cell_angle_beta   90.00000000
_cell_angle_gamma   119.95108145
_symmetry_Int_Tables_number   1
_chemical_formula_structural   YHo2Mg3Si2Au
_chemical_formula_sum   'Y1 Ho2 Mg3 Si2 Au1'
_cell_volume   194.99703861
_cell_formula_units_Z   1
loop_
 _symmetry_equiv_pos_site_id
 _symmetry_equiv_pos_as_xyz
  1  'x, y, z'
loop_
 _atom_site_type_symbol
 _atom_site_label
 _atom_site_symmetry_multiplicity
 _atom_site_fract_x
 _atom_site_fract_y
 _atom_site_fract_z
 _atom_site_occupancy
  Y  Y0  1  0.418720  0.418720  0.000000  1
  Ho  Ho1  1  0.581764  0.999959  0.000000  1
  Ho  Ho2  1  0.999959  0.581764  0.000000  1
  Mg  Mg3  1  0.246598  0.999878  0.500000  1
  Mg  Mg4  1  0.999878  0.246598  0.500000  1
  Mg  Mg5  1  0.753427  0.753427  0.500000  1
  Si  Si6  1  0.332934  0.667415  0.500000  1
  Si  Si7  1  0.667415  0.332934  0.500000  1
  Au  Au8  1  0.999304  0.999304  0.000000  1
