# generated using pymatgen
data_Gd8Er2Si5Hg
_symmetry_space_group_name_H-M   'P 1'
_cell_length_a   7.46927753
_cell_length_b   7.46927816
_cell_length_c   9.00415700
_cell_angle_alpha   114.50471931
_cell_angle_beta   114.50472151
_cell_angle_gamma   90.00000750
_symmetry_Int_Tables_number   1
_chemical_formula_structural   Gd8Er2Si5Hg
_chemical_formula_sum   'Gd8 Er2 Si5 Hg1'
_cell_volume   406.84648160
_cell_formula_units_Z   1
loop_
 _symmetry_equiv_pos_site_id
 _symmetry_equiv_pos_as_xyz
  1  'x, y, z'
loop_
 _atom_site_type_symbol
 _atom_site_label
 _atom_site_symmetry_multiplicity
 _atom_site_fract_x
 _atom_site_fract_y
 _atom_site_fract_z
 _atom_site_occupancy
  Gd  Gd0  1  0.971742  0.825742  0.282305  1
  Gd  Gd1  1  0.310564  0.456562  0.282305  1
  Gd  Gd2  1  0.825742  0.310564  0.282305  1
  Gd  Gd3  1  0.456562  0.971742  0.282305  1
  Gd  Gd4  1  0.043438  0.189436  0.717695  1
  Gd  Gd5  1  0.674258  0.528258  0.717695  1
  Gd  Gd6  1  0.189436  0.674258  0.717695  1
  Gd  Gd7  1  0.528258  0.043438  0.717695  1
  Er  Er8  1  0.507054  0.507054  0.014107  1
  Er  Er9  1  0.992946  0.992946  0.985893  1
  Si  Si10  1  0.250000  0.250000  0.500000  1
  Si  Si11  1  0.619249  0.880751  0.000000  1
  Si  Si12  1  0.380751  0.119249  0.000000  1
  Si  Si13  1  0.880751  0.380751  0.000000  1
  Si  Si14  1  0.119249  0.619249  0.000000  1
  Hg  Hg15  1  0.750000  0.750000  0.500000  1
