# generated using pymatgen
data_La6Pr2Sc12Si15Pt
_symmetry_space_group_name_H-M   'P 1'
_cell_length_a   7.27495151
_cell_length_b   7.63548555
_cell_length_c   14.30792425
_cell_angle_alpha   90.01505575
_cell_angle_beta   90.01491199
_cell_angle_gamma   90.39857840
_symmetry_Int_Tables_number   1
_chemical_formula_structural   La6Pr2Sc12Si15Pt
_chemical_formula_sum   'La6 Pr2 Sc12 Si15 Pt1'
_cell_volume   794.75424467
_cell_formula_units_Z   1
loop_
 _symmetry_equiv_pos_site_id
 _symmetry_equiv_pos_as_xyz
  1  'x, y, z'
loop_
 _atom_site_type_symbol
 _atom_site_label
 _atom_site_symmetry_multiplicity
 _atom_site_fract_x
 _atom_site_fract_y
 _atom_site_fract_z
 _atom_site_occupancy
  La  La0  1  0.012736  0.173582  0.401128  1
  La  La1  1  0.512173  0.329128  0.401708  1
  La  La2  1  0.487067  0.669577  0.904216  1
  La  La3  1  0.487433  0.669734  0.596240  1
  La  La4  1  0.990961  0.828121  0.597256  1
  La  La5  1  0.990221  0.827778  0.903277  1
  Pr  Pr6  1  0.512364  0.328676  0.098528  1
  Pr  Pr7  1  0.012780  0.173986  0.099216  1
  Sc  Sc8  1  0.327384  0.178671  0.624771  1
  Sc  Sc9  1  0.672246  0.825436  0.373542  1
  Sc  Sc10  1  0.648316  0.998039  0.750111  1
  Sc  Sc11  1  0.172161  0.674847  0.373952  1
  Sc  Sc12  1  0.829148  0.321890  0.877193  1
  Sc  Sc13  1  0.829155  0.322288  0.623075  1
  Sc  Sc14  1  0.840431  0.503614  0.249633  1
  Sc  Sc15  1  0.341075  0.997772  0.249566  1
  Sc  Sc16  1  0.327248  0.178790  0.875424  1
  Sc  Sc17  1  0.171932  0.675141  0.125355  1
  Sc  Sc18  1  0.672497  0.825482  0.125865  1
  Sc  Sc19  1  0.162934  0.496648  0.750038  1
  Si  Si20  1  0.467014  0.627701  0.249280  1
  Si  Si21  1  0.027400  0.130234  0.750101  1
  Si  Si22  1  0.538653  0.373612  0.750177  1
  Si  Si23  1  0.149138  0.462459  0.539240  1
  Si  Si24  1  0.970313  0.873418  0.249332  1
  Si  Si25  1  0.710979  0.115940  0.248810  1
  Si  Si26  1  0.849005  0.535494  0.041437  1
  Si  Si27  1  0.350853  0.965192  0.040469  1
  Si  Si28  1  0.149779  0.460824  0.961584  1
  Si  Si29  1  0.648791  0.037270  0.539200  1
  Si  Si30  1  0.352039  0.963152  0.460331  1
  Si  Si31  1  0.850233  0.537331  0.459243  1
  Si  Si32  1  0.788607  0.604942  0.750212  1
  Si  Si33  1  0.212644  0.387159  0.248822  1
  Si  Si34  1  0.649409  0.038573  0.961616  1
  Pt  Pt35  1  0.284884  0.887497  0.750052  1
