# generated using pymatgen
data_TbTi2ZnAu3
_symmetry_space_group_name_H-M   'P 1'
_cell_length_a   5.66381376
_cell_length_b   5.66381435
_cell_length_c   5.61893905
_cell_angle_alpha   101.86458721
_cell_angle_beta   101.86457668
_cell_angle_gamma   126.30329996
_symmetry_Int_Tables_number   1
_chemical_formula_structural   TbTi2ZnAu3
_chemical_formula_sum   'Tb1 Ti2 Zn1 Au3'
_cell_volume   129.33641293
_cell_formula_units_Z   1
loop_
 _symmetry_equiv_pos_site_id
 _symmetry_equiv_pos_as_xyz
  1  'x, y, z'
loop_
 _atom_site_type_symbol
 _atom_site_label
 _atom_site_symmetry_multiplicity
 _atom_site_fract_x
 _atom_site_fract_y
 _atom_site_fract_z
 _atom_site_occupancy
  Tb  Tb0  1  0.002934  0.997066  0.000000  1
  Ti  Ti1  1  0.248202  0.751798  0.500000  1
  Ti  Ti2  1  0.748202  0.251798  0.500000  1
  Zn  Zn3  1  0.304872  0.695128  0.000000  1
  Au  Au4  1  0.307020  0.316671  0.623690  1
  Au  Au5  1  0.683329  0.692980  0.376310  1
  Au  Au6  1  0.705442  0.294558  0.000000  1
