# generated using pymatgen
data_Tm4Hf3ScIr4
_symmetry_space_group_name_H-M   'P 1'
_cell_length_a   4.51872600
_cell_length_b   6.98913603
_cell_length_c   8.30025600
_cell_angle_alpha   90.23348317
_cell_angle_beta   90.00000000
_cell_angle_gamma   90.00000000
_symmetry_Int_Tables_number   1
_chemical_formula_structural   Tm4Hf3ScIr4
_chemical_formula_sum   'Tm4 Hf3 Sc1 Ir4'
_cell_volume   262.13643126
_cell_formula_units_Z   1
loop_
 _symmetry_equiv_pos_site_id
 _symmetry_equiv_pos_as_xyz
  1  'x, y, z'
loop_
 _atom_site_type_symbol
 _atom_site_label
 _atom_site_symmetry_multiplicity
 _atom_site_fract_x
 _atom_site_fract_y
 _atom_site_fract_z
 _atom_site_occupancy
  Tm  Tm0  1  0.250000  0.987709  0.324509  1
  Tm  Tm1  1  0.250000  0.484328  0.173307  1
  Tm  Tm2  1  0.750000  0.017530  0.679110  1
  Tm  Tm3  1  0.750000  0.511039  0.823489  1
  Hf  Hf4  1  0.250000  0.361934  0.573833  1
  Hf  Hf5  1  0.250000  0.855718  0.928335  1
  Hf  Hf6  1  0.750000  0.646137  0.424809  1
  Sc  Sc7  1  0.750000  0.140061  0.075344  1
  Ir  Ir8  1  0.250000  0.233576  0.899282  1
  Ir  Ir9  1  0.250000  0.738073  0.591736  1
  Ir  Ir10  1  0.750000  0.756011  0.091996  1
  Ir  Ir11  1  0.750000  0.267887  0.414252  1
