# generated using pymatgen
data_Li2Tb2TlBi
_symmetry_space_group_name_H-M   'P 1'
_cell_length_a   9.55950800
_cell_length_b   9.55905438
_cell_length_c   7.24770400
_cell_angle_alpha   89.91711666
_cell_angle_beta   90.00000000
_cell_angle_gamma   120.00156289
_symmetry_Int_Tables_number   1
_chemical_formula_structural   Li2Tb2TlBi
_chemical_formula_sum   'Li8 Tb8 Tl4 Bi4'
_cell_volume   573.55372846
_cell_formula_units_Z   4
loop_
 _symmetry_equiv_pos_site_id
 _symmetry_equiv_pos_as_xyz
  1  'x, y, z'
loop_
 _atom_site_type_symbol
 _atom_site_label
 _atom_site_symmetry_multiplicity
 _atom_site_fract_x
 _atom_site_fract_y
 _atom_site_fract_z
 _atom_site_occupancy
  Li  Li0  1  0.167033  0.334066  0.267767  1
  Li  Li1  1  0.170717  0.834197  0.277618  1
  Li  Li2  1  0.663480  0.834197  0.277618  1
  Li  Li3  1  0.831646  0.663292  0.777182  1
  Li  Li4  1  0.830662  0.168837  0.784864  1
  Li  Li5  1  0.338175  0.168837  0.784864  1
  Li  Li6  1  0.333692  0.667385  0.679361  1
  Li  Li7  1  0.664575  0.329150  0.186212  1
  Tb  Tb8  1  0.513156  0.026314  0.490791  1
  Tb  Tb9  1  0.506412  0.484025  0.492351  1
  Tb  Tb10  1  0.977613  0.484025  0.492351  1
  Tb  Tb11  1  0.490853  0.981706  0.002258  1
  Tb  Tb12  1  0.488186  0.506540  0.999126  1
  Tb  Tb13  1  0.018354  0.506540  0.999126  1
  Tb  Tb14  1  0.003200  0.006399  0.492988  1
  Tb  Tb15  1  0.002097  0.004195  0.007834  1
  Tl  Tl16  1  0.833507  0.166903  0.233797  1
  Tl  Tl17  1  0.333396  0.166903  0.233797  1
  Tl  Tl18  1  0.332734  0.665470  0.257183  1
  Tl  Tl19  1  0.667023  0.334045  0.759973  1
  Bi  Bi20  1  0.166798  0.333597  0.737397  1
  Bi  Bi21  1  0.166062  0.833515  0.735150  1
  Bi  Bi22  1  0.667453  0.833515  0.735150  1
  Bi  Bi23  1  0.833173  0.666347  0.237236  1
