# generated using pymatgen
data_Pr10ZnPb6I
_symmetry_space_group_name_H-M   'P 1'
_cell_length_a   9.80475700
_cell_length_b   9.80475756
_cell_length_c   6.79346800
_cell_angle_alpha   90.00000000
_cell_angle_beta   90.00000000
_cell_angle_gamma   120.00000148
_symmetry_Int_Tables_number   1
_chemical_formula_structural   Pr10ZnPb6I
_chemical_formula_sum   'Pr10 Zn1 Pb6 I1'
_cell_volume   565.58235696
_cell_formula_units_Z   1
loop_
 _symmetry_equiv_pos_site_id
 _symmetry_equiv_pos_as_xyz
  1  'x, y, z'
loop_
 _atom_site_type_symbol
 _atom_site_label
 _atom_site_symmetry_multiplicity
 _atom_site_fract_x
 _atom_site_fract_y
 _atom_site_fract_z
 _atom_site_occupancy
  Pr  Pr0  1  0.732211  0.000000  0.738383  1
  Pr  Pr1  1  0.000000  0.267789  0.261617  1
  Pr  Pr2  1  0.732211  0.732211  0.261617  1
  Pr  Pr3  1  0.333333  0.666667  0.500000  1
  Pr  Pr4  1  0.333333  0.666667  0.000000  1
  Pr  Pr5  1  0.666667  0.333333  0.500000  1
  Pr  Pr6  1  0.666667  0.333333  0.000000  1
  Pr  Pr7  1  0.267789  0.000000  0.261617  1
  Pr  Pr8  1  0.267789  0.267789  0.738383  1
  Pr  Pr9  1  0.000000  0.732211  0.738383  1
  Zn  Zn10  1  0.000000  0.000000  0.500000  1
  Pb  Pb11  1  0.384299  0.000000  0.750698  1
  Pb  Pb12  1  0.615701  0.000000  0.249302  1
  Pb  Pb13  1  0.000000  0.615701  0.249302  1
  Pb  Pb14  1  0.615701  0.615701  0.750698  1
  Pb  Pb15  1  0.000000  0.384299  0.750698  1
  Pb  Pb16  1  0.384299  0.384299  0.249302  1
  I  I17  1  0.000000  0.000000  0.000000  1
