# generated using pymatgen
data_Er2Sc2B12MoIr
_symmetry_space_group_name_H-M   'P 1'
_cell_length_a   3.55678700
_cell_length_b   9.01038148
_cell_length_c   11.41772165
_cell_angle_alpha   90.15690041
_cell_angle_beta   90.00000000
_cell_angle_gamma   90.00000000
_symmetry_Int_Tables_number   1
_chemical_formula_structural   Er2Sc2B12MoIr
_chemical_formula_sum   'Er4 Sc4 B24 Mo2 Ir2'
_cell_volume   365.91385982
_cell_formula_units_Z   2
loop_
 _symmetry_equiv_pos_site_id
 _symmetry_equiv_pos_as_xyz
  1  'x, y, z'
loop_
 _atom_site_type_symbol
 _atom_site_label
 _atom_site_symmetry_multiplicity
 _atom_site_fract_x
 _atom_site_fract_y
 _atom_site_fract_z
 _atom_site_occupancy
  Er  Er0  1  0.500000  0.317130  0.412400  1
  Er  Er1  1  0.500000  0.682870  0.587600  1
  Er  Er2  1  0.500000  0.177222  0.916006  1
  Er  Er3  1  0.500000  0.822778  0.083994  1
  Sc  Sc4  1  0.500000  0.443225  0.125514  1
  Sc  Sc5  1  0.500000  0.556775  0.874486  1
  Sc  Sc6  1  0.500000  0.052149  0.626655  1
  Sc  Sc7  1  0.500000  0.947851  0.373345  1
  B  B8  1  0.000000  0.099996  0.474188  1
  B  B9  1  0.000000  0.900004  0.525812  1
  B  B10  1  0.000000  0.401188  0.972348  1
  B  B11  1  0.000000  0.598812  0.027652  1
  B  B12  1  0.000000  0.130050  0.319562  1
  B  B13  1  0.000000  0.869950  0.680438  1
  B  B14  1  0.000000  0.370664  0.817811  1
  B  B15  1  0.000000  0.629336  0.182189  1
  B  B16  1  0.000000  0.052717  0.066005  1
  B  B17  1  0.000000  0.947283  0.933995  1
  B  B18  1  0.000000  0.445076  0.566155  1
  B  B19  1  0.000000  0.554924  0.433845  1
  B  B20  1  0.000000  0.481984  0.286487  1
  B  B21  1  0.000000  0.518016  0.713513  1
  B  B22  1  0.000000  0.021347  0.784471  1
  B  B23  1  0.000000  0.978653  0.215529  1
  B  B24  1  0.000000  0.254655  0.079396  1
  B  B25  1  0.000000  0.745345  0.920604  1
  B  B26  1  0.000000  0.245777  0.580216  1
  B  B27  1  0.000000  0.754223  0.419784  1
  B  B28  1  0.000000  0.298210  0.236126  1
  B  B29  1  0.000000  0.701790  0.763874  1
  B  B30  1  0.000000  0.206436  0.735012  1
  B  B31  1  0.000000  0.793564  0.264988  1
  Mo  Mo32  1  0.500000  0.141180  0.182785  1
  Mo  Mo33  1  0.500000  0.858820  0.817215  1
  Ir  Ir34  1  0.500000  0.360051  0.680167  1
  Ir  Ir35  1  0.500000  0.639949  0.319833  1
