# generated using pymatgen
data_Nd16MgCd3(TcNi)2
_symmetry_space_group_name_H-M   'P 1'
_cell_length_a   9.92447501
_cell_length_b   9.92447490
_cell_length_c   10.03540821
_cell_angle_alpha   59.28738676
_cell_angle_beta   59.28738965
_cell_angle_gamma   59.10287613
_symmetry_Int_Tables_number   1
_chemical_formula_structural   Nd16MgCd3(TcNi)2
_chemical_formula_sum   'Nd16 Mg1 Cd3 Tc2 Ni2'
_cell_volume   686.60216813
_cell_formula_units_Z   1
loop_
 _symmetry_equiv_pos_site_id
 _symmetry_equiv_pos_as_xyz
  1  'x, y, z'
loop_
 _atom_site_type_symbol
 _atom_site_label
 _atom_site_symmetry_multiplicity
 _atom_site_fract_x
 _atom_site_fract_y
 _atom_site_fract_z
 _atom_site_occupancy
  Nd  Nd0  1  0.599715  0.599715  0.593881  1
  Nd  Nd1  1  0.599360  0.599360  0.208704  1
  Nd  Nd2  1  0.597557  0.212736  0.593872  1
  Nd  Nd3  1  0.212736  0.597557  0.593872  1
  Nd  Nd4  1  0.059655  0.439189  0.441580  1
  Nd  Nd5  1  0.436458  0.061125  0.062538  1
  Nd  Nd6  1  0.439189  0.059655  0.441580  1
  Nd  Nd7  1  0.061125  0.436458  0.062538  1
  Nd  Nd8  1  0.441264  0.441264  0.058359  1
  Nd  Nd9  1  0.058114  0.058114  0.444500  1
  Nd  Nd10  1  0.187721  0.805846  0.817167  1
  Nd  Nd11  1  0.804657  0.189156  0.191322  1
  Nd  Nd12  1  0.805846  0.187721  0.817167  1
  Nd  Nd13  1  0.189156  0.804657  0.191322  1
  Nd  Nd14  1  0.814516  0.814516  0.184594  1
  Nd  Nd15  1  0.191638  0.191638  0.810725  1
  Mg  Mg16  1  0.824307  0.824307  0.825033  1
  Cd  Cd17  1  0.829991  0.829991  0.509404  1
  Cd  Cd18  1  0.830115  0.508967  0.829101  1
  Cd  Cd19  1  0.508967  0.830115  0.829101  1
  Tc  Tc20  1  0.392780  0.392780  0.381900  1
  Tc  Tc21  1  0.391517  0.391517  0.834617  1
  Ni  Ni22  1  0.395046  0.828570  0.388561  1
  Ni  Ni23  1  0.828570  0.395046  0.388561  1
