# generated using pymatgen
data_TmPa3FeNi3Sn2
_symmetry_space_group_name_H-M   'P 1'
_cell_length_a   7.42637447
_cell_length_b   7.42637426
_cell_length_c   3.53479800
_cell_angle_alpha   90.00000000
_cell_angle_beta   90.00000000
_cell_angle_gamma   91.23315630
_symmetry_Int_Tables_number   1
_chemical_formula_structural   TmPa3FeNi3Sn2
_chemical_formula_sum   'Tm1 Pa3 Fe1 Ni3 Sn2'
_cell_volume   194.90262190
_cell_formula_units_Z   1
loop_
 _symmetry_equiv_pos_site_id
 _symmetry_equiv_pos_as_xyz
  1  'x, y, z'
loop_
 _atom_site_type_symbol
 _atom_site_label
 _atom_site_symmetry_multiplicity
 _atom_site_fract_x
 _atom_site_fract_y
 _atom_site_fract_z
 _atom_site_occupancy
  Tm  Tm0  1  0.830884  0.669116  0.500000  1
  Pa  Pa1  1  0.663559  0.175451  0.500000  1
  Pa  Pa2  1  0.324549  0.836441  0.500000  1
  Pa  Pa3  1  0.179701  0.320299  0.500000  1
  Fe  Fe4  1  0.364597  0.135403  0.000000  1
  Ni  Ni5  1  0.882618  0.361981  0.000000  1
  Ni  Ni6  1  0.138019  0.617382  0.000000  1
  Ni  Ni7  1  0.617992  0.882008  0.000000  1
  Sn  Sn8  1  0.506571  0.508490  0.000000  1
  Sn  Sn9  1  0.991510  0.993429  0.000000  1
