# generated using pymatgen
data_Pr16Ho(LuGa4)3
_symmetry_space_group_name_H-M   'P 1'
_cell_length_a   7.81287800
_cell_length_b   7.81287800
_cell_length_c   14.77412000
_cell_angle_alpha   90.00000000
_cell_angle_beta   90.00000000
_cell_angle_gamma   90.00000000
_symmetry_Int_Tables_number   1
_chemical_formula_structural   Pr16Ho(LuGa4)3
_chemical_formula_sum   'Pr16 Ho1 Lu3 Ga12'
_cell_volume   901.82798441
_cell_formula_units_Z   1
loop_
 _symmetry_equiv_pos_site_id
 _symmetry_equiv_pos_as_xyz
  1  'x, y, z'
loop_
 _atom_site_type_symbol
 _atom_site_label
 _atom_site_symmetry_multiplicity
 _atom_site_fract_x
 _atom_site_fract_y
 _atom_site_fract_z
 _atom_site_occupancy
  Pr  Pr0  1  0.814122  0.839458  0.604244  1
  Pr  Pr1  1  0.182953  0.838901  0.103691  1
  Pr  Pr2  1  0.161193  0.816228  0.395720  1
  Pr  Pr3  1  0.838807  0.183772  0.395720  1
  Pr  Pr4  1  0.683772  0.661193  0.395720  1
  Pr  Pr5  1  0.660542  0.314122  0.604244  1
  Pr  Pr6  1  0.339458  0.685878  0.604244  1
  Pr  Pr7  1  0.661099  0.682953  0.103691  1
  Pr  Pr8  1  0.685571  0.340793  0.896051  1
  Pr  Pr9  1  0.840793  0.814429  0.896051  1
  Pr  Pr10  1  0.316228  0.338807  0.395720  1
  Pr  Pr11  1  0.185878  0.160542  0.604244  1
  Pr  Pr12  1  0.817047  0.161099  0.103691  1
  Pr  Pr13  1  0.314429  0.659207  0.896051  1
  Pr  Pr14  1  0.338901  0.317047  0.103691  1
  Pr  Pr15  1  0.159207  0.185571  0.896051  1
  Ho  Ho16  1  0.500000  0.000000  0.780887  1
  Lu  Lu17  1  0.000000  0.500000  0.723653  1
  Lu  Lu18  1  0.000000  0.500000  0.225888  1
  Lu  Lu19  1  0.500000  0.000000  0.272642  1
  Ga  Ga20  1  0.622400  0.377692  0.249692  1
  Ga  Ga21  1  0.121232  0.877636  0.749535  1
  Ga  Ga22  1  0.377636  0.378768  0.749535  1
  Ga  Ga23  1  0.377600  0.622308  0.249692  1
  Ga  Ga24  1  0.877692  0.877600  0.249692  1
  Ga  Ga25  1  0.622364  0.621232  0.749535  1
  Ga  Ga26  1  0.000000  0.500000  0.514608  1
  Ga  Ga27  1  0.878768  0.122364  0.749535  1
  Ga  Ga28  1  0.500000  0.000000  0.482497  1
  Ga  Ga29  1  0.500000  0.000000  0.989246  1
  Ga  Ga30  1  0.122308  0.122400  0.249692  1
  Ga  Ga31  1  0.000000  0.500000  0.014847  1
