# generated using pymatgen
data_NdDy3(WO6)2
_symmetry_space_group_name_H-M   'P 1'
_cell_length_a   5.44906800
_cell_length_b   7.77538973
_cell_length_c   11.56538160
_cell_angle_alpha   75.55745637
_cell_angle_beta   90.00000000
_cell_angle_gamma   90.00000000
_symmetry_Int_Tables_number   1
_chemical_formula_structural   NdDy3(WO6)2
_chemical_formula_sum   'Nd2 Dy6 W4 O24'
_cell_volume   474.52418355
_cell_formula_units_Z   2
loop_
 _symmetry_equiv_pos_site_id
 _symmetry_equiv_pos_as_xyz
  1  'x, y, z'
loop_
 _atom_site_type_symbol
 _atom_site_label
 _atom_site_symmetry_multiplicity
 _atom_site_fract_x
 _atom_site_fract_y
 _atom_site_fract_z
 _atom_site_occupancy
  Nd  Nd0  1  0.685415  0.500000  0.750000  1
  Nd  Nd1  1  0.314585  0.500000  0.250000  1
  Dy  Dy2  1  0.740445  0.000000  0.750000  1
  Dy  Dy3  1  0.259555  0.000000  0.250000  1
  Dy  Dy4  1  0.187786  0.797847  0.576866  1
  Dy  Dy5  1  0.812214  0.797847  0.076866  1
  Dy  Dy6  1  0.187786  0.202153  0.923134  1
  Dy  Dy7  1  0.812214  0.202153  0.423134  1
  W  W8  1  0.253164  0.726824  0.884880  1
  W  W9  1  0.746836  0.726824  0.384880  1
  W  W10  1  0.253164  0.273176  0.615120  1
  W  W11  1  0.746836  0.273176  0.115120  1
  O  O12  1  0.040774  0.940564  0.895758  1
  O  O13  1  0.529824  0.847806  0.930691  1
  O  O14  1  0.959226  0.940564  0.395758  1
  O  O15  1  0.456680  0.793219  0.727936  1
  O  O16  1  0.470176  0.847806  0.430691  1
  O  O17  1  0.986713  0.717706  0.770064  1
  O  O18  1  0.543320  0.793219  0.227936  1
  O  O19  1  0.854968  0.640726  0.545658  1
  O  O20  1  0.351484  0.493042  0.887977  1
  O  O21  1  0.013287  0.717706  0.270064  1
  O  O22  1  0.351484  0.506958  0.612023  1
  O  O23  1  0.854968  0.359274  0.954342  1
  O  O24  1  0.145032  0.640726  0.045658  1
  O  O25  1  0.648516  0.493042  0.387977  1
  O  O26  1  0.986713  0.282294  0.729936  1
  O  O27  1  0.648516  0.506958  0.112023  1
  O  O28  1  0.145032  0.359274  0.454342  1
  O  O29  1  0.456680  0.206781  0.772064  1
  O  O30  1  0.013287  0.282294  0.229936  1
  O  O31  1  0.529824  0.152194  0.569309  1
  O  O32  1  0.543320  0.206781  0.272064  1
  O  O33  1  0.040774  0.059436  0.604242  1
  O  O34  1  0.470176  0.152194  0.069309  1
  O  O35  1  0.959226  0.059436  0.104242  1
