# generated using pymatgen
data_Tm12Fe2Hg2Ir
_symmetry_space_group_name_H-M   'P 1'
_cell_length_a   8.20815721
_cell_length_b   8.20815688
_cell_length_c   8.20815698
_cell_angle_alpha   108.61903056
_cell_angle_beta   108.61902313
_cell_angle_gamma   111.18939393
_symmetry_Int_Tables_number   1
_chemical_formula_structural   Tm12Fe2Hg2Ir
_chemical_formula_sum   'Tm12 Fe2 Hg2 Ir1'
_cell_volume   425.42309981
_cell_formula_units_Z   1
loop_
 _symmetry_equiv_pos_site_id
 _symmetry_equiv_pos_as_xyz
  1  'x, y, z'
loop_
 _atom_site_type_symbol
 _atom_site_label
 _atom_site_symmetry_multiplicity
 _atom_site_fract_x
 _atom_site_fract_y
 _atom_site_fract_z
 _atom_site_occupancy
  Tm  Tm0  1  0.191001  0.432223  0.241222  1
  Tm  Tm1  1  0.808999  0.567777  0.758778  1
  Tm  Tm2  1  0.191001  0.949779  0.758778  1
  Tm  Tm3  1  0.949779  0.191001  0.758778  1
  Tm  Tm4  1  0.808999  0.050221  0.241222  1
  Tm  Tm5  1  0.050221  0.808999  0.241222  1
  Tm  Tm6  1  0.432223  0.191001  0.241222  1
  Tm  Tm7  1  0.567777  0.808999  0.758778  1
  Tm  Tm8  1  0.308962  0.308962  0.617926  1
  Tm  Tm9  1  0.691038  0.691038  0.382074  1
  Tm  Tm10  1  0.691038  0.308962  0.000000  1
  Tm  Tm11  1  0.308962  0.691038  0.000000  1
  Fe  Fe12  1  0.383621  0.383621  0.000000  1
  Fe  Fe13  1  0.616379  0.616379  0.000000  1
  Hg  Hg14  1  0.000000  0.500000  0.500000  1
  Hg  Hg15  1  0.500000  0.000000  0.500000  1
  Ir  Ir16  1  0.000000  0.000000  0.000000  1
