# generated using pymatgen
data_NdSm6Dy(Si3Rh)4
_symmetry_space_group_name_H-M   'P 1'
_cell_length_a   8.23411800
_cell_length_b   8.23497905
_cell_length_c   8.14949200
_cell_angle_alpha   90.00000000
_cell_angle_beta   90.00000000
_cell_angle_gamma   120.00344477
_symmetry_Int_Tables_number   1
_chemical_formula_structural   NdSm6Dy(Si3Rh)4
_chemical_formula_sum   'Nd1 Sm6 Dy1 Si12 Rh4'
_cell_volume   478.54819068
_cell_formula_units_Z   1
loop_
 _symmetry_equiv_pos_site_id
 _symmetry_equiv_pos_as_xyz
  1  'x, y, z'
loop_
 _atom_site_type_symbol
 _atom_site_label
 _atom_site_symmetry_multiplicity
 _atom_site_fract_x
 _atom_site_fract_y
 _atom_site_fract_z
 _atom_site_occupancy
  Nd  Nd0  1  0.999866  0.999933  0.250000  1
  Sm  Sm1  1  0.000341  0.000171  0.750000  1
  Sm  Sm2  1  0.507220  0.492893  0.250000  1
  Sm  Sm3  1  0.507220  0.014328  0.250000  1
  Sm  Sm4  1  0.985962  0.492981  0.250000  1
  Sm  Sm5  1  0.491947  0.507536  0.750000  1
  Sm  Sm6  1  0.491947  0.984410  0.750000  1
  Dy  Dy7  1  0.013224  0.506611  0.750000  1
  Si  Si8  1  0.166491  0.832297  0.502856  1
  Si  Si9  1  0.166491  0.334196  0.502856  1
  Si  Si10  1  0.666259  0.833130  0.500809  1
  Si  Si11  1  0.833162  0.167580  0.500753  1
  Si  Si12  1  0.833162  0.665583  0.500753  1
  Si  Si13  1  0.334706  0.167352  0.500075  1
  Si  Si14  1  0.833162  0.167580  0.999247  1
  Si  Si15  1  0.833162  0.665583  0.999247  1
  Si  Si16  1  0.334706  0.167352  0.999925  1
  Si  Si17  1  0.166491  0.832297  0.997144  1
  Si  Si18  1  0.166491  0.334196  0.997144  1
  Si  Si19  1  0.666259  0.833130  0.999191  1
  Rh  Rh20  1  0.332514  0.666257  0.473198  1
  Rh  Rh21  1  0.668353  0.334176  0.533600  1
  Rh  Rh22  1  0.668353  0.334176  0.966400  1
  Rh  Rh23  1  0.332514  0.666257  0.026802  1
