# generated using pymatgen
data_Pr10AlSi4Hg
_symmetry_space_group_name_H-M   'P 1'
_cell_length_a   7.88985800
_cell_length_b   9.24685522
_cell_length_c   7.88985800
_cell_angle_alpha   115.25349821
_cell_angle_beta   90.00000000
_cell_angle_gamma   115.25349821
_symmetry_Int_Tables_number   1
_chemical_formula_structural   Pr10AlSi4Hg
_chemical_formula_sum   'Pr10 Al1 Si4 Hg1'
_cell_volume   459.04527765
_cell_formula_units_Z   1
loop_
 _symmetry_equiv_pos_site_id
 _symmetry_equiv_pos_as_xyz
  1  'x, y, z'
loop_
 _atom_site_type_symbol
 _atom_site_label
 _atom_site_symmetry_multiplicity
 _atom_site_fract_x
 _atom_site_fract_y
 _atom_site_fract_z
 _atom_site_occupancy
  Pr  Pr0  1  0.976398  0.952795  0.976398  1
  Pr  Pr1  1  0.523602  0.047205  0.523602  1
  Pr  Pr2  1  0.531402  0.720596  0.678505  1
  Pr  Pr3  1  0.189196  0.720596  0.042093  1
  Pr  Pr4  1  0.678505  0.720596  0.189196  1
  Pr  Pr5  1  0.042093  0.720596  0.531402  1
  Pr  Pr6  1  0.457907  0.279404  0.310804  1
  Pr  Pr7  1  0.821495  0.279404  0.968598  1
  Pr  Pr8  1  0.310804  0.279404  0.821495  1
  Pr  Pr9  1  0.968598  0.279404  0.457907  1
  Al  Al10  1  0.750000  0.500000  0.750000  1
  Si  Si11  1  0.885601  0.000000  0.614399  1
  Si  Si12  1  0.114399  0.000000  0.385601  1
  Si  Si13  1  0.614399  0.000000  0.114399  1
  Si  Si14  1  0.385601  0.000000  0.885601  1
  Hg  Hg15  1  0.250000  0.500000  0.250000  1
