# generated using pymatgen
data_K4CrFeF10
_symmetry_space_group_name_H-M   'P 1'
_cell_length_a   5.74963600
_cell_length_b   7.53297400
_cell_length_c   11.75205800
_cell_angle_alpha   90.00000000
_cell_angle_beta   90.00000000
_cell_angle_gamma   90.00000000
_symmetry_Int_Tables_number   1
_chemical_formula_structural   K4CrFeF10
_chemical_formula_sum   'K8 Cr2 Fe2 F20'
_cell_volume   509.00347315
_cell_formula_units_Z   2
loop_
 _symmetry_equiv_pos_site_id
 _symmetry_equiv_pos_as_xyz
  1  'x, y, z'
loop_
 _atom_site_type_symbol
 _atom_site_label
 _atom_site_symmetry_multiplicity
 _atom_site_fract_x
 _atom_site_fract_y
 _atom_site_fract_z
 _atom_site_occupancy
  K  K0  1  0.250000  0.151821  0.586336  1
  K  K1  1  0.250000  0.651821  0.913664  1
  K  K2  1  0.750000  0.844290  0.416428  1
  K  K3  1  0.750000  0.344290  0.083572  1
  K  K4  1  0.250000  0.489778  0.272781  1
  K  K5  1  0.250000  0.989778  0.227219  1
  K  K6  1  0.750000  0.511242  0.727423  1
  K  K7  1  0.750000  0.011242  0.772577  1
  Cr  Cr8  1  0.250000  0.665729  0.559167  1
  Cr  Cr9  1  0.250000  0.165729  0.940833  1
  Fe  Fe10  1  0.750000  0.330028  0.438453  1
  Fe  Fe11  1  0.750000  0.830028  0.061547  1
  F  F12  1  0.000764  0.500445  0.500335  1
  F  F13  1  0.499236  0.000445  0.999665  1
  F  F14  1  0.499236  0.500445  0.500335  1
  F  F15  1  0.000764  0.000445  0.999665  1
  F  F16  1  0.250000  0.532432  0.698294  1
  F  F17  1  0.250000  0.032432  0.801706  1
  F  F18  1  0.750000  0.472716  0.303643  1
  F  F19  1  0.750000  0.972716  0.196357  1
  F  F20  1  0.250000  0.779885  0.408986  1
  F  F21  1  0.250000  0.279885  0.091014  1
  F  F22  1  0.750000  0.224341  0.590584  1
  F  F23  1  0.750000  0.724341  0.909416  1
  F  F24  1  0.008757  0.820742  0.611560  1
  F  F25  1  0.491243  0.320742  0.888440  1
  F  F26  1  0.505789  0.177683  0.387465  1
  F  F27  1  0.994211  0.677683  0.112535  1
  F  F28  1  0.994211  0.177683  0.387465  1
  F  F29  1  0.505789  0.677683  0.112535  1
  F  F30  1  0.491243  0.820742  0.611560  1
  F  F31  1  0.008757  0.320742  0.888440  1
