# generated using pymatgen
data_Ti6Fe7B4Ir3
_symmetry_space_group_name_H-M   'P 1'
_cell_length_a   8.91600897
_cell_length_b   8.85739314
_cell_length_c   2.92457700
_cell_angle_alpha   90.00000000
_cell_angle_beta   90.00000000
_cell_angle_gamma   89.68426364
_symmetry_Int_Tables_number   1
_chemical_formula_structural   Ti6Fe7B4Ir3
_chemical_formula_sum   'Ti6 Fe7 B4 Ir3'
_cell_volume   230.95793302
_cell_formula_units_Z   1
loop_
 _symmetry_equiv_pos_site_id
 _symmetry_equiv_pos_as_xyz
  1  'x, y, z'
loop_
 _atom_site_type_symbol
 _atom_site_label
 _atom_site_symmetry_multiplicity
 _atom_site_fract_x
 _atom_site_fract_y
 _atom_site_fract_z
 _atom_site_occupancy
  Ti  Ti0  1  0.000357  0.998034  0.000000  1
  Ti  Ti1  1  0.494573  0.517756  0.000000  1
  Ti  Ti2  1  0.832888  0.316727  0.000000  1
  Ti  Ti3  1  0.318394  0.161696  0.000000  1
  Ti  Ti4  1  0.676740  0.832692  0.000000  1
  Ti  Ti5  1  0.173688  0.684604  0.000000  1
  Fe  Fe6  1  0.499821  0.996559  0.500000  1
  Fe  Fe7  1  0.999519  0.498900  0.500000  1
  Fe  Fe8  1  0.064924  0.214283  0.500000  1
  Fe  Fe9  1  0.219704  0.932246  0.500000  1
  Fe  Fe10  1  0.782649  0.065079  0.500000  1
  Fe  Fe11  1  0.936233  0.784386  0.500000  1
  Fe  Fe12  1  0.426085  0.724979  0.500000  1
  B  B13  1  0.627536  0.107508  0.000000  1
  B  B14  1  0.105009  0.368341  0.000000  1
  B  B15  1  0.897093  0.631477  0.000000  1
  B  B16  1  0.375576  0.880681  0.000000  1
  Ir  Ir17  1  0.570080  0.280714  0.500000  1
  Ir  Ir18  1  0.722447  0.575148  0.500000  1
  Ir  Ir19  1  0.276686  0.428191  0.500000  1
