# generated using pymatgen
data_LaCo(Sb4Ru)3
_symmetry_space_group_name_H-M   'P 1'
_cell_length_a   8.07166493
_cell_length_b   8.07166574
_cell_length_c   8.12123900
_cell_angle_alpha   109.59568295
_cell_angle_beta   109.59568499
_cell_angle_gamma   109.34647510
_symmetry_Int_Tables_number   1
_chemical_formula_structural   LaCo(Sb4Ru)3
_chemical_formula_sum   'La1 Co1 Sb12 Ru3'
_cell_volume   406.68417231
_cell_formula_units_Z   1
loop_
 _symmetry_equiv_pos_site_id
 _symmetry_equiv_pos_as_xyz
  1  'x, y, z'
loop_
 _atom_site_type_symbol
 _atom_site_label
 _atom_site_symmetry_multiplicity
 _atom_site_fract_x
 _atom_site_fract_y
 _atom_site_fract_z
 _atom_site_occupancy
  La  La0  1  0.000000  0.000000  0.000000  1
  Co  Co1  1  0.000000  0.000000  0.500000  1
  Sb  Sb2  1  0.155376  0.821802  0.658046  1
  Sb  Sb3  1  0.844624  0.178198  0.341954  1
  Sb  Sb4  1  0.842118  0.502403  0.660873  1
  Sb  Sb5  1  0.157882  0.497597  0.339127  1
  Sb  Sb6  1  0.821802  0.666427  0.163757  1
  Sb  Sb7  1  0.178198  0.333573  0.836243  1
  Sb  Sb8  1  0.502403  0.660285  0.841530  1
  Sb  Sb9  1  0.497597  0.339715  0.158470  1
  Sb  Sb10  1  0.660285  0.157882  0.818755  1
  Sb  Sb11  1  0.339715  0.842118  0.181245  1
  Sb  Sb12  1  0.666427  0.844624  0.502670  1
  Sb  Sb13  1  0.333573  0.155376  0.497330  1
  Ru  Ru14  1  0.500000  0.000000  0.000000  1
  Ru  Ru15  1  0.000000  0.500000  0.000000  1
  Ru  Ru16  1  0.500000  0.500000  0.500000  1
