# generated using pymatgen
data_Hf8In4CuPt7
_symmetry_space_group_name_H-M   'P 1'
_cell_length_a   7.51765247
_cell_length_b   7.51765247
_cell_length_c   6.78455184
_cell_angle_alpha   89.92577577
_cell_angle_beta   90.07422423
_cell_angle_gamma   89.51666751
_symmetry_Int_Tables_number   1
_chemical_formula_structural   Hf8In4CuPt7
_chemical_formula_sum   'Hf8 In4 Cu1 Pt7'
_cell_volume   383.41532517
_cell_formula_units_Z   1
loop_
 _symmetry_equiv_pos_site_id
 _symmetry_equiv_pos_as_xyz
  1  'x, y, z'
loop_
 _atom_site_type_symbol
 _atom_site_label
 _atom_site_symmetry_multiplicity
 _atom_site_fract_x
 _atom_site_fract_y
 _atom_site_fract_z
 _atom_site_occupancy
  Hf  Hf0  1  0.150116  0.148280  0.001760  1
  Hf  Hf1  1  0.851720  0.849884  0.001760  1
  Hf  Hf2  1  0.650889  0.349111  0.502040  1
  Hf  Hf3  1  0.348566  0.651434  0.498473  1
  Hf  Hf4  1  0.684966  0.315034  0.998879  1
  Hf  Hf5  1  0.314498  0.685502  0.000947  1
  Hf  Hf6  1  0.816633  0.817251  0.498150  1
  Hf  Hf7  1  0.182749  0.183367  0.498150  1
  In  In8  1  0.499410  0.000178  0.247422  1
  In  In9  1  0.495036  0.998117  0.752162  1
  In  In10  1  0.999822  0.500590  0.247422  1
  In  In11  1  0.001883  0.504964  0.752162  1
  Cu  Cu12  1  0.129926  0.870074  0.707361  1
  Pt  Pt13  1  0.368477  0.369287  0.219548  1
  Pt  Pt14  1  0.631162  0.631836  0.780769  1
  Pt  Pt15  1  0.630713  0.631523  0.219548  1
  Pt  Pt16  1  0.876976  0.123024  0.721281  1
  Pt  Pt17  1  0.867585  0.132415  0.284811  1
  Pt  Pt18  1  0.368164  0.368838  0.780769  1
  Pt  Pt19  1  0.130709  0.869291  0.286588  1
