# generated using pymatgen
data_Ca3Ac(ReC2)2
_symmetry_space_group_name_H-M   'P 1'
_cell_length_a   5.26285700
_cell_length_b   6.67152356
_cell_length_c   10.96410547
_cell_angle_alpha   89.94282768
_cell_angle_beta   90.00000000
_cell_angle_gamma   90.00000000
_symmetry_Int_Tables_number   1
_chemical_formula_structural   Ca3Ac(ReC2)2
_chemical_formula_sum   'Ca6 Ac2 Re4 C8'
_cell_volume   384.96352465
_cell_formula_units_Z   2
loop_
 _symmetry_equiv_pos_site_id
 _symmetry_equiv_pos_as_xyz
  1  'x, y, z'
loop_
 _atom_site_type_symbol
 _atom_site_label
 _atom_site_symmetry_multiplicity
 _atom_site_fract_x
 _atom_site_fract_y
 _atom_site_fract_z
 _atom_site_occupancy
  Ca  Ca0  1  0.750000  0.802629  0.045037  1
  Ca  Ca1  1  0.250000  0.197371  0.954963  1
  Ca  Ca2  1  0.250000  0.537255  0.200806  1
  Ca  Ca3  1  0.750000  0.462745  0.799194  1
  Ca  Ca4  1  0.750000  0.980991  0.756804  1
  Ca  Ca5  1  0.250000  0.019009  0.243196  1
  Ac  Ac6  1  0.250000  0.724175  0.549948  1
  Ac  Ac7  1  0.750000  0.275825  0.450052  1
  Re  Re8  1  0.250000  0.738009  0.861942  1
  Re  Re9  1  0.750000  0.261991  0.138058  1
  Re  Re10  1  0.750000  0.764266  0.331563  1
  Re  Re11  1  0.250000  0.235734  0.668437  1
  C  C12  1  0.250000  0.478328  0.769272  1
  C  C13  1  0.750000  0.521672  0.230728  1
  C  C14  1  0.750000  0.026217  0.244476  1
  C  C15  1  0.250000  0.973783  0.755524  1
  C  C16  1  0.250000  0.795606  0.029610  1
  C  C17  1  0.750000  0.204394  0.970390  1
  C  C18  1  0.750000  0.733411  0.501902  1
  C  C19  1  0.250000  0.266589  0.498098  1
