# generated using pymatgen
data_Ti3AlPt2O
_symmetry_space_group_name_H-M   'P 1'
_cell_length_a   8.22649282
_cell_length_b   8.22649324
_cell_length_c   8.22649300
_cell_angle_alpha   60.00000499
_cell_angle_beta   60.00000329
_cell_angle_gamma   60.00000390
_symmetry_Int_Tables_number   1
_chemical_formula_structural   Ti3AlPt2O
_chemical_formula_sum   'Ti12 Al4 Pt8 O4'
_cell_volume   393.66721038
_cell_formula_units_Z   4
loop_
 _symmetry_equiv_pos_site_id
 _symmetry_equiv_pos_as_xyz
  1  'x, y, z'
loop_
 _atom_site_type_symbol
 _atom_site_label
 _atom_site_symmetry_multiplicity
 _atom_site_fract_x
 _atom_site_fract_y
 _atom_site_fract_z
 _atom_site_occupancy
  Ti  Ti0  1  0.935294  0.564706  0.564706  1
  Ti  Ti1  1  0.685294  0.314706  0.685294  1
  Ti  Ti2  1  0.935294  0.564706  0.935294  1
  Ti  Ti3  1  0.564706  0.935294  0.935294  1
  Ti  Ti4  1  0.314706  0.685294  0.314706  1
  Ti  Ti5  1  0.564706  0.935294  0.564706  1
  Ti  Ti6  1  0.685294  0.685294  0.314706  1
  Ti  Ti7  1  0.935294  0.935294  0.564706  1
  Ti  Ti8  1  0.314706  0.314706  0.685294  1
  Ti  Ti9  1  0.685294  0.314706  0.314706  1
  Ti  Ti10  1  0.564706  0.564706  0.935294  1
  Ti  Ti11  1  0.314706  0.685294  0.685294  1
  Al  Al12  1  0.125000  0.625000  0.125000  1
  Al  Al13  1  0.125000  0.125000  0.625000  1
  Al  Al14  1  0.625000  0.125000  0.125000  1
  Al  Al15  1  0.125000  0.125000  0.125000  1
  Pt  Pt16  1  0.276612  0.907796  0.907796  1
  Pt  Pt17  1  0.342204  0.342204  0.342204  1
  Pt  Pt18  1  0.342204  0.342204  0.973388  1
  Pt  Pt19  1  0.907796  0.276612  0.907796  1
  Pt  Pt20  1  0.907796  0.907796  0.907796  1
  Pt  Pt21  1  0.973388  0.342204  0.342204  1
  Pt  Pt22  1  0.907796  0.907796  0.276612  1
  Pt  Pt23  1  0.342204  0.973388  0.342204  1
  O  O24  1  0.625000  0.125000  0.625000  1
  O  O25  1  0.625000  0.625000  0.125000  1
  O  O26  1  0.125000  0.625000  0.625000  1
  O  O27  1  0.625000  0.625000  0.625000  1
