# generated using pymatgen
data_Ca2CrBrO4
_symmetry_space_group_name_H-M   'P 1'
_cell_length_a   6.35687900
_cell_length_b   7.23440100
_cell_length_c   11.30053600
_cell_angle_alpha   90.00000000
_cell_angle_beta   90.00000000
_cell_angle_gamma   90.00000000
_symmetry_Int_Tables_number   1
_chemical_formula_structural   Ca2CrBrO4
_chemical_formula_sum   'Ca8 Cr4 Br4 O16'
_cell_volume   519.69144296
_cell_formula_units_Z   4
loop_
 _symmetry_equiv_pos_site_id
 _symmetry_equiv_pos_as_xyz
  1  'x, y, z'
loop_
 _atom_site_type_symbol
 _atom_site_label
 _atom_site_symmetry_multiplicity
 _atom_site_fract_x
 _atom_site_fract_y
 _atom_site_fract_z
 _atom_site_occupancy
  Ca  Ca0  1  0.880654  0.974184  0.250000  1
  Ca  Ca1  1  0.119346  0.474184  0.250000  1
  Ca  Ca2  1  0.376248  0.750000  0.000000  1
  Ca  Ca3  1  0.623752  0.250000  0.500000  1
  Ca  Ca4  1  0.880654  0.525816  0.750000  1
  Ca  Ca5  1  0.119346  0.025816  0.750000  1
  Ca  Ca6  1  0.376248  0.750000  0.500000  1
  Ca  Ca7  1  0.623752  0.250000  0.000000  1
  Cr  Cr8  1  0.874371  0.750000  0.000000  1
  Cr  Cr9  1  0.125629  0.250000  0.000000  1
  Cr  Cr10  1  0.874371  0.750000  0.500000  1
  Cr  Cr11  1  0.125629  0.250000  0.500000  1
  Br  Br12  1  0.531459  0.833196  0.750000  1
  Br  Br13  1  0.468541  0.166804  0.250000  1
  Br  Br14  1  0.468541  0.333196  0.750000  1
  Br  Br15  1  0.531459  0.666804  0.250000  1
  O  O16  1  0.041385  0.738165  0.121810  1
  O  O17  1  0.290117  0.431467  0.031295  1
  O  O18  1  0.041385  0.761835  0.878190  1
  O  O19  1  0.290117  0.068533  0.531295  1
  O  O20  1  0.958615  0.261835  0.878190  1
  O  O21  1  0.709883  0.568533  0.531295  1
  O  O22  1  0.041385  0.738165  0.378190  1
  O  O23  1  0.290117  0.431467  0.468705  1
  O  O24  1  0.709883  0.931467  0.031295  1
  O  O25  1  0.290117  0.068533  0.968705  1
  O  O26  1  0.709883  0.931467  0.468705  1
  O  O27  1  0.958615  0.238165  0.378190  1
  O  O28  1  0.709883  0.568533  0.968705  1
  O  O29  1  0.958615  0.261835  0.621810  1
  O  O30  1  0.958615  0.238165  0.121810  1
  O  O31  1  0.041385  0.761835  0.621810  1
