# generated using pymatgen
data_Ca4SmSn3H
_symmetry_space_group_name_H-M   'P 1'
_cell_length_a   9.45637191
_cell_length_b   9.45637150
_cell_length_c   9.46207368
_cell_angle_alpha   128.92271637
_cell_angle_beta   128.92271358
_cell_angle_gamma   75.09004438
_symmetry_Int_Tables_number   1
_chemical_formula_structural   Ca4SmSn3H
_chemical_formula_sum   'Ca8 Sm2 Sn6 H2'
_cell_volume   498.76437083
_cell_formula_units_Z   2
loop_
 _symmetry_equiv_pos_site_id
 _symmetry_equiv_pos_as_xyz
  1  'x, y, z'
loop_
 _atom_site_type_symbol
 _atom_site_label
 _atom_site_symmetry_multiplicity
 _atom_site_fract_x
 _atom_site_fract_y
 _atom_site_fract_z
 _atom_site_occupancy
  Ca  Ca0  1  0.501446  0.501446  0.000000  1
  Ca  Ca1  1  0.001446  0.001446  0.000000  1
  Ca  Ca2  1  0.008622  0.186539  0.500000  1
  Ca  Ca3  1  0.686539  0.508622  0.500000  1
  Ca  Ca4  1  0.489393  0.989393  0.179395  1
  Ca  Ca5  1  0.809998  0.309998  0.820605  1
  Ca  Ca6  1  0.988207  0.812186  0.500000  1
  Ca  Ca7  1  0.312186  0.488207  0.500000  1
  Sm  Sm8  1  0.518602  0.018602  0.832616  1
  Sm  Sm9  1  0.185986  0.685986  0.167384  1
  Sn  Sn10  1  0.252901  0.252901  0.000000  1
  Sn  Sn11  1  0.752901  0.752901  0.000000  1
  Sn  Sn12  1  0.870321  0.370321  0.243339  1
  Sn  Sn13  1  0.126983  0.626983  0.756661  1
  Sn  Sn14  1  0.367667  0.123695  0.500000  1
  Sn  Sn15  1  0.623695  0.867667  0.500000  1
  H  H16  1  0.254921  0.754921  0.500000  1
  H  H17  1  0.748184  0.248184  0.500000  1
