# generated using pymatgen
data_Hf9TiRe3Pd
_symmetry_space_group_name_H-M   'P 1'
_cell_length_a   8.74580100
_cell_length_b   8.74580139
_cell_length_c   8.44382200
_cell_angle_alpha   90.00000000
_cell_angle_beta   90.00000000
_cell_angle_gamma   120.00000232
_symmetry_Int_Tables_number   1
_chemical_formula_structural   Hf9TiRe3Pd
_chemical_formula_sum   'Hf18 Ti2 Re6 Pd2'
_cell_volume   559.33100364
_cell_formula_units_Z   2
loop_
 _symmetry_equiv_pos_site_id
 _symmetry_equiv_pos_as_xyz
  1  'x, y, z'
loop_
 _atom_site_type_symbol
 _atom_site_label
 _atom_site_symmetry_multiplicity
 _atom_site_fract_x
 _atom_site_fract_y
 _atom_site_fract_z
 _atom_site_occupancy
  Hf  Hf0  1  0.195031  0.804969  0.447617  1
  Hf  Hf1  1  0.195031  0.390061  0.447617  1
  Hf  Hf2  1  0.609939  0.804969  0.447617  1
  Hf  Hf3  1  0.804969  0.195031  0.552383  1
  Hf  Hf4  1  0.804969  0.609939  0.552383  1
  Hf  Hf5  1  0.390061  0.195031  0.552383  1
  Hf  Hf6  1  0.804969  0.195031  0.947617  1
  Hf  Hf7  1  0.804969  0.609939  0.947617  1
  Hf  Hf8  1  0.390061  0.195031  0.947617  1
  Hf  Hf9  1  0.195031  0.804969  0.052383  1
  Hf  Hf10  1  0.195031  0.390061  0.052383  1
  Hf  Hf11  1  0.609939  0.804969  0.052383  1
  Hf  Hf12  1  0.543094  0.456906  0.250000  1
  Hf  Hf13  1  0.543094  0.086188  0.250000  1
  Hf  Hf14  1  0.913812  0.456906  0.250000  1
  Hf  Hf15  1  0.456906  0.543094  0.750000  1
  Hf  Hf16  1  0.456906  0.913812  0.750000  1
  Hf  Hf17  1  0.086188  0.543094  0.750000  1
  Ti  Ti18  1  0.000000  0.000000  0.500000  1
  Ti  Ti19  1  0.000000  0.000000  0.000000  1
  Re  Re20  1  0.886583  0.113417  0.250000  1
  Re  Re21  1  0.886583  0.773165  0.250000  1
  Re  Re22  1  0.226835  0.113417  0.250000  1
  Re  Re23  1  0.113417  0.886583  0.750000  1
  Re  Re24  1  0.113417  0.226835  0.750000  1
  Re  Re25  1  0.773165  0.886583  0.750000  1
  Pd  Pd26  1  0.333333  0.666667  0.250000  1
  Pd  Pd27  1  0.666667  0.333333  0.750000  1
