# generated using pymatgen
data_Na(TaPd4)3
_symmetry_space_group_name_H-M   'P 1'
_cell_length_a   5.58908400
_cell_length_b   5.58908374
_cell_length_c   9.15538000
_cell_angle_alpha   90.00000000
_cell_angle_beta   90.00000000
_cell_angle_gamma   119.99998973
_symmetry_Int_Tables_number   1
_chemical_formula_structural   Na(TaPd4)3
_chemical_formula_sum   'Na1 Ta3 Pd12'
_cell_volume   247.67849748
_cell_formula_units_Z   1
loop_
 _symmetry_equiv_pos_site_id
 _symmetry_equiv_pos_as_xyz
  1  'x, y, z'
loop_
 _atom_site_type_symbol
 _atom_site_label
 _atom_site_symmetry_multiplicity
 _atom_site_fract_x
 _atom_site_fract_y
 _atom_site_fract_z
 _atom_site_occupancy
  Na  Na0  1  0.333333  0.666667  0.000000  1
  Ta  Ta1  1  0.666667  0.333333  0.500000  1
  Ta  Ta2  1  0.000000  0.000000  0.761589  1
  Ta  Ta3  1  0.000000  0.000000  0.238411  1
  Pd  Pd4  1  0.831903  0.168097  0.000000  1
  Pd  Pd5  1  0.831903  0.663804  0.000000  1
  Pd  Pd6  1  0.336196  0.168097  0.000000  1
  Pd  Pd7  1  0.995473  0.497737  0.743330  1
  Pd  Pd8  1  0.502263  0.497737  0.743330  1
  Pd  Pd9  1  0.502263  0.004527  0.743330  1
  Pd  Pd10  1  0.995473  0.497737  0.256670  1
  Pd  Pd11  1  0.502263  0.497737  0.256670  1
  Pd  Pd12  1  0.502263  0.004527  0.256670  1
  Pd  Pd13  1  0.165954  0.834046  0.500000  1
  Pd  Pd14  1  0.165954  0.331911  0.500000  1
  Pd  Pd15  1  0.668089  0.834046  0.500000  1
