# generated using pymatgen
data_Sm3Mg3Si2Rh
_symmetry_space_group_name_H-M   'P 1'
_cell_length_a   7.27062400
_cell_length_b   7.27062393
_cell_length_c   4.36987100
_cell_angle_alpha   90.00000000
_cell_angle_beta   90.00000000
_cell_angle_gamma   120.00000034
_symmetry_Int_Tables_number   1
_chemical_formula_structural   Sm3Mg3Si2Rh
_chemical_formula_sum   'Sm3 Mg3 Si2 Rh1'
_cell_volume   200.05186932
_cell_formula_units_Z   1
loop_
 _symmetry_equiv_pos_site_id
 _symmetry_equiv_pos_as_xyz
  1  'x, y, z'
loop_
 _atom_site_type_symbol
 _atom_site_label
 _atom_site_symmetry_multiplicity
 _atom_site_fract_x
 _atom_site_fract_y
 _atom_site_fract_z
 _atom_site_occupancy
  Sm  Sm0  1  0.409921  0.000000  0.000000  1
  Sm  Sm1  1  0.000000  0.409922  0.000000  1
  Sm  Sm2  1  0.590078  0.590078  0.000000  1
  Mg  Mg3  1  0.759626  0.000000  0.499999  1
  Mg  Mg4  1  0.240374  0.240374  0.499999  1
  Mg  Mg5  1  0.000000  0.759626  0.499999  1
  Si  Si6  1  0.666667  0.333333  0.499999  1
  Si  Si7  1  0.333334  0.666667  0.499999  1
  Rh  Rh8  1  0.000000  0.000000  0.000000  1
