# generated using pymatgen
data_Ce3Eu4SnPt4
_symmetry_space_group_name_H-M   'P 1'
_cell_length_a   4.64037702
_cell_length_b   7.70210552
_cell_length_c   8.90858074
_cell_angle_alpha   91.91107574
_cell_angle_beta   90.00626158
_cell_angle_gamma   90.00503549
_symmetry_Int_Tables_number   1
_chemical_formula_structural   Ce3Eu4SnPt4
_chemical_formula_sum   'Ce3 Eu4 Sn1 Pt4'
_cell_volume   318.22157437
_cell_formula_units_Z   1
loop_
 _symmetry_equiv_pos_site_id
 _symmetry_equiv_pos_as_xyz
  1  'x, y, z'
loop_
 _atom_site_type_symbol
 _atom_site_label
 _atom_site_symmetry_multiplicity
 _atom_site_fract_x
 _atom_site_fract_y
 _atom_site_fract_z
 _atom_site_occupancy
  Ce  Ce0  1  0.750028  0.349333  0.580530  1
  Ce  Ce1  1  0.250084  0.645909  0.418688  1
  Ce  Ce2  1  0.249881  0.141305  0.070418  1
  Eu  Eu3  1  0.750100  0.496443  0.156217  1
  Eu  Eu4  1  0.250091  0.008540  0.688078  1
  Eu  Eu5  1  0.250044  0.541275  0.832493  1
  Eu  Eu6  1  0.749973  0.973890  0.317428  1
  Sn  Sn7  1  0.749964  0.857207  0.929709  1
  Pt  Pt8  1  0.749904  0.727590  0.608185  1
  Pt  Pt9  1  0.250119  0.260347  0.394597  1
  Pt  Pt10  1  0.250026  0.768654  0.118325  1
  Pt  Pt11  1  0.749786  0.229507  0.885332  1
