# generated using pymatgen
data_Gd3YZr4F28
_symmetry_space_group_name_H-M   'P 1'
_cell_length_a   5.84119201
_cell_length_b   9.31652270
_cell_length_c   12.46485000
_cell_angle_alpha   62.04647903
_cell_angle_beta   89.99637070
_cell_angle_gamma   89.97750590
_symmetry_Int_Tables_number   1
_chemical_formula_structural   Gd3YZr4F28
_chemical_formula_sum   'Gd3 Y1 Zr4 F28'
_cell_volume   599.18980514
_cell_formula_units_Z   1
loop_
 _symmetry_equiv_pos_site_id
 _symmetry_equiv_pos_as_xyz
  1  'x, y, z'
loop_
 _atom_site_type_symbol
 _atom_site_label
 _atom_site_symmetry_multiplicity
 _atom_site_fract_x
 _atom_site_fract_y
 _atom_site_fract_z
 _atom_site_occupancy
  Gd  Gd0  1  0.743570  0.814952  0.265885  1
  Gd  Gd1  1  0.243622  0.184055  0.234067  1
  Gd  Gd2  1  0.255789  0.183069  0.734107  1
  Y  Y3  1  0.756377  0.815459  0.765849  1
  Zr  Zr4  1  0.744526  0.273609  0.455511  1
  Zr  Zr5  1  0.244609  0.724603  0.043736  1
  Zr  Zr6  1  0.256343  0.725290  0.547028  1
  Zr  Zr7  1  0.755380  0.276536  0.954021  1
  F  F8  1  0.469344  0.712458  0.922624  1
  F  F9  1  0.966082  0.288312  0.576447  1
  F  F10  1  0.533625  0.288441  0.076049  1
  F  F11  1  0.033330  0.712716  0.425575  1
  F  F12  1  0.459462  0.279855  0.550182  1
  F  F13  1  0.961136  0.719610  0.946761  1
  F  F14  1  0.539300  0.720067  0.450437  1
  F  F15  1  0.039572  0.281610  0.049665  1
  F  F16  1  0.764232  0.524792  0.858489  1
  F  F17  1  0.266697  0.477970  0.641351  1
  F  F18  1  0.233438  0.477461  0.140009  1
  F  F19  1  0.733468  0.521722  0.359919  1
  F  F20  1  0.759319  0.029907  0.058008  1
  F  F21  1  0.259441  0.971832  0.442411  1
  F  F22  1  0.240227  0.971530  0.941318  1
  F  F23  1  0.741806  0.027222  0.559630  1
  F  F24  1  0.993873  0.737553  0.651967  1
  F  F25  1  0.491723  0.263190  0.850839  1
  F  F26  1  0.009436  0.263527  0.351638  1
  F  F27  1  0.508443  0.736238  0.147699  1
  F  F28  1  0.031003  0.746571  0.167446  1
  F  F29  1  0.532919  0.252127  0.331126  1
  F  F30  1  0.968418  0.254126  0.830585  1
  F  F31  1  0.472758  0.748460  0.669639  1
  F  F32  1  0.431860  0.974740  0.234947  1
  F  F33  1  0.932113  0.024127  0.264961  1
  F  F34  1  0.565832  0.020767  0.764259  1
  F  F35  1  0.060928  0.975497  0.735816  1
