# generated using pymatgen
data_ErTm3(Ga5Rh3)2
_symmetry_space_group_name_H-M   'P 1'
_cell_length_a   8.57848077
_cell_length_b   8.57846017
_cell_length_c   5.63922702
_cell_angle_alpha   70.80471637
_cell_angle_beta   70.80511741
_cell_angle_gamma   97.65000875
_symmetry_Int_Tables_number   1
_chemical_formula_structural   ErTm3(Ga5Rh3)2
_chemical_formula_sum   'Er1 Tm3 Ga10 Rh6'
_cell_volume   356.33689181
_cell_formula_units_Z   1
loop_
 _symmetry_equiv_pos_site_id
 _symmetry_equiv_pos_as_xyz
  1  'x, y, z'
loop_
 _atom_site_type_symbol
 _atom_site_label
 _atom_site_symmetry_multiplicity
 _atom_site_fract_x
 _atom_site_fract_y
 _atom_site_fract_z
 _atom_site_occupancy
  Er  Er0  1  0.870559  0.578703  0.776198  1
  Tm  Tm1  1  0.421346  0.129457  0.723768  1
  Tm  Tm2  1  0.129462  0.421338  0.223769  1
  Tm  Tm3  1  0.578653  0.870543  0.276231  1
  Ga  Ga4  1  0.100605  0.265599  0.816445  1
  Ga  Ga5  1  0.734395  0.899433  0.683540  1
  Ga  Ga6  1  0.899415  0.734439  0.183524  1
  Ga  Ga7  1  0.265594  0.100602  0.316451  1
  Ga  Ga8  1  0.199060  0.800988  0.750005  1
  Ga  Ga9  1  0.800973  0.199015  0.250009  1
  Ga  Ga10  1  0.500190  0.499772  0.749997  1
  Ga  Ga11  1  0.499754  0.500210  0.250038  1
  Ga  Ga12  1  0.800586  0.199398  0.750003  1
  Ga  Ga13  1  0.199444  0.800602  0.249948  1
  Rh  Rh14  1  0.263390  0.569020  0.584351  1
  Rh  Rh15  1  0.431000  0.736645  0.915620  1
  Rh  Rh16  1  0.736610  0.430939  0.415672  1
  Rh  Rh17  1  0.568957  0.263283  0.084438  1
  Rh  Rh18  1  0.999822  0.000188  0.749997  1
  Rh  Rh19  1  0.000185  0.999825  0.249993  1
