# generated using pymatgen
data_Lu5Hf3(ReB6)4
_symmetry_space_group_name_H-M   'P 1'
_cell_length_a   3.58866900
_cell_length_b   8.98545376
_cell_length_c   11.34101911
_cell_angle_alpha   89.96826538
_cell_angle_beta   90.00000000
_cell_angle_gamma   90.00000000
_symmetry_Int_Tables_number   1
_chemical_formula_structural   Lu5Hf3(ReB6)4
_chemical_formula_sum   'Lu5 Hf3 Re4 B24'
_cell_volume   365.70039772
_cell_formula_units_Z   1
loop_
 _symmetry_equiv_pos_site_id
 _symmetry_equiv_pos_as_xyz
  1  'x, y, z'
loop_
 _atom_site_type_symbol
 _atom_site_label
 _atom_site_symmetry_multiplicity
 _atom_site_fract_x
 _atom_site_fract_y
 _atom_site_fract_z
 _atom_site_occupancy
  Lu  Lu0  1  0.000000  0.321410  0.413146  1
  Lu  Lu1  1  0.000000  0.678549  0.586291  1
  Lu  Lu2  1  0.000000  0.821090  0.086491  1
  Lu  Lu3  1  0.000000  0.179313  0.914216  1
  Lu  Lu4  1  0.000000  0.944625  0.372286  1
  Hf  Hf5  1  0.000000  0.056109  0.629587  1
  Hf  Hf6  1  0.000000  0.444864  0.126909  1
  Hf  Hf7  1  0.000000  0.555501  0.872609  1
  Re  Re8  1  0.000000  0.636823  0.317817  1
  Re  Re9  1  0.000000  0.359794  0.682667  1
  Re  Re10  1  0.000000  0.142751  0.178852  1
  Re  Re11  1  0.000000  0.859315  0.819270  1
  B  B12  1  0.500000  0.552332  0.433780  1
  B  B13  1  0.500000  0.445654  0.566173  1
  B  B14  1  0.500000  0.054408  0.065403  1
  B  B15  1  0.500000  0.946309  0.934233  1
  B  B16  1  0.500000  0.749932  0.418944  1
  B  B17  1  0.500000  0.247955  0.581421  1
  B  B18  1  0.500000  0.253127  0.079859  1
  B  B19  1  0.500000  0.747624  0.919480  1
  B  B20  1  0.500000  0.793493  0.263821  1
  B  B21  1  0.500000  0.205279  0.736088  1
  B  B22  1  0.500000  0.295083  0.234741  1
  B  B23  1  0.500000  0.705290  0.764364  1
  B  B24  1  0.500000  0.629490  0.182724  1
  B  B25  1  0.500000  0.370177  0.817364  1
  B  B26  1  0.500000  0.131784  0.315972  1
  B  B27  1  0.500000  0.869633  0.683295  1
  B  B28  1  0.500000  0.982192  0.211963  1
  B  B29  1  0.500000  0.018658  0.787575  1
  B  B30  1  0.500000  0.480189  0.286612  1
  B  B31  1  0.500000  0.519160  0.712818  1
  B  B32  1  0.500000  0.600576  0.026935  1
  B  B33  1  0.500000  0.399833  0.972360  1
  B  B34  1  0.500000  0.102167  0.474620  1
  B  B35  1  0.500000  0.899509  0.529313  1
