# generated using pymatgen
data_PrNd3Mo4F28
_symmetry_space_group_name_H-M   'P 1'
_cell_length_a   5.82246601
_cell_length_b   9.32568309
_cell_length_c   12.51995100
_cell_angle_alpha   62.06543757
_cell_angle_beta   90.00306038
_cell_angle_gamma   89.98672525
_symmetry_Int_Tables_number   1
_chemical_formula_structural   PrNd3Mo4F28
_chemical_formula_sum   'Pr1 Nd3 Mo4 F28'
_cell_volume   600.60441588
_cell_formula_units_Z   1
loop_
 _symmetry_equiv_pos_site_id
 _symmetry_equiv_pos_as_xyz
  1  'x, y, z'
loop_
 _atom_site_type_symbol
 _atom_site_label
 _atom_site_symmetry_multiplicity
 _atom_site_fract_x
 _atom_site_fract_y
 _atom_site_fract_z
 _atom_site_occupancy
  Pr  Pr0  1  0.747002  0.812036  0.266698  1
  Nd  Nd1  1  0.753165  0.812256  0.766944  1
  Nd  Nd2  1  0.253057  0.188140  0.733219  1
  Nd  Nd3  1  0.246439  0.188764  0.233107  1
  Mo  Mo4  1  0.755141  0.274299  0.956001  1
  Mo  Mo5  1  0.255180  0.726441  0.544458  1
  Mo  Mo6  1  0.245425  0.726260  0.042663  1
  Mo  Mo7  1  0.744905  0.272504  0.456904  1
  F  F8  1  0.460073  0.708719  0.921224  1
  F  F9  1  0.960748  0.290282  0.578152  1
  F  F10  1  0.539014  0.290852  0.077543  1
  F  F11  1  0.041009  0.708774  0.422434  1
  F  F12  1  0.464856  0.280987  0.546635  1
  F  F13  1  0.963844  0.718432  0.953602  1
  F  F14  1  0.535072  0.718020  0.455255  1
  F  F15  1  0.035136  0.281833  0.046109  1
  F  F16  1  0.769157  0.514544  0.861727  1
  F  F17  1  0.268806  0.486043  0.638470  1
  F  F18  1  0.231214  0.485885  0.137426  1
  F  F19  1  0.729966  0.512585  0.362563  1
  F  F20  1  0.763391  0.035030  0.050751  1
  F  F21  1  0.262998  0.965527  0.448713  1
  F  F22  1  0.237245  0.965605  0.947931  1
  F  F23  1  0.737256  0.033360  0.551910  1
  F  F24  1  0.984160  0.734064  0.638038  1
  F  F25  1  0.484394  0.266695  0.861813  1
  F  F26  1  0.016164  0.266265  0.362658  1
  F  F27  1  0.517823  0.732980  0.135990  1
  F  F28  1  0.036637  0.744251  0.166570  1
  F  F29  1  0.533854  0.254394  0.333315  1
  F  F30  1  0.966718  0.255737  0.832873  1
  F  F31  1  0.465471  0.745267  0.668156  1
  F  F32  1  0.416914  0.969614  0.232206  1
  F  F33  1  0.919521  0.033248  0.267704  1
  F  F34  1  0.579092  0.030730  0.767631  1
  F  F35  1  0.079154  0.969578  0.732609  1
