# generated using pymatgen
data_Nb2Si(Ni2P)6
_symmetry_space_group_name_H-M   'P 1'
_cell_length_a   9.03780200
_cell_length_b   9.03780276
_cell_length_c   3.48555900
_cell_angle_alpha   90.00000000
_cell_angle_beta   90.00000000
_cell_angle_gamma   119.99999723
_symmetry_Int_Tables_number   1
_chemical_formula_structural   Nb2Si(Ni2P)6
_chemical_formula_sum   'Nb2 Si1 Ni12 P6'
_cell_volume   246.56348722
_cell_formula_units_Z   1
loop_
 _symmetry_equiv_pos_site_id
 _symmetry_equiv_pos_as_xyz
  1  'x, y, z'
loop_
 _atom_site_type_symbol
 _atom_site_label
 _atom_site_symmetry_multiplicity
 _atom_site_fract_x
 _atom_site_fract_y
 _atom_site_fract_z
 _atom_site_occupancy
  Nb  Nb0  1  0.666667  0.333333  0.500000  1
  Nb  Nb1  1  0.333333  0.666667  0.000000  1
  Si  Si2  1  0.000000  0.000000  0.000000  1
  Ni  Ni3  1  0.111816  0.828986  0.000000  1
  Ni  Ni4  1  0.395163  0.434907  0.500000  1
  Ni  Ni5  1  0.717170  0.888184  0.000000  1
  Ni  Ni6  1  0.565093  0.960255  0.500000  1
  Ni  Ni7  1  0.217493  0.082325  0.500000  1
  Ni  Ni8  1  0.864833  0.782507  0.500000  1
  Ni  Ni9  1  0.917675  0.135167  0.500000  1
  Ni  Ni10  1  0.945773  0.371217  0.000000  1
  Ni  Ni11  1  0.628783  0.574556  0.000000  1
  Ni  Ni12  1  0.425444  0.054227  0.000000  1
  Ni  Ni13  1  0.039745  0.604837  0.500000  1
  Ni  Ni14  1  0.171014  0.282830  0.000000  1
  P  P15  1  0.581101  0.713274  0.500000  1
  P  P16  1  0.707377  0.130196  0.000000  1
  P  P17  1  0.869804  0.577181  0.000000  1
  P  P18  1  0.422819  0.292623  0.000000  1
  P  P19  1  0.286726  0.867828  0.500000  1
  P  P20  1  0.132172  0.418899  0.500000  1
