# generated using pymatgen
data_Cs4Zr6OsI18
_symmetry_space_group_name_H-M   'P 1'
_cell_length_a   11.99623967
_cell_length_b   11.99622997
_cell_length_c   11.61018900
_cell_angle_alpha   77.06180662
_cell_angle_beta   77.06182706
_cell_angle_gamma   117.45496688
_symmetry_Int_Tables_number   1
_chemical_formula_structural   Cs4Zr6OsI18
_chemical_formula_sum   'Cs4 Zr6 Os1 I18'
_cell_volume   1337.63958040
_cell_formula_units_Z   1
loop_
 _symmetry_equiv_pos_site_id
 _symmetry_equiv_pos_as_xyz
  1  'x, y, z'
loop_
 _atom_site_type_symbol
 _atom_site_label
 _atom_site_symmetry_multiplicity
 _atom_site_fract_x
 _atom_site_fract_y
 _atom_site_fract_z
 _atom_site_occupancy
  Cs  Cs0  1  0.766698  0.444674  0.683375  1
  Cs  Cs1  1  0.555325  0.233301  0.316626  1
  Cs  Cs2  1  0.233302  0.555326  0.316624  1
  Cs  Cs3  1  0.444674  0.766700  0.683376  1
  Zr  Zr4  1  0.119350  0.119350  0.139580  1
  Zr  Zr5  1  0.880648  0.880648  0.860420  1
  Zr  Zr6  1  0.949263  0.768659  0.148048  1
  Zr  Zr7  1  0.231338  0.050736  0.851954  1
  Zr  Zr8  1  0.050736  0.231336  0.851954  1
  Zr  Zr9  1  0.768661  0.949261  0.148047  1
  Os  Os10  1  0.000002  0.000007  0.999995  1
  I  I11  1  0.810383  0.605961  0.009682  1
  I  I12  1  0.394040  0.189616  0.990318  1
  I  I13  1  0.189617  0.394040  0.990317  1
  I  I14  1  0.605960  0.810383  0.009682  1
  I  I15  1  0.203123  0.796877  0.999999  1
  I  I16  1  0.796877  0.203123  0.000000  1
  I  I17  1  0.318155  0.318156  0.670739  1
  I  I18  1  0.681845  0.681845  0.329260  1
  I  I19  1  0.889790  0.496648  0.323126  1
  I  I20  1  0.503353  0.110212  0.676875  1
  I  I21  1  0.110213  0.503353  0.676875  1
  I  I22  1  0.496648  0.889790  0.323127  1
  I  I23  1  0.257841  0.257844  0.300201  1
  I  I24  1  0.742159  0.742156  0.699798  1
  I  I25  1  0.077299  0.874512  0.318684  1
  I  I26  1  0.125488  0.922702  0.681317  1
  I  I27  1  0.922701  0.125489  0.681316  1
  I  I28  1  0.874512  0.077298  0.318683  1
