# generated using pymatgen
data_Th8Ni3Ru5
_symmetry_space_group_name_H-M   'P 1'
_cell_length_a   4.10113500
_cell_length_b   5.94911602
_cell_length_c   14.56455754
_cell_angle_alpha   90.14656975
_cell_angle_beta   90.00000000
_cell_angle_gamma   90.00000000
_symmetry_Int_Tables_number   1
_chemical_formula_structural   Th8Ni3Ru5
_chemical_formula_sum   'Th8 Ni3 Ru5'
_cell_volume   355.34677548
_cell_formula_units_Z   1
loop_
 _symmetry_equiv_pos_site_id
 _symmetry_equiv_pos_as_xyz
  1  'x, y, z'
loop_
 _atom_site_type_symbol
 _atom_site_label
 _atom_site_symmetry_multiplicity
 _atom_site_fract_x
 _atom_site_fract_y
 _atom_site_fract_z
 _atom_site_occupancy
  Th  Th0  1  0.250000  0.547213  0.284728  1
  Th  Th1  1  0.750000  0.455803  0.716380  1
  Th  Th2  1  0.250000  0.954787  0.784700  1
  Th  Th3  1  0.250000  0.758565  0.535113  1
  Th  Th4  1  0.250000  0.743157  0.034392  1
  Th  Th5  1  0.750000  0.258109  0.964197  1
  Th  Th6  1  0.750000  0.045212  0.215212  1
  Th  Th7  1  0.750000  0.246596  0.464117  1
  Ni  Ni8  1  0.750000  0.768719  0.900271  1
  Ni  Ni9  1  0.250000  0.230225  0.099327  1
  Ni  Ni10  1  0.250000  0.264769  0.603165  1
  Ru  Ru11  1  0.250000  0.064280  0.348417  1
  Ru  Ru12  1  0.750000  0.557091  0.141939  1
  Ru  Ru13  1  0.750000  0.717095  0.403847  1
  Ru  Ru14  1  0.250000  0.440044  0.852643  1
  Ru  Ru15  1  0.750000  0.948336  0.651552  1
