# generated using pymatgen
data_Ta3Nb3S10
_symmetry_space_group_name_H-M   'P 1'
_cell_length_a   7.92960346
_cell_length_b   8.89002447
_cell_length_c   9.26026826
_cell_angle_alpha   93.98369958
_cell_angle_beta   95.14699629
_cell_angle_gamma   113.31864738
_symmetry_Int_Tables_number   1
_chemical_formula_structural   Ta3Nb3S10
_chemical_formula_sum   'Ta6 Nb6 S20'
_cell_volume   593.11120664
_cell_formula_units_Z   2
loop_
 _symmetry_equiv_pos_site_id
 _symmetry_equiv_pos_as_xyz
  1  'x, y, z'
loop_
 _atom_site_type_symbol
 _atom_site_label
 _atom_site_symmetry_multiplicity
 _atom_site_fract_x
 _atom_site_fract_y
 _atom_site_fract_z
 _atom_site_occupancy
  Ta  Ta0  1  0.007969  0.006415  0.999933  1
  Ta  Ta1  1  0.604871  0.403729  0.597407  1
  Ta  Ta2  1  0.501994  0.998393  0.503761  1
  Ta  Ta3  1  0.204157  0.800700  0.198175  1
  Ta  Ta4  1  0.097073  0.401689  0.098959  1
  Ta  Ta5  1  0.800490  0.200296  0.801207  1
  Nb  Nb6  1  0.705354  0.799322  0.695664  1
  Nb  Nb7  1  0.410609  0.605493  0.398922  1
  Nb  Nb8  1  0.301418  0.198527  0.290961  1
  Nb  Nb9  1  0.895413  0.592459  0.899909  1
  Nb  Nb10  1  0.861394  0.695920  0.397176  1
  Nb  Nb11  1  0.456106  0.090670  0.994730  1
  S  S12  1  0.072936  0.550695  0.328824  1
  S  S13  1  0.394470  0.650732  0.135482  1
  S  S14  1  0.672525  0.948394  0.927099  1
  S  S15  1  0.567901  0.547491  0.822309  1
  S  S16  1  0.998407  0.055244  0.739811  1
  S  S17  1  0.910050  0.647687  0.645930  1
  S  S18  1  0.278844  0.353052  0.523929  1
  S  S19  1  0.169919  0.949325  0.427884  1
  S  S20  1  0.595519  0.441838  0.328968  1
  S  S21  1  0.506663  0.048738  0.247024  1
  S  S22  1  0.870866  0.752424  0.129763  1
  S  S23  1  0.764372  0.345198  0.031486  1
  S  S24  1  0.187887  0.837816  0.932526  1
  S  S25  1  0.094143  0.447104  0.839872  1
  S  S26  1  0.467991  0.149719  0.728110  1
  S  S27  1  0.373800  0.747429  0.628341  1
  S  S28  1  0.796933  0.250901  0.542072  1
  S  S29  1  0.702389  0.869502  0.436733  1
  S  S30  1  0.971551  0.149523  0.226713  1
  S  S31  1  0.294383  0.265179  0.030719  1
