# generated using pymatgen
data_Sn7Ir2Ru
_symmetry_space_group_name_H-M   'P 1'
_cell_length_a   9.48267391
_cell_length_b   8.22009314
_cell_length_c   8.22267525
_cell_angle_alpha   70.43863976
_cell_angle_beta   54.76793630
_cell_angle_gamma   54.79342654
_symmetry_Int_Tables_number   1
_chemical_formula_structural   Sn7Ir2Ru
_chemical_formula_sum   'Sn14 Ir4 Ru2'
_cell_volume   427.76941404
_cell_formula_units_Z   2
loop_
 _symmetry_equiv_pos_site_id
 _symmetry_equiv_pos_as_xyz
  1  'x, y, z'
loop_
 _atom_site_type_symbol
 _atom_site_label
 _atom_site_symmetry_multiplicity
 _atom_site_fract_x
 _atom_site_fract_y
 _atom_site_fract_z
 _atom_site_occupancy
  Sn  Sn0  1  0.675090  0.324910  0.997258  1
  Sn  Sn1  1  0.999958  0.000042  0.327865  1
  Sn  Sn2  1  0.324925  0.002769  0.672304  1
  Sn  Sn3  1  0.997231  0.675075  0.999998  1
  Sn  Sn4  1  0.327865  0.672135  0.999958  1
  Sn  Sn5  1  0.997258  0.002742  0.675090  1
  Sn  Sn6  1  0.672304  0.000002  0.324925  1
  Sn  Sn7  1  0.999998  0.327696  0.997231  1
  Sn  Sn8  1  0.249131  0.497821  0.502179  1
  Sn  Sn9  1  0.502150  0.248761  0.751239  1
  Sn  Sn10  1  0.752386  0.747614  0.752386  1
  Sn  Sn11  1  0.502179  0.750869  0.249131  1
  Sn  Sn12  1  0.751239  0.497850  0.502150  1
  Sn  Sn13  1  0.252386  0.247614  0.252386  1
  Ir  Ir14  1  0.655981  0.344019  0.343953  1
  Ir  Ir15  1  0.341595  0.999933  0.000067  1
  Ir  Ir16  1  0.000067  0.658405  0.341595  1
  Ir  Ir17  1  0.343953  0.656047  0.655981  1
  Ru  Ru18  1  0.654354  0.000050  0.999950  1
  Ru  Ru19  1  0.999950  0.345646  0.654354  1
