# generated using pymatgen
data_Tb16Al3Co4Au
_symmetry_space_group_name_H-M   'P 1'
_cell_length_a   9.38571740
_cell_length_b   9.38571630
_cell_length_c   9.38571686
_cell_angle_alpha   60.45652493
_cell_angle_beta   60.45653274
_cell_angle_gamma   60.45651810
_symmetry_Int_Tables_number   1
_chemical_formula_structural   Tb16Al3Co4Au
_chemical_formula_sum   'Tb16 Al3 Co4 Au1'
_cell_volume   590.67208458
_cell_formula_units_Z   1
loop_
 _symmetry_equiv_pos_site_id
 _symmetry_equiv_pos_as_xyz
  1  'x, y, z'
loop_
 _atom_site_type_symbol
 _atom_site_label
 _atom_site_symmetry_multiplicity
 _atom_site_fract_x
 _atom_site_fract_y
 _atom_site_fract_z
 _atom_site_occupancy
  Tb  Tb0  1  0.807177  0.192487  0.192487  1
  Tb  Tb1  1  0.191148  0.808487  0.808487  1
  Tb  Tb2  1  0.192487  0.807177  0.192487  1
  Tb  Tb3  1  0.808487  0.191148  0.808487  1
  Tb  Tb4  1  0.192487  0.192487  0.807177  1
  Tb  Tb5  1  0.808487  0.808487  0.191148  1
  Tb  Tb6  1  0.935330  0.560765  0.560766  1
  Tb  Tb7  1  0.562295  0.937427  0.937428  1
  Tb  Tb8  1  0.560766  0.935330  0.560766  1
  Tb  Tb9  1  0.937427  0.562295  0.937428  1
  Tb  Tb10  1  0.560766  0.560765  0.935331  1
  Tb  Tb11  1  0.937427  0.937427  0.562296  1
  Tb  Tb12  1  0.349439  0.349439  0.349439  1
  Tb  Tb13  1  0.348559  0.348559  0.952070  1
  Tb  Tb14  1  0.348559  0.952070  0.348559  1
  Tb  Tb15  1  0.952070  0.348559  0.348559  1
  Al  Al16  1  0.577213  0.577213  0.272899  1
  Al  Al17  1  0.577213  0.272899  0.577213  1
  Al  Al18  1  0.272899  0.577213  0.577213  1
  Co  Co19  1  0.140705  0.140705  0.140705  1
  Co  Co20  1  0.141247  0.141247  0.575684  1
  Co  Co21  1  0.141247  0.575684  0.141247  1
  Co  Co22  1  0.575684  0.141247  0.141247  1
  Au  Au23  1  0.580881  0.580881  0.580881  1
