# generated using pymatgen
data_CeCd2Ni9
_symmetry_space_group_name_H-M   'P 1'
_cell_length_a   4.91069912
_cell_length_b   4.91064289
_cell_length_c   8.41709555
_cell_angle_alpha   72.81905272
_cell_angle_beta   107.18459993
_cell_angle_gamma   120.36196290
_symmetry_Int_Tables_number   1
_chemical_formula_structural   CeCd2Ni9
_chemical_formula_sum   'Ce1 Cd2 Ni9'
_cell_volume   164.67178799
_cell_formula_units_Z   1
loop_
 _symmetry_equiv_pos_site_id
 _symmetry_equiv_pos_as_xyz
  1  'x, y, z'
loop_
 _atom_site_type_symbol
 _atom_site_label
 _atom_site_symmetry_multiplicity
 _atom_site_fract_x
 _atom_site_fract_y
 _atom_site_fract_z
 _atom_site_occupancy
  Ce  Ce0  1  0.999950  0.000051  0.999854  1
  Cd  Cd1  1  0.143727  0.856273  0.431134  1
  Cd  Cd2  1  0.856300  0.143700  0.568944  1
  Ni  Ni3  1  0.666028  0.333962  0.998225  1
  Ni  Ni4  1  0.333915  0.666087  0.001673  1
  Ni  Ni5  1  0.081852  0.415753  0.250519  1
  Ni  Ni6  1  0.584431  0.415576  0.250544  1
  Ni  Ni7  1  0.584254  0.918155  0.250522  1
  Ni  Ni8  1  0.500061  0.499941  0.500195  1
  Ni  Ni9  1  0.415560  0.081518  0.749478  1
  Ni  Ni10  1  0.415452  0.584546  0.749438  1
  Ni  Ni11  1  0.918476  0.584442  0.749477  1
