# generated using pymatgen
data_Th4CuSi6Rh
_symmetry_space_group_name_H-M   'P 1'
_cell_length_a   8.23980495
_cell_length_b   8.17365279
_cell_length_c   5.89699672
_cell_angle_alpha   69.54517538
_cell_angle_beta   68.34549583
_cell_angle_gamma   42.10932792
_symmetry_Int_Tables_number   1
_chemical_formula_structural   Th4CuSi6Rh
_chemical_formula_sum   'Th4 Cu1 Si6 Rh1'
_cell_volume   245.68547993
_cell_formula_units_Z   1
loop_
 _symmetry_equiv_pos_site_id
 _symmetry_equiv_pos_as_xyz
  1  'x, y, z'
loop_
 _atom_site_type_symbol
 _atom_site_label
 _atom_site_symmetry_multiplicity
 _atom_site_fract_x
 _atom_site_fract_y
 _atom_site_fract_z
 _atom_site_occupancy
  Th  Th0  1  0.750633  0.750633  0.749367  1
  Th  Th1  1  0.753522  0.244753  0.755247  1
  Th  Th2  1  0.250633  0.250633  0.249367  1
  Th  Th3  1  0.244753  0.753522  0.246478  1
  Cu  Cu4  1  0.665183  0.665183  0.334817  1
  Si  Si5  1  0.831822  0.338039  0.168178  1
  Si  Si6  1  0.665966  0.167511  0.334034  1
  Si  Si7  1  0.167511  0.665966  0.832489  1
  Si  Si8  1  0.338039  0.831822  0.661961  1
  Si  Si9  1  0.167643  0.167643  0.832357  1
  Si  Si10  1  0.829863  0.829863  0.170137  1
  Rh  Rh11  1  0.334429  0.334429  0.665571  1
