# generated using pymatgen
data_Nd5Eu3(CdIr)2
_symmetry_space_group_name_H-M   'P 1'
_cell_length_a   9.99798475
_cell_length_b   9.99798491
_cell_length_c   9.99798500
_cell_angle_alpha   60.00000301
_cell_angle_beta   60.00000249
_cell_angle_gamma   60.00000600
_symmetry_Int_Tables_number   1
_chemical_formula_structural   Nd5Eu3(CdIr)2
_chemical_formula_sum   'Nd10 Eu6 Cd4 Ir4'
_cell_volume   706.67945887
_cell_formula_units_Z   2
loop_
 _symmetry_equiv_pos_site_id
 _symmetry_equiv_pos_as_xyz
  1  'x, y, z'
loop_
 _atom_site_type_symbol
 _atom_site_label
 _atom_site_symmetry_multiplicity
 _atom_site_fract_x
 _atom_site_fract_y
 _atom_site_fract_z
 _atom_site_occupancy
  Nd  Nd0  1  0.346609  0.346609  0.346609  1
  Nd  Nd1  1  0.346609  0.346609  0.960172  1
  Nd  Nd2  1  0.346609  0.960172  0.346609  1
  Nd  Nd3  1  0.960172  0.346609  0.346609  1
  Nd  Nd4  1  0.809034  0.190966  0.190966  1
  Nd  Nd5  1  0.190966  0.809034  0.809034  1
  Nd  Nd6  1  0.190966  0.809034  0.190966  1
  Nd  Nd7  1  0.809034  0.190966  0.809034  1
  Nd  Nd8  1  0.190966  0.190966  0.809034  1
  Nd  Nd9  1  0.809034  0.809034  0.190966  1
  Eu  Eu10  1  0.940751  0.559249  0.559249  1
  Eu  Eu11  1  0.559249  0.940751  0.940751  1
  Eu  Eu12  1  0.559249  0.940751  0.559249  1
  Eu  Eu13  1  0.940751  0.559249  0.940751  1
  Eu  Eu14  1  0.559249  0.559249  0.940751  1
  Eu  Eu15  1  0.940751  0.940751  0.559249  1
  Cd  Cd16  1  0.577666  0.577666  0.577666  1
  Cd  Cd17  1  0.577666  0.577666  0.267000  1
  Cd  Cd18  1  0.577666  0.267000  0.577666  1
  Cd  Cd19  1  0.267000  0.577666  0.577666  1
  Ir  Ir20  1  0.140558  0.140558  0.140558  1
  Ir  Ir21  1  0.140558  0.140558  0.578328  1
  Ir  Ir22  1  0.140558  0.578328  0.140558  1
  Ir  Ir23  1  0.578328  0.140558  0.140558  1
