# generated using pymatgen
data_Li3Zn(SiPt3)2
_symmetry_space_group_name_H-M   'P 1'
_cell_length_a   4.01931900
_cell_length_b   6.56781500
_cell_length_c   12.04367000
_cell_angle_alpha   90.00000000
_cell_angle_beta   90.00002851
_cell_angle_gamma   90.00000000
_symmetry_Int_Tables_number   1
_chemical_formula_structural   Li3Zn(SiPt3)2
_chemical_formula_sum   'Li6 Zn2 Si4 Pt12'
_cell_volume   317.93053035
_cell_formula_units_Z   2
loop_
 _symmetry_equiv_pos_site_id
 _symmetry_equiv_pos_as_xyz
  1  'x, y, z'
loop_
 _atom_site_type_symbol
 _atom_site_label
 _atom_site_symmetry_multiplicity
 _atom_site_fract_x
 _atom_site_fract_y
 _atom_site_fract_z
 _atom_site_occupancy
  Li  Li0  1  0.000002  0.500001  0.006534  1
  Li  Li1  1  0.499998  0.000000  0.160125  1
  Li  Li2  1  0.000008  0.500001  0.330351  1
  Li  Li3  1  0.500001  0.000000  0.504220  1
  Li  Li4  1  0.000002  0.500001  0.662449  1
  Li  Li5  1  0.499986  0.000000  0.836322  1
  Zn  Zn6  1  0.000000  0.000000  0.995658  1
  Zn  Zn7  1  0.500000  0.500001  0.171017  1
  Si  Si8  1  0.000000  0.000000  0.330408  1
  Si  Si9  1  0.500001  0.500001  0.495896  1
  Si  Si10  1  0.000000  0.000000  0.670763  1
  Si  Si11  1  0.500001  0.500001  0.836263  1
  Pt  Pt12  1  0.500003  0.261190  0.996241  1
  Pt  Pt13  1  0.500003  0.738810  0.996241  1
  Pt  Pt14  1  0.999997  0.238818  0.170427  1
  Pt  Pt15  1  0.999997  0.761182  0.170427  1
  Pt  Pt16  1  0.500000  0.237090  0.339747  1
  Pt  Pt17  1  0.500000  0.762910  0.339747  1
  Pt  Pt18  1  0.000001  0.249203  0.501822  1
  Pt  Pt19  1  0.000001  0.750797  0.501822  1
  Pt  Pt20  1  0.500000  0.250805  0.664843  1
  Pt  Pt21  1  0.500000  0.749195  0.664843  1
  Pt  Pt22  1  0.000000  0.262909  0.826919  1
  Pt  Pt23  1  0.000000  0.737091  0.826919  1
