# generated using pymatgen
data_Hf4Al18OsRh5
_symmetry_space_group_name_H-M   'P 1'
_cell_length_a   7.44453865
_cell_length_b   7.44453906
_cell_length_c   9.23356155
_cell_angle_alpha   89.91280420
_cell_angle_beta   89.91280838
_cell_angle_gamma   119.62263587
_symmetry_Int_Tables_number   1
_chemical_formula_structural   Hf4Al18OsRh5
_chemical_formula_sum   'Hf4 Al18 Os1 Rh5'
_cell_volume   444.84877731
_cell_formula_units_Z   1
loop_
 _symmetry_equiv_pos_site_id
 _symmetry_equiv_pos_as_xyz
  1  'x, y, z'
loop_
 _atom_site_type_symbol
 _atom_site_label
 _atom_site_symmetry_multiplicity
 _atom_site_fract_x
 _atom_site_fract_y
 _atom_site_fract_z
 _atom_site_occupancy
  Hf  Hf0  1  0.993326  0.673637  0.248817  1
  Hf  Hf1  1  0.006674  0.326363  0.751183  1
  Hf  Hf2  1  0.673637  0.993326  0.248817  1
  Hf  Hf3  1  0.326363  0.006674  0.751183  1
  Al  Al4  1  0.125481  0.125481  0.250444  1
  Al  Al5  1  0.874519  0.874519  0.749556  1
  Al  Al6  1  0.997369  0.333998  0.076762  1
  Al  Al7  1  0.002631  0.666002  0.923238  1
  Al  Al8  1  0.002970  0.664195  0.578128  1
  Al  Al9  1  0.335805  0.997030  0.421872  1
  Al  Al10  1  0.997030  0.335805  0.421872  1
  Al  Al11  1  0.664195  0.002970  0.578128  1
  Al  Al12  1  0.666002  0.002631  0.923238  1
  Al  Al13  1  0.333998  0.997369  0.076762  1
  Al  Al14  1  0.331281  0.331281  0.559729  1
  Al  Al15  1  0.668719  0.668719  0.440271  1
  Al  Al16  1  0.668450  0.668450  0.058100  1
  Al  Al17  1  0.331550  0.331550  0.941900  1
  Al  Al18  1  0.339282  0.555700  0.250028  1
  Al  Al19  1  0.660718  0.444300  0.749972  1
  Al  Al20  1  0.555700  0.339282  0.250028  1
  Al  Al21  1  0.444300  0.660718  0.749972  1
  Os  Os22  1  0.000000  0.000000  0.000000  1
  Rh  Rh23  1  0.672983  0.327017  0.000000  1
  Rh  Rh24  1  0.327017  0.672983  0.000000  1
  Rh  Rh25  1  0.326898  0.673102  0.500000  1
  Rh  Rh26  1  0.673102  0.326898  0.500000  1
  Rh  Rh27  1  0.000000  0.000000  0.500000  1
