# generated using pymatgen
data_LiCaLa3Tc3(P3Ir4)4
_symmetry_space_group_name_H-M   'P 1'
_cell_length_a   12.65135600
_cell_length_b   12.65135814
_cell_length_c   4.04645100
_cell_angle_alpha   90.00000000
_cell_angle_beta   90.00000000
_cell_angle_gamma   120.00000487
_symmetry_Int_Tables_number   1
_chemical_formula_structural   LiCaLa3Tc3(P3Ir4)4
_chemical_formula_sum   'Li1 Ca1 La3 Tc3 P12 Ir16'
_cell_volume   560.89184112
_cell_formula_units_Z   1
loop_
 _symmetry_equiv_pos_site_id
 _symmetry_equiv_pos_as_xyz
  1  'x, y, z'
loop_
 _atom_site_type_symbol
 _atom_site_label
 _atom_site_symmetry_multiplicity
 _atom_site_fract_x
 _atom_site_fract_y
 _atom_site_fract_z
 _atom_site_occupancy
  Li  Li0  1  0.666667  0.333333  0.000000  1
  Ca  Ca1  1  0.333333  0.666667  0.000000  1
  La  La2  1  0.000391  0.817998  0.500000  1
  La  La3  1  0.182002  0.182392  0.500000  1
  La  La4  1  0.817608  0.999609  0.500000  1
  Tc  Tc5  1  0.998211  0.297069  0.500000  1
  Tc  Tc6  1  0.702931  0.701142  0.500000  1
  Tc  Tc7  1  0.298858  0.001789  0.500000  1
  P  P8  1  0.998705  0.187095  0.000000  1
  P  P9  1  0.812905  0.811610  0.000000  1
  P  P10  1  0.188390  0.001295  0.000000  1
  P  P11  1  0.516520  0.692660  0.500000  1
  P  P12  1  0.307340  0.823859  0.500000  1
  P  P13  1  0.176141  0.483480  0.500000  1
  P  P14  1  0.488233  0.179708  0.500000  1
  P  P15  1  0.691474  0.511767  0.500000  1
  P  P16  1  0.820292  0.308526  0.500000  1
  P  P17  1  0.999337  0.634520  0.000000  1
  P  P18  1  0.365480  0.364817  0.000000  1
  P  P19  1  0.635183  0.000663  0.000000  1
  Ir  Ir20  1  0.619721  0.802795  0.000000  1
  Ir  Ir21  1  0.197205  0.816926  0.000000  1
  Ir  Ir22  1  0.183074  0.380279  0.000000  1
  Ir  Ir23  1  0.382562  0.184421  0.000000  1
  Ir  Ir24  1  0.801857  0.617438  0.000000  1
  Ir  Ir25  1  0.815579  0.198143  0.000000  1
  Ir  Ir26  1  0.507267  0.871929  0.500000  1
  Ir  Ir27  1  0.128071  0.635339  0.500000  1
  Ir  Ir28  1  0.364661  0.492733  0.500000  1
  Ir  Ir29  1  0.493739  0.363849  0.500000  1
  Ir  Ir30  1  0.870112  0.506261  0.500000  1
  Ir  Ir31  1  0.636151  0.129888  0.500000  1
  Ir  Ir32  1  0.000000  0.000000  0.000000  1
  Ir  Ir33  1  0.999876  0.454832  0.000000  1
  Ir  Ir34  1  0.545168  0.545044  0.000000  1
  Ir  Ir35  1  0.454956  0.000124  0.000000  1
