# generated using pymatgen
data_LaPr3Au8
_symmetry_space_group_name_H-M   'P 1'
_cell_length_a   4.79446300
_cell_length_b   4.79446346
_cell_length_c   14.81789800
_cell_angle_alpha   90.00000000
_cell_angle_beta   90.00000000
_cell_angle_gamma   120.00000371
_symmetry_Int_Tables_number   1
_chemical_formula_structural   LaPr3Au8
_chemical_formula_sum   'La1 Pr3 Au8'
_cell_volume   294.98314465
_cell_formula_units_Z   1
loop_
 _symmetry_equiv_pos_site_id
 _symmetry_equiv_pos_as_xyz
  1  'x, y, z'
loop_
 _atom_site_type_symbol
 _atom_site_label
 _atom_site_symmetry_multiplicity
 _atom_site_fract_x
 _atom_site_fract_y
 _atom_site_fract_z
 _atom_site_occupancy
  La  La0  1  0.000000  0.000000  0.750000  1
  Pr  Pr1  1  0.000000  0.000000  0.500591  1
  Pr  Pr2  1  0.000000  0.000000  0.999409  1
  Pr  Pr3  1  0.000000  0.000000  0.250000  1
  Au  Au4  1  0.333333  0.666667  0.377628  1
  Au  Au5  1  0.666667  0.333333  0.624986  1
  Au  Au6  1  0.666667  0.333333  0.875014  1
  Au  Au7  1  0.333333  0.666667  0.122372  1
  Au  Au8  1  0.666667  0.333333  0.374464  1
  Au  Au9  1  0.333333  0.666667  0.626222  1
  Au  Au10  1  0.333333  0.666667  0.873778  1
  Au  Au11  1  0.666667  0.333333  0.125536  1
