# generated using pymatgen
data_Sm2Ho2BeCo3I2
_symmetry_space_group_name_H-M   'P 1'
_cell_length_a   3.95760600
_cell_length_b   3.95760608
_cell_length_c   17.19145000
_cell_angle_alpha   90.00000000
_cell_angle_beta   90.00000000
_cell_angle_gamma   119.99998264
_symmetry_Int_Tables_number   1
_chemical_formula_structural   Sm2Ho2BeCo3I2
_chemical_formula_sum   'Sm2 Ho2 Be1 Co3 I2'
_cell_volume   233.18914824
_cell_formula_units_Z   1
loop_
 _symmetry_equiv_pos_site_id
 _symmetry_equiv_pos_as_xyz
  1  'x, y, z'
loop_
 _atom_site_type_symbol
 _atom_site_label
 _atom_site_symmetry_multiplicity
 _atom_site_fract_x
 _atom_site_fract_y
 _atom_site_fract_z
 _atom_site_occupancy
  Sm  Sm0  1  0.000000  0.000000  0.604399  1
  Sm  Sm1  1  0.000000  0.000000  0.396500  1
  Ho  Ho2  1  0.000000  0.000000  0.100922  1
  Ho  Ho3  1  0.000000  0.000000  0.898406  1
  Be  Be4  1  0.333333  0.666667  0.500500  1
  Co  Co5  1  0.666667  0.333333  0.499295  1
  Co  Co6  1  0.666667  0.333333  0.001837  1
  Co  Co7  1  0.333333  0.666667  0.998040  1
  I  I8  1  0.333333  0.666667  0.244529  1
  I  I9  1  0.666667  0.333333  0.755573  1
