# generated using pymatgen
data_Y20Bi12Se
_symmetry_space_group_name_H-M   'P 1'
_cell_length_a   15.94575500
_cell_length_b   6.44688703
_cell_length_c   9.25342600
_cell_angle_alpha   90.00594564
_cell_angle_beta   90.00000000
_cell_angle_gamma   90.00000000
_symmetry_Int_Tables_number   1
_chemical_formula_structural   Y20Bi12Se
_chemical_formula_sum   'Y20 Bi12 Se1'
_cell_volume   951.25664013
_cell_formula_units_Z   1
loop_
 _symmetry_equiv_pos_site_id
 _symmetry_equiv_pos_as_xyz
  1  'x, y, z'
loop_
 _atom_site_type_symbol
 _atom_site_label
 _atom_site_symmetry_multiplicity
 _atom_site_fract_x
 _atom_site_fract_y
 _atom_site_fract_z
 _atom_site_occupancy
  Y  Y0  1  0.667002  0.500000  0.500000  1
  Y  Y1  1  0.165537  0.500000  0.000000  1
  Y  Y2  1  0.834463  0.500000  0.000000  1
  Y  Y3  1  0.332998  0.500000  0.500000  1
  Y  Y4  1  0.832424  0.000000  0.000000  1
  Y  Y5  1  0.334526  0.000000  0.500000  1
  Y  Y6  1  0.665474  0.000000  0.500000  1
  Y  Y7  1  0.167576  0.000000  0.000000  1
  Y  Y8  1  0.500000  0.249434  0.753213  1
  Y  Y9  1  0.000000  0.241789  0.246219  1
  Y  Y10  1  0.621341  0.249764  0.119759  1
  Y  Y11  1  0.126717  0.241404  0.625226  1
  Y  Y12  1  0.873283  0.241404  0.625226  1
  Y  Y13  1  0.378659  0.249764  0.119759  1
  Y  Y14  1  0.000000  0.758211  0.753781  1
  Y  Y15  1  0.500000  0.750566  0.246787  1
  Y  Y16  1  0.873283  0.758596  0.374774  1
  Y  Y17  1  0.378659  0.750236  0.880241  1
  Y  Y18  1  0.621341  0.750236  0.880241  1
  Y  Y19  1  0.126717  0.758596  0.374774  1
  Bi  Bi20  1  0.000000  0.248539  0.887009  1
  Bi  Bi21  1  0.500000  0.250228  0.385443  1
  Bi  Bi22  1  0.803441  0.248071  0.303938  1
  Bi  Bi23  1  0.306057  0.251592  0.806162  1
  Bi  Bi24  1  0.693943  0.251592  0.806162  1
  Bi  Bi25  1  0.196559  0.248071  0.303938  1
  Bi  Bi26  1  0.500000  0.749772  0.614557  1
  Bi  Bi27  1  0.000000  0.751461  0.112991  1
  Bi  Bi28  1  0.693943  0.748408  0.193838  1
  Bi  Bi29  1  0.196559  0.751929  0.696062  1
  Bi  Bi30  1  0.803441  0.751929  0.696062  1
  Bi  Bi31  1  0.306057  0.748408  0.193838  1
  Se  Se32  1  0.000000  0.500000  0.500000  1
