# generated using pymatgen
data_LiAl2VRh4
_symmetry_space_group_name_H-M   'P 1'
_cell_length_a   7.33309581
_cell_length_b   7.33309616
_cell_length_c   7.33309647
_cell_angle_alpha   131.96956486
_cell_angle_beta   131.96956435
_cell_angle_gamma   70.27710313
_symmetry_Int_Tables_number   1
_chemical_formula_structural   LiAl2VRh4
_chemical_formula_sum   'Li2 Al4 V2 Rh8'
_cell_volume   213.64560398
_cell_formula_units_Z   2
loop_
 _symmetry_equiv_pos_site_id
 _symmetry_equiv_pos_as_xyz
  1  'x, y, z'
loop_
 _atom_site_type_symbol
 _atom_site_label
 _atom_site_symmetry_multiplicity
 _atom_site_fract_x
 _atom_site_fract_y
 _atom_site_fract_z
 _atom_site_occupancy
  Li  Li0  1  0.250000  0.250000  0.000000  1
  Li  Li1  1  0.499999  0.000000  0.499999  1
  Al  Al2  1  0.501429  0.501429  0.000000  1
  Al  Al3  1  0.998571  0.998571  0.000000  1
  Al  Al4  1  0.751429  0.251429  0.499999  1
  Al  Al5  1  0.248571  0.748571  0.499999  1
  V  V6  1  0.750000  0.750000  0.000000  1
  V  V7  1  0.000000  0.499999  0.499999  1
  Rh  Rh8  1  0.875000  0.376678  0.001678  1
  Rh  Rh9  1  0.626679  0.124999  0.001678  1
  Rh  Rh10  1  0.123322  0.125000  0.498323  1
  Rh  Rh11  1  0.875000  0.873322  0.498323  1
  Rh  Rh12  1  0.375001  0.376680  0.501680  1
  Rh  Rh13  1  0.626679  0.625000  0.501680  1
  Rh  Rh14  1  0.375000  0.873321  0.998322  1
  Rh  Rh15  1  0.123322  0.625000  0.998322  1
