# generated using pymatgen
data_Dy4Y6SnBi5
_symmetry_space_group_name_H-M   'P 1'
_cell_length_a   9.14906200
_cell_length_b   9.15635257
_cell_length_c   6.42807400
_cell_angle_alpha   90.00000000
_cell_angle_beta   90.00000000
_cell_angle_gamma   119.97365716
_symmetry_Int_Tables_number   1
_chemical_formula_structural   Dy4Y6SnBi5
_chemical_formula_sum   'Dy4 Y6 Sn1 Bi5'
_cell_volume   466.47223446
_cell_formula_units_Z   1
loop_
 _symmetry_equiv_pos_site_id
 _symmetry_equiv_pos_as_xyz
  1  'x, y, z'
loop_
 _atom_site_type_symbol
 _atom_site_label
 _atom_site_symmetry_multiplicity
 _atom_site_fract_x
 _atom_site_fract_y
 _atom_site_fract_z
 _atom_site_occupancy
  Dy  Dy0  1  0.336454  0.670541  0.498502  1
  Dy  Dy1  1  0.665914  0.329459  0.001498  1
  Dy  Dy2  1  0.665914  0.329459  0.498502  1
  Dy  Dy3  1  0.336454  0.670541  0.001498  1
  Y  Y4  1  0.001079  0.757653  0.750000  1
  Y  Y5  1  0.994287  0.238693  0.250000  1
  Y  Y6  1  0.755594  0.761307  0.250000  1
  Y  Y7  1  0.756392  0.000000  0.750000  1
  Y  Y8  1  0.243426  0.242347  0.750000  1
  Y  Y9  1  0.246604  0.000000  0.250000  1
  Sn  Sn10  1  0.607670  0.000000  0.250000  1
  Bi  Bi11  1  0.390569  0.000000  0.750000  1
  Bi  Bi12  1  0.387729  0.388918  0.250000  1
  Bi  Bi13  1  0.998811  0.611082  0.250000  1
  Bi  Bi14  1  0.001708  0.390313  0.750000  1
  Bi  Bi15  1  0.611395  0.609687  0.750000  1
