# generated using pymatgen
data_Rb8TiGeS8
_symmetry_space_group_name_H-M   'P 1'
_cell_length_a   8.28223080
_cell_length_b   9.86642900
_cell_length_c   14.49489500
_cell_angle_alpha   90.00000000
_cell_angle_beta   89.85699269
_cell_angle_gamma   90.00000000
_symmetry_Int_Tables_number   1
_chemical_formula_structural   Rb8TiGeS8
_chemical_formula_sum   'Rb16 Ti2 Ge2 S16'
_cell_volume   1184.46176105
_cell_formula_units_Z   2
loop_
 _symmetry_equiv_pos_site_id
 _symmetry_equiv_pos_as_xyz
  1  'x, y, z'
loop_
 _atom_site_type_symbol
 _atom_site_label
 _atom_site_symmetry_multiplicity
 _atom_site_fract_x
 _atom_site_fract_y
 _atom_site_fract_z
 _atom_site_occupancy
  Rb  Rb0  1  0.000000  0.000000  0.000000  1
  Rb  Rb1  1  0.500000  0.000000  0.500000  1
  Rb  Rb2  1  0.000000  0.500000  0.000000  1
  Rb  Rb3  1  0.500000  0.500000  0.500000  1
  Rb  Rb4  1  0.993600  0.750000  0.420569  1
  Rb  Rb5  1  0.495528  0.250000  0.074939  1
  Rb  Rb6  1  0.006400  0.250000  0.579431  1
  Rb  Rb7  1  0.504472  0.750000  0.925061  1
  Rb  Rb8  1  0.832491  0.057816  0.280883  1
  Rb  Rb9  1  0.333128  0.947480  0.220770  1
  Rb  Rb10  1  0.167509  0.557816  0.719117  1
  Rb  Rb11  1  0.666872  0.447480  0.779230  1
  Rb  Rb12  1  0.167509  0.942184  0.719117  1
  Rb  Rb13  1  0.666872  0.052520  0.779230  1
  Rb  Rb14  1  0.832491  0.442184  0.280883  1
  Rb  Rb15  1  0.333128  0.552520  0.220770  1
  Ti  Ti16  1  0.739568  0.750000  0.165987  1
  Ti  Ti17  1  0.260432  0.250000  0.834013  1
  Ge  Ge18  1  0.764419  0.750000  0.663823  1
  Ge  Ge19  1  0.235581  0.250000  0.336177  1
  S  S20  1  0.984377  0.250000  0.826553  1
  S  S21  1  0.508647  0.250000  0.326629  1
  S  S22  1  0.491353  0.750000  0.673371  1
  S  S23  1  0.015623  0.750000  0.173447  1
  S  S24  1  0.655812  0.561068  0.091470  1
  S  S25  1  0.151290  0.435711  0.410451  1
  S  S26  1  0.344188  0.061068  0.908530  1
  S  S27  1  0.848710  0.935711  0.589549  1
  S  S28  1  0.344188  0.438932  0.908530  1
  S  S29  1  0.848710  0.564289  0.589549  1
  S  S30  1  0.655812  0.938932  0.091470  1
  S  S31  1  0.151290  0.064289  0.410451  1
  S  S32  1  0.630281  0.750000  0.311642  1
  S  S33  1  0.133356  0.250000  0.190346  1
  S  S34  1  0.369719  0.250000  0.688358  1
  S  S35  1  0.866644  0.750000  0.809654  1
