# generated using pymatgen
data_Ac3Nd(B2Ir5)2
_symmetry_space_group_name_H-M   'P 1'
_cell_length_a   11.26827587
_cell_length_b   11.26827597
_cell_length_c   11.26827645
_cell_angle_alpha   28.91133830
_cell_angle_beta   28.91133535
_cell_angle_gamma   28.91133843
_symmetry_Int_Tables_number   1
_chemical_formula_structural   Ac3Nd(B2Ir5)2
_chemical_formula_sum   'Ac3 Nd1 B4 Ir10'
_cell_volume   295.74916625
_cell_formula_units_Z   1
loop_
 _symmetry_equiv_pos_site_id
 _symmetry_equiv_pos_as_xyz
  1  'x, y, z'
loop_
 _atom_site_type_symbol
 _atom_site_label
 _atom_site_symmetry_multiplicity
 _atom_site_fract_x
 _atom_site_fract_y
 _atom_site_fract_z
 _atom_site_occupancy
  Ac  Ac0  1  0.150578  0.150578  0.150578  1
  Ac  Ac1  1  0.950994  0.950994  0.950994  1
  Ac  Ac2  1  0.848246  0.848246  0.848246  1
  Nd  Nd3  1  0.049636  0.049636  0.049636  1
  B  B4  1  0.618824  0.618824  0.618824  1
  B  B5  1  0.716514  0.716514  0.716514  1
  B  B6  1  0.381232  0.381232  0.381232  1
  B  B7  1  0.283857  0.283857  0.283857  1
  Ir  Ir8  1  0.410632  0.898227  0.410632  1
  Ir  Ir9  1  0.898227  0.410632  0.410632  1
  Ir  Ir10  1  0.500915  0.500915  0.000342  1
  Ir  Ir11  1  0.500915  0.000342  0.500915  1
  Ir  Ir12  1  0.000342  0.500915  0.500915  1
  Ir  Ir13  1  0.499725  0.499725  0.499725  1
  Ir  Ir14  1  0.588519  0.101693  0.588519  1
  Ir  Ir15  1  0.588519  0.588519  0.101693  1
  Ir  Ir16  1  0.101693  0.588519  0.588519  1
  Ir  Ir17  1  0.410632  0.410632  0.898227  1
