# generated using pymatgen
data_Hf2Zr6Pd3PtN2
_symmetry_space_group_name_H-M   'P 1'
_cell_length_a   8.85370207
_cell_length_b   8.85370209
_cell_length_c   8.86482700
_cell_angle_alpha   59.95842947
_cell_angle_beta   59.95842938
_cell_angle_gamma   59.92419437
_symmetry_Int_Tables_number   1
_chemical_formula_structural   Hf2Zr6Pd3PtN2
_chemical_formula_sum   'Hf4 Zr12 Pd6 Pt2 N4'
_cell_volume   490.77540721
_cell_formula_units_Z   2
loop_
 _symmetry_equiv_pos_site_id
 _symmetry_equiv_pos_as_xyz
  1  'x, y, z'
loop_
 _atom_site_type_symbol
 _atom_site_label
 _atom_site_symmetry_multiplicity
 _atom_site_fract_x
 _atom_site_fract_y
 _atom_site_fract_z
 _atom_site_occupancy
  Hf  Hf0  1  0.125488  0.624627  0.624942  1
  Hf  Hf1  1  0.624627  0.125488  0.624942  1
  Hf  Hf2  1  0.624449  0.624449  0.126363  1
  Hf  Hf3  1  0.624449  0.624449  0.624738  1
  Zr  Zr4  1  0.817779  0.817779  0.182221  1
  Zr  Zr5  1  0.180145  0.180145  0.819855  1
  Zr  Zr6  1  0.818764  0.180675  0.818986  1
  Zr  Zr7  1  0.180675  0.818764  0.181575  1
  Zr  Zr8  1  0.180675  0.818764  0.818986  1
  Zr  Zr9  1  0.818764  0.180675  0.181575  1
  Zr  Zr10  1  0.430682  0.430682  0.069318  1
  Zr  Zr11  1  0.067945  0.067945  0.432055  1
  Zr  Zr12  1  0.431414  0.068179  0.431512  1
  Zr  Zr13  1  0.068179  0.431414  0.068895  1
  Zr  Zr14  1  0.068179  0.431414  0.431512  1
  Zr  Zr15  1  0.431414  0.068179  0.068895  1
  Pd  Pd16  1  0.411608  0.411608  0.764529  1
  Pd  Pd17  1  0.411608  0.411608  0.412256  1
  Pd  Pd18  1  0.484810  0.838578  0.838305  1
  Pd  Pd19  1  0.838578  0.484810  0.838305  1
  Pd  Pd20  1  0.838243  0.838243  0.485583  1
  Pd  Pd21  1  0.838243  0.838243  0.837929  1
  Pt  Pt22  1  0.773825  0.408206  0.408985  1
  Pt  Pt23  1  0.408206  0.773825  0.408985  1
  N  N24  1  0.626077  0.124829  0.124547  1
  N  N25  1  0.124829  0.626077  0.124547  1
  N  N26  1  0.125171  0.125171  0.624880  1
  N  N27  1  0.125171  0.125171  0.124779  1
