# generated using pymatgen
data_DyTm7(TcB6)4
_symmetry_space_group_name_H-M   'P 1'
_cell_length_a   3.65118900
_cell_length_b   9.10386101
_cell_length_c   11.46881801
_cell_angle_alpha   89.99566684
_cell_angle_beta   90.00000000
_cell_angle_gamma   90.00000000
_symmetry_Int_Tables_number   1
_chemical_formula_structural   DyTm7(TcB6)4
_chemical_formula_sum   'Dy1 Tm7 Tc4 B24'
_cell_volume   381.22255948
_cell_formula_units_Z   1
loop_
 _symmetry_equiv_pos_site_id
 _symmetry_equiv_pos_as_xyz
  1  'x, y, z'
loop_
 _atom_site_type_symbol
 _atom_site_label
 _atom_site_symmetry_multiplicity
 _atom_site_fract_x
 _atom_site_fract_y
 _atom_site_fract_z
 _atom_site_occupancy
  Dy  Dy0  1  0.000000  0.323460  0.414266  1
  Tm  Tm1  1  0.000000  0.676331  0.585794  1
  Tm  Tm2  1  0.000000  0.823723  0.085556  1
  Tm  Tm3  1  0.000000  0.176227  0.914325  1
  Tm  Tm4  1  0.000000  0.942816  0.369393  1
  Tm  Tm5  1  0.000000  0.056912  0.630755  1
  Tm  Tm6  1  0.000000  0.443006  0.130252  1
  Tm  Tm7  1  0.000000  0.557201  0.869696  1
  Tc  Tc8  1  0.000000  0.639579  0.320127  1
  Tc  Tc9  1  0.000000  0.360911  0.680171  1
  Tc  Tc10  1  0.000000  0.138728  0.179075  1
  Tc  Tc11  1  0.000000  0.860920  0.820452  1
  B  B12  1  0.500000  0.553991  0.433349  1
  B  B13  1  0.500000  0.446963  0.567269  1
  B  B14  1  0.500000  0.053138  0.066407  1
  B  B15  1  0.500000  0.946605  0.933365  1
  B  B16  1  0.500000  0.750122  0.419182  1
  B  B17  1  0.500000  0.250064  0.581806  1
  B  B18  1  0.500000  0.249755  0.080554  1
  B  B19  1  0.500000  0.750248  0.919128  1
  B  B20  1  0.500000  0.792824  0.264645  1
  B  B21  1  0.500000  0.207245  0.735643  1
  B  B22  1  0.500000  0.292362  0.234516  1
  B  B23  1  0.500000  0.707370  0.764878  1
  B  B24  1  0.500000  0.631052  0.184463  1
  B  B25  1  0.500000  0.369364  0.815490  1
  B  B26  1  0.500000  0.130173  0.314685  1
  B  B27  1  0.500000  0.869171  0.684817  1
  B  B28  1  0.500000  0.981170  0.211392  1
  B  B29  1  0.500000  0.018464  0.788495  1
  B  B30  1  0.500000  0.482155  0.287881  1
  B  B31  1  0.500000  0.518768  0.711984  1
  B  B32  1  0.500000  0.599818  0.027670  1
  B  B33  1  0.500000  0.400391  0.972204  1
  B  B34  1  0.500000  0.098581  0.472551  1
  B  B35  1  0.500000  0.900392  0.527765  1
