# generated using pymatgen
data_Er7Tm(Ga3Pt)4
_symmetry_space_group_name_H-M   'P 1'
_cell_length_a   8.80863900
_cell_length_b   8.82281805
_cell_length_c   7.05250200
_cell_angle_alpha   90.00000000
_cell_angle_beta   90.00000000
_cell_angle_gamma   120.05339726
_symmetry_Int_Tables_number   1
_chemical_formula_structural   Er7Tm(Ga3Pt)4
_chemical_formula_sum   'Er7 Tm1 Ga12 Pt4'
_cell_volume   474.41242401
_cell_formula_units_Z   1
loop_
 _symmetry_equiv_pos_site_id
 _symmetry_equiv_pos_as_xyz
  1  'x, y, z'
loop_
 _atom_site_type_symbol
 _atom_site_label
 _atom_site_symmetry_multiplicity
 _atom_site_fract_x
 _atom_site_fract_y
 _atom_site_fract_z
 _atom_site_occupancy
  Er  Er0  1  0.000187  0.000030  0.250000  1
  Er  Er1  1  0.999812  0.999969  0.750000  1
  Er  Er2  1  0.519778  0.039479  0.250000  1
  Er  Er3  1  0.519745  0.480416  0.250000  1
  Er  Er4  1  0.961246  0.480660  0.250000  1
  Er  Er5  1  0.480184  0.960553  0.750000  1
  Er  Er6  1  0.480272  0.519522  0.750000  1
  Tm  Tm7  1  0.039195  0.519577  0.750000  1
  Ga  Ga8  1  0.166711  0.333548  0.045821  1
  Ga  Ga9  1  0.166793  0.833118  0.454234  1
  Ga  Ga10  1  0.665641  0.832833  0.453546  1
  Ga  Ga11  1  0.665641  0.832833  0.046454  1
  Ga  Ga12  1  0.166793  0.833118  0.045766  1
  Ga  Ga13  1  0.833341  0.666233  0.953552  1
  Ga  Ga14  1  0.833309  0.167156  0.953530  1
  Ga  Ga15  1  0.334128  0.167069  0.953564  1
  Ga  Ga16  1  0.166711  0.333548  0.454179  1
  Ga  Ga17  1  0.334128  0.167069  0.546436  1
  Ga  Ga18  1  0.833341  0.666233  0.546448  1
  Ga  Ga19  1  0.833309  0.167156  0.546470  1
  Pt  Pt20  1  0.332554  0.666241  0.028383  1
  Pt  Pt21  1  0.332554  0.666241  0.471617  1
  Pt  Pt22  1  0.667312  0.333700  0.970470  1
  Pt  Pt23  1  0.667312  0.333700  0.529530  1
