# generated using pymatgen
data_Tm8Ti7Ge16Mo5
_symmetry_space_group_name_H-M   'P 1'
_cell_length_a   6.88584253
_cell_length_b   7.05274066
_cell_length_c   13.31626513
_cell_angle_alpha   90.04305426
_cell_angle_beta   89.95956595
_cell_angle_gamma   89.95768740
_symmetry_Int_Tables_number   1
_chemical_formula_structural   Tm8Ti7Ge16Mo5
_chemical_formula_sum   'Tm8 Ti7 Ge16 Mo5'
_cell_volume   646.69140016
_cell_formula_units_Z   1
loop_
 _symmetry_equiv_pos_site_id
 _symmetry_equiv_pos_as_xyz
  1  'x, y, z'
loop_
 _atom_site_type_symbol
 _atom_site_label
 _atom_site_symmetry_multiplicity
 _atom_site_fract_x
 _atom_site_fract_y
 _atom_site_fract_z
 _atom_site_occupancy
  Tm  Tm0  1  0.497935  0.326451  0.095767  1
  Tm  Tm1  1  0.996829  0.174092  0.404202  1
  Tm  Tm2  1  0.502729  0.675569  0.595211  1
  Tm  Tm3  1  0.002214  0.826578  0.904730  1
  Tm  Tm4  1  0.501638  0.672826  0.903523  1
  Tm  Tm5  1  0.004908  0.829161  0.595095  1
  Tm  Tm6  1  0.496975  0.325103  0.406414  1
  Tm  Tm7  1  0.997634  0.174280  0.096299  1
  Ti  Ti8  1  0.838768  0.330790  0.626971  1
  Ti  Ti9  1  0.333208  0.168693  0.872070  1
  Ti  Ti10  1  0.165127  0.668081  0.127107  1
  Ti  Ti11  1  0.664798  0.832621  0.373163  1
  Ti  Ti12  1  0.164715  0.668445  0.373976  1
  Ti  Ti13  1  0.665249  0.832228  0.127282  1
  Ti  Ti14  1  0.834317  0.330515  0.871514  1
  Ge  Ge15  1  0.670017  0.041037  0.543824  1
  Ge  Ge16  1  0.171528  0.457546  0.956361  1
  Ge  Ge17  1  0.328102  0.958262  0.043497  1
  Ge  Ge18  1  0.827415  0.541164  0.456718  1
  Ge  Ge19  1  0.326116  0.957007  0.457010  1
  Ge  Ge20  1  0.828859  0.541802  0.044051  1
  Ge  Ge21  1  0.670569  0.041279  0.956305  1
  Ge  Ge22  1  0.173610  0.458889  0.543335  1
  Ge  Ge23  1  0.532887  0.373465  0.748898  1
  Ge  Ge24  1  0.033935  0.124479  0.750714  1
  Ge  Ge25  1  0.466373  0.626516  0.250426  1
  Ge  Ge26  1  0.966774  0.873894  0.250264  1
  Ge  Ge27  1  0.804252  0.637345  0.749002  1
  Ge  Ge28  1  0.305253  0.862630  0.750469  1
  Ge  Ge29  1  0.197530  0.362824  0.250558  1
  Ge  Ge30  1  0.696031  0.137546  0.250194  1
  Mo  Mo31  1  0.333022  0.166858  0.626660  1
  Mo  Mo32  1  0.663589  0.011953  0.749087  1
  Mo  Mo33  1  0.162334  0.487734  0.748804  1
  Mo  Mo34  1  0.336753  0.991060  0.250241  1
  Mo  Mo35  1  0.838005  0.511278  0.250256  1
