# generated using pymatgen
data_Dy2(ZrSn)3
_symmetry_space_group_name_H-M   'P 1'
_cell_length_a   8.71145718
_cell_length_b   8.81947974
_cell_length_c   6.01228000
_cell_angle_alpha   90.00000000
_cell_angle_beta   90.00000000
_cell_angle_gamma   120.41103698
_symmetry_Int_Tables_number   1
_chemical_formula_structural   Dy2(ZrSn)3
_chemical_formula_sum   'Dy4 Zr6 Sn6'
_cell_volume   398.37297065
_cell_formula_units_Z   2
loop_
 _symmetry_equiv_pos_site_id
 _symmetry_equiv_pos_as_xyz
  1  'x, y, z'
loop_
 _atom_site_type_symbol
 _atom_site_label
 _atom_site_symmetry_multiplicity
 _atom_site_fract_x
 _atom_site_fract_y
 _atom_site_fract_z
 _atom_site_occupancy
  Dy  Dy0  1  0.761767  0.760981  0.250000  1
  Dy  Dy1  1  0.761767  0.000786  0.750000  1
  Dy  Dy2  1  0.238233  0.239019  0.750000  1
  Dy  Dy3  1  0.238233  0.999214  0.250000  1
  Zr  Zr4  1  0.000000  0.744709  0.750000  1
  Zr  Zr5  1  0.000000  0.255291  0.250000  1
  Zr  Zr6  1  0.333434  0.666718  0.500000  1
  Zr  Zr7  1  0.666566  0.333282  0.000000  1
  Zr  Zr8  1  0.666566  0.333282  0.500000  1
  Zr  Zr9  1  0.333434  0.666718  0.000000  1
  Sn  Sn10  1  0.391964  0.995080  0.750000  1
  Sn  Sn11  1  0.391964  0.396884  0.250000  1
  Sn  Sn12  1  0.000000  0.600198  0.250000  1
  Sn  Sn13  1  0.000000  0.399802  0.750000  1
  Sn  Sn14  1  0.608036  0.603116  0.750000  1
  Sn  Sn15  1  0.608036  0.004920  0.250000  1
