# generated using pymatgen
data_Ca3Ga2Pt7
_symmetry_space_group_name_H-M   'P 1'
_cell_length_a   8.94595054
_cell_length_b   8.94595141
_cell_length_c   8.94595000
_cell_angle_alpha   36.27171385
_cell_angle_beta   36.27171707
_cell_angle_gamma   36.27171874
_symmetry_Int_Tables_number   1
_chemical_formula_structural   Ca3Ga2Pt7
_chemical_formula_sum   'Ca3 Ga2 Pt7'
_cell_volume   224.23878240
_cell_formula_units_Z   1
loop_
 _symmetry_equiv_pos_site_id
 _symmetry_equiv_pos_as_xyz
  1  'x, y, z'
loop_
 _atom_site_type_symbol
 _atom_site_label
 _atom_site_symmetry_multiplicity
 _atom_site_fract_x
 _atom_site_fract_y
 _atom_site_fract_z
 _atom_site_occupancy
  Ca  Ca0  1  0.359398  0.359398  0.359398  1
  Ca  Ca1  1  0.500000  0.500000  0.500000  1
  Ca  Ca2  1  0.640601  0.640601  0.640601  1
  Ga  Ga3  1  0.166330  0.166330  0.166330  1
  Ga  Ga4  1  0.833670  0.833670  0.833670  1
  Pt  Pt5  1  0.000000  0.000000  0.000000  1
  Pt  Pt6  1  0.576984  0.080019  0.080020  1
  Pt  Pt7  1  0.080019  0.576984  0.080020  1
  Pt  Pt8  1  0.919981  0.919981  0.423015  1
  Pt  Pt9  1  0.080019  0.080019  0.576985  1
  Pt  Pt10  1  0.919981  0.423016  0.919980  1
  Pt  Pt11  1  0.423016  0.919981  0.919980  1
