# generated using pymatgen
data_IrRh7W
_symmetry_space_group_name_H-M   'P 1'
_cell_length_a   6.12419811
_cell_length_b   6.12419651
_cell_length_c   6.11805735
_cell_angle_alpha   95.64443555
_cell_angle_beta   95.64442896
_cell_angle_gamma   143.46448954
_symmetry_Int_Tables_number   1
_chemical_formula_structural   IrRh7W
_chemical_formula_sum   'Ir1 Rh7 W1'
_cell_volume   129.70511086
_cell_formula_units_Z   1
loop_
 _symmetry_equiv_pos_site_id
 _symmetry_equiv_pos_as_xyz
  1  'x, y, z'
loop_
 _atom_site_type_symbol
 _atom_site_label
 _atom_site_symmetry_multiplicity
 _atom_site_fract_x
 _atom_site_fract_y
 _atom_site_fract_z
 _atom_site_occupancy
  Ir  Ir0  1  0.662018  0.337981  0.000000  1
  Rh  Rh1  1  0.336819  0.663180  0.000000  1
  Rh  Rh2  1  0.663059  0.663095  0.326155  1
  Rh  Rh3  1  0.330631  0.998239  0.328870  1
  Rh  Rh4  1  0.999482  0.331902  0.331384  1
  Rh  Rh5  1  0.668098  0.000518  0.668616  1
  Rh  Rh6  1  0.001761  0.669369  0.671130  1
  Rh  Rh7  1  0.336905  0.336941  0.673845  1
  W  W8  1  0.001224  0.998776  0.000000  1
