# generated using pymatgen
data_Pr6YSiBr12
_symmetry_space_group_name_H-M   'P 1'
_cell_length_a   9.58222643
_cell_length_b   9.58222520
_cell_length_c   9.58222573
_cell_angle_alpha   107.72748660
_cell_angle_beta   107.72748677
_cell_angle_gamma   107.72748272
_symmetry_Int_Tables_number   1
_chemical_formula_structural   Pr6YSiBr12
_chemical_formula_sum   'Pr6 Y1 Si1 Br12'
_cell_volume   717.69417079
_cell_formula_units_Z   1
loop_
 _symmetry_equiv_pos_site_id
 _symmetry_equiv_pos_as_xyz
  1  'x, y, z'
loop_
 _atom_site_type_symbol
 _atom_site_label
 _atom_site_symmetry_multiplicity
 _atom_site_fract_x
 _atom_site_fract_y
 _atom_site_fract_z
 _atom_site_occupancy
  Pr  Pr0  1  0.106636  0.320260  0.028824  1
  Pr  Pr1  1  0.320260  0.028825  0.106635  1
  Pr  Pr2  1  0.028825  0.106635  0.320261  1
  Pr  Pr3  1  0.971176  0.893365  0.679740  1
  Pr  Pr4  1  0.679740  0.971176  0.893365  1
  Pr  Pr5  1  0.893364  0.679740  0.971176  1
  Y  Y6  1  0.500000  0.500000  0.500000  1
  Si  Si7  1  0.000000  0.000000  0.000000  1
  Br  Br8  1  0.224191  0.686742  0.075134  1
  Br  Br9  1  0.467902  0.390544  0.175532  1
  Br  Br10  1  0.686743  0.075134  0.224191  1
  Br  Br11  1  0.924867  0.775809  0.313258  1
  Br  Br12  1  0.175532  0.467902  0.390544  1
  Br  Br13  1  0.390544  0.175532  0.467902  1
  Br  Br14  1  0.609456  0.824468  0.532099  1
  Br  Br15  1  0.824469  0.532098  0.609456  1
  Br  Br16  1  0.075134  0.224191  0.686743  1
  Br  Br17  1  0.313258  0.924867  0.775809  1
  Br  Br18  1  0.532098  0.609456  0.824469  1
  Br  Br19  1  0.775809  0.313258  0.924866  1
