# generated using pymatgen
data_YEr3Ga4(IrPt)2
_symmetry_space_group_name_H-M   'P 1'
_cell_length_a   4.41166300
_cell_length_b   6.78344494
_cell_length_c   7.69941121
_cell_angle_alpha   89.91318271
_cell_angle_beta   90.00000000
_cell_angle_gamma   90.00000000
_symmetry_Int_Tables_number   1
_chemical_formula_structural   YEr3Ga4(IrPt)2
_chemical_formula_sum   'Y1 Er3 Ga4 Ir2 Pt2'
_cell_volume   230.41441794
_cell_formula_units_Z   1
loop_
 _symmetry_equiv_pos_site_id
 _symmetry_equiv_pos_as_xyz
  1  'x, y, z'
loop_
 _atom_site_type_symbol
 _atom_site_label
 _atom_site_symmetry_multiplicity
 _atom_site_fract_x
 _atom_site_fract_y
 _atom_site_fract_z
 _atom_site_occupancy
  Y  Y0  1  0.750000  0.020762  0.690142  1
  Er  Er1  1  0.250000  0.985070  0.304202  1
  Er  Er2  1  0.250000  0.485138  0.195473  1
  Er  Er3  1  0.750000  0.521269  0.810549  1
  Ga  Ga4  1  0.250000  0.333258  0.568713  1
  Ga  Ga5  1  0.250000  0.832362  0.931603  1
  Ga  Ga6  1  0.750000  0.661691  0.425690  1
  Ga  Ga7  1  0.750000  0.162173  0.074527  1
  Ir  Ir8  1  0.750000  0.770809  0.104048  1
  Ir  Ir9  1  0.750000  0.272073  0.394356  1
  Pt  Pt10  1  0.250000  0.229151  0.896479  1
  Pt  Pt11  1  0.250000  0.726246  0.604217  1
