# generated using pymatgen
data_MgV2TeO7
_symmetry_space_group_name_H-M   'P 1'
_cell_length_a   6.71217661
_cell_length_b   6.95216661
_cell_length_c   7.86866549
_cell_angle_alpha   94.61957197
_cell_angle_beta   112.77535970
_cell_angle_gamma   114.39771754
_symmetry_Int_Tables_number   1
_chemical_formula_structural   MgV2TeO7
_chemical_formula_sum   'Mg2 V4 Te2 O14'
_cell_volume   295.41133082
_cell_formula_units_Z   2
loop_
 _symmetry_equiv_pos_site_id
 _symmetry_equiv_pos_as_xyz
  1  'x, y, z'
loop_
 _atom_site_type_symbol
 _atom_site_label
 _atom_site_symmetry_multiplicity
 _atom_site_fract_x
 _atom_site_fract_y
 _atom_site_fract_z
 _atom_site_occupancy
  Mg  Mg0  1  0.446917  0.062890  0.179742  1
  Mg  Mg1  1  0.553083  0.937110  0.820258  1
  V  V2  1  0.027199  0.887414  0.672389  1
  V  V3  1  0.513909  0.565681  0.325904  1
  V  V4  1  0.486091  0.434319  0.674096  1
  V  V5  1  0.972801  0.112586  0.327611  1
  Te  Te6  1  0.069608  0.698138  0.291294  1
  Te  Te7  1  0.930392  0.301862  0.708706  1
  O  O8  1  0.157628  0.991158  0.255235  1
  O  O9  1  0.457785  0.361773  0.154814  1
  O  O10  1  0.169484  0.182946  0.631459  1
  O  O11  1  0.356427  0.747778  0.248992  1
  O  O12  1  0.225769  0.786026  0.564068  1
  O  O13  1  0.643573  0.252222  0.751008  1
  O  O14  1  0.830516  0.817054  0.368541  1
  O  O15  1  0.745685  0.088096  0.112682  1
  O  O16  1  0.842372  0.008842  0.744765  1
  O  O17  1  0.262790  0.411927  0.412337  1
  O  O18  1  0.542215  0.638227  0.845186  1
  O  O19  1  0.774231  0.213974  0.435932  1
  O  O20  1  0.254315  0.911904  0.887318  1
  O  O21  1  0.737210  0.588073  0.587663  1
