# generated using pymatgen
data_Na3Y5(P7Ir8)2
_symmetry_space_group_name_H-M   'P 1'
_cell_length_a   3.95118600
_cell_length_b   12.67531481
_cell_length_c   13.15316968
_cell_angle_alpha   80.75666267
_cell_angle_beta   90.00000000
_cell_angle_gamma   90.00000000
_symmetry_Int_Tables_number   1
_chemical_formula_structural   Na3Y5(P7Ir8)2
_chemical_formula_sum   'Na3 Y5 P14 Ir16'
_cell_volume   650.19021214
_cell_formula_units_Z   1
loop_
 _symmetry_equiv_pos_site_id
 _symmetry_equiv_pos_as_xyz
  1  'x, y, z'
loop_
 _atom_site_type_symbol
 _atom_site_label
 _atom_site_symmetry_multiplicity
 _atom_site_fract_x
 _atom_site_fract_y
 _atom_site_fract_z
 _atom_site_occupancy
  Na  Na0  1  0.250000  0.101099  0.794983  1
  Na  Na1  1  0.750000  0.898747  0.203599  1
  Na  Na2  1  0.250000  0.286553  0.107234  1
  Y  Y3  1  0.750000  0.792024  0.560505  1
  Y  Y4  1  0.250000  0.210227  0.437429  1
  Y  Y5  1  0.750000  0.477844  0.706437  1
  Y  Y6  1  0.250000  0.523128  0.293742  1
  Y  Y7  1  0.750000  0.719436  0.897770  1
  P  P8  1  0.250000  0.909856  0.411861  1
  P  P9  1  0.750000  0.473429  0.130501  1
  P  P10  1  0.250000  0.524919  0.871724  1
  P  P11  1  0.750000  0.091749  0.587820  1
  P  P12  1  0.250000  0.739425  0.077698  1
  P  P13  1  0.750000  0.255943  0.919225  1
  P  P14  1  0.750000  0.157528  0.281415  1
  P  P15  1  0.250000  0.841481  0.718514  1
  P  P16  1  0.250000  0.055937  0.097508  1
  P  P17  1  0.750000  0.945766  0.898098  1
  P  P18  1  0.250000  0.303695  0.689319  1
  P  P19  1  0.750000  0.695896  0.311139  1
  P  P20  1  0.250000  0.609431  0.565611  1
  P  P21  1  0.750000  0.391121  0.437013  1
  Ir  Ir22  1  0.250000  0.985025  0.575007  1
  Ir  Ir23  1  0.750000  0.016546  0.423846  1
  Ir  Ir24  1  0.250000  0.659243  0.731250  1
  Ir  Ir25  1  0.750000  0.339874  0.275776  1
  Ir  Ir26  1  0.250000  0.554608  0.045621  1
  Ir  Ir27  1  0.750000  0.446854  0.949822  1
  Ir  Ir28  1  0.250000  0.063558  0.269495  1
  Ir  Ir29  1  0.750000  0.934496  0.728320  1
  Ir  Ir30  1  0.250000  0.424061  0.526751  1
  Ir  Ir31  1  0.750000  0.578354  0.476122  1
  Ir  Ir32  1  0.250000  0.914385  0.996221  1
  Ir  Ir33  1  0.750000  0.080437  0.999976  1
  Ir  Ir34  1  0.250000  0.729157  0.399843  1
  Ir  Ir35  1  0.750000  0.271304  0.600842  1
  Ir  Ir36  1  0.250000  0.337764  0.859216  1
  Ir  Ir37  1  0.750000  0.659101  0.142746  1
