# generated using pymatgen
data_DyTm9(TlSb)4
_symmetry_space_group_name_H-M   'P 1'
_cell_length_a   8.77295041
_cell_length_b   8.73297798
_cell_length_c   8.03217400
_cell_angle_alpha   90.08899144
_cell_angle_beta   90.03253071
_cell_angle_gamma   125.37987039
_symmetry_Int_Tables_number   1
_chemical_formula_structural   DyTm9(TlSb)4
_chemical_formula_sum   'Dy1 Tm9 Tl4 Sb4'
_cell_volume   501.73455930
_cell_formula_units_Z   1
loop_
 _symmetry_equiv_pos_site_id
 _symmetry_equiv_pos_as_xyz
  1  'x, y, z'
loop_
 _atom_site_type_symbol
 _atom_site_label
 _atom_site_symmetry_multiplicity
 _atom_site_fract_x
 _atom_site_fract_y
 _atom_site_fract_z
 _atom_site_occupancy
  Dy  Dy0  1  0.532301  0.811004  0.167133  1
  Tm  Tm1  1  0.302042  0.028914  0.335300  1
  Tm  Tm2  1  0.197127  0.470909  0.834973  1
  Tm  Tm3  1  0.967432  0.692027  0.665927  1
  Tm  Tm4  1  0.696513  0.969801  0.664996  1
  Tm  Tm5  1  0.468608  0.192435  0.834395  1
  Tm  Tm6  1  0.803947  0.529793  0.164739  1
  Tm  Tm7  1  0.031790  0.306280  0.334298  1
  Tm  Tm8  1  0.499665  0.499093  0.500180  1
  Tm  Tm9  1  0.000270  0.000378  0.999671  1
  Tl  Tl10  1  0.634417  0.633648  0.867122  1
  Tl  Tl11  1  0.134797  0.134068  0.633320  1
  Tl  Tl12  1  0.865922  0.865181  0.367671  1
  Tl  Tl13  1  0.365753  0.365579  0.132847  1
  Sb  Sb14  1  0.296241  0.703652  0.503260  1
  Sb  Sb15  1  0.200941  0.795973  0.000516  1
  Sb  Sb16  1  0.701583  0.293780  0.497340  1
  Sb  Sb17  1  0.800650  0.207485  0.996310  1
