# generated using pymatgen
data_Pr2Pa(InPd)3
_symmetry_space_group_name_H-M   'P 1'
_cell_length_a   7.69853652
_cell_length_b   7.69853651
_cell_length_c   4.07568700
_cell_angle_alpha   90.00000000
_cell_angle_beta   90.00000000
_cell_angle_gamma   119.45048698
_symmetry_Int_Tables_number   1
_chemical_formula_structural   Pr2Pa(InPd)3
_chemical_formula_sum   'Pr2 Pa1 In3 Pd3'
_cell_volume   210.34203434
_cell_formula_units_Z   1
loop_
 _symmetry_equiv_pos_site_id
 _symmetry_equiv_pos_as_xyz
  1  'x, y, z'
loop_
 _atom_site_type_symbol
 _atom_site_label
 _atom_site_symmetry_multiplicity
 _atom_site_fract_x
 _atom_site_fract_y
 _atom_site_fract_z
 _atom_site_occupancy
  Pr  Pr0  1  0.586936  0.998092  0.500000  1
  Pr  Pr1  1  0.998092  0.586936  0.500000  1
  Pa  Pa2  1  0.415025  0.415025  0.500000  1
  In  In3  1  0.754781  0.754781  0.000000  1
  In  In4  1  0.252002  0.995498  0.000000  1
  In  In5  1  0.995498  0.252002  0.000000  1
  Pd  Pd6  1  0.641880  0.338151  0.000000  1
  Pd  Pd7  1  0.338151  0.641880  0.000000  1
  Pd  Pd8  1  0.017635  0.017635  0.500000  1
