# generated using pymatgen
data_Sc5In2Ga2PtRh
_symmetry_space_group_name_H-M   'P 1'
_cell_length_a   3.31669500
_cell_length_b   7.55219900
_cell_length_c   17.32772201
_cell_angle_alpha   89.99652830
_cell_angle_beta   90.00000000
_cell_angle_gamma   90.00000000
_symmetry_Int_Tables_number   1
_chemical_formula_structural   Sc5In2Ga2PtRh
_chemical_formula_sum   'Sc10 In4 Ga4 Pt2 Rh2'
_cell_volume   434.03068318
_cell_formula_units_Z   2
loop_
 _symmetry_equiv_pos_site_id
 _symmetry_equiv_pos_as_xyz
  1  'x, y, z'
loop_
 _atom_site_type_symbol
 _atom_site_label
 _atom_site_symmetry_multiplicity
 _atom_site_fract_x
 _atom_site_fract_y
 _atom_site_fract_z
 _atom_site_occupancy
  Sc  Sc0  1  0.000000  0.000000  0.000000  1
  Sc  Sc1  1  0.000000  0.500000  0.500000  1
  Sc  Sc2  1  0.000000  0.744067  0.784142  1
  Sc  Sc3  1  0.000000  0.255933  0.215858  1
  Sc  Sc4  1  0.000000  0.253647  0.717500  1
  Sc  Sc5  1  0.000000  0.746353  0.282500  1
  Sc  Sc6  1  0.000000  0.883914  0.576097  1
  Sc  Sc7  1  0.000000  0.116086  0.423903  1
  Sc  Sc8  1  0.000000  0.385736  0.921519  1
  Sc  Sc9  1  0.000000  0.614264  0.078481  1
  In  In10  1  0.500000  0.925914  0.147305  1
  In  In11  1  0.500000  0.074086  0.852695  1
  In  In12  1  0.500000  0.428521  0.352089  1
  In  In13  1  0.500000  0.571479  0.647911  1
  Ga  Ga14  1  0.500000  0.793582  0.433855  1
  Ga  Ga15  1  0.500000  0.206418  0.566145  1
  Ga  Ga16  1  0.500000  0.294785  0.067622  1
  Ga  Ga17  1  0.500000  0.705215  0.932378  1
  Pt  Pt18  1  0.500000  0.965230  0.692509  1
  Pt  Pt19  1  0.500000  0.034770  0.307491  1
  Rh  Rh20  1  0.500000  0.465760  0.808318  1
  Rh  Rh21  1  0.500000  0.534240  0.191682  1
