# generated using pymatgen
data_Sm2UCo2Si7
_symmetry_space_group_name_H-M   'P 1'
_cell_length_a   4.03156480
_cell_length_b   4.05175500
_cell_length_c   12.39324455
_cell_angle_alpha   90.00000000
_cell_angle_beta   99.36084504
_cell_angle_gamma   90.00000000
_symmetry_Int_Tables_number   1
_chemical_formula_structural   Sm2UCo2Si7
_chemical_formula_sum   'Sm2 U1 Co2 Si7'
_cell_volume   199.74675193
_cell_formula_units_Z   1
loop_
 _symmetry_equiv_pos_site_id
 _symmetry_equiv_pos_as_xyz
  1  'x, y, z'
loop_
 _atom_site_type_symbol
 _atom_site_label
 _atom_site_symmetry_multiplicity
 _atom_site_fract_x
 _atom_site_fract_y
 _atom_site_fract_z
 _atom_site_occupancy
  Sm  Sm0  1  0.316763  0.000000  0.633528  1
  Sm  Sm1  1  0.683237  0.000000  0.366472  1
  U  U2  1  0.000000  0.500000  0.000000  1
  Co  Co3  1  0.126490  0.500000  0.252980  1
  Co  Co4  1  0.873510  0.500000  0.747020  1
  Si  Si5  1  0.500000  0.000000  0.000000  1
  Si  Si6  1  0.414354  0.500000  0.828708  1
  Si  Si7  1  0.585646  0.500000  0.171292  1
  Si  Si8  1  0.085477  0.000000  0.170954  1
  Si  Si9  1  0.914523  0.000000  0.829046  1
  Si  Si10  1  0.221068  0.500000  0.442136  1
  Si  Si11  1  0.778932  0.500000  0.557864  1
