# generated using pymatgen
data_PuHg2(PO5)2
_symmetry_space_group_name_H-M   'P 1'
_cell_length_a   6.33770771
_cell_length_b   11.41649460
_cell_length_c   6.83398000
_cell_angle_alpha   102.33176530
_cell_angle_beta   99.75001233
_cell_angle_gamma   83.74584923
_symmetry_Int_Tables_number   1
_chemical_formula_structural   PuHg2(PO5)2
_chemical_formula_sum   'Pu2 Hg4 P4 O20'
_cell_volume   474.72078998
_cell_formula_units_Z   2
loop_
 _symmetry_equiv_pos_site_id
 _symmetry_equiv_pos_as_xyz
  1  'x, y, z'
loop_
 _atom_site_type_symbol
 _atom_site_label
 _atom_site_symmetry_multiplicity
 _atom_site_fract_x
 _atom_site_fract_y
 _atom_site_fract_z
 _atom_site_occupancy
  Pu  Pu0  1  0.617032  0.846915  0.116766  1
  Pu  Pu1  1  0.382881  0.153099  0.883209  1
  Hg  Hg2  1  0.299839  0.563592  0.292106  1
  Hg  Hg3  1  0.940592  0.267821  0.269998  1
  Hg  Hg4  1  0.059394  0.732187  0.730008  1
  Hg  Hg5  1  0.700262  0.436386  0.707928  1
  P  P6  1  0.789581  0.550099  0.217585  1
  P  P7  1  0.467166  0.168515  0.360137  1
  P  P8  1  0.532792  0.831501  0.639910  1
  P  P9  1  0.210512  0.449852  0.782436  1
  O  O10  1  0.341744  0.813613  0.057599  1
  O  O11  1  0.685979  0.640809  0.085388  1
  O  O12  1  0.889761  0.881250  0.171080  1
  O  O13  1  0.855074  0.427922  0.085486  1
  O  O14  1  0.497577  0.052717  0.196958  1
  O  O15  1  0.288297  0.245985  0.239371  1
  O  O16  1  0.631534  0.532080  0.360041  1
  O  O17  1  0.988744  0.601651  0.369162  1
  O  O18  1  0.677494  0.234633  0.422507  1
  O  O19  1  0.611576  0.853057  0.451687  1
  O  O20  1  0.388400  0.146980  0.548317  1
  O  O21  1  0.322523  0.765364  0.577489  1
  O  O22  1  0.011336  0.398311  0.630830  1
  O  O23  1  0.368580  0.467880  0.639953  1
  O  O24  1  0.711656  0.754067  0.760608  1
  O  O25  1  0.502347  0.947321  0.803045  1
  O  O26  1  0.144981  0.572066  0.914501  1
  O  O27  1  0.110172  0.118776  0.828929  1
  O  O28  1  0.314068  0.359187  0.914614  1
  O  O29  1  0.658109  0.186367  0.942353  1
