# generated using pymatgen
data_YHoVO5
_symmetry_space_group_name_H-M   'P 1'
_cell_length_a   3.72885800
_cell_length_b   10.36994300
_cell_length_c   11.26645100
_cell_angle_alpha   90.00000000
_cell_angle_beta   90.00000000
_cell_angle_gamma   90.00000000
_symmetry_Int_Tables_number   1
_chemical_formula_structural   YHoVO5
_chemical_formula_sum   'Y4 Ho4 V4 O20'
_cell_volume   435.65163330
_cell_formula_units_Z   4
loop_
 _symmetry_equiv_pos_site_id
 _symmetry_equiv_pos_as_xyz
  1  'x, y, z'
loop_
 _atom_site_type_symbol
 _atom_site_label
 _atom_site_symmetry_multiplicity
 _atom_site_fract_x
 _atom_site_fract_y
 _atom_site_fract_z
 _atom_site_occupancy
  Y  Y0  1  0.250000  0.119951  0.273195  1
  Y  Y1  1  0.250000  0.136061  0.944343  1
  Y  Y2  1  0.750000  0.363939  0.444343  1
  Y  Y3  1  0.750000  0.380049  0.773195  1
  Ho  Ho4  1  0.250000  0.621439  0.226804  1
  Ho  Ho5  1  0.250000  0.637989  0.554707  1
  Ho  Ho6  1  0.750000  0.862011  0.054707  1
  Ho  Ho7  1  0.750000  0.878561  0.726804  1
  V  V8  1  0.250000  0.168692  0.617452  1
  V  V9  1  0.750000  0.331308  0.117452  1
  V  V10  1  0.250000  0.669850  0.882613  1
  V  V11  1  0.750000  0.830150  0.382613  1
  O  O12  1  0.750000  0.003056  0.894237  1
  O  O13  1  0.250000  0.005503  0.654201  1
  O  O14  1  0.250000  0.226360  0.456588  1
  O  O15  1  0.750000  0.232216  0.614925  1
  O  O16  1  0.750000  0.243723  0.267888  1
  O  O17  1  0.250000  0.256277  0.767888  1
  O  O18  1  0.250000  0.267784  0.114925  1
  O  O19  1  0.750000  0.273640  0.956588  1
  O  O20  1  0.750000  0.494497  0.154201  1
  O  O21  1  0.250000  0.496944  0.394237  1
  O  O22  1  0.750000  0.507043  0.605258  1
  O  O23  1  0.250000  0.506527  0.847770  1
  O  O24  1  0.250000  0.726477  0.043724  1
  O  O25  1  0.750000  0.733615  0.884944  1
  O  O26  1  0.750000  0.743538  0.231351  1
  O  O27  1  0.250000  0.756462  0.731351  1
  O  O28  1  0.250000  0.766385  0.384944  1
  O  O29  1  0.750000  0.773523  0.543724  1
  O  O30  1  0.750000  0.993473  0.347770  1
  O  O31  1  0.250000  0.992957  0.105258  1
