# generated using pymatgen
data_Dy3Ho4Co6CuSn22
_symmetry_space_group_name_H-M   'P 1'
_cell_length_a   9.64552728
_cell_length_b   9.64366932
_cell_length_c   9.87787431
_cell_angle_alpha   89.99999755
_cell_angle_beta   90.02473451
_cell_angle_gamma   119.99362687
_symmetry_Int_Tables_number   1
_chemical_formula_structural   Dy3Ho4Co6CuSn22
_chemical_formula_sum   'Dy3 Ho4 Co6 Cu1 Sn22'
_cell_volume   795.77491360
_cell_formula_units_Z   1
loop_
 _symmetry_equiv_pos_site_id
 _symmetry_equiv_pos_as_xyz
  1  'x, y, z'
loop_
 _atom_site_type_symbol
 _atom_site_label
 _atom_site_symmetry_multiplicity
 _atom_site_fract_x
 _atom_site_fract_y
 _atom_site_fract_z
 _atom_site_occupancy
  Dy  Dy0  1  0.000000  0.000000  0.000000  1
  Dy  Dy1  1  0.041160  0.520580  0.306271  1
  Dy  Dy2  1  0.958840  0.479420  0.693729  1
  Ho  Ho3  1  0.479538  0.520528  0.306397  1
  Ho  Ho4  1  0.520462  0.479472  0.693603  1
  Ho  Ho5  1  0.479538  0.959011  0.306397  1
  Ho  Ho6  1  0.520462  0.040989  0.693603  1
  Co  Co7  1  0.831885  0.168045  0.197128  1
  Co  Co8  1  0.168115  0.831955  0.802872  1
  Co  Co9  1  0.831885  0.663838  0.197128  1
  Co  Co10  1  0.168115  0.336162  0.802872  1
  Co  Co11  1  0.336211  0.168105  0.197158  1
  Co  Co12  1  0.663789  0.831895  0.802842  1
  Cu  Cu13  1  0.000000  0.000000  0.500000  1
  Sn  Sn14  1  0.346195  0.000033  0.999990  1
  Sn  Sn15  1  0.653805  0.999967  0.000010  1
  Sn  Sn16  1  0.000000  0.346194  0.000000  1
  Sn  Sn17  1  0.000000  0.653806  0.000000  1
  Sn  Sn18  1  0.653805  0.653838  0.000010  1
  Sn  Sn19  1  0.346195  0.346162  0.999990  1
  Sn  Sn20  1  0.333349  0.666675  0.816525  1
  Sn  Sn21  1  0.666651  0.333325  0.183475  1
  Sn  Sn22  1  0.783951  0.215457  0.453884  1
  Sn  Sn23  1  0.216049  0.784543  0.546116  1
  Sn  Sn24  1  0.783951  0.568495  0.453884  1
  Sn  Sn25  1  0.216049  0.431505  0.546116  1
  Sn  Sn26  1  0.431475  0.215738  0.453961  1
  Sn  Sn27  1  0.568525  0.784262  0.546039  1
  Sn  Sn28  1  0.333577  0.666789  0.119720  1
  Sn  Sn29  1  0.666423  0.333211  0.880280  1
  Sn  Sn30  1  0.111036  0.889154  0.283361  1
  Sn  Sn31  1  0.888964  0.110846  0.716639  1
  Sn  Sn32  1  0.111036  0.221881  0.283361  1
  Sn  Sn33  1  0.888964  0.778119  0.716639  1
  Sn  Sn34  1  0.778017  0.889008  0.283393  1
  Sn  Sn35  1  0.221983  0.110992  0.716607  1
