# generated using pymatgen
data_Ce2Ho2AlZnRu4
_symmetry_space_group_name_H-M   'P 1'
_cell_length_a   5.66232596
_cell_length_b   5.66232435
_cell_length_c   7.05213614
_cell_angle_alpha   87.34238601
_cell_angle_beta   92.65761085
_cell_angle_gamma   116.92211463
_symmetry_Int_Tables_number   1
_chemical_formula_structural   Ce2Ho2AlZnRu4
_chemical_formula_sum   'Ce2 Ho2 Al1 Zn1 Ru4'
_cell_volume   201.30187635
_cell_formula_units_Z   1
loop_
 _symmetry_equiv_pos_site_id
 _symmetry_equiv_pos_as_xyz
  1  'x, y, z'
loop_
 _atom_site_type_symbol
 _atom_site_label
 _atom_site_symmetry_multiplicity
 _atom_site_fract_x
 _atom_site_fract_y
 _atom_site_fract_z
 _atom_site_occupancy
  Ce  Ce0  1  0.169280  0.830720  0.589511  1
  Ce  Ce1  1  0.830720  0.169280  0.410489  1
  Ho  Ho2  1  0.344218  0.655782  0.085375  1
  Ho  Ho3  1  0.655782  0.344218  0.914625  1
  Al  Al4  1  0.500000  0.500000  0.500000  1
  Zn  Zn5  1  0.000000  0.000000  0.000000  1
  Ru  Ru6  1  0.867202  0.636479  0.267075  1
  Ru  Ru7  1  0.636479  0.867202  0.732925  1
  Ru  Ru8  1  0.132798  0.363521  0.732925  1
  Ru  Ru9  1  0.363521  0.132798  0.267075  1
