# generated using pymatgen
data_Lu4In5GaCo
_symmetry_space_group_name_H-M   'P 1'
_cell_length_a   7.68521838
_cell_length_b   3.50970400
_cell_length_c   9.51247621
_cell_angle_alpha   90.00000000
_cell_angle_beta   94.33064006
_cell_angle_gamma   90.00000000
_symmetry_Int_Tables_number   1
_chemical_formula_structural   Lu4In5GaCo
_chemical_formula_sum   'Lu4 In5 Ga1 Co1'
_cell_volume   255.84595615
_cell_formula_units_Z   1
loop_
 _symmetry_equiv_pos_site_id
 _symmetry_equiv_pos_as_xyz
  1  'x, y, z'
loop_
 _atom_site_type_symbol
 _atom_site_label
 _atom_site_symmetry_multiplicity
 _atom_site_fract_x
 _atom_site_fract_y
 _atom_site_fract_z
 _atom_site_occupancy
  Lu  Lu0  1  0.810889  0.500001  0.138317  1
  Lu  Lu1  1  0.226033  0.500001  0.452436  1
  Lu  Lu2  1  0.788508  0.500001  0.580640  1
  Lu  Lu3  1  0.180723  0.500001  0.834676  1
  In  In4  1  0.497968  0.000000  0.998427  1
  In  In5  1  0.161874  0.000000  0.140436  1
  In  In6  1  0.542131  0.000000  0.328983  1
  In  In7  1  0.455206  0.000000  0.671284  1
  In  In8  1  0.842981  0.000000  0.857623  1
  Ga  Ga9  1  0.928955  0.000000  0.372675  1
  Co  Co10  1  0.064728  0.000000  0.624503  1
