# generated using pymatgen
data_Gd3BrO4
_symmetry_space_group_name_H-M   'P 1'
_cell_length_a   6.34346116
_cell_length_b   6.34346106
_cell_length_c   11.86758500
_cell_angle_alpha   90.00000000
_cell_angle_beta   90.00000000
_cell_angle_gamma   141.95320446
_symmetry_Int_Tables_number   1
_chemical_formula_structural   Gd3BrO4
_chemical_formula_sum   'Gd6 Br2 O8'
_cell_volume   294.31372266
_cell_formula_units_Z   2
loop_
 _symmetry_equiv_pos_site_id
 _symmetry_equiv_pos_as_xyz
  1  'x, y, z'
loop_
 _atom_site_type_symbol
 _atom_site_label
 _atom_site_symmetry_multiplicity
 _atom_site_fract_x
 _atom_site_fract_y
 _atom_site_fract_z
 _atom_site_occupancy
  Gd  Gd0  1  0.818122  0.181878  0.397620  1
  Gd  Gd1  1  0.181878  0.818122  0.602380  1
  Gd  Gd2  1  0.181878  0.818122  0.897620  1
  Gd  Gd3  1  0.818122  0.181878  0.102380  1
  Gd  Gd4  1  0.878783  0.121217  0.750000  1
  Gd  Gd5  1  0.121217  0.878783  0.250000  1
  Br  Br6  1  0.500000  0.500000  0.000000  1
  Br  Br7  1  0.500000  0.500000  0.500000  1
  O  O8  1  0.303717  0.696283  0.750000  1
  O  O9  1  0.696283  0.303717  0.250000  1
  O  O10  1  0.063398  0.936602  0.750000  1
  O  O11  1  0.936602  0.063398  0.250000  1
  O  O12  1  0.767805  0.232195  0.910062  1
  O  O13  1  0.232195  0.767805  0.089938  1
  O  O14  1  0.232195  0.767805  0.410062  1
  O  O15  1  0.767805  0.232195  0.589938  1
