# generated using pymatgen
data_CeNp2U7O20
_symmetry_space_group_name_H-M   'P 1'
_cell_length_a   10.12750112
_cell_length_b   10.12750165
_cell_length_c   6.61446600
_cell_angle_alpha   83.75558001
_cell_angle_beta   83.75557968
_cell_angle_gamma   141.80742540
_symmetry_Int_Tables_number   1
_chemical_formula_structural   CeNp2U7O20
_chemical_formula_sum   'Ce1 Np2 U7 O20'
_cell_volume   395.60996743
_cell_formula_units_Z   1
loop_
 _symmetry_equiv_pos_site_id
 _symmetry_equiv_pos_as_xyz
  1  'x, y, z'
loop_
 _atom_site_type_symbol
 _atom_site_label
 _atom_site_symmetry_multiplicity
 _atom_site_fract_x
 _atom_site_fract_y
 _atom_site_fract_z
 _atom_site_occupancy
  Ce  Ce0  1  0.200651  0.799349  0.500000  1
  Np  Np1  1  0.500259  0.499741  0.000000  1
  Np  Np2  1  0.800084  0.199916  0.500000  1
  U  U3  1  0.899412  0.100588  0.000000  1
  U  U4  1  0.400260  0.599740  0.500000  1
  U  U5  1  0.100042  0.899958  0.000000  1
  U  U6  1  0.000153  0.999847  0.500000  1
  U  U7  1  0.699710  0.300290  0.000000  1
  U  U8  1  0.599771  0.400229  0.500000  1
  U  U9  1  0.299713  0.700287  0.000000  1
  O  O10  1  0.269889  0.470937  0.875590  1
  O  O11  1  0.878940  0.879499  0.873287  1
  O  O12  1  0.774944  0.972619  0.372788  1
  O  O13  1  0.027381  0.225056  0.627212  1
  O  O14  1  0.471552  0.270979  0.876149  1
  O  O15  1  0.374475  0.374746  0.377907  1
  O  O16  1  0.625254  0.625525  0.622093  1
  O  O17  1  0.072835  0.672650  0.884591  1
  O  O18  1  0.529063  0.730111  0.124410  1
  O  O19  1  0.970963  0.775511  0.372115  1
  O  O20  1  0.224489  0.029037  0.627885  1
  O  O21  1  0.674219  0.072968  0.880750  1
  O  O22  1  0.120501  0.121060  0.126713  1
  O  O23  1  0.580614  0.184434  0.367058  1
  O  O24  1  0.815566  0.419386  0.632942  1
  O  O25  1  0.424251  0.818393  0.632588  1
  O  O26  1  0.729021  0.528448  0.123851  1
  O  O27  1  0.181607  0.575749  0.367412  1
  O  O28  1  0.327350  0.927165  0.115409  1
  O  O29  1  0.927032  0.325781  0.119250  1
