# generated using pymatgen
data_Tb2Y6Re3B24Os
_symmetry_space_group_name_H-M   'P 1'
_cell_length_a   3.68173300
_cell_length_b   9.18635785
_cell_length_c   11.57483104
_cell_angle_alpha   89.92969158
_cell_angle_beta   90.00000000
_cell_angle_gamma   90.00000000
_symmetry_Int_Tables_number   1
_chemical_formula_structural   Tb2Y6Re3B24Os
_chemical_formula_sum   'Tb2 Y6 Re3 B24 Os1'
_cell_volume   391.48036317
_cell_formula_units_Z   1
loop_
 _symmetry_equiv_pos_site_id
 _symmetry_equiv_pos_as_xyz
  1  'x, y, z'
loop_
 _atom_site_type_symbol
 _atom_site_label
 _atom_site_symmetry_multiplicity
 _atom_site_fract_x
 _atom_site_fract_y
 _atom_site_fract_z
 _atom_site_occupancy
  Tb  Tb0  1  0.000000  0.822065  0.085782  1
  Tb  Tb1  1  0.000000  0.177339  0.912517  1
  Y  Y2  1  0.000000  0.324497  0.415696  1
  Y  Y3  1  0.000000  0.676653  0.586281  1
  Y  Y4  1  0.000000  0.442326  0.130053  1
  Y  Y5  1  0.000000  0.556911  0.870535  1
  Y  Y6  1  0.000000  0.942352  0.370259  1
  Y  Y7  1  0.000000  0.057274  0.629070  1
  Re  Re8  1  0.000000  0.862271  0.821787  1
  Re  Re9  1  0.000000  0.638111  0.320489  1
  Re  Re10  1  0.000000  0.361925  0.679064  1
  B  B11  1  0.500000  0.053725  0.067464  1
  B  B12  1  0.500000  0.947044  0.932847  1
  B  B13  1  0.500000  0.552994  0.433002  1
  B  B14  1  0.500000  0.447069  0.567227  1
  B  B15  1  0.500000  0.247958  0.081929  1
  B  B16  1  0.500000  0.751358  0.918391  1
  B  B17  1  0.500000  0.748561  0.418395  1
  B  B18  1  0.500000  0.251870  0.581558  1
  B  B19  1  0.500000  0.290269  0.234391  1
  B  B20  1  0.500000  0.708740  0.765740  1
  B  B21  1  0.500000  0.790981  0.265266  1
  B  B22  1  0.500000  0.208675  0.734100  1
  B  B23  1  0.500000  0.131096  0.313859  1
  B  B24  1  0.500000  0.869571  0.686174  1
  B  B25  1  0.500000  0.630921  0.185497  1
  B  B26  1  0.500000  0.369037  0.814044  1
  B  B27  1  0.500000  0.482391  0.288194  1
  B  B28  1  0.500000  0.517731  0.712129  1
  B  B29  1  0.500000  0.983294  0.211788  1
  B  B30  1  0.500000  0.018138  0.788063  1
  B  B31  1  0.500000  0.102034  0.471060  1
  B  B32  1  0.500000  0.898170  0.528215  1
  B  B33  1  0.500000  0.601030  0.028589  1
  B  B34  1  0.500000  0.397626  0.971696  1
  Os  Os35  1  0.000000  0.137994  0.178847  1
