# generated using pymatgen
data_RbAs2IrRh
_symmetry_space_group_name_H-M   'P 1'
_cell_length_a   7.66788061
_cell_length_b   7.66788033
_cell_length_c   7.66788000
_cell_angle_alpha   149.20462484
_cell_angle_beta   149.20461997
_cell_angle_gamma   44.11019472
_symmetry_Int_Tables_number   1
_chemical_formula_structural   RbAs2IrRh
_chemical_formula_sum   'Rb1 As2 Ir1 Rh1'
_cell_volume   117.83336212
_cell_formula_units_Z   1
loop_
 _symmetry_equiv_pos_site_id
 _symmetry_equiv_pos_as_xyz
  1  'x, y, z'
loop_
 _atom_site_type_symbol
 _atom_site_label
 _atom_site_symmetry_multiplicity
 _atom_site_fract_x
 _atom_site_fract_y
 _atom_site_fract_z
 _atom_site_occupancy
  Rb  Rb0  1  0.000000  0.000000  0.000000  1
  As  As1  1  0.347322  0.347322  0.000000  1
  As  As2  1  0.652678  0.652678  0.000000  1
  Ir  Ir3  1  0.750000  0.250000  0.500000  1
  Rh  Rh4  1  0.250000  0.750000  0.500000  1
