# generated using pymatgen
data_Dy5(CS2)2
_symmetry_space_group_name_H-M   'P 1'
_cell_length_a   3.79765602
_cell_length_b   8.66221772
_cell_length_c   9.10370248
_cell_angle_alpha   92.65179676
_cell_angle_beta   77.75186085
_cell_angle_gamma   49.08414048
_symmetry_Int_Tables_number   1
_chemical_formula_structural   Dy5(CS2)2
_chemical_formula_sum   'Dy5 C2 S4'
_cell_volume   214.08637030
_cell_formula_units_Z   1
loop_
 _symmetry_equiv_pos_site_id
 _symmetry_equiv_pos_as_xyz
  1  'x, y, z'
loop_
 _atom_site_type_symbol
 _atom_site_label
 _atom_site_symmetry_multiplicity
 _atom_site_fract_x
 _atom_site_fract_y
 _atom_site_fract_z
 _atom_site_occupancy
  Dy  Dy0  1  0.425831  0.933275  0.825280  1
  Dy  Dy1  1  0.322766  0.795137  0.444255  1
  Dy  Dy2  1  0.492128  0.291269  0.612947  1
  Dy  Dy3  1  0.388799  0.153911  0.231866  1
  Dy  Dy4  1  0.408844  0.543570  0.026746  1
  C  C5  1  0.394073  0.074284  0.459969  1
  C  C6  1  0.419525  0.013215  0.597315  1
  S  S7  1  0.451541  0.615479  0.726820  1
  S  S8  1  0.404439  0.844851  0.127295  1
  S  S9  1  0.363806  0.471962  0.327632  1
  S  S10  1  0.410594  0.241574  0.929559  1
