# generated using pymatgen
data_Ba6Dy2(WO6)3
_symmetry_space_group_name_H-M   'P 1'
_cell_length_a   5.96951106
_cell_length_b   5.96951116
_cell_length_c   14.91569630
_cell_angle_alpha   90.00000014
_cell_angle_beta   78.45670733
_cell_angle_gamma   120.00002499
_symmetry_Int_Tables_number   1
_chemical_formula_structural   Ba6Dy2(WO6)3
_chemical_formula_sum   'Ba6 Dy2 W3 O18'
_cell_volume   447.85442201
_cell_formula_units_Z   1
loop_
 _symmetry_equiv_pos_site_id
 _symmetry_equiv_pos_as_xyz
  1  'x, y, z'
loop_
 _atom_site_type_symbol
 _atom_site_label
 _atom_site_symmetry_multiplicity
 _atom_site_fract_x
 _atom_site_fract_y
 _atom_site_fract_z
 _atom_site_occupancy
  Ba  Ba0  1  0.272441  0.636220  0.091340  1
  Ba  Ba1  1  0.822175  0.911087  0.266738  1
  Ba  Ba2  1  0.373186  0.186593  0.440221  1
  Ba  Ba3  1  0.626813  0.813406  0.559780  1
  Ba  Ba4  1  0.177825  0.088913  0.733262  1
  Ba  Ba5  1  0.727559  0.363780  0.908660  1
  Dy  Dy6  1  0.550522  0.275261  0.174216  1
  Dy  Dy7  1  0.449478  0.724739  0.825783  1
  W  W8  1  0.000000  0.000000  0.000000  1
  W  W9  1  0.103167  0.551583  0.345250  1
  W  W10  1  0.896833  0.448417  0.654750  1
  O  O11  1  0.259408  0.129704  0.077285  1
  O  O12  1  0.793011  0.129705  0.077285  1
  O  O13  1  0.793012  0.663307  0.077285  1
  O  O14  1  0.317124  0.427842  0.255034  1
  O  O15  1  0.855687  0.427843  0.255034  1
  O  O16  1  0.317122  0.889280  0.255034  1
  O  O17  1  0.901876  0.212975  0.409224  1
  O  O18  1  0.901876  0.688899  0.409224  1
  O  O19  1  0.377800  0.688900  0.409224  1
  O  O20  1  0.098125  0.311099  0.590776  1
  O  O21  1  0.622200  0.311100  0.590776  1
  O  O22  1  0.098125  0.787024  0.590776  1
  O  O23  1  0.682876  0.110720  0.744966  1
  O  O24  1  0.144314  0.572156  0.744966  1
  O  O25  1  0.682877  0.572157  0.744966  1
  O  O26  1  0.206987  0.336692  0.922715  1
  O  O27  1  0.206987  0.870296  0.922715  1
  O  O28  1  0.740592  0.870296  0.922715  1
