# generated using pymatgen
data_Y2Al8GaIrRh2
_symmetry_space_group_name_H-M   'P 1'
_cell_length_a   7.54598411
_cell_length_b   7.54598449
_cell_length_c   9.53755946
_cell_angle_alpha   90.01807384
_cell_angle_beta   90.01807116
_cell_angle_gamma   119.35762424
_symmetry_Int_Tables_number   1
_chemical_formula_structural   Y2Al8GaIrRh2
_chemical_formula_sum   'Y4 Al16 Ga2 Ir2 Rh4'
_cell_volume   473.34146641
_cell_formula_units_Z   2
loop_
 _symmetry_equiv_pos_site_id
 _symmetry_equiv_pos_as_xyz
  1  'x, y, z'
loop_
 _atom_site_type_symbol
 _atom_site_label
 _atom_site_symmetry_multiplicity
 _atom_site_fract_x
 _atom_site_fract_y
 _atom_site_fract_z
 _atom_site_occupancy
  Y  Y0  1  0.994388  0.672839  0.249693  1
  Y  Y1  1  0.005612  0.327161  0.750307  1
  Y  Y2  1  0.672839  0.994388  0.249693  1
  Y  Y3  1  0.327161  0.005612  0.750307  1
  Al  Al4  1  0.001742  0.335321  0.073110  1
  Al  Al5  1  0.998258  0.664679  0.926890  1
  Al  Al6  1  0.998379  0.664587  0.573235  1
  Al  Al7  1  0.335413  0.001621  0.426765  1
  Al  Al8  1  0.001621  0.335413  0.426765  1
  Al  Al9  1  0.664587  0.998379  0.573235  1
  Al  Al10  1  0.664679  0.998258  0.926890  1
  Al  Al11  1  0.335321  0.001742  0.073110  1
  Al  Al12  1  0.334243  0.334243  0.552201  1
  Al  Al13  1  0.665757  0.665757  0.447799  1
  Al  Al14  1  0.665944  0.665944  0.051837  1
  Al  Al15  1  0.334056  0.334056  0.948163  1
  Al  Al16  1  0.337518  0.548448  0.250478  1
  Al  Al17  1  0.662482  0.451552  0.749522  1
  Al  Al18  1  0.548448  0.337518  0.250478  1
  Al  Al19  1  0.451552  0.662482  0.749522  1
  Ga  Ga20  1  0.130946  0.130946  0.250006  1
  Ga  Ga21  1  0.869054  0.869054  0.749994  1
  Ir  Ir22  1  0.671749  0.328251  0.000000  1
  Ir  Ir23  1  0.328251  0.671749  0.000000  1
  Rh  Rh24  1  0.328242  0.671758  0.500000  1
  Rh  Rh25  1  0.671758  0.328242  0.500000  1
  Rh  Rh26  1  0.000000  0.000000  0.000000  1
  Rh  Rh27  1  0.000000  0.000000  0.500000  1
