# generated using pymatgen
data_K(HfSe3)2
_symmetry_space_group_name_H-M   'P 1'
_cell_length_a   11.48816484
_cell_length_b   11.48816583
_cell_length_c   11.48816517
_cell_angle_alpha   160.90783138
_cell_angle_beta   152.92998898
_cell_angle_gamma   33.33782410
_symmetry_Int_Tables_number   1
_chemical_formula_structural   K(HfSe3)2
_chemical_formula_sum   'K1 Hf2 Se6'
_cell_volume   225.50083475
_cell_formula_units_Z   1
loop_
 _symmetry_equiv_pos_site_id
 _symmetry_equiv_pos_as_xyz
  1  'x, y, z'
loop_
 _atom_site_type_symbol
 _atom_site_label
 _atom_site_symmetry_multiplicity
 _atom_site_fract_x
 _atom_site_fract_y
 _atom_site_fract_z
 _atom_site_occupancy
  K  K0  1  0.000000  0.000000  0.000000  1
  Hf  Hf1  1  0.319324  0.819324  0.500000  1
  Hf  Hf2  1  0.680676  0.180676  0.500000  1
  Se  Se3  1  0.769795  0.769795  0.000000  1
  Se  Se4  1  0.856789  0.611238  0.245552  1
  Se  Se5  1  0.143211  0.388762  0.754448  1
  Se  Se6  1  0.230205  0.230205  0.000000  1
  Se  Se7  1  0.365686  0.611238  0.754448  1
  Se  Se8  1  0.634314  0.388762  0.245552  1
