# generated using pymatgen
data_Lu5Zr5Sn6
_symmetry_space_group_name_H-M   'P 1'
_cell_length_a   8.69527400
_cell_length_b   8.69527432
_cell_length_c   6.01098600
_cell_angle_alpha   90.00000000
_cell_angle_beta   90.00000000
_cell_angle_gamma   119.99881989
_symmetry_Int_Tables_number   1
_chemical_formula_structural   Lu5Zr5Sn6
_chemical_formula_sum   'Lu5 Zr5 Sn6'
_cell_volume   393.59363985
_cell_formula_units_Z   1
loop_
 _symmetry_equiv_pos_site_id
 _symmetry_equiv_pos_as_xyz
  1  'x, y, z'
loop_
 _atom_site_type_symbol
 _atom_site_label
 _atom_site_symmetry_multiplicity
 _atom_site_fract_x
 _atom_site_fract_y
 _atom_site_fract_z
 _atom_site_occupancy
  Lu  Lu0  1  0.239030  0.998738  0.750000  1
  Lu  Lu1  1  0.998738  0.239030  0.750000  1
  Lu  Lu2  1  0.241496  0.241496  0.250000  1
  Lu  Lu3  1  0.759085  0.998967  0.250000  1
  Lu  Lu4  1  0.998967  0.759085  0.250000  1
  Zr  Zr5  1  0.667115  0.334974  0.999061  1
  Zr  Zr6  1  0.334974  0.667115  0.999061  1
  Zr  Zr7  1  0.334974  0.667115  0.500939  1
  Zr  Zr8  1  0.667115  0.334974  0.500939  1
  Zr  Zr9  1  0.756873  0.756873  0.750000  1
  Sn  Sn10  1  0.398762  0.398762  0.750000  1
  Sn  Sn11  1  0.604487  0.998118  0.750000  1
  Sn  Sn12  1  0.998118  0.604487  0.750000  1
  Sn  Sn13  1  0.603474  0.603474  0.250000  1
  Sn  Sn14  1  0.397001  0.999790  0.250000  1
  Sn  Sn15  1  0.999790  0.397001  0.250000  1
