# generated using pymatgen
data_Ti8Al14Ir7Se
_symmetry_space_group_name_H-M   'P 1'
_cell_length_a   8.66341301
_cell_length_b   8.66341178
_cell_length_c   8.66341184
_cell_angle_alpha   120.00434742
_cell_angle_beta   119.93629463
_cell_angle_gamma   90.05142217
_symmetry_Int_Tables_number   1
_chemical_formula_structural   Ti8Al14Ir7Se
_chemical_formula_sum   'Ti8 Al14 Ir7 Se1'
_cell_volume   459.98783022
_cell_formula_units_Z   1
loop_
 _symmetry_equiv_pos_site_id
 _symmetry_equiv_pos_as_xyz
  1  'x, y, z'
loop_
 _atom_site_type_symbol
 _atom_site_label
 _atom_site_symmetry_multiplicity
 _atom_site_fract_x
 _atom_site_fract_y
 _atom_site_fract_z
 _atom_site_occupancy
  Ti  Ti0  1  0.796597  0.295906  0.086398  1
  Ti  Ti1  1  0.209508  0.295906  0.499310  1
  Ti  Ti2  1  0.203890  0.703890  0.500000  1
  Ti  Ti3  1  0.209508  0.710199  0.913602  1
  Ti  Ti4  1  0.796597  0.710199  0.500690  1
  Ti  Ti5  1  0.789993  0.289993  0.500000  1
  Ti  Ti6  1  0.380138  0.122612  0.742474  1
  Ti  Ti7  1  0.380138  0.637665  0.257526  1
  Al  Al8  1  0.161370  0.336620  0.175248  1
  Al  Al9  1  0.161370  0.986122  0.824752  1
  Al  Al10  1  0.157754  0.338299  0.819455  1
  Al  Al11  1  0.518843  0.338299  0.180545  1
  Al  Al12  1  0.838012  0.660440  0.822430  1
  Al  Al13  1  0.838012  0.015583  0.177570  1
  Al  Al14  1  0.836724  0.661837  0.174888  1
  Al  Al15  1  0.486949  0.661837  0.825112  1
  Al  Al16  1  0.380443  0.120020  0.260424  1
  Al  Al17  1  0.859596  0.120020  0.739576  1
  Al  Al18  1  0.620150  0.879207  0.259057  1
  Al  Al19  1  0.620150  0.361093  0.740943  1
  Al  Al20  1  0.620587  0.879542  0.741045  1
  Al  Al21  1  0.138496  0.879542  0.258955  1
  Ir  Ir22  1  0.001182  0.999412  0.500621  1
  Ir  Ir23  1  0.498790  0.999412  0.998229  1
  Ir  Ir24  1  0.498220  0.498220  0.000000  1
  Ir  Ir25  1  0.498790  0.500560  0.499379  1
  Ir  Ir26  1  0.001182  0.500560  0.001771  1
  Ir  Ir27  1  0.000016  0.000016  0.000000  1
  Ir  Ir28  1  0.498968  0.998968  0.500000  1
  Se  Se29  1  0.998021  0.498021  0.500000  1
