# generated using pymatgen
data_La6YbPr13Ir12
_symmetry_space_group_name_H-M   'P 1'
_cell_length_a   11.37521136
_cell_length_b   11.38633103
_cell_length_c   6.58538819
_cell_angle_alpha   90.00366334
_cell_angle_beta   89.97243376
_cell_angle_gamma   90.00784409
_symmetry_Int_Tables_number   1
_chemical_formula_structural   La6YbPr13Ir12
_chemical_formula_sum   'La6 Yb1 Pr13 Ir12'
_cell_volume   852.95202794
_cell_formula_units_Z   1
loop_
 _symmetry_equiv_pos_site_id
 _symmetry_equiv_pos_as_xyz
  1  'x, y, z'
loop_
 _atom_site_type_symbol
 _atom_site_label
 _atom_site_symmetry_multiplicity
 _atom_site_fract_x
 _atom_site_fract_y
 _atom_site_fract_z
 _atom_site_occupancy
  La  La0  1  0.286731  0.088908  0.385520  1
  La  La1  1  0.290168  0.909919  0.885230  1
  La  La2  1  0.710092  0.090296  0.885267  1
  La  La3  1  0.713520  0.910858  0.385774  1
  La  La4  1  0.590697  0.790260  0.883859  1
  La  La5  1  0.589320  0.208924  0.383019  1
  Yb  Yb6  1  0.999949  0.999932  0.500082  1
  Pr  Pr7  1  0.410561  0.790480  0.381910  1
  Pr  Pr8  1  0.409210  0.210289  0.882654  1
  Pr  Pr9  1  0.208134  0.411402  0.617924  1
  Pr  Pr10  1  0.208819  0.589868  0.117222  1
  Pr  Pr11  1  0.791487  0.410288  0.116605  1
  Pr  Pr12  1  0.792106  0.588406  0.617327  1
  Pr  Pr13  1  0.910929  0.709096  0.115907  1
  Pr  Pr14  1  0.912060  0.287637  0.615515  1
  Pr  Pr15  1  0.088097  0.712329  0.615098  1
  Pr  Pr16  1  0.089261  0.290937  0.115589  1
  Pr  Pr17  1  0.999899  0.000128  0.999900  1
  Pr  Pr18  1  0.499880  0.499732  0.000382  1
  Pr  Pr19  1  0.499855  0.500320  0.500485  1
  Ir  Ir20  1  0.844649  0.154214  0.246826  1
  Ir  Ir21  1  0.844564  0.845646  0.751099  1
  Ir  Ir22  1  0.155261  0.154163  0.750712  1
  Ir  Ir23  1  0.155250  0.845884  0.246344  1
  Ir  Ir24  1  0.654389  0.344957  0.747843  1
  Ir  Ir25  1  0.653780  0.655522  0.250417  1
  Ir  Ir26  1  0.345897  0.344956  0.251309  1
  Ir  Ir27  1  0.345264  0.654551  0.748625  1
  Ir  Ir28  1  0.500133  0.000455  0.117219  1
  Ir  Ir29  1  0.500130  0.999618  0.616505  1
  Ir  Ir30  1  0.999933  0.499981  0.883272  1
  Ir  Ir31  1  0.999974  0.500042  0.384558  1
