# generated using pymatgen
data_TbPu(ThH5)6
_symmetry_space_group_name_H-M   'P 1'
_cell_length_a   7.83897903
_cell_length_b   7.83789392
_cell_length_c   7.80978700
_cell_angle_alpha   109.45679734
_cell_angle_beta   109.46377063
_cell_angle_gamma   109.64953530
_symmetry_Int_Tables_number   1
_chemical_formula_structural   TbPu(ThH5)6
_chemical_formula_sum   'Tb1 Pu1 Th6 H30'
_cell_volume   368.66648989
_cell_formula_units_Z   1
loop_
 _symmetry_equiv_pos_site_id
 _symmetry_equiv_pos_as_xyz
  1  'x, y, z'
loop_
 _atom_site_type_symbol
 _atom_site_label
 _atom_site_symmetry_multiplicity
 _atom_site_fract_x
 _atom_site_fract_y
 _atom_site_fract_z
 _atom_site_occupancy
  Tb  Tb0  1  0.499442  0.000045  0.084331  1
  Pu  Pu1  1  0.914538  0.912072  0.915308  1
  Th  Th2  1  0.994879  0.079676  0.495403  1
  Th  Th3  1  0.083850  0.503479  0.000862  1
  Th  Th4  1  0.998938  0.583709  0.503756  1
  Th  Th5  1  0.582902  0.502540  0.999038  1
  Th  Th6  1  0.503873  0.998804  0.586627  1
  Th  Th7  1  0.416423  0.411768  0.412397  1
  H  H8  1  0.651233  0.963237  0.369328  1
  H  H9  1  0.217375  0.317273  0.845114  1
  H  H10  1  0.186733  0.403480  0.534300  1
  H  H11  1  0.095135  0.281904  0.128649  1
  H  H12  1  0.282356  0.126524  0.091910  1
  H  H13  1  0.129388  0.093047  0.279315  1
  H  H14  1  0.472144  0.155264  0.874127  1
  H  H15  1  0.718188  0.349609  0.814069  1
  H  H16  1  0.627456  0.381509  0.251438  1
  H  H17  1  0.250624  0.624540  0.376688  1
  H  H18  1  0.752385  0.873358  0.123928  1
  H  H19  1  0.118296  0.749174  0.874227  1
  H  H20  1  0.374767  0.248730  0.624421  1
  H  H21  1  0.876252  0.127881  0.749732  1
  H  H22  1  0.780443  0.593094  0.630293  1
  H  H23  1  0.317929  0.847529  0.221589  1
  H  H24  1  0.370595  0.656992  0.965453  1
  H  H25  1  0.964917  0.369134  0.651832  1
  H  H26  1  0.537397  0.187028  0.406450  1
  H  H27  1  0.404946  0.537273  0.186627  1
  H  H28  1  0.841514  0.217831  0.314482  1
  H  H29  1  0.904327  0.687990  0.034415  1
  H  H30  1  0.813754  0.717510  0.347545  1
  H  H31  1  0.152323  0.869122  0.466340  1
  H  H32  1  0.688478  0.028574  0.905621  1
  H  H33  1  0.346652  0.816956  0.721648  1
  H  H34  1  0.870461  0.469701  0.153729  1
  H  H35  1  0.633005  0.780536  0.594185  1
  H  H36  1  0.596733  0.629241  0.779301  1
  H  H37  1  0.029347  0.903866  0.685517  1
