# generated using pymatgen
data_TcMo2Ir2Rh3
_symmetry_space_group_name_H-M   'P 1'
_cell_length_a   5.51322800
_cell_length_b   5.54895473
_cell_length_c   4.40574500
_cell_angle_alpha   90.00000000
_cell_angle_beta   90.00000000
_cell_angle_gamma   119.78724501
_symmetry_Int_Tables_number   1
_chemical_formula_structural   TcMo2Ir2Rh3
_chemical_formula_sum   'Tc1 Mo2 Ir2 Rh3'
_cell_volume   116.97530964
_cell_formula_units_Z   1
loop_
 _symmetry_equiv_pos_site_id
 _symmetry_equiv_pos_as_xyz
  1  'x, y, z'
loop_
 _atom_site_type_symbol
 _atom_site_label
 _atom_site_symmetry_multiplicity
 _atom_site_fract_x
 _atom_site_fract_y
 _atom_site_fract_z
 _atom_site_occupancy
  Tc  Tc0  1  0.832201  0.664402  0.250000  1
  Mo  Mo1  1  0.332266  0.664534  0.250000  1
  Mo  Mo2  1  0.667517  0.335034  0.750000  1
  Ir  Ir3  1  0.167147  0.833885  0.750000  1
  Ir  Ir4  1  0.666738  0.833885  0.750000  1
  Rh  Rh5  1  0.333110  0.167928  0.250000  1
  Rh  Rh6  1  0.834818  0.167928  0.250000  1
  Rh  Rh7  1  0.166202  0.332404  0.750000  1
