# generated using pymatgen
data_Lu6NpCo22
_symmetry_space_group_name_H-M   'P 1'
_cell_length_a   8.32870104
_cell_length_b   8.32983318
_cell_length_c   8.32870103
_cell_angle_alpha   120.00391447
_cell_angle_beta   90.00324668
_cell_angle_gamma   120.00392207
_symmetry_Int_Tables_number   1
_chemical_formula_structural   Lu6NpCo22
_chemical_formula_sum   'Lu6 Np1 Co22'
_cell_volume   408.51883980
_cell_formula_units_Z   1
loop_
 _symmetry_equiv_pos_site_id
 _symmetry_equiv_pos_as_xyz
  1  'x, y, z'
loop_
 _atom_site_type_symbol
 _atom_site_label
 _atom_site_symmetry_multiplicity
 _atom_site_fract_x
 _atom_site_fract_y
 _atom_site_fract_z
 _atom_site_occupancy
  Lu  Lu0  1  0.709063  0.999932  0.290761  1
  Lu  Lu1  1  0.290938  0.000150  0.290938  1
  Lu  Lu2  1  0.290904  0.581685  0.290904  1
  Lu  Lu3  1  0.709030  0.999705  0.709030  1
  Lu  Lu4  1  0.290761  0.999932  0.709063  1
  Lu  Lu5  1  0.708992  0.418308  0.708992  1
  Np  Np6  1  0.999617  0.999612  0.999617  1
  Co  Co7  1  0.500043  0.000106  0.000051  1
  Co  Co8  1  0.999998  0.499986  0.999998  1
  Co  Co9  1  0.500010  0.499980  0.000034  1
  Co  Co10  1  0.676221  0.352432  0.028655  1
  Co  Co11  1  0.377745  0.251841  0.125957  1
  Co  Co12  1  0.874059  0.251848  0.125950  1
  Co  Co13  1  0.874075  0.748174  0.125990  1
  Co  Co14  1  0.676235  0.352510  0.323921  1
  Co  Co15  1  0.676222  0.647641  0.323925  1
  Co  Co16  1  0.971424  0.647655  0.323905  1
  Co  Co17  1  0.125957  0.251841  0.377745  1
  Co  Co18  1  0.000051  0.000106  0.500043  1
  Co  Co19  1  0.000034  0.499980  0.500010  1
  Co  Co20  1  0.499969  0.499971  0.499969  1
  Co  Co21  1  0.874064  0.748168  0.622240  1
  Co  Co22  1  0.028655  0.352432  0.676221  1
  Co  Co23  1  0.323921  0.352510  0.676235  1
  Co  Co24  1  0.323925  0.647641  0.676222  1
  Co  Co25  1  0.125950  0.251848  0.874059  1
  Co  Co26  1  0.125990  0.748174  0.874075  1
  Co  Co27  1  0.622240  0.748168  0.874064  1
  Co  Co28  1  0.323905  0.647655  0.971424  1
