# generated using pymatgen
data_Nd4Ga5(Ir2Pd)3
_symmetry_space_group_name_H-M   'P 1'
_cell_length_a   12.51358961
_cell_length_b   12.51359006
_cell_length_c   12.51358995
_cell_angle_alpha   26.03104449
_cell_angle_beta   26.03104912
_cell_angle_gamma   26.03104845
_symmetry_Int_Tables_number   1
_chemical_formula_structural   Nd4Ga5(Ir2Pd)3
_chemical_formula_sum   'Nd4 Ga5 Ir6 Pd3'
_cell_volume   332.44937193
_cell_formula_units_Z   1
loop_
 _symmetry_equiv_pos_site_id
 _symmetry_equiv_pos_as_xyz
  1  'x, y, z'
loop_
 _atom_site_type_symbol
 _atom_site_label
 _atom_site_symmetry_multiplicity
 _atom_site_fract_x
 _atom_site_fract_y
 _atom_site_fract_z
 _atom_site_occupancy
  Nd  Nd0  1  0.956504  0.956504  0.956504  1
  Nd  Nd1  1  0.049977  0.049977  0.049977  1
  Nd  Nd2  1  0.850733  0.850733  0.850733  1
  Nd  Nd3  1  0.144326  0.144326  0.144326  1
  Ga  Ga4  1  0.497991  0.497991  0.497991  1
  Ga  Ga5  1  0.721019  0.721019  0.721019  1
  Ga  Ga6  1  0.278143  0.278143  0.278143  1
  Ga  Ga7  1  0.612740  0.612740  0.612740  1
  Ga  Ga8  1  0.389097  0.389097  0.389097  1
  Ir  Ir9  1  0.498814  0.498814  0.002845  1
  Ir  Ir10  1  0.002845  0.498814  0.498814  1
  Ir  Ir11  1  0.498814  0.002845  0.498814  1
  Ir  Ir12  1  0.612939  0.103983  0.612939  1
  Ir  Ir13  1  0.612939  0.612939  0.103983  1
  Ir  Ir14  1  0.103983  0.612939  0.612939  1
  Pd  Pd15  1  0.389447  0.890243  0.389447  1
  Pd  Pd16  1  0.389447  0.389447  0.890243  1
  Pd  Pd17  1  0.890243  0.389447  0.389447  1
