# generated using pymatgen
data_TbY3(CuPt)2
_symmetry_space_group_name_H-M   'P 1'
_cell_length_a   4.45486400
_cell_length_b   5.52443964
_cell_length_c   7.15587483
_cell_angle_alpha   89.94475054
_cell_angle_beta   90.00000000
_cell_angle_gamma   90.00000000
_symmetry_Int_Tables_number   1
_chemical_formula_structural   TbY3(CuPt)2
_chemical_formula_sum   'Tb1 Y3 Cu2 Pt2'
_cell_volume   176.11048648
_cell_formula_units_Z   1
loop_
 _symmetry_equiv_pos_site_id
 _symmetry_equiv_pos_as_xyz
  1  'x, y, z'
loop_
 _atom_site_type_symbol
 _atom_site_label
 _atom_site_symmetry_multiplicity
 _atom_site_fract_x
 _atom_site_fract_y
 _atom_site_fract_z
 _atom_site_occupancy
  Tb  Tb0  1  0.500000  0.606048  0.816116  1
  Y  Y1  1  0.000000  0.115497  0.683804  1
  Y  Y2  1  0.000000  0.884717  0.184145  1
  Y  Y3  1  0.500000  0.393762  0.316109  1
  Cu  Cu4  1  0.500000  0.891492  0.464127  1
  Cu  Cu5  1  0.500000  0.108329  0.963859  1
  Pt  Pt6  1  0.000000  0.615776  0.535983  1
  Pt  Pt7  1  0.000000  0.384379  0.035859  1
