# generated using pymatgen
data_La2FeN3
_symmetry_space_group_name_H-M   'P 1'
_cell_length_a   6.13500928
_cell_length_b   6.13452718
_cell_length_c   11.97906453
_cell_angle_alpha   88.56186227
_cell_angle_beta   88.53765966
_cell_angle_gamma   128.18261205
_symmetry_Int_Tables_number   1
_chemical_formula_structural   La2FeN3
_chemical_formula_sum   'La8 Fe4 N12'
_cell_volume   353.78270128
_cell_formula_units_Z   4
loop_
 _symmetry_equiv_pos_site_id
 _symmetry_equiv_pos_as_xyz
  1  'x, y, z'
loop_
 _atom_site_type_symbol
 _atom_site_label
 _atom_site_symmetry_multiplicity
 _atom_site_fract_x
 _atom_site_fract_y
 _atom_site_fract_z
 _atom_site_occupancy
  La  La0  1  0.971036  0.566568  0.849898  1
  La  La1  1  0.433387  0.029061  0.650169  1
  La  La2  1  0.654000  0.862405  0.933149  1
  La  La3  1  0.137541  0.346050  0.566911  1
  La  La4  1  0.028964  0.433432  0.150102  1
  La  La5  1  0.862459  0.653950  0.433089  1
  La  La6  1  0.566613  0.970939  0.349831  1
  La  La7  1  0.346000  0.137595  0.066851  1
  Fe  Fe8  1  0.726068  0.726825  0.674792  1
  Fe  Fe9  1  0.273091  0.273973  0.825193  1
  Fe  Fe10  1  0.726909  0.726027  0.174807  1
  Fe  Fe11  1  0.273932  0.273175  0.325208  1
  N  N12  1  0.148535  0.340589  0.961341  1
  N  N13  1  0.001120  0.998956  0.250008  1
  N  N14  1  0.998880  0.001044  0.749992  1
  N  N15  1  0.397311  0.602694  0.749976  1
  N  N16  1  0.602689  0.397306  0.250024  1
  N  N17  1  0.659459  0.851427  0.538689  1
  N  N18  1  0.851465  0.659411  0.038659  1
  N  N19  1  0.117358  0.465167  0.366228  1
  N  N20  1  0.465144  0.117250  0.866225  1
  N  N21  1  0.882642  0.534833  0.633772  1
  N  N22  1  0.340541  0.148573  0.461311  1
  N  N23  1  0.534856  0.882750  0.133775  1
