# generated using pymatgen
data_AcDy(Ge2Ir)2
_symmetry_space_group_name_H-M   'P 1'
_cell_length_a   9.58644395
_cell_length_b   9.58644474
_cell_length_c   9.58644405
_cell_angle_alpha   153.04153054
_cell_angle_beta   124.04711815
_cell_angle_gamma   63.17866921
_symmetry_Int_Tables_number   1
_chemical_formula_structural   AcDy(Ge2Ir)2
_chemical_formula_sum   'Ac2 Dy2 Ge8 Ir4'
_cell_volume   328.23519214
_cell_formula_units_Z   2
loop_
 _symmetry_equiv_pos_site_id
 _symmetry_equiv_pos_as_xyz
  1  'x, y, z'
loop_
 _atom_site_type_symbol
 _atom_site_label
 _atom_site_symmetry_multiplicity
 _atom_site_fract_x
 _atom_site_fract_y
 _atom_site_fract_z
 _atom_site_occupancy
  Ac  Ac0  1  0.742801  0.000000  0.742801  1
  Ac  Ac1  1  0.257199  0.000000  0.257199  1
  Dy  Dy2  1  0.292028  0.792028  0.500000  1
  Dy  Dy3  1  0.707972  0.207972  0.500000  1
  Ge  Ge4  1  0.917933  0.417933  0.500000  1
  Ge  Ge5  1  0.082067  0.582067  0.500000  1
  Ge  Ge6  1  0.417050  0.417050  0.000000  1
  Ge  Ge7  1  0.582950  0.582950  0.000000  1
  Ge  Ge8  1  0.351693  0.199600  0.152093  1
  Ge  Ge9  1  0.648307  0.800400  0.847907  1
  Ge  Ge10  1  0.047506  0.199600  0.847907  1
  Ge  Ge11  1  0.952494  0.800400  0.152093  1
  Ir  Ir12  1  0.600605  0.348349  0.252257  1
  Ir  Ir13  1  0.399395  0.651651  0.747743  1
  Ir  Ir14  1  0.096092  0.348349  0.747743  1
  Ir  Ir15  1  0.903908  0.651651  0.252257  1
