# generated using pymatgen
data_Dy7Tm12ThSn16
_symmetry_space_group_name_H-M   'P 1'
_cell_length_a   7.99651784
_cell_length_b   8.11896108
_cell_length_c   15.32892576
_cell_angle_alpha   89.98369022
_cell_angle_beta   89.78666924
_cell_angle_gamma   90.00112274
_symmetry_Int_Tables_number   1
_chemical_formula_structural   Dy7Tm12ThSn16
_chemical_formula_sum   'Dy7 Tm12 Th1 Sn16'
_cell_volume   995.19930205
_cell_formula_units_Z   1
loop_
 _symmetry_equiv_pos_site_id
 _symmetry_equiv_pos_as_xyz
  1  'x, y, z'
loop_
 _atom_site_type_symbol
 _atom_site_label
 _atom_site_symmetry_multiplicity
 _atom_site_fract_x
 _atom_site_fract_y
 _atom_site_fract_z
 _atom_site_occupancy
  Dy  Dy0  1  0.021291  0.177269  0.595929  1
  Dy  Dy1  1  0.478530  0.678640  0.402709  1
  Dy  Dy2  1  0.979517  0.821724  0.097316  1
  Dy  Dy3  1  0.479488  0.678569  0.097549  1
  Dy  Dy4  1  0.978337  0.821502  0.402720  1
  Dy  Dy5  1  0.523052  0.321011  0.597918  1
  Dy  Dy6  1  0.022427  0.178036  0.903262  1
  Tm  Tm7  1  0.365705  0.838355  0.876955  1
  Tm  Tm8  1  0.867183  0.662195  0.623020  1
  Tm  Tm9  1  0.633286  0.161701  0.377054  1
  Tm  Tm10  1  0.135089  0.337867  0.123758  1
  Tm  Tm11  1  0.634226  0.162280  0.123658  1
  Tm  Tm12  1  0.132640  0.337852  0.376712  1
  Tm  Tm13  1  0.366992  0.836629  0.622337  1
  Tm  Tm14  1  0.865430  0.663172  0.876497  1
  Tm  Tm15  1  0.196892  0.504405  0.748846  1
  Tm  Tm16  1  0.696807  0.997662  0.749217  1
  Tm  Tm17  1  0.802995  0.496592  0.250136  1
  Tm  Tm18  1  0.302590  0.003571  0.250783  1
  Th  Th19  1  0.517973  0.320437  0.903929  1
  Sn  Sn20  1  0.295391  0.038996  0.041663  1
  Sn  Sn21  1  0.794074  0.461880  0.458502  1
  Sn  Sn22  1  0.705731  0.961165  0.541515  1
  Sn  Sn23  1  0.201498  0.541164  0.959266  1
  Sn  Sn24  1  0.706583  0.962015  0.958250  1
  Sn  Sn25  1  0.206753  0.536333  0.541642  1
  Sn  Sn26  1  0.293878  0.038032  0.458281  1
  Sn  Sn27  1  0.797225  0.462984  0.042665  1
  Sn  Sn28  1  0.563042  0.622393  0.750628  1
  Sn  Sn29  1  0.062676  0.878412  0.749654  1
  Sn  Sn30  1  0.436867  0.379436  0.250545  1
  Sn  Sn31  1  0.936591  0.120840  0.249985  1
  Sn  Sn32  1  0.327591  0.145513  0.747673  1
  Sn  Sn33  1  0.833205  0.350835  0.749732  1
  Sn  Sn34  1  0.669018  0.851378  0.249891  1
  Sn  Sn35  1  0.169427  0.649154  0.249804  1
