# generated using pymatgen
data_Eu5Si2Bi
_symmetry_space_group_name_H-M   'P 1'
_cell_length_a   9.49702979
_cell_length_b   9.49703066
_cell_length_c   9.49702966
_cell_angle_alpha   129.40681355
_cell_angle_beta   129.40681320
_cell_angle_gamma   74.35686944
_symmetry_Int_Tables_number   1
_chemical_formula_structural   Eu5Si2Bi
_chemical_formula_sum   'Eu10 Si4 Bi2'
_cell_volume   498.45238751
_cell_formula_units_Z   2
loop_
 _symmetry_equiv_pos_site_id
 _symmetry_equiv_pos_as_xyz
  1  'x, y, z'
loop_
 _atom_site_type_symbol
 _atom_site_label
 _atom_site_symmetry_multiplicity
 _atom_site_fract_x
 _atom_site_fract_y
 _atom_site_fract_z
 _atom_site_occupancy
  Eu  Eu0  1  0.810082  0.310081  0.846281  1
  Eu  Eu1  1  0.463800  0.963800  0.153720  1
  Eu  Eu2  1  0.689919  0.536200  0.500000  1
  Eu  Eu3  1  0.036200  0.189919  0.500000  1
  Eu  Eu4  1  0.189919  0.689919  0.153720  1
  Eu  Eu5  1  0.536201  0.036200  0.846281  1
  Eu  Eu6  1  0.963800  0.810080  0.500000  1
  Eu  Eu7  1  0.310081  0.463800  0.500000  1
  Eu  Eu8  1  0.000000  0.000000  0.000000  1
  Eu  Eu9  1  0.500000  0.500000  0.000000  1
  Si  Si10  1  0.888475  0.388475  0.276951  1
  Si  Si11  1  0.111525  0.611524  0.723047  1
  Si  Si12  1  0.611525  0.888475  0.500000  1
  Si  Si13  1  0.388475  0.111525  0.500000  1
  Bi  Bi14  1  0.250000  0.250000  0.000000  1
  Bi  Bi15  1  0.750000  0.750000  0.000000  1
