# generated using pymatgen
data_Dy6Er4(SnSb)3
_symmetry_space_group_name_H-M   'P 1'
_cell_length_a   6.37136800
_cell_length_b   8.95397365
_cell_length_c   8.95380300
_cell_angle_alpha   120.00063539
_cell_angle_beta   90.00015479
_cell_angle_gamma   89.99966742
_symmetry_Int_Tables_number   1
_chemical_formula_structural   Dy6Er4(SnSb)3
_chemical_formula_sum   'Dy6 Er4 Sn3 Sb3'
_cell_volume   442.36818797
_cell_formula_units_Z   1
loop_
 _symmetry_equiv_pos_site_id
 _symmetry_equiv_pos_as_xyz
  1  'x, y, z'
loop_
 _atom_site_type_symbol
 _atom_site_label
 _atom_site_symmetry_multiplicity
 _atom_site_fract_x
 _atom_site_fract_y
 _atom_site_fract_z
 _atom_site_occupancy
  Dy  Dy0  1  0.750001  0.241593  0.000000  1
  Dy  Dy1  1  0.749996  0.758392  0.758380  1
  Dy  Dy2  1  0.749996  0.000013  0.241620  1
  Dy  Dy3  1  0.249997  0.757877  0.000000  1
  Dy  Dy4  1  0.250003  0.242129  0.242137  1
  Dy  Dy5  1  0.250003  0.999992  0.757863  1
  Er  Er6  1  0.501218  0.333337  0.666684  1
  Er  Er7  1  0.501218  0.666653  0.333316  1
  Er  Er8  1  0.998782  0.666668  0.333329  1
  Er  Er9  1  0.998782  0.333339  0.666671  1
  Sn  Sn10  1  0.749997  0.606821  0.000000  1
  Sn  Sn11  1  0.750002  0.393227  0.393230  1
  Sn  Sn12  1  0.750002  0.999997  0.606770  1
  Sb  Sb13  1  0.249987  0.391890  0.000000  1
  Sb  Sb14  1  0.250008  0.608088  0.608100  1
  Sb  Sb15  1  0.250008  0.999988  0.391900  1
