# generated using pymatgen
data_Ho16MgIn3Rh4
_symmetry_space_group_name_H-M   'P 1'
_cell_length_a   9.61962779
_cell_length_b   9.61962803
_cell_length_c   9.61962800
_cell_angle_alpha   60.00071270
_cell_angle_beta   60.00071427
_cell_angle_gamma   60.00071484
_symmetry_Int_Tables_number   1
_chemical_formula_structural   Ho16MgIn3Rh4
_chemical_formula_sum   'Ho16 Mg1 In3 Rh4'
_cell_volume   629.45814415
_cell_formula_units_Z   1
loop_
 _symmetry_equiv_pos_site_id
 _symmetry_equiv_pos_as_xyz
  1  'x, y, z'
loop_
 _atom_site_type_symbol
 _atom_site_label
 _atom_site_symmetry_multiplicity
 _atom_site_fract_x
 _atom_site_fract_y
 _atom_site_fract_z
 _atom_site_occupancy
  Ho  Ho0  1  0.188080  0.188080  0.811938  1
  Ho  Ho1  1  0.600031  0.600031  0.201914  1
  Ho  Ho2  1  0.439769  0.059482  0.439769  1
  Ho  Ho3  1  0.439769  0.439769  0.059482  1
  Ho  Ho4  1  0.813758  0.186737  0.813758  1
  Ho  Ho5  1  0.188080  0.811938  0.188080  1
  Ho  Ho6  1  0.436538  0.062587  0.062587  1
  Ho  Ho7  1  0.186737  0.813758  0.813758  1
  Ho  Ho8  1  0.062587  0.436538  0.062587  1
  Ho  Ho9  1  0.813758  0.813758  0.186737  1
  Ho  Ho10  1  0.201914  0.600031  0.600031  1
  Ho  Ho11  1  0.059482  0.439769  0.439769  1
  Ho  Ho12  1  0.062587  0.062587  0.436538  1
  Ho  Ho13  1  0.811938  0.188080  0.188080  1
  Ho  Ho14  1  0.600031  0.201914  0.600031  1
  Ho  Ho15  1  0.598822  0.598822  0.598822  1
  Mg  Mg16  1  0.828212  0.828212  0.828212  1
  In  In17  1  0.832437  0.832437  0.502428  1
  In  In18  1  0.502428  0.832437  0.832437  1
  In  In19  1  0.832437  0.502428  0.832437  1
  Rh  Rh20  1  0.392252  0.823113  0.392252  1
  Rh  Rh21  1  0.392990  0.392990  0.392990  1
  Rh  Rh22  1  0.823113  0.392252  0.392252  1
  Rh  Rh23  1  0.392252  0.392252  0.823113  1
