# generated using pymatgen
data_NpPaS3
_symmetry_space_group_name_H-M   'P 1'
_cell_length_a   3.90641100
_cell_length_b   10.36888800
_cell_length_c   10.50604500
_cell_angle_alpha   90.00000000
_cell_angle_beta   90.00000000
_cell_angle_gamma   90.00000000
_symmetry_Int_Tables_number   1
_chemical_formula_structural   NpPaS3
_chemical_formula_sum   'Np4 Pa4 S12'
_cell_volume   425.54880404
_cell_formula_units_Z   4
loop_
 _symmetry_equiv_pos_site_id
 _symmetry_equiv_pos_as_xyz
  1  'x, y, z'
loop_
 _atom_site_type_symbol
 _atom_site_label
 _atom_site_symmetry_multiplicity
 _atom_site_fract_x
 _atom_site_fract_y
 _atom_site_fract_z
 _atom_site_occupancy
  Np  Np0  1  0.250000  0.506138  0.314616  1
  Np  Np1  1  0.750000  0.493862  0.685384  1
  Np  Np2  1  0.750000  0.006138  0.185384  1
  Np  Np3  1  0.250000  0.993862  0.814616  1
  Pa  Pa4  1  0.250000  0.314608  0.990856  1
  Pa  Pa5  1  0.750000  0.685392  0.009144  1
  Pa  Pa6  1  0.750000  0.814608  0.509144  1
  Pa  Pa7  1  0.250000  0.185392  0.490856  1
  S  S8  1  0.250000  0.867994  0.051905  1
  S  S9  1  0.750000  0.132006  0.948095  1
  S  S10  1  0.750000  0.367994  0.448095  1
  S  S11  1  0.250000  0.632006  0.551905  1
  S  S12  1  0.250000  0.556337  0.875451  1
  S  S13  1  0.750000  0.443663  0.124549  1
  S  S14  1  0.750000  0.056337  0.624549  1
  S  S15  1  0.250000  0.943663  0.375451  1
  S  S16  1  0.250000  0.205707  0.228480  1
  S  S17  1  0.750000  0.794293  0.771520  1
  S  S18  1  0.750000  0.705707  0.271520  1
  S  S19  1  0.250000  0.294293  0.728480  1
