# generated using pymatgen
data_Y2Ho4Tm4CdIn7Pt4
_symmetry_space_group_name_H-M   'P 1'
_cell_length_a   3.60199500
_cell_length_b   8.14856600
_cell_length_c   18.18710400
_cell_angle_alpha   90.00000000
_cell_angle_beta   90.00000000
_cell_angle_gamma   90.00000000
_symmetry_Int_Tables_number   1
_chemical_formula_structural   Y2Ho4Tm4CdIn7Pt4
_chemical_formula_sum   'Y2 Ho4 Tm4 Cd1 In7 Pt4'
_cell_volume   533.81139889
_cell_formula_units_Z   1
loop_
 _symmetry_equiv_pos_site_id
 _symmetry_equiv_pos_as_xyz
  1  'x, y, z'
loop_
 _atom_site_type_symbol
 _atom_site_label
 _atom_site_symmetry_multiplicity
 _atom_site_fract_x
 _atom_site_fract_y
 _atom_site_fract_z
 _atom_site_occupancy
  Y  Y0  1  0.000000  0.999761  0.999785  1
  Y  Y1  1  0.000000  0.500074  0.499943  1
  Ho  Ho2  1  0.000000  0.243864  0.220584  1
  Ho  Ho3  1  0.000000  0.757746  0.780100  1
  Ho  Ho4  1  0.000000  0.257359  0.720197  1
  Ho  Ho5  1  0.000000  0.741185  0.280111  1
  Tm  Tm6  1  0.000000  0.117341  0.413672  1
  Tm  Tm7  1  0.000000  0.883889  0.585994  1
  Tm  Tm8  1  0.000000  0.383131  0.914313  1
  Tm  Tm9  1  0.000000  0.616326  0.086078  1
  Cd  Cd10  1  0.500000  0.422730  0.351650  1
  In  In11  1  0.500000  0.578024  0.649080  1
  In  In12  1  0.500000  0.078197  0.851168  1
  In  In13  1  0.500000  0.922279  0.148693  1
  In  In14  1  0.500000  0.294281  0.065790  1
  In  In15  1  0.500000  0.705034  0.934100  1
  In  In16  1  0.500000  0.205562  0.565617  1
  In  In17  1  0.500000  0.792844  0.433605  1
  Pt  Pt18  1  0.500000  0.025183  0.303942  1
  Pt  Pt19  1  0.500000  0.974667  0.695981  1
  Pt  Pt20  1  0.500000  0.474834  0.804148  1
  Pt  Pt21  1  0.500000  0.525689  0.195450  1
