# generated using pymatgen
data_TbGd2HoB10
_symmetry_space_group_name_H-M   'P 1'
_cell_length_a   7.12437900
_cell_length_b   7.11514857
_cell_length_c   7.14749154
_cell_angle_alpha   76.86121036
_cell_angle_beta   90.00000000
_cell_angle_gamma   90.00000000
_symmetry_Int_Tables_number   1
_chemical_formula_structural   TbGd2HoB10
_chemical_formula_sum   'Tb2 Gd4 Ho2 B20'
_cell_volume   352.82906454
_cell_formula_units_Z   2
loop_
 _symmetry_equiv_pos_site_id
 _symmetry_equiv_pos_as_xyz
  1  'x, y, z'
loop_
 _atom_site_type_symbol
 _atom_site_label
 _atom_site_symmetry_multiplicity
 _atom_site_fract_x
 _atom_site_fract_y
 _atom_site_fract_z
 _atom_site_occupancy
  Tb  Tb0  1  0.314919  0.756983  0.253268  1
  Tb  Tb1  1  0.814919  0.243017  0.246732  1
  Gd  Gd2  1  0.691948  0.770461  0.626673  1
  Gd  Gd3  1  0.191948  0.229539  0.873327  1
  Gd  Gd4  1  0.308228  0.229721  0.373688  1
  Gd  Gd5  1  0.808228  0.770279  0.126312  1
  Ho  Ho6  1  0.684862  0.245381  0.746719  1
  Ho  Ho7  1  0.184862  0.754619  0.753281  1
  B  B8  1  0.502307  0.314368  0.040229  1
  B  B9  1  0.002307  0.685632  0.459771  1
  B  B10  1  0.497525  0.686195  0.958516  1
  B  B11  1  0.997525  0.313805  0.541484  1
  B  B12  1  0.489263  0.926236  0.924493  1
  B  B13  1  0.989263  0.073764  0.575507  1
  B  B14  1  0.511226  0.074874  0.073069  1
  B  B15  1  0.011226  0.925126  0.426931  1
  B  B16  1  0.326266  0.496391  0.039523  1
  B  B17  1  0.826266  0.503609  0.460477  1
  B  B18  1  0.673581  0.503983  0.959590  1
  B  B19  1  0.173581  0.496017  0.540410  1
  B  B20  1  0.910582  0.498871  0.910469  1
  B  B21  1  0.410582  0.501129  0.589531  1
  B  B22  1  0.089410  0.501784  0.089051  1
  B  B23  1  0.589410  0.498216  0.410949  1
  B  B24  1  0.961570  0.496579  0.674396  1
  B  B25  1  0.461570  0.503421  0.825604  1
  B  B26  1  0.038313  0.503331  0.326102  1
  B  B27  1  0.538313  0.496669  0.173898  1
