# generated using pymatgen
data_Zr6Ti2SiGe5(MoN)2
_symmetry_space_group_name_H-M   'P 1'
_cell_length_a   7.76134500
_cell_length_b   7.76134480
_cell_length_c   5.33886300
_cell_angle_alpha   90.00000000
_cell_angle_beta   90.00000000
_cell_angle_gamma   119.99999657
_symmetry_Int_Tables_number   1
_chemical_formula_structural   Zr6Ti2SiGe5(MoN)2
_chemical_formula_sum   'Zr6 Ti2 Si1 Ge5 Mo2 N2'
_cell_volume   278.51807816
_cell_formula_units_Z   1
loop_
 _symmetry_equiv_pos_site_id
 _symmetry_equiv_pos_as_xyz
  1  'x, y, z'
loop_
 _atom_site_type_symbol
 _atom_site_label
 _atom_site_symmetry_multiplicity
 _atom_site_fract_x
 _atom_site_fract_y
 _atom_site_fract_z
 _atom_site_occupancy
  Zr  Zr0  1  0.236511  0.999969  0.748295  1
  Zr  Zr1  1  0.762377  0.997132  0.251619  1
  Zr  Zr2  1  0.999969  0.236511  0.748295  1
  Zr  Zr3  1  0.997132  0.762377  0.251619  1
  Zr  Zr4  1  0.762525  0.762525  0.749127  1
  Zr  Zr5  1  0.237786  0.237786  0.251384  1
  Ti  Ti6  1  0.665663  0.335347  0.001150  1
  Ti  Ti7  1  0.335347  0.665663  0.001150  1
  Si  Si8  1  0.589726  0.589726  0.257894  1
  Ge  Ge9  1  0.590412  0.000950  0.747337  1
  Ge  Ge10  1  0.408778  0.999502  0.252412  1
  Ge  Ge11  1  0.000950  0.590412  0.747337  1
  Ge  Ge12  1  0.999502  0.408778  0.252412  1
  Ge  Ge13  1  0.410418  0.410418  0.746798  1
  Mo  Mo14  1  0.335926  0.666203  0.496654  1
  Mo  Mo15  1  0.666203  0.335926  0.496654  1
  N  N16  1  0.000446  0.000446  0.500134  1
  N  N17  1  0.000330  0.000330  0.999730  1
