# generated using pymatgen
data_La4TbIr2Rh
_symmetry_space_group_name_H-M   'P 1'
_cell_length_a   11.36021000
_cell_length_b   11.36021000
_cell_length_c   6.58325300
_cell_angle_alpha   90.00000000
_cell_angle_beta   90.00000000
_cell_angle_gamma   90.00000000
_symmetry_Int_Tables_number   1
_chemical_formula_structural   La4TbIr2Rh
_chemical_formula_sum   'La16 Tb4 Ir8 Rh4'
_cell_volume   849.59757666
_cell_formula_units_Z   4
loop_
 _symmetry_equiv_pos_site_id
 _symmetry_equiv_pos_as_xyz
  1  'x, y, z'
loop_
 _atom_site_type_symbol
 _atom_site_label
 _atom_site_symmetry_multiplicity
 _atom_site_fract_x
 _atom_site_fract_y
 _atom_site_fract_z
 _atom_site_occupancy
  La  La0  1  0.287547  0.089092  0.386818  1
  La  La1  1  0.287547  0.910908  0.886818  1
  La  La2  1  0.712453  0.089092  0.886818  1
  La  La3  1  0.712453  0.910908  0.386818  1
  La  La4  1  0.589092  0.787547  0.886818  1
  La  La5  1  0.589092  0.212453  0.386818  1
  La  La6  1  0.410908  0.787547  0.386818  1
  La  La7  1  0.410908  0.212453  0.886818  1
  La  La8  1  0.212453  0.410908  0.613182  1
  La  La9  1  0.212453  0.589092  0.113182  1
  La  La10  1  0.787547  0.410908  0.113182  1
  La  La11  1  0.787547  0.589092  0.613182  1
  La  La12  1  0.910908  0.712453  0.113182  1
  La  La13  1  0.910908  0.287547  0.613182  1
  La  La14  1  0.089092  0.712453  0.613182  1
  La  La15  1  0.089092  0.287547  0.113182  1
  Tb  Tb16  1  0.000000  0.000000  0.500000  1
  Tb  Tb17  1  0.000000  0.000000  0.000000  1
  Tb  Tb18  1  0.500000  0.500000  0.000000  1
  Tb  Tb19  1  0.500000  0.500000  0.500000  1
  Ir  Ir20  1  0.850264  0.149736  0.250000  1
  Ir  Ir21  1  0.850264  0.850264  0.750000  1
  Ir  Ir22  1  0.149736  0.149736  0.750000  1
  Ir  Ir23  1  0.149736  0.850264  0.250000  1
  Ir  Ir24  1  0.649736  0.350264  0.750000  1
  Ir  Ir25  1  0.649736  0.649736  0.250000  1
  Ir  Ir26  1  0.350264  0.350264  0.250000  1
  Ir  Ir27  1  0.350264  0.649736  0.750000  1
  Rh  Rh28  1  0.500000  0.000000  0.117402  1
  Rh  Rh29  1  0.500000  0.000000  0.617402  1
  Rh  Rh30  1  0.000000  0.500000  0.882598  1
  Rh  Rh31  1  0.000000  0.500000  0.382598  1
