# generated using pymatgen
data_DyEr3InPt11
_symmetry_space_group_name_H-M   'P 1'
_cell_length_a   4.17652200
_cell_length_b   5.83345353
_cell_length_c   11.64247140
_cell_angle_alpha   87.85898004
_cell_angle_beta   90.00000000
_cell_angle_gamma   90.00000000
_symmetry_Int_Tables_number   1
_chemical_formula_structural   DyEr3InPt11
_chemical_formula_sum   'Dy1 Er3 In1 Pt11'
_cell_volume   283.45388278
_cell_formula_units_Z   1
loop_
 _symmetry_equiv_pos_site_id
 _symmetry_equiv_pos_as_xyz
  1  'x, y, z'
loop_
 _atom_site_type_symbol
 _atom_site_label
 _atom_site_symmetry_multiplicity
 _atom_site_fract_x
 _atom_site_fract_y
 _atom_site_fract_z
 _atom_site_occupancy
  Dy  Dy0  1  0.500000  0.752599  0.375818  1
  Er  Er1  1  0.500000  0.720955  0.862084  1
  Er  Er2  1  0.500000  0.279074  0.137810  1
  Er  Er3  1  0.500000  0.247289  0.624095  1
  In  In4  1  0.000000  0.000039  0.999934  1
  Pt  Pt5  1  0.000000  0.011981  0.248990  1
  Pt  Pt6  1  0.000000  0.988774  0.750678  1
  Pt  Pt7  1  0.000000  0.499972  0.999967  1
  Pt  Pt8  1  0.000000  0.499264  0.500436  1
  Pt  Pt9  1  0.000000  0.512726  0.249753  1
  Pt  Pt10  1  0.000000  0.486608  0.749919  1
  Pt  Pt11  1  0.500000  0.250807  0.377756  1
  Pt  Pt12  1  0.500000  0.232185  0.880367  1
  Pt  Pt13  1  0.500000  0.767869  0.119262  1
  Pt  Pt14  1  0.500000  0.749275  0.622753  1
  Pt  Pt15  1  0.000000  0.000582  0.500378  1
