# generated using pymatgen
data_Ho2Er3In2(NiHg)2
_symmetry_space_group_name_H-M   'P 1'
_cell_length_a   7.78316101
_cell_length_b   17.96907501
_cell_length_c   3.58646900
_cell_angle_alpha   90.00000000
_cell_angle_beta   90.00000000
_cell_angle_gamma   89.99554210
_symmetry_Int_Tables_number   1
_chemical_formula_structural   Ho2Er3In2(NiHg)2
_chemical_formula_sum   'Ho4 Er6 In4 Ni4 Hg4'
_cell_volume   501.58993843
_cell_formula_units_Z   2
loop_
 _symmetry_equiv_pos_site_id
 _symmetry_equiv_pos_as_xyz
  1  'x, y, z'
loop_
 _atom_site_type_symbol
 _atom_site_label
 _atom_site_symmetry_multiplicity
 _atom_site_fract_x
 _atom_site_fract_y
 _atom_site_fract_z
 _atom_site_occupancy
  Ho  Ho0  1  0.500000  0.500000  0.000000  1
  Ho  Ho1  1  0.000000  0.000000  0.000000  1
  Ho  Ho2  1  0.884991  0.588637  0.000000  1
  Ho  Ho3  1  0.115009  0.411363  0.000000  1
  Er  Er4  1  0.757515  0.280829  0.000000  1
  Er  Er5  1  0.242485  0.719171  0.000000  1
  Er  Er6  1  0.742201  0.781067  0.000000  1
  Er  Er7  1  0.257799  0.218933  0.000000  1
  Er  Er8  1  0.614651  0.088822  0.000000  1
  Er  Er9  1  0.385349  0.911178  0.000000  1
  In  In10  1  0.568156  0.651982  0.500000  1
  In  In11  1  0.431844  0.348018  0.500000  1
  In  In12  1  0.931216  0.151829  0.500000  1
  In  In13  1  0.068784  0.848171  0.500000  1
  Ni  Ni14  1  0.541666  0.197859  0.500000  1
  Ni  Ni15  1  0.458334  0.802141  0.500000  1
  Ni  Ni16  1  0.958318  0.698009  0.500000  1
  Ni  Ni17  1  0.041682  0.301991  0.500000  1
  Hg  Hg18  1  0.706773  0.931587  0.500000  1
  Hg  Hg19  1  0.293227  0.068413  0.500000  1
  Hg  Hg20  1  0.792395  0.431377  0.500000  1
  Hg  Hg21  1  0.207605  0.568623  0.500000  1
