# generated using pymatgen
data_Hf4Ti3MnAs4
_symmetry_space_group_name_H-M   'P 1'
_cell_length_a   3.63238100
_cell_length_b   6.83688668
_cell_length_c   8.23277500
_cell_angle_alpha   90.05884091
_cell_angle_beta   90.00000000
_cell_angle_gamma   90.00000000
_symmetry_Int_Tables_number   1
_chemical_formula_structural   Hf4Ti3MnAs4
_chemical_formula_sum   'Hf4 Ti3 Mn1 As4'
_cell_volume   204.45408609
_cell_formula_units_Z   1
loop_
 _symmetry_equiv_pos_site_id
 _symmetry_equiv_pos_as_xyz
  1  'x, y, z'
loop_
 _atom_site_type_symbol
 _atom_site_label
 _atom_site_symmetry_multiplicity
 _atom_site_fract_x
 _atom_site_fract_y
 _atom_site_fract_z
 _atom_site_occupancy
  Hf  Hf0  1  0.250000  0.537648  0.165269  1
  Hf  Hf1  1  0.750000  0.456794  0.835340  1
  Hf  Hf2  1  0.750000  0.961493  0.669628  1
  Hf  Hf3  1  0.250000  0.042144  0.328318  1
  Ti  Ti4  1  0.250000  0.631202  0.562396  1
  Ti  Ti5  1  0.750000  0.361387  0.440773  1
  Ti  Ti6  1  0.750000  0.873096  0.057865  1
  Mn  Mn7  1  0.250000  0.135924  0.941064  1
  As  As8  1  0.250000  0.762009  0.861115  1
  As  As9  1  0.750000  0.240687  0.131841  1
  As  As10  1  0.750000  0.740765  0.360755  1
  As  As11  1  0.250000  0.256849  0.645636  1
