# generated using pymatgen
data_Nd4YSn3Cl
_symmetry_space_group_name_H-M   'P 1'
_cell_length_a   9.40727200
_cell_length_b   9.40727067
_cell_length_c   6.73861600
_cell_angle_alpha   90.00000000
_cell_angle_beta   90.00000000
_cell_angle_gamma   120.00000467
_symmetry_Int_Tables_number   1
_chemical_formula_structural   Nd4YSn3Cl
_chemical_formula_sum   'Nd8 Y2 Sn6 Cl2'
_cell_volume   516.45045151
_cell_formula_units_Z   2
loop_
 _symmetry_equiv_pos_site_id
 _symmetry_equiv_pos_as_xyz
  1  'x, y, z'
loop_
 _atom_site_type_symbol
 _atom_site_label
 _atom_site_symmetry_multiplicity
 _atom_site_fract_x
 _atom_site_fract_y
 _atom_site_fract_z
 _atom_site_occupancy
  Nd  Nd0  1  0.260621  0.260621  0.751240  1
  Nd  Nd1  1  0.000000  0.739379  0.751240  1
  Nd  Nd2  1  0.739379  0.000000  0.751240  1
  Nd  Nd3  1  0.000000  0.260621  0.248760  1
  Nd  Nd4  1  0.333333  0.666667  0.500000  1
  Nd  Nd5  1  0.739379  0.739379  0.248760  1
  Nd  Nd6  1  0.666667  0.333333  0.500000  1
  Nd  Nd7  1  0.260621  0.000000  0.248760  1
  Y  Y8  1  0.333333  0.666667  0.000000  1
  Y  Y9  1  0.666667  0.333333  0.000000  1
  Sn  Sn10  1  0.609628  0.000000  0.246394  1
  Sn  Sn11  1  0.000000  0.390372  0.753606  1
  Sn  Sn12  1  0.390372  0.000000  0.753606  1
  Sn  Sn13  1  0.609628  0.609628  0.753606  1
  Sn  Sn14  1  0.000000  0.609628  0.246394  1
  Sn  Sn15  1  0.390372  0.390372  0.246394  1
  Cl  Cl16  1  0.000000  0.000000  0.000000  1
  Cl  Cl17  1  0.000000  0.000000  0.500000  1
