# generated using pymatgen
data_YLu9Cd3Ru
_symmetry_space_group_name_H-M   'P 1'
_cell_length_a   9.40179220
_cell_length_b   9.40179216
_cell_length_c   9.69195900
_cell_angle_alpha   90.00000000
_cell_angle_beta   90.00000000
_cell_angle_gamma   119.97646666
_symmetry_Int_Tables_number   1
_chemical_formula_structural   YLu9Cd3Ru
_chemical_formula_sum   'Y2 Lu18 Cd6 Ru2'
_cell_volume   742.10683742
_cell_formula_units_Z   2
loop_
 _symmetry_equiv_pos_site_id
 _symmetry_equiv_pos_as_xyz
  1  'x, y, z'
loop_
 _atom_site_type_symbol
 _atom_site_label
 _atom_site_symmetry_multiplicity
 _atom_site_fract_x
 _atom_site_fract_y
 _atom_site_fract_z
 _atom_site_occupancy
  Y  Y0  1  0.460177  0.919054  0.750000  1
  Y  Y1  1  0.080946  0.539823  0.750000  1
  Lu  Lu2  1  0.999810  0.000190  0.499672  1
  Lu  Lu3  1  0.999810  0.000190  0.000328  1
  Lu  Lu4  1  0.209723  0.790277  0.440245  1
  Lu  Lu5  1  0.211058  0.419989  0.440794  1
  Lu  Lu6  1  0.580011  0.788942  0.440794  1
  Lu  Lu7  1  0.789263  0.210737  0.557297  1
  Lu  Lu8  1  0.788600  0.579520  0.557357  1
  Lu  Lu9  1  0.420480  0.211400  0.557357  1
  Lu  Lu10  1  0.789263  0.210737  0.942703  1
  Lu  Lu11  1  0.788600  0.579520  0.942643  1
  Lu  Lu12  1  0.420480  0.211400  0.942643  1
  Lu  Lu13  1  0.209723  0.790277  0.059755  1
  Lu  Lu14  1  0.211058  0.419989  0.059206  1
  Lu  Lu15  1  0.580011  0.788942  0.059206  1
  Lu  Lu16  1  0.541212  0.458788  0.250000  1
  Lu  Lu17  1  0.540814  0.080857  0.250000  1
  Lu  Lu18  1  0.919143  0.459186  0.250000  1
  Lu  Lu19  1  0.461205  0.538795  0.750000  1
  Cd  Cd20  1  0.886174  0.113826  0.250000  1
  Cd  Cd21  1  0.885425  0.772314  0.250000  1
  Cd  Cd22  1  0.227686  0.114575  0.250000  1
  Cd  Cd23  1  0.112635  0.887365  0.750000  1
  Cd  Cd24  1  0.115091  0.226531  0.750000  1
  Cd  Cd25  1  0.773469  0.884909  0.750000  1
  Ru  Ru26  1  0.332241  0.667759  0.250000  1
  Ru  Ru27  1  0.665891  0.334109  0.750000  1
