# generated using pymatgen
data_NdDyEr2(Ir2O7)2
_symmetry_space_group_name_H-M   'P 1'
_cell_length_a   7.30207445
_cell_length_b   7.22574491
_cell_length_c   7.22574404
_cell_angle_alpha   59.98897150
_cell_angle_beta   60.34383202
_cell_angle_gamma   60.34383485
_symmetry_Int_Tables_number   1
_chemical_formula_structural   NdDyEr2(Ir2O7)2
_chemical_formula_sum   'Nd1 Dy1 Er2 Ir4 O14'
_cell_volume   270.95519336
_cell_formula_units_Z   1
loop_
 _symmetry_equiv_pos_site_id
 _symmetry_equiv_pos_as_xyz
  1  'x, y, z'
loop_
 _atom_site_type_symbol
 _atom_site_label
 _atom_site_symmetry_multiplicity
 _atom_site_fract_x
 _atom_site_fract_y
 _atom_site_fract_z
 _atom_site_occupancy
  Nd  Nd0  1  0.625000  0.125000  0.125000  1
  Dy  Dy1  1  0.125000  0.125000  0.125000  1
  Er  Er2  1  0.125000  0.625000  0.125000  1
  Er  Er3  1  0.125000  0.125000  0.625000  1
  Ir  Ir4  1  0.125000  0.625000  0.625000  1
  Ir  Ir5  1  0.625000  0.125000  0.625000  1
  Ir  Ir6  1  0.625000  0.625000  0.125000  1
  Ir  Ir7  1  0.625000  0.625000  0.625000  1
  O  O8  1  0.722989  0.701315  0.287980  1
  O  O9  1  0.288033  0.288732  0.710424  1
  O  O10  1  0.722989  0.287980  0.701315  1
  O  O11  1  0.288033  0.710424  0.288732  1
  O  O12  1  0.287864  0.711860  0.711860  1
  O  O13  1  0.721504  0.288062  0.288062  1
  O  O14  1  0.527011  0.548685  0.962020  1
  O  O15  1  0.961967  0.961268  0.539576  1
  O  O16  1  0.527011  0.962020  0.548685  1
  O  O17  1  0.961967  0.539576  0.961268  1
  O  O18  1  0.962136  0.538140  0.538140  1
  O  O19  1  0.528496  0.961938  0.961938  1
  O  O20  1  0.239710  0.254782  0.254782  1
  O  O21  1  0.010290  0.995218  0.995218  1
