# generated using pymatgen
data_Pr6Co17Si2TcP10
_symmetry_space_group_name_H-M   'P 1'
_cell_length_a   3.80069100
_cell_length_b   10.72758400
_cell_length_c   12.47007700
_cell_angle_alpha   90.00000000
_cell_angle_beta   90.00000000
_cell_angle_gamma   90.00000000
_symmetry_Int_Tables_number   1
_chemical_formula_structural   Pr6Co17Si2TcP10
_chemical_formula_sum   'Pr6 Co17 Si2 Tc1 P10'
_cell_volume   508.43287201
_cell_formula_units_Z   1
loop_
 _symmetry_equiv_pos_site_id
 _symmetry_equiv_pos_as_xyz
  1  'x, y, z'
loop_
 _atom_site_type_symbol
 _atom_site_label
 _atom_site_symmetry_multiplicity
 _atom_site_fract_x
 _atom_site_fract_y
 _atom_site_fract_z
 _atom_site_occupancy
  Pr  Pr0  1  0.000000  0.500000  0.523169  1
  Pr  Pr1  1  0.500000  0.000000  0.476856  1
  Pr  Pr2  1  0.500000  0.816110  0.207073  1
  Pr  Pr3  1  0.500000  0.183890  0.207073  1
  Pr  Pr4  1  0.000000  0.682678  0.793941  1
  Pr  Pr5  1  0.000000  0.317322  0.793941  1
  Co  Co6  1  0.000000  0.000000  0.848971  1
  Co  Co7  1  0.500000  0.500000  0.704861  1
  Co  Co8  1  0.000000  0.000000  0.300223  1
  Co  Co9  1  0.000000  0.500000  0.988365  1
  Co  Co10  1  0.500000  0.000000  0.008261  1
  Co  Co11  1  0.500000  0.333293  0.992520  1
  Co  Co12  1  0.500000  0.666707  0.992520  1
  Co  Co13  1  0.000000  0.170369  0.002787  1
  Co  Co14  1  0.000000  0.829631  0.002787  1
  Co  Co15  1  0.500000  0.298731  0.429510  1
  Co  Co16  1  0.500000  0.701269  0.429510  1
  Co  Co17  1  0.000000  0.206766  0.567916  1
  Co  Co18  1  0.000000  0.793234  0.567916  1
  Co  Co19  1  0.500000  0.879878  0.712227  1
  Co  Co20  1  0.500000  0.120122  0.712227  1
  Co  Co21  1  0.000000  0.617596  0.289738  1
  Co  Co22  1  0.000000  0.382404  0.289738  1
  Si  Si23  1  0.000000  0.000000  0.111342  1
  Si  Si24  1  0.000000  0.000000  0.663290  1
  Tc  Tc25  1  0.500000  0.500000  0.154716  1
  P  P26  1  0.500000  0.500000  0.886260  1
  P  P27  1  0.500000  0.500000  0.342805  1
  P  P28  1  0.500000  0.304522  0.614174  1
  P  P29  1  0.500000  0.695478  0.614174  1
  P  P30  1  0.000000  0.195957  0.386880  1
  P  P31  1  0.000000  0.804043  0.386880  1
  P  P32  1  0.500000  0.848902  0.895592  1
  P  P33  1  0.500000  0.151098  0.895592  1
  P  P34  1  0.000000  0.652698  0.103083  1
  P  P35  1  0.000000  0.347302  0.103083  1
