# generated using pymatgen
data_Tb3Y7(InSb)3
_symmetry_space_group_name_H-M   'P 1'
_cell_length_a   6.56273501
_cell_length_b   8.99436973
_cell_length_c   8.99250601
_cell_angle_alpha   120.00158242
_cell_angle_beta   89.99567258
_cell_angle_gamma   90.00052041
_symmetry_Int_Tables_number   1
_chemical_formula_structural   Tb3Y7(InSb)3
_chemical_formula_sum   'Tb3 Y7 In3 Sb3'
_cell_volume   459.68469687
_cell_formula_units_Z   1
loop_
 _symmetry_equiv_pos_site_id
 _symmetry_equiv_pos_as_xyz
  1  'x, y, z'
loop_
 _atom_site_type_symbol
 _atom_site_label
 _atom_site_symmetry_multiplicity
 _atom_site_fract_x
 _atom_site_fract_y
 _atom_site_fract_z
 _atom_site_occupancy
  Tb  Tb0  1  0.501896  0.333322  0.666613  1
  Tb  Tb1  1  0.501831  0.666725  0.333364  1
  Tb  Tb2  1  0.998151  0.666784  0.333437  1
  Y  Y3  1  0.998255  0.333359  0.666699  1
  Y  Y4  1  0.750019  0.239511  0.999913  1
  Y  Y5  1  0.750018  0.760471  0.760595  1
  Y  Y6  1  0.749998  0.000224  0.239599  1
  Y  Y7  1  0.249938  0.760384  0.999984  1
  Y  Y8  1  0.249950  0.239543  0.239613  1
  Y  Y9  1  0.249940  0.999892  0.760355  1
  In  In10  1  0.750110  0.605934  0.999801  1
  In  In11  1  0.750103  0.393849  0.394009  1
  In  In12  1  0.750097  0.000101  0.606047  1
  Sb  Sb13  1  0.249892  0.394009  0.999684  1
  Sb  Sb14  1  0.249903  0.605697  0.606015  1
  Sb  Sb15  1  0.249900  0.000195  0.394271  1
