# generated using pymatgen
data_Rb3NpO2F5
_symmetry_space_group_name_H-M   'P 1'
_cell_length_a   9.28148929
_cell_length_b   9.28148885
_cell_length_c   11.29592700
_cell_angle_alpha   114.25720100
_cell_angle_beta   114.25719301
_cell_angle_gamma   90.00000615
_symmetry_Int_Tables_number   1
_chemical_formula_structural   Rb3NpO2F5
_chemical_formula_sum   'Rb12 Np4 O8 F20'
_cell_volume   792.00475765
_cell_formula_units_Z   4
loop_
 _symmetry_equiv_pos_site_id
 _symmetry_equiv_pos_as_xyz
  1  'x, y, z'
loop_
 _atom_site_type_symbol
 _atom_site_label
 _atom_site_symmetry_multiplicity
 _atom_site_fract_x
 _atom_site_fract_y
 _atom_site_fract_z
 _atom_site_occupancy
  Rb  Rb0  1  0.197124  0.470050  0.968161  1
  Rb  Rb1  1  0.498112  0.697124  0.468161  1
  Rb  Rb2  1  0.970050  0.271037  0.468161  1
  Rb  Rb3  1  0.771037  0.998112  0.968161  1
  Rb  Rb4  1  0.802876  0.529950  0.031839  1
  Rb  Rb5  1  0.501888  0.302876  0.531839  1
  Rb  Rb6  1  0.029950  0.728963  0.531839  1
  Rb  Rb7  1  0.228963  0.001888  0.031839  1
  Rb  Rb8  1  0.375000  0.125000  0.750000  1
  Rb  Rb9  1  0.625000  0.875000  0.250000  1
  Rb  Rb10  1  0.875000  0.625000  0.750000  1
  Rb  Rb11  1  0.125000  0.375000  0.250000  1
  Np  Np12  1  0.851991  0.101991  0.703983  1
  Np  Np13  1  0.601991  0.351991  0.203983  1
  Np  Np14  1  0.148009  0.898009  0.296017  1
  Np  Np15  1  0.398009  0.648009  0.796017  1
  O  O16  1  0.641436  0.158260  0.201727  1
  O  O17  1  0.043468  0.141436  0.701727  1
  O  O18  1  0.658260  0.060291  0.701727  1
  O  O19  1  0.560291  0.543468  0.201727  1
  O  O20  1  0.358564  0.841740  0.798273  1
  O  O21  1  0.956532  0.858564  0.298273  1
  O  O22  1  0.341740  0.939709  0.298273  1
  O  O23  1  0.439709  0.456532  0.798273  1
  F  F24  1  0.132781  0.554408  0.714346  1
  F  F25  1  0.159938  0.632781  0.214346  1
  F  F26  1  0.054408  0.081564  0.214346  1
  F  F27  1  0.581564  0.659938  0.714346  1
  F  F28  1  0.867219  0.445592  0.285654  1
  F  F29  1  0.840062  0.367219  0.785654  1
  F  F30  1  0.945592  0.918436  0.785654  1
  F  F31  1  0.418436  0.340062  0.285654  1
  F  F32  1  0.272889  0.522889  0.545776  1
  F  F33  1  0.022889  0.772889  0.045776  1
  F  F34  1  0.727111  0.477111  0.454224  1
  F  F35  1  0.977111  0.227111  0.954224  1
  F  F36  1  0.362116  0.238072  0.009750  1
  F  F37  1  0.771677  0.862116  0.509750  1
  F  F38  1  0.738072  0.147632  0.509750  1
  F  F39  1  0.647632  0.271677  0.009750  1
  F  F40  1  0.637884  0.761928  0.990250  1
  F  F41  1  0.228323  0.137884  0.490250  1
  F  F42  1  0.261928  0.852368  0.490250  1
  F  F43  1  0.352368  0.728323  0.990250  1
