# generated using pymatgen
data_CeY7(Si3Rh)4
_symmetry_space_group_name_H-M   'P 1'
_cell_length_a   8.17654800
_cell_length_b   8.17653490
_cell_length_c   7.99778700
_cell_angle_alpha   90.00000000
_cell_angle_beta   90.00000000
_cell_angle_gamma   120.00009021
_symmetry_Int_Tables_number   1
_chemical_formula_structural   CeY7(Si3Rh)4
_chemical_formula_sum   'Ce1 Y7 Si12 Rh4'
_cell_volume   463.06222677
_cell_formula_units_Z   1
loop_
 _symmetry_equiv_pos_site_id
 _symmetry_equiv_pos_as_xyz
  1  'x, y, z'
loop_
 _atom_site_type_symbol
 _atom_site_label
 _atom_site_symmetry_multiplicity
 _atom_site_fract_x
 _atom_site_fract_y
 _atom_site_fract_z
 _atom_site_occupancy
  Ce  Ce0  1  0.000000  0.000001  0.250000  1
  Y  Y1  1  0.000000  0.999999  0.750000  1
  Y  Y2  1  0.508585  0.491414  0.250000  1
  Y  Y3  1  0.508585  0.017172  0.250000  1
  Y  Y4  1  0.982829  0.491414  0.250000  1
  Y  Y5  1  0.491286  0.508715  0.750000  1
  Y  Y6  1  0.491285  0.982571  0.750000  1
  Y  Y7  1  0.017431  0.508716  0.750000  1
  Si  Si8  1  0.167100  0.832900  0.499864  1
  Si  Si9  1  0.167101  0.334200  0.499864  1
  Si  Si10  1  0.665800  0.832899  0.499864  1
  Si  Si11  1  0.832611  0.167390  0.500120  1
  Si  Si12  1  0.832610  0.665220  0.500120  1
  Si  Si13  1  0.334780  0.167390  0.500119  1
  Si  Si14  1  0.832611  0.167390  0.999880  1
  Si  Si15  1  0.832610  0.665220  0.999880  1
  Si  Si16  1  0.334780  0.167390  0.999881  1
  Si  Si17  1  0.167100  0.832900  0.000136  1
  Si  Si18  1  0.167101  0.334200  0.000136  1
  Si  Si19  1  0.665800  0.832899  0.000136  1
  Rh  Rh20  1  0.333333  0.666666  0.469152  1
  Rh  Rh21  1  0.666664  0.333333  0.533034  1
  Rh  Rh22  1  0.666664  0.333333  0.966966  1
  Rh  Rh23  1  0.333333  0.666666  0.030848  1
