# generated using pymatgen
data_Lu6Zr4(SnSb)3
_symmetry_space_group_name_H-M   'P 1'
_cell_length_a   8.71235600
_cell_length_b   8.71235683
_cell_length_c   5.98055700
_cell_angle_alpha   90.00000000
_cell_angle_beta   90.00000000
_cell_angle_gamma   120.00000446
_symmetry_Int_Tables_number   1
_chemical_formula_structural   Lu6Zr4(SnSb)3
_chemical_formula_sum   'Lu6 Zr4 Sn3 Sb3'
_cell_volume   393.13663262
_cell_formula_units_Z   1
loop_
 _symmetry_equiv_pos_site_id
 _symmetry_equiv_pos_as_xyz
  1  'x, y, z'
loop_
 _atom_site_type_symbol
 _atom_site_label
 _atom_site_symmetry_multiplicity
 _atom_site_fract_x
 _atom_site_fract_y
 _atom_site_fract_z
 _atom_site_occupancy
  Lu  Lu0  1  0.757351  0.757351  0.750000  1
  Lu  Lu1  1  0.242649  0.000000  0.750000  1
  Lu  Lu2  1  0.000000  0.242649  0.750000  1
  Lu  Lu3  1  0.242638  0.242638  0.250000  1
  Lu  Lu4  1  0.757362  0.000000  0.250000  1
  Lu  Lu5  1  0.000000  0.757362  0.250000  1
  Zr  Zr6  1  0.666667  0.333333  0.999342  1
  Zr  Zr7  1  0.333333  0.666667  0.999342  1
  Zr  Zr8  1  0.333333  0.666667  0.500658  1
  Zr  Zr9  1  0.666667  0.333333  0.500658  1
  Sn  Sn10  1  0.396530  0.396530  0.750000  1
  Sn  Sn11  1  0.603470  0.000000  0.750000  1
  Sn  Sn12  1  0.000000  0.603470  0.750000  1
  Sb  Sb13  1  0.603913  0.603913  0.250000  1
  Sb  Sb14  1  0.396087  0.000000  0.250000  1
  Sb  Sb15  1  0.000000  0.396087  0.250000  1
