# generated using pymatgen
data_La10Nd6Cd4FePd3
_symmetry_space_group_name_H-M   'P 1'
_cell_length_a   10.11311979
_cell_length_b   10.11280635
_cell_length_c   10.11308243
_cell_angle_alpha   59.72786834
_cell_angle_beta   59.72907086
_cell_angle_gamma   59.72566064
_symmetry_Int_Tables_number   1
_chemical_formula_structural   La10Nd6Cd4FePd3
_chemical_formula_sum   'La10 Nd6 Cd4 Fe1 Pd3'
_cell_volume   726.82461401
_cell_formula_units_Z   1
loop_
 _symmetry_equiv_pos_site_id
 _symmetry_equiv_pos_as_xyz
  1  'x, y, z'
loop_
 _atom_site_type_symbol
 _atom_site_label
 _atom_site_symmetry_multiplicity
 _atom_site_fract_x
 _atom_site_fract_y
 _atom_site_fract_z
 _atom_site_occupancy
  La  La0  1  0.351003  0.350987  0.350920  1
  La  La1  1  0.342171  0.342145  0.956175  1
  La  La2  1  0.342112  0.956263  0.342135  1
  La  La3  1  0.956217  0.342090  0.342169  1
  La  La4  1  0.824001  0.189497  0.189497  1
  La  La5  1  0.193438  0.804735  0.804775  1
  La  La6  1  0.189463  0.823937  0.189541  1
  La  La7  1  0.804745  0.193492  0.804759  1
  La  La8  1  0.189492  0.189554  0.823974  1
  La  La9  1  0.804753  0.804749  0.193479  1
  Nd  Nd10  1  0.936072  0.566184  0.566164  1
  Nd  Nd11  1  0.564086  0.933334  0.933341  1
  Nd  Nd12  1  0.566191  0.936084  0.566153  1
  Nd  Nd13  1  0.933315  0.564094  0.933325  1
  Nd  Nd14  1  0.566138  0.566129  0.936109  1
  Nd  Nd15  1  0.933357  0.933338  0.564064  1
  Cd  Cd16  1  0.579921  0.579875  0.579887  1
  Cd  Cd17  1  0.581235  0.581256  0.256447  1
  Cd  Cd18  1  0.581253  0.256454  0.581228  1
  Cd  Cd19  1  0.256450  0.581259  0.581227  1
  Fe  Fe20  1  0.141638  0.141630  0.141584  1
  Pd  Pd21  1  0.144070  0.144034  0.574873  1
  Pd  Pd22  1  0.144032  0.574862  0.144078  1
  Pd  Pd23  1  0.574846  0.144015  0.144092  1
