# generated using pymatgen
data_Tb2DyEr3Co2
_symmetry_space_group_name_H-M   'P 1'
_cell_length_a   6.20103303
_cell_length_b   6.91069600
_cell_length_c   9.39147813
_cell_angle_alpha   90.00000000
_cell_angle_beta   89.68176367
_cell_angle_gamma   90.00000000
_symmetry_Int_Tables_number   1
_chemical_formula_structural   Tb2DyEr3Co2
_chemical_formula_sum   'Tb4 Dy2 Er6 Co4'
_cell_volume   402.45106930
_cell_formula_units_Z   2
loop_
 _symmetry_equiv_pos_site_id
 _symmetry_equiv_pos_as_xyz
  1  'x, y, z'
loop_
 _atom_site_type_symbol
 _atom_site_label
 _atom_site_symmetry_multiplicity
 _atom_site_fract_x
 _atom_site_fract_y
 _atom_site_fract_z
 _atom_site_occupancy
  Tb  Tb0  1  0.861000  0.542316  0.249415  1
  Tb  Tb1  1  0.639000  0.042316  0.250585  1
  Tb  Tb2  1  0.137547  0.457288  0.750094  1
  Tb  Tb3  1  0.362453  0.957288  0.749906  1
  Dy  Dy4  1  0.323174  0.675640  0.432044  1
  Dy  Dy5  1  0.176826  0.175640  0.067956  1
  Er  Er6  1  0.325964  0.675215  0.066329  1
  Er  Er7  1  0.174036  0.175215  0.433671  1
  Er  Er8  1  0.674442  0.325012  0.567746  1
  Er  Er9  1  0.825558  0.825012  0.932254  1
  Er  Er10  1  0.675462  0.324153  0.932312  1
  Er  Er11  1  0.824538  0.824153  0.567688  1
  Co  Co12  1  0.050725  0.888100  0.250535  1
  Co  Co13  1  0.449275  0.388100  0.249465  1
  Co  Co14  1  0.948344  0.112277  0.746089  1
  Co  Co15  1  0.551656  0.612277  0.753911  1
