# generated using pymatgen
data_Er6Nb3Al13Os7
_symmetry_space_group_name_H-M   'P 1'
_cell_length_a   9.01202110
_cell_length_b   9.01231435
_cell_length_c   9.01209939
_cell_angle_alpha   59.77544496
_cell_angle_beta   59.77512200
_cell_angle_gamma   59.77532216
_symmetry_Int_Tables_number   1
_chemical_formula_structural   Er6Nb3Al13Os7
_chemical_formula_sum   'Er6 Nb3 Al13 Os7'
_cell_volume   514.92997647
_cell_formula_units_Z   1
loop_
 _symmetry_equiv_pos_site_id
 _symmetry_equiv_pos_as_xyz
  1  'x, y, z'
loop_
 _atom_site_type_symbol
 _atom_site_label
 _atom_site_symmetry_multiplicity
 _atom_site_fract_x
 _atom_site_fract_y
 _atom_site_fract_z
 _atom_site_occupancy
  Er  Er0  1  0.710703  0.710715  0.281905  1
  Er  Er1  1  0.292732  0.709247  0.292738  1
  Er  Er2  1  0.709240  0.292730  0.292736  1
  Er  Er3  1  0.292734  0.292731  0.709246  1
  Er  Er4  1  0.710706  0.281899  0.710709  1
  Er  Er5  1  0.281906  0.710713  0.710703  1
  Nb  Nb6  1  0.877270  0.877276  0.362085  1
  Nb  Nb7  1  0.877272  0.362084  0.877276  1
  Nb  Nb8  1  0.362083  0.877277  0.877271  1
  Al  Al9  1  0.881209  0.881213  0.881213  1
  Al  Al10  1  0.120913  0.120914  0.639438  1
  Al  Al11  1  0.120912  0.639440  0.120915  1
  Al  Al12  1  0.639435  0.120914  0.120916  1
  Al  Al13  1  0.120739  0.120738  0.120741  1
  Al  Al14  1  0.669943  0.669950  0.994929  1
  Al  Al15  1  0.669943  0.994935  0.669947  1
  Al  Al16  1  0.994927  0.669950  0.669945  1
  Al  Al17  1  0.665181  0.665189  0.665186  1
  Al  Al18  1  0.331882  0.331880  0.006699  1
  Al  Al19  1  0.331883  0.006694  0.331884  1
  Al  Al20  1  0.006699  0.331880  0.331883  1
  Al  Al21  1  0.332281  0.332278  0.332282  1
  Os  Os22  1  0.002029  0.002053  0.002025  1
  Os  Os23  1  0.998814  0.998817  0.498350  1
  Os  Os24  1  0.502262  0.996830  0.502259  1
  Os  Os25  1  0.996844  0.502245  0.502250  1
  Os  Os26  1  0.502265  0.502263  0.996827  1
  Os  Os27  1  0.998825  0.498326  0.998827  1
  Os  Os28  1  0.498365  0.998814  0.998814  1
