# generated using pymatgen
data_Zr6Zn16PPd7
_symmetry_space_group_name_H-M   'P 1'
_cell_length_a   8.81892381
_cell_length_b   8.81892374
_cell_length_c   8.81892300
_cell_angle_alpha   59.99999902
_cell_angle_beta   59.99999929
_cell_angle_gamma   59.99999926
_symmetry_Int_Tables_number   1
_chemical_formula_structural   Zr6Zn16PPd7
_chemical_formula_sum   'Zr6 Zn16 P1 Pd7'
_cell_volume   484.98881478
_cell_formula_units_Z   1
loop_
 _symmetry_equiv_pos_site_id
 _symmetry_equiv_pos_as_xyz
  1  'x, y, z'
loop_
 _atom_site_type_symbol
 _atom_site_label
 _atom_site_symmetry_multiplicity
 _atom_site_fract_x
 _atom_site_fract_y
 _atom_site_fract_z
 _atom_site_occupancy
  Zr  Zr0  1  0.707206  0.292794  0.292794  1
  Zr  Zr1  1  0.292794  0.707206  0.707206  1
  Zr  Zr2  1  0.292794  0.707206  0.292794  1
  Zr  Zr3  1  0.707206  0.292794  0.707206  1
  Zr  Zr4  1  0.292794  0.292794  0.707206  1
  Zr  Zr5  1  0.707206  0.707206  0.292794  1
  Zn  Zn6  1  0.122178  0.122178  0.122178  1
  Zn  Zn7  1  0.877822  0.877822  0.877822  1
  Zn  Zn8  1  0.122178  0.122178  0.633466  1
  Zn  Zn9  1  0.122178  0.633466  0.122178  1
  Zn  Zn10  1  0.877822  0.877822  0.366534  1
  Zn  Zn11  1  0.877822  0.366534  0.877822  1
  Zn  Zn12  1  0.633466  0.122178  0.122178  1
  Zn  Zn13  1  0.366534  0.877822  0.877822  1
  Zn  Zn14  1  0.337694  0.337694  0.337694  1
  Zn  Zn15  1  0.662306  0.662306  0.662306  1
  Zn  Zn16  1  0.337694  0.337694  0.986920  1
  Zn  Zn17  1  0.337694  0.986920  0.337694  1
  Zn  Zn18  1  0.662306  0.662306  0.013080  1
  Zn  Zn19  1  0.662306  0.013080  0.662306  1
  Zn  Zn20  1  0.986920  0.337694  0.337694  1
  Zn  Zn21  1  0.013080  0.662306  0.662306  1
  P  P22  1  0.500000  0.500000  0.500000  1
  Pd  Pd23  1  0.500000  0.000000  0.000000  1
  Pd  Pd24  1  0.000000  0.500000  0.500000  1
  Pd  Pd25  1  0.000000  0.500000  0.000000  1
  Pd  Pd26  1  0.500000  0.000000  0.500000  1
  Pd  Pd27  1  0.000000  0.000000  0.500000  1
  Pd  Pd28  1  0.500000  0.500000  0.000000  1
  Pd  Pd29  1  0.000000  0.000000  0.000000  1
