# generated using pymatgen
data_LiDy2BRh5
_symmetry_space_group_name_H-M   'P 1'
_cell_length_a   5.87192593
_cell_length_b   5.80146514
_cell_length_c   5.80146617
_cell_angle_alpha   60.80516507
_cell_angle_beta   59.59742141
_cell_angle_gamma   59.59742174
_symmetry_Int_Tables_number   1
_chemical_formula_structural   LiDy2BRh5
_chemical_formula_sum   'Li1 Dy2 B1 Rh5'
_cell_volume   139.70479936
_cell_formula_units_Z   1
loop_
 _symmetry_equiv_pos_site_id
 _symmetry_equiv_pos_as_xyz
  1  'x, y, z'
loop_
 _atom_site_type_symbol
 _atom_site_label
 _atom_site_symmetry_multiplicity
 _atom_site_fract_x
 _atom_site_fract_y
 _atom_site_fract_z
 _atom_site_occupancy
  Li  Li0  1  0.729122  0.270879  0.270879  1
  Dy  Dy1  1  0.248701  0.251299  0.251299  1
  Dy  Dy2  1  0.748701  0.751299  0.751299  1
  B  B3  1  0.011981  0.988019  0.988019  1
  Rh  Rh4  1  0.251417  0.748584  0.253979  1
  Rh  Rh5  1  0.746021  0.748583  0.253980  1
  Rh  Rh6  1  0.251417  0.253979  0.748584  1
  Rh  Rh7  1  0.746021  0.253980  0.748583  1
  Rh  Rh8  1  0.266622  0.733379  0.733379  1
