# generated using pymatgen
data_Ho5MnCoO12
_symmetry_space_group_name_H-M   'P 1'
_cell_length_a   6.73156044
_cell_length_b   6.73156011
_cell_length_c   7.19218854
_cell_angle_alpha   74.46435254
_cell_angle_beta   74.46435701
_cell_angle_gamma   50.64035820
_symmetry_Int_Tables_number   1
_chemical_formula_structural   Ho5MnCoO12
_chemical_formula_sum   'Ho5 Mn1 Co1 O12'
_cell_volume   240.66865015
_cell_formula_units_Z   1
loop_
 _symmetry_equiv_pos_site_id
 _symmetry_equiv_pos_as_xyz
  1  'x, y, z'
loop_
 _atom_site_type_symbol
 _atom_site_label
 _atom_site_symmetry_multiplicity
 _atom_site_fract_x
 _atom_site_fract_y
 _atom_site_fract_z
 _atom_site_occupancy
  Ho  Ho0  1  0.307468  0.301713  0.357565  1
  Ho  Ho1  1  0.698287  0.692532  0.642435  1
  Ho  Ho2  1  0.306706  0.309421  0.833315  1
  Ho  Ho3  1  0.690579  0.693294  0.166685  1
  Ho  Ho4  1  0.005982  0.994018  0.500000  1
  Mn  Mn5  1  0.752539  0.247461  0.000000  1
  Co  Co6  1  0.239980  0.760020  0.000000  1
  O  O7  1  0.902947  0.424193  0.920339  1
  O  O8  1  0.413896  0.898016  0.921506  1
  O  O9  1  0.101984  0.586104  0.078494  1
  O  O10  1  0.575807  0.097053  0.079661  1
  O  O11  1  0.099054  0.596656  0.573748  1
  O  O12  1  0.598624  0.094695  0.578031  1
  O  O13  1  0.905305  0.401376  0.421969  1
  O  O14  1  0.403344  0.900946  0.426252  1
  O  O15  1  0.003290  0.997995  0.823336  1
  O  O16  1  0.002005  0.996710  0.176664  1
  O  O17  1  0.496287  0.504083  0.820316  1
  O  O18  1  0.495917  0.503713  0.179684  1
