# generated using pymatgen
data_Tm6Sc4(GaSb)3
_symmetry_space_group_name_H-M   'P 1'
_cell_length_a   8.51625200
_cell_length_b   8.52554218
_cell_length_c   6.14364100
_cell_angle_alpha   90.00000000
_cell_angle_beta   90.00000000
_cell_angle_gamma   119.96395997
_symmetry_Int_Tables_number   1
_chemical_formula_structural   Tm6Sc4(GaSb)3
_chemical_formula_sum   'Tm6 Sc4 Ga3 Sb3'
_cell_volume   386.44222866
_cell_formula_units_Z   1
loop_
 _symmetry_equiv_pos_site_id
 _symmetry_equiv_pos_as_xyz
  1  'x, y, z'
loop_
 _atom_site_type_symbol
 _atom_site_label
 _atom_site_symmetry_multiplicity
 _atom_site_fract_x
 _atom_site_fract_y
 _atom_site_fract_z
 _atom_site_occupancy
  Tm  Tm0  1  0.235527  0.000000  0.250000  1
  Tm  Tm1  1  0.243090  0.230994  0.750000  1
  Tm  Tm2  1  0.012096  0.769006  0.750000  1
  Tm  Tm3  1  0.012939  0.249582  0.250000  1
  Tm  Tm4  1  0.763357  0.750418  0.250000  1
  Tm  Tm5  1  0.753964  0.000000  0.750000  1
  Sc  Sc6  1  0.327497  0.666658  0.003909  1
  Sc  Sc7  1  0.660839  0.333342  0.496091  1
  Sc  Sc8  1  0.660839  0.333342  0.003909  1
  Sc  Sc9  1  0.327497  0.666658  0.496091  1
  Ga  Ga10  1  0.998896  0.600151  0.250000  1
  Ga  Ga11  1  0.398744  0.399849  0.250000  1
  Ga  Ga12  1  0.400897  0.000000  0.750000  1
  Sb  Sb13  1  0.605355  0.000000  0.250000  1
  Sb  Sb14  1  0.600533  0.602606  0.750000  1
  Sb  Sb15  1  0.997928  0.397394  0.750000  1
