# generated using pymatgen
data_NdCoH5
_symmetry_space_group_name_H-M   'P 1'
_cell_length_a   4.36291100
_cell_length_b   4.68008500
_cell_length_c   11.79110000
_cell_angle_alpha   90.00000000
_cell_angle_beta   90.00000000
_cell_angle_gamma   90.00000000
_symmetry_Int_Tables_number   1
_chemical_formula_structural   NdCoH5
_chemical_formula_sum   'Nd4 Co4 H20'
_cell_volume   240.76004579
_cell_formula_units_Z   4
loop_
 _symmetry_equiv_pos_site_id
 _symmetry_equiv_pos_as_xyz
  1  'x, y, z'
loop_
 _atom_site_type_symbol
 _atom_site_label
 _atom_site_symmetry_multiplicity
 _atom_site_fract_x
 _atom_site_fract_y
 _atom_site_fract_z
 _atom_site_occupancy
  Nd  Nd0  1  0.269540  0.170174  0.650105  1
  Nd  Nd1  1  0.769540  0.329826  0.349895  1
  Nd  Nd2  1  0.230460  0.829826  0.150105  1
  Nd  Nd3  1  0.730460  0.670174  0.849895  1
  Co  Co4  1  0.318848  0.164439  0.914399  1
  Co  Co5  1  0.818848  0.335561  0.085601  1
  Co  Co6  1  0.181152  0.835561  0.414399  1
  Co  Co7  1  0.681152  0.664439  0.585601  1
  H  H8  1  0.541929  0.413041  0.518453  1
  H  H9  1  0.041929  0.086959  0.481547  1
  H  H10  1  0.958071  0.586959  0.018453  1
  H  H11  1  0.458071  0.913041  0.981547  1
  H  H12  1  0.186638  0.937233  0.827602  1
  H  H13  1  0.686638  0.562767  0.172398  1
  H  H14  1  0.313362  0.062767  0.327602  1
  H  H15  1  0.813362  0.437233  0.672398  1
  H  H16  1  0.210592  0.425307  0.835716  1
  H  H17  1  0.710592  0.074693  0.164284  1
  H  H18  1  0.289408  0.574693  0.335716  1
  H  H19  1  0.789408  0.925307  0.664284  1
  H  H20  1  0.600119  0.166842  0.828177  1
  H  H21  1  0.100119  0.333158  0.171823  1
  H  H22  1  0.899881  0.833158  0.328177  1
  H  H23  1  0.399881  0.666842  0.671823  1
  H  H24  1  0.002151  0.118130  0.995286  1
  H  H25  1  0.502151  0.381870  0.004714  1
  H  H26  1  0.497849  0.881870  0.495286  1
  H  H27  1  0.997849  0.618130  0.504714  1
