# generated using pymatgen
data_Sm7Er(Si4W3)4
_symmetry_space_group_name_H-M   'P 1'
_cell_length_a   6.92482178
_cell_length_b   6.92609307
_cell_length_c   12.92349641
_cell_angle_alpha   90.09562936
_cell_angle_beta   89.91020384
_cell_angle_gamma   90.04945355
_symmetry_Int_Tables_number   1
_chemical_formula_structural   Sm7Er(Si4W3)4
_chemical_formula_sum   'Sm7 Er1 Si16 W12'
_cell_volume   619.83436592
_cell_formula_units_Z   1
loop_
 _symmetry_equiv_pos_site_id
 _symmetry_equiv_pos_as_xyz
  1  'x, y, z'
loop_
 _atom_site_type_symbol
 _atom_site_label
 _atom_site_symmetry_multiplicity
 _atom_site_fract_x
 _atom_site_fract_y
 _atom_site_fract_z
 _atom_site_occupancy
  Sm  Sm0  1  0.336536  0.998904  0.469114  1
  Sm  Sm1  1  0.501213  0.836840  0.719680  1
  Sm  Sm2  1  0.499367  0.162981  0.218474  1
  Sm  Sm3  1  0.836769  0.500987  0.280431  1
  Sm  Sm4  1  0.163005  0.499277  0.781147  1
  Sm  Sm5  1  0.663478  0.001141  0.969412  1
  Sm  Sm6  1  0.998971  0.336366  0.530825  1
  Er  Er7  1  0.003073  0.661971  0.030827  1
  Si  Si8  1  0.200024  0.122652  0.686057  1
  Si  Si9  1  0.374195  0.700601  0.936033  1
  Si  Si10  1  0.622446  0.299760  0.435317  1
  Si  Si11  1  0.702745  0.378692  0.064766  1
  Si  Si12  1  0.300011  0.622406  0.564509  1
  Si  Si13  1  0.801538  0.874981  0.183644  1
  Si  Si14  1  0.122879  0.200066  0.313939  1
  Si  Si15  1  0.877248  0.799150  0.816166  1
  Si  Si16  1  0.284917  0.962503  0.063762  1
  Si  Si17  1  0.535870  0.786169  0.313274  1
  Si  Si18  1  0.464970  0.214758  0.814198  1
  Si  Si19  1  0.785850  0.535171  0.686894  1
  Si  Si20  1  0.212606  0.465257  0.184997  1
  Si  Si21  1  0.714146  0.034934  0.563568  1
  Si  Si22  1  0.964363  0.289471  0.936754  1
  Si  Si23  1  0.035212  0.713971  0.436395  1
  W  W24  1  0.332977  0.334162  0.000026  1
  W  W25  1  0.166162  0.832423  0.249185  1
  W  W26  1  0.833184  0.166673  0.749939  1
  W  W27  1  0.666667  0.666677  0.500077  1
  W  W28  1  0.164554  0.001735  0.875657  1
  W  W29  1  0.499574  0.665603  0.123897  1
  W  W30  1  0.501890  0.333183  0.624378  1
  W  W31  1  0.666698  0.501211  0.877141  1
  W  W32  1  0.333223  0.501966  0.374834  1
  W  W33  1  0.833882  0.998104  0.373404  1
  W  W34  1  0.001242  0.165904  0.124913  1
  W  W35  1  0.998518  0.833353  0.626366  1
