# generated using pymatgen
data_Nd4MgCo2Au
_symmetry_space_group_name_H-M   'P 1'
_cell_length_a   8.85603249
_cell_length_b   8.85603234
_cell_length_c   8.85603200
_cell_angle_alpha   130.74872346
_cell_angle_beta   130.74872260
_cell_angle_gamma   72.21261310
_symmetry_Int_Tables_number   1
_chemical_formula_structural   Nd4MgCo2Au
_chemical_formula_sum   'Nd8 Mg2 Co4 Au2'
_cell_volume   389.73535314
_cell_formula_units_Z   2
loop_
 _symmetry_equiv_pos_site_id
 _symmetry_equiv_pos_as_xyz
  1  'x, y, z'
loop_
 _atom_site_type_symbol
 _atom_site_label
 _atom_site_symmetry_multiplicity
 _atom_site_fract_x
 _atom_site_fract_y
 _atom_site_fract_z
 _atom_site_occupancy
  Nd  Nd0  1  0.809446  0.309446  0.857656  1
  Nd  Nd1  1  0.190554  0.690554  0.142345  1
  Nd  Nd2  1  0.451793  0.951793  0.142345  1
  Nd  Nd3  1  0.309446  0.451793  0.500000  1
  Nd  Nd4  1  0.048207  0.190554  0.500000  1
  Nd  Nd5  1  0.548207  0.048207  0.857655  1
  Nd  Nd6  1  0.690554  0.548207  0.500000  1
  Nd  Nd7  1  0.951793  0.809446  0.500000  1
  Mg  Mg8  1  0.000000  0.000000  0.000000  1
  Mg  Mg9  1  0.500000  0.500000  0.000000  1
  Co  Co10  1  0.113281  0.613281  0.726561  1
  Co  Co11  1  0.886719  0.386719  0.273439  1
  Co  Co12  1  0.613281  0.886719  0.500000  1
  Co  Co13  1  0.386719  0.113281  0.500000  1
  Au  Au14  1  0.250000  0.250000  0.000000  1
  Au  Au15  1  0.750000  0.750000  0.000000  1
