# generated using pymatgen
data_Pr2Ga2(GePd)3
_symmetry_space_group_name_H-M   'P 1'
_cell_length_a   8.60331632
_cell_length_b   8.60331710
_cell_length_c   8.60331648
_cell_angle_alpha   138.27346038
_cell_angle_beta   105.65458791
_cell_angle_gamma   89.07363362
_symmetry_Int_Tables_number   1
_chemical_formula_structural   Pr2Ga2(GePd)3
_chemical_formula_sum   'Pr4 Ga4 Ge6 Pd6'
_cell_volume   390.69670613
_cell_formula_units_Z   2
loop_
 _symmetry_equiv_pos_site_id
 _symmetry_equiv_pos_as_xyz
  1  'x, y, z'
loop_
 _atom_site_type_symbol
 _atom_site_label
 _atom_site_symmetry_multiplicity
 _atom_site_fract_x
 _atom_site_fract_y
 _atom_site_fract_z
 _atom_site_occupancy
  Pr  Pr0  1  0.636661  0.870602  0.766058  1
  Pr  Pr1  1  0.363339  0.129398  0.233942  1
  Pr  Pr2  1  0.104545  0.370602  0.733942  1
  Pr  Pr3  1  0.895455  0.629398  0.266058  1
  Ga  Ga4  1  0.272064  0.022064  0.750000  1
  Ga  Ga5  1  0.727936  0.977936  0.250000  1
  Ga  Ga6  1  0.727936  0.477936  0.750000  1
  Ga  Ga7  1  0.272064  0.522064  0.250000  1
  Ge  Ge8  1  0.457415  0.609607  0.847807  1
  Ge  Ge9  1  0.542585  0.390393  0.152193  1
  Ge  Ge10  1  0.761800  0.109607  0.652193  1
  Ge  Ge11  1  0.238200  0.890393  0.347807  1
  Ge  Ge12  1  0.000000  0.750000  0.750000  1
  Ge  Ge13  1  0.000000  0.250000  0.250000  1
  Pd  Pd14  1  0.246885  0.635042  0.611845  1
  Pd  Pd15  1  0.753115  0.364958  0.388155  1
  Pd  Pd16  1  0.023197  0.135042  0.888155  1
  Pd  Pd17  1  0.976803  0.864958  0.111845  1
  Pd  Pd18  1  0.500000  0.750000  0.250000  1
  Pd  Pd19  1  0.500000  0.250000  0.750000  1
