# generated using pymatgen
data_Dy2Fe4BC3
_symmetry_space_group_name_H-M   'P 1'
_cell_length_a   6.21758574
_cell_length_b   5.40260489
_cell_length_c   5.09929900
_cell_angle_alpha   72.53922250
_cell_angle_beta   56.36971808
_cell_angle_gamma   51.47636607
_symmetry_Int_Tables_number   1
_chemical_formula_structural   Dy2Fe4BC3
_chemical_formula_sum   'Dy2 Fe4 B1 C3'
_cell_volume   111.31527625
_cell_formula_units_Z   1
loop_
 _symmetry_equiv_pos_site_id
 _symmetry_equiv_pos_as_xyz
  1  'x, y, z'
loop_
 _atom_site_type_symbol
 _atom_site_label
 _atom_site_symmetry_multiplicity
 _atom_site_fract_x
 _atom_site_fract_y
 _atom_site_fract_z
 _atom_site_occupancy
  Dy  Dy0  1  0.000143  0.999857  0.000143  1
  Dy  Dy1  1  0.252688  0.247312  0.252688  1
  Fe  Fe2  1  0.624791  0.634069  0.378654  1
  Fe  Fe3  1  0.378654  0.362486  0.624791  1
  Fe  Fe4  1  0.608346  0.622199  0.883928  1
  Fe  Fe5  1  0.883928  0.885528  0.608346  1
  B  B6  1  0.933953  0.566047  0.933953  1
  C  C7  1  0.316492  0.683508  0.316492  1
  C  C8  1  0.686176  0.313824  0.686176  1
  C  C9  1  0.564831  0.935169  0.564831  1
