# generated using pymatgen
data_Er2Tm10GaCo4Ru
_symmetry_space_group_name_H-M   'P 1'
_cell_length_a   8.11848752
_cell_length_b   8.11865675
_cell_length_c   8.11845788
_cell_angle_alpha   106.61915553
_cell_angle_beta   110.76411924
_cell_angle_gamma   111.06793944
_symmetry_Int_Tables_number   1
_chemical_formula_structural   Er2Tm10GaCo4Ru
_chemical_formula_sum   'Er2 Tm10 Ga1 Co4 Ru1'
_cell_volume   411.15287942
_cell_formula_units_Z   1
loop_
 _symmetry_equiv_pos_site_id
 _symmetry_equiv_pos_as_xyz
  1  'x, y, z'
loop_
 _atom_site_type_symbol
 _atom_site_label
 _atom_site_symmetry_multiplicity
 _atom_site_fract_x
 _atom_site_fract_y
 _atom_site_fract_z
 _atom_site_occupancy
  Er  Er0  1  0.037831  0.220783  0.817099  1
  Er  Er1  1  0.403675  0.220805  0.182934  1
  Tm  Tm2  1  0.693382  0.273378  0.966699  1
  Tm  Tm3  1  0.306681  0.726680  0.033296  1
  Tm  Tm4  1  0.693398  0.726698  0.420002  1
  Tm  Tm5  1  0.306685  0.273371  0.579999  1
  Tm  Tm6  1  0.803140  0.119632  0.316501  1
  Tm  Tm7  1  0.803153  0.486662  0.683514  1
  Tm  Tm8  1  0.196921  0.880171  0.683254  1
  Tm  Tm9  1  0.196929  0.513651  0.316739  1
  Tm  Tm10  1  0.596630  0.779112  0.817503  1
  Tm  Tm11  1  0.961612  0.779125  0.182492  1
  Ga  Ga12  1  0.499962  0.999959  0.499995  1
  Co  Co13  1  0.873462  0.500054  0.373395  1
  Co  Co14  1  0.126666  0.500064  0.626594  1
  Co  Co15  1  0.999763  0.113131  0.113382  1
  Co  Co16  1  0.999754  0.886365  0.886609  1
  Ru  Ru17  1  0.500358  0.500359  0.999996  1
