# generated using pymatgen
data_YHo3Ga18(CoPd)3
_symmetry_space_group_name_H-M   'P 1'
_cell_length_a   7.51699947
_cell_length_b   7.51676819
_cell_length_c   9.45744220
_cell_angle_alpha   90.01268685
_cell_angle_beta   90.01756074
_cell_angle_gamma   119.63933023
_symmetry_Int_Tables_number   1
_chemical_formula_structural   YHo3Ga18(CoPd)3
_chemical_formula_sum   'Y1 Ho3 Ga18 Co3 Pd3'
_cell_volume   464.45845760
_cell_formula_units_Z   1
loop_
 _symmetry_equiv_pos_site_id
 _symmetry_equiv_pos_as_xyz
  1  'x, y, z'
loop_
 _atom_site_type_symbol
 _atom_site_label
 _atom_site_symmetry_multiplicity
 _atom_site_fract_x
 _atom_site_fract_y
 _atom_site_fract_z
 _atom_site_occupancy
  Y  Y0  1  0.322413  0.998413  0.750180  1
  Ho  Ho1  1  0.007325  0.328745  0.749528  1
  Ho  Ho2  1  0.671330  0.992690  0.250471  1
  Ho  Ho3  1  0.001575  0.677540  0.249844  1
  Ga  Ga4  1  0.664741  0.013523  0.922052  1
  Ga  Ga5  1  0.344351  0.997951  0.425627  1
  Ga  Ga6  1  0.994742  0.342824  0.426082  1
  Ga  Ga7  1  0.346246  0.013032  0.078169  1
  Ga  Ga8  1  0.986721  0.653504  0.922226  1
  Ga  Ga9  1  0.986493  0.335570  0.078156  1
  Ga  Ga10  1  0.341695  0.339873  0.561703  1
  Ga  Ga11  1  0.344549  0.336574  0.931859  1
  Ga  Ga12  1  0.663722  0.655475  0.068354  1
  Ga  Ga13  1  0.660378  0.658311  0.438102  1
  Ga  Ga14  1  0.860757  0.863302  0.749124  1
  Ga  Ga15  1  0.136623  0.138966  0.250875  1
  Ga  Ga16  1  0.334278  0.547249  0.258648  1
  Ga  Ga17  1  0.560275  0.335693  0.252409  1
  Ga  Ga18  1  0.664599  0.440074  0.747588  1
  Ga  Ga19  1  0.452785  0.665475  0.741343  1
  Ga  Ga20  1  0.657456  0.005259  0.573715  1
  Ga  Ga21  1  0.001763  0.655384  0.573947  1
  Co  Co22  1  0.670522  0.329585  0.499936  1
  Co  Co23  1  0.668784  0.331285  0.000067  1
  Co  Co24  1  0.328930  0.670980  0.499912  1
  Pd  Pd25  1  0.327878  0.672031  0.000089  1
  Pd  Pd26  1  0.998621  0.001263  0.000081  1
  Pd  Pd27  1  0.000449  0.999430  0.499914  1
