# generated using pymatgen
data_YHo3Al15(GaIr2)3
_symmetry_space_group_name_H-M   'P 1'
_cell_length_a   7.53728478
_cell_length_b   7.53707295
_cell_length_c   9.51317600
_cell_angle_alpha   90.00000000
_cell_angle_beta   90.00000000
_cell_angle_gamma   119.51823088
_symmetry_Int_Tables_number   1
_chemical_formula_structural   YHo3Al15(GaIr2)3
_chemical_formula_sum   'Y1 Ho3 Al15 Ga3 Ir6'
_cell_volume   470.28566279
_cell_formula_units_Z   1
loop_
 _symmetry_equiv_pos_site_id
 _symmetry_equiv_pos_as_xyz
  1  'x, y, z'
loop_
 _atom_site_type_symbol
 _atom_site_label
 _atom_site_symmetry_multiplicity
 _atom_site_fract_x
 _atom_site_fract_y
 _atom_site_fract_z
 _atom_site_occupancy
  Y  Y0  1  0.996683  0.672901  0.250000  1
  Ho  Ho1  1  0.005591  0.327179  0.750000  1
  Ho  Ho2  1  0.670088  0.992010  0.250000  1
  Ho  Ho3  1  0.326832  0.004429  0.750000  1
  Al  Al4  1  0.001150  0.334904  0.072335  1
  Al  Al5  1  0.998736  0.664572  0.926034  1
  Al  Al6  1  0.998736  0.664572  0.573966  1
  Al  Al7  1  0.335846  0.002401  0.427305  1
  Al  Al8  1  0.001150  0.334904  0.427665  1
  Al  Al9  1  0.664694  0.999215  0.573365  1
  Al  Al10  1  0.664694  0.999215  0.926635  1
  Al  Al11  1  0.335846  0.002401  0.072695  1
  Al  Al12  1  0.333899  0.333845  0.555322  1
  Al  Al13  1  0.666192  0.666004  0.448239  1
  Al  Al14  1  0.666192  0.666004  0.051761  1
  Al  Al15  1  0.333899  0.333845  0.944678  1
  Al  Al16  1  0.662228  0.451352  0.750000  1
  Al  Al17  1  0.548618  0.338565  0.250000  1
  Al  Al18  1  0.451366  0.662196  0.750000  1
  Ga  Ga19  1  0.129815  0.130725  0.250000  1
  Ga  Ga20  1  0.868165  0.868173  0.750000  1
  Ga  Ga21  1  0.339618  0.546795  0.250000  1
  Ir  Ir22  1  0.671319  0.328704  0.000114  1
  Ir  Ir23  1  0.328415  0.672615  0.997892  1
  Ir  Ir24  1  0.328415  0.672615  0.502108  1
  Ir  Ir25  1  0.671319  0.328704  0.499886  1
  Ir  Ir26  1  0.000246  0.000576  0.999919  1
  Ir  Ir27  1  0.000246  0.000576  0.500081  1
