# generated using pymatgen
data_Tb6Tm2Cu3Si12Pd
_symmetry_space_group_name_H-M   'P 1'
_cell_length_a   8.05193500
_cell_length_b   8.03935879
_cell_length_c   8.12655700
_cell_angle_alpha   89.99639056
_cell_angle_beta   90.00208948
_cell_angle_gamma   120.05174992
_symmetry_Int_Tables_number   1
_chemical_formula_structural   Tb6Tm2Cu3Si12Pd
_chemical_formula_sum   'Tb6 Tm2 Cu3 Si12 Pd1'
_cell_volume   455.33620367
_cell_formula_units_Z   1
loop_
 _symmetry_equiv_pos_site_id
 _symmetry_equiv_pos_as_xyz
  1  'x, y, z'
loop_
 _atom_site_type_symbol
 _atom_site_label
 _atom_site_symmetry_multiplicity
 _atom_site_fract_x
 _atom_site_fract_y
 _atom_site_fract_z
 _atom_site_occupancy
  Tb  Tb0  1  0.998791  0.499378  0.249344  1
  Tb  Tb1  1  0.998303  0.499128  0.750757  1
  Tb  Tb2  1  0.500589  0.499379  0.249345  1
  Tb  Tb3  1  0.500823  0.499127  0.750758  1
  Tb  Tb4  1  0.999996  0.999993  0.249085  1
  Tb  Tb5  1  0.999996  0.999991  0.750751  1
  Tm  Tm6  1  0.500448  0.000894  0.249556  1
  Tm  Tm7  1  0.500704  0.001408  0.750553  1
  Cu  Cu8  1  0.334168  0.668336  0.000275  1
  Cu  Cu9  1  0.665761  0.331521  0.999961  1
  Cu  Cu10  1  0.665855  0.331710  0.499410  1
  Si  Si11  1  0.169487  0.338973  0.999332  1
  Si  Si12  1  0.830996  0.661991  0.000654  1
  Si  Si13  1  0.660702  0.830815  0.999328  1
  Si  Si14  1  0.831138  0.662276  0.500475  1
  Si  Si15  1  0.338235  0.168578  0.000683  1
  Si  Si16  1  0.166152  0.332304  0.499332  1
  Si  Si17  1  0.170114  0.830817  0.999330  1
  Si  Si18  1  0.337840  0.168505  0.500501  1
  Si  Si19  1  0.830345  0.168578  0.000684  1
  Si  Si20  1  0.667871  0.834324  0.499314  1
  Si  Si21  1  0.830665  0.168505  0.500501  1
  Si  Si22  1  0.166454  0.834324  0.499314  1
  Pd  Pd23  1  0.334571  0.669139  0.500756  1
