# generated using pymatgen
data_LiCa2Zn9
_symmetry_space_group_name_H-M   'P 1'
_cell_length_a   6.98687209
_cell_length_b   6.98687335
_cell_length_c   6.99117924
_cell_angle_alpha   136.20638478
_cell_angle_beta   103.51087743
_cell_angle_gamma   92.51858954
_symmetry_Int_Tables_number   1
_chemical_formula_structural   LiCa2Zn9
_chemical_formula_sum   'Li1 Ca2 Zn9'
_cell_volume   217.89203290
_cell_formula_units_Z   1
loop_
 _symmetry_equiv_pos_site_id
 _symmetry_equiv_pos_as_xyz
  1  'x, y, z'
loop_
 _atom_site_type_symbol
 _atom_site_label
 _atom_site_symmetry_multiplicity
 _atom_site_fract_x
 _atom_site_fract_y
 _atom_site_fract_z
 _atom_site_occupancy
  Li  Li0  1  0.000000  0.000000  0.500000  1
  Ca  Ca1  1  0.738507  0.495821  0.734328  1
  Ca  Ca2  1  0.261493  0.504179  0.265672  1
  Zn  Zn3  1  0.078012  0.832713  0.755951  1
  Zn  Zn4  1  0.423238  0.177940  0.755951  1
  Zn  Zn5  1  0.576762  0.822060  0.244049  1
  Zn  Zn6  1  0.921988  0.167287  0.244049  1
  Zn  Zn7  1  0.500000  0.000000  0.000000  1
  Zn  Zn8  1  0.751018  0.004808  0.749619  1
  Zn  Zn9  1  0.755189  0.501398  0.250381  1
  Zn  Zn10  1  0.244811  0.498602  0.749619  1
  Zn  Zn11  1  0.248982  0.995192  0.250381  1
