# generated using pymatgen
data_Ba9Sb4Se15
_symmetry_space_group_name_H-M   'P 1'
_cell_length_a   12.01117644
_cell_length_b   12.01117630
_cell_length_c   12.01117520
_cell_angle_alpha   114.87136358
_cell_angle_beta   114.87136849
_cell_angle_gamma   114.87136364
_symmetry_Int_Tables_number   1
_chemical_formula_structural   Ba9Sb4Se15
_chemical_formula_sum   'Ba9 Sb4 Se15'
_cell_volume   981.06161505
_cell_formula_units_Z   1
loop_
 _symmetry_equiv_pos_site_id
 _symmetry_equiv_pos_as_xyz
  1  'x, y, z'
loop_
 _atom_site_type_symbol
 _atom_site_label
 _atom_site_symmetry_multiplicity
 _atom_site_fract_x
 _atom_site_fract_y
 _atom_site_fract_z
 _atom_site_occupancy
  Ba  Ba0  1  0.581742  0.329328  0.581742  1
  Ba  Ba1  1  0.581742  0.581742  0.329328  1
  Ba  Ba2  1  0.329328  0.581742  0.581742  1
  Ba  Ba3  1  0.226796  0.756443  0.961975  1
  Ba  Ba4  1  0.961975  0.226796  0.756443  1
  Ba  Ba5  1  0.756443  0.961975  0.226796  1
  Ba  Ba6  1  0.226796  0.961975  0.756443  1
  Ba  Ba7  1  0.756443  0.226796  0.961975  1
  Ba  Ba8  1  0.961975  0.756443  0.226796  1
  Sb  Sb9  1  0.076027  0.076027  0.076027  1
  Sb  Sb10  1  0.389265  0.815329  0.389265  1
  Sb  Sb11  1  0.389265  0.389265  0.815329  1
  Sb  Sb12  1  0.815329  0.389265  0.389265  1
  Se  Se13  1  0.955200  0.516596  0.955200  1
  Se  Se14  1  0.955200  0.955200  0.516596  1
  Se  Se15  1  0.516596  0.955200  0.955200  1
  Se  Se16  1  0.159363  0.356883  0.159363  1
  Se  Se17  1  0.159363  0.159363  0.356883  1
  Se  Se18  1  0.356883  0.159363  0.159363  1
  Se  Se19  1  0.641713  0.882286  0.641713  1
  Se  Se20  1  0.641713  0.641713  0.882286  1
  Se  Se21  1  0.882286  0.641713  0.641713  1
  Se  Se22  1  0.582184  0.030293  0.390849  1
  Se  Se23  1  0.390849  0.582184  0.030293  1
  Se  Se24  1  0.030293  0.390849  0.582184  1
  Se  Se25  1  0.582184  0.390849  0.030293  1
  Se  Se26  1  0.390849  0.030293  0.582184  1
  Se  Se27  1  0.030293  0.582184  0.390849  1
