# generated using pymatgen
data_Tb3Y(PdPt)2
_symmetry_space_group_name_H-M   'P 1'
_cell_length_a   4.53820100
_cell_length_b   5.61077617
_cell_length_c   7.08655765
_cell_angle_alpha   89.94672108
_cell_angle_beta   90.00000000
_cell_angle_gamma   90.00000000
_symmetry_Int_Tables_number   1
_chemical_formula_structural   Tb3Y(PdPt)2
_chemical_formula_sum   'Tb3 Y1 Pd2 Pt2'
_cell_volume   180.44373491
_cell_formula_units_Z   1
loop_
 _symmetry_equiv_pos_site_id
 _symmetry_equiv_pos_as_xyz
  1  'x, y, z'
loop_
 _atom_site_type_symbol
 _atom_site_label
 _atom_site_symmetry_multiplicity
 _atom_site_fract_x
 _atom_site_fract_y
 _atom_site_fract_z
 _atom_site_occupancy
  Tb  Tb0  1  0.000000  0.103883  0.683681  1
  Tb  Tb1  1  0.000000  0.895910  0.183102  1
  Tb  Tb2  1  0.500000  0.387734  0.317617  1
  Y  Y3  1  0.500000  0.612307  0.817823  1
  Pd  Pd4  1  0.000000  0.592860  0.543606  1
  Pd  Pd5  1  0.000000  0.407543  0.042050  1
  Pt  Pt6  1  0.500000  0.898941  0.456315  1
  Pt  Pt7  1  0.500000  0.100821  0.955806  1
