# generated using pymatgen
data_LiLa5TbOsBr12
_symmetry_space_group_name_H-M   'P 1'
_cell_length_a   9.82242928
_cell_length_b   9.57203295
_cell_length_c   9.70181264
_cell_angle_alpha   108.36547193
_cell_angle_beta   108.52411098
_cell_angle_gamma   107.38506150
_symmetry_Int_Tables_number   1
_chemical_formula_structural   LiLa5TbOsBr12
_chemical_formula_sum   'Li1 La5 Tb1 Os1 Br12'
_cell_volume   735.80848422
_cell_formula_units_Z   1
loop_
 _symmetry_equiv_pos_site_id
 _symmetry_equiv_pos_as_xyz
  1  'x, y, z'
loop_
 _atom_site_type_symbol
 _atom_site_label
 _atom_site_symmetry_multiplicity
 _atom_site_fract_x
 _atom_site_fract_y
 _atom_site_fract_z
 _atom_site_occupancy
  Li  Li0  1  0.500922  0.499691  0.499350  1
  La  La1  1  0.030868  0.308850  0.115251  1
  La  La2  1  0.128005  0.036925  0.327139  1
  La  La3  1  0.878799  0.965210  0.675765  1
  La  La4  1  0.967529  0.690991  0.884900  1
  La  La5  1  0.659567  0.869612  0.963112  1
  Tb  Tb6  1  0.325970  0.125637  0.036856  1
  Os  Os7  1  0.000220  0.000829  0.001764  1
  Br  Br8  1  0.676916  0.210408  0.067213  1
  Br  Br9  1  0.382862  0.458441  0.174883  1
  Br  Br10  1  0.068168  0.682119  0.213794  1
  Br  Br11  1  0.794503  0.934453  0.318650  1
  Br  Br12  1  0.468258  0.180284  0.370773  1
  Br  Br13  1  0.185812  0.387010  0.471056  1
  Br  Br14  1  0.815793  0.613607  0.529481  1
  Br  Br15  1  0.532616  0.817603  0.615262  1
  Br  Br16  1  0.217597  0.071372  0.697307  1
  Br  Br17  1  0.932759  0.318283  0.786732  1
  Br  Br18  1  0.617790  0.527260  0.815230  1
  Br  Br19  1  0.315049  0.801419  0.935486  1
