# generated using pymatgen
data_Er4BeSi7Tc6
_symmetry_space_group_name_H-M   'P 1'
_cell_length_a   6.77402904
_cell_length_b   6.56369011
_cell_length_c   6.79411318
_cell_angle_alpha   71.04602254
_cell_angle_beta   90.31725084
_cell_angle_gamma   89.93084111
_symmetry_Int_Tables_number   1
_chemical_formula_structural   Er4BeSi7Tc6
_chemical_formula_sum   'Er4 Be1 Si7 Tc6'
_cell_volume   285.69923368
_cell_formula_units_Z   1
loop_
 _symmetry_equiv_pos_site_id
 _symmetry_equiv_pos_as_xyz
  1  'x, y, z'
loop_
 _atom_site_type_symbol
 _atom_site_label
 _atom_site_symmetry_multiplicity
 _atom_site_fract_x
 _atom_site_fract_y
 _atom_site_fract_z
 _atom_site_occupancy
  Er  Er0  1  0.664252  0.435780  0.189720  1
  Er  Er1  1  0.170820  0.058762  0.810578  1
  Er  Er2  1  0.334201  0.556359  0.810795  1
  Er  Er3  1  0.827027  0.945777  0.190530  1
  Be  Be4  1  0.451378  0.115316  0.099538  1
  Si  Si5  1  0.953783  0.377580  0.900769  1
  Si  Si6  1  0.546391  0.885830  0.904227  1
  Si  Si7  1  0.045966  0.621453  0.102903  1
  Si  Si8  1  0.861233  0.133175  0.509544  1
  Si  Si9  1  0.359769  0.366887  0.487603  1
  Si  Si10  1  0.142749  0.867637  0.486759  1
  Si  Si11  1  0.638121  0.634395  0.507085  1
  Tc  Tc12  1  0.498403  0.996558  0.505374  1
  Tc  Tc13  1  0.000516  0.503054  0.498995  1
  Tc  Tc14  1  0.160293  0.240703  0.236155  1
  Tc  Tc15  1  0.660801  0.259611  0.758062  1
  Tc  Tc16  1  0.840504  0.756033  0.767120  1
  Tc  Tc17  1  0.343792  0.745092  0.234241  1
