# generated using pymatgen
data_Y12Co4CuBi
_symmetry_space_group_name_H-M   'P 1'
_cell_length_a   8.41645615
_cell_length_b   8.41645612
_cell_length_c   8.41645699
_cell_angle_alpha   110.01868094
_cell_angle_beta   111.11224916
_cell_angle_gamma   107.30614523
_symmetry_Int_Tables_number   1
_chemical_formula_structural   Y12Co4CuBi
_chemical_formula_sum   'Y12 Co4 Cu1 Bi1'
_cell_volume   458.41791542
_cell_formula_units_Z   1
loop_
 _symmetry_equiv_pos_site_id
 _symmetry_equiv_pos_as_xyz
  1  'x, y, z'
loop_
 _atom_site_type_symbol
 _atom_site_label
 _atom_site_symmetry_multiplicity
 _atom_site_fract_x
 _atom_site_fract_y
 _atom_site_fract_z
 _atom_site_occupancy
  Y  Y0  1  0.289418  0.183194  0.472613  1
  Y  Y1  1  0.710582  0.816806  0.527387  1
  Y  Y2  1  0.289418  0.816806  0.106224  1
  Y  Y3  1  0.710582  0.183194  0.893776  1
  Y  Y4  1  0.620580  0.312246  0.308333  1
  Y  Y5  1  0.379420  0.687754  0.691667  1
  Y  Y6  1  0.003913  0.312246  0.691667  1
  Y  Y7  1  0.996087  0.687754  0.308333  1
  Y  Y8  1  0.211153  0.412081  0.200927  1
  Y  Y9  1  0.788847  0.587919  0.799073  1
  Y  Y10  1  0.211153  0.010227  0.799073  1
  Y  Y11  1  0.788847  0.989773  0.200927  1
  Co  Co12  1  0.000000  0.379949  0.379949  1
  Co  Co13  1  0.000000  0.620051  0.620051  1
  Co  Co14  1  0.389112  0.889112  0.500000  1
  Co  Co15  1  0.610888  0.110888  0.500000  1
  Cu  Cu16  1  0.000000  0.000000  0.000000  1
  Bi  Bi17  1  0.500000  0.500000  0.000000  1
