# generated using pymatgen
data_DyHo2Sc2(In2Rh)2
_symmetry_space_group_name_H-M   'P 1'
_cell_length_a   3.54171400
_cell_length_b   7.87167400
_cell_length_c   17.94697300
_cell_angle_alpha   90.00000000
_cell_angle_beta   90.00000000
_cell_angle_gamma   90.00000000
_symmetry_Int_Tables_number   1
_chemical_formula_structural   DyHo2Sc2(In2Rh)2
_chemical_formula_sum   'Dy2 Ho4 Sc4 In8 Rh4'
_cell_volume   500.34757287
_cell_formula_units_Z   2
loop_
 _symmetry_equiv_pos_site_id
 _symmetry_equiv_pos_as_xyz
  1  'x, y, z'
loop_
 _atom_site_type_symbol
 _atom_site_label
 _atom_site_symmetry_multiplicity
 _atom_site_fract_x
 _atom_site_fract_y
 _atom_site_fract_z
 _atom_site_occupancy
  Dy  Dy0  1  0.000000  0.000000  0.000000  1
  Dy  Dy1  1  0.000000  0.500000  0.500000  1
  Ho  Ho2  1  0.000000  0.747851  0.781043  1
  Ho  Ho3  1  0.000000  0.252149  0.218957  1
  Ho  Ho4  1  0.000000  0.247851  0.718957  1
  Ho  Ho5  1  0.000000  0.752149  0.281043  1
  Sc  Sc6  1  0.000000  0.878251  0.588270  1
  Sc  Sc7  1  0.000000  0.121749  0.411730  1
  Sc  Sc8  1  0.000000  0.378251  0.911730  1
  Sc  Sc9  1  0.000000  0.621749  0.088270  1
  In  In10  1  0.500000  0.808188  0.437400  1
  In  In11  1  0.500000  0.191812  0.562600  1
  In  In12  1  0.500000  0.308188  0.062600  1
  In  In13  1  0.500000  0.691812  0.937400  1
  In  In14  1  0.500000  0.926218  0.149541  1
  In  In15  1  0.500000  0.073782  0.850459  1
  In  In16  1  0.500000  0.426218  0.350459  1
  In  In17  1  0.500000  0.573782  0.649541  1
  Rh  Rh18  1  0.500000  0.962792  0.692041  1
  Rh  Rh19  1  0.500000  0.037208  0.307959  1
  Rh  Rh20  1  0.500000  0.462792  0.807959  1
  Rh  Rh21  1  0.500000  0.537208  0.192041  1
