# generated using pymatgen
data_CaPr16Hg3Ru4
_symmetry_space_group_name_H-M   'P 1'
_cell_length_a   10.04763909
_cell_length_b   10.04763933
_cell_length_c   10.05030429
_cell_angle_alpha   60.00877094
_cell_angle_beta   60.00876918
_cell_angle_gamma   59.99999464
_symmetry_Int_Tables_number   1
_chemical_formula_structural   CaPr16Hg3Ru4
_chemical_formula_sum   'Ca1 Pr16 Hg3 Ru4'
_cell_volume   717.54611408
_cell_formula_units_Z   1
loop_
 _symmetry_equiv_pos_site_id
 _symmetry_equiv_pos_as_xyz
  1  'x, y, z'
loop_
 _atom_site_type_symbol
 _atom_site_label
 _atom_site_symmetry_multiplicity
 _atom_site_fract_x
 _atom_site_fract_y
 _atom_site_fract_z
 _atom_site_occupancy
  Ca  Ca0  1  0.438105  0.438105  0.685686  1
  Pr  Pr1  1  0.059586  0.438338  0.442490  1
  Pr  Pr2  1  0.192436  0.806021  0.195523  1
  Pr  Pr3  1  0.656732  0.656732  0.656473  1
  Pr  Pr4  1  0.437641  0.437641  0.063999  1
  Pr  Pr5  1  0.060719  0.437641  0.063999  1
  Pr  Pr6  1  0.437641  0.060719  0.063999  1
  Pr  Pr7  1  0.059586  0.059586  0.442490  1
  Pr  Pr8  1  0.650574  0.650574  0.048278  1
  Pr  Pr9  1  0.656732  0.030061  0.656473  1
  Pr  Pr10  1  0.183696  0.815950  0.816657  1
  Pr  Pr11  1  0.438338  0.059586  0.442490  1
  Pr  Pr12  1  0.183696  0.183696  0.816657  1
  Pr  Pr13  1  0.030061  0.656732  0.656473  1
  Pr  Pr14  1  0.806021  0.806021  0.195523  1
  Pr  Pr15  1  0.806021  0.192436  0.195523  1
  Pr  Pr16  1  0.815950  0.183696  0.816657  1
  Hg  Hg17  1  0.412053  0.412053  0.408819  1
  Hg  Hg18  1  0.412053  0.767076  0.408819  1
  Hg  Hg19  1  0.767076  0.412053  0.408819  1
  Ru  Ru20  1  0.860788  0.860788  0.865335  1
  Ru  Ru21  1  0.413091  0.860788  0.865335  1
  Ru  Ru22  1  0.860788  0.413091  0.865335  1
  Ru  Ru23  1  0.860618  0.860618  0.418146  1
