# generated using pymatgen
data_Ba3UCr2O9
_symmetry_space_group_name_H-M   'P 1'
_cell_length_a   5.90380700
_cell_length_b   5.90380689
_cell_length_c   14.73440700
_cell_angle_alpha   90.00000000
_cell_angle_beta   90.00000000
_cell_angle_gamma   119.99999503
_symmetry_Int_Tables_number   1
_chemical_formula_structural   Ba3UCr2O9
_chemical_formula_sum   'Ba6 U2 Cr4 O18'
_cell_volume   444.76193436
_cell_formula_units_Z   2
loop_
 _symmetry_equiv_pos_site_id
 _symmetry_equiv_pos_as_xyz
  1  'x, y, z'
loop_
 _atom_site_type_symbol
 _atom_site_label
 _atom_site_symmetry_multiplicity
 _atom_site_fract_x
 _atom_site_fract_y
 _atom_site_fract_z
 _atom_site_occupancy
  Ba  Ba0  1  0.000000  0.000000  0.250000  1
  Ba  Ba1  1  0.000000  0.000000  0.750000  1
  Ba  Ba2  1  0.333333  0.666667  0.111197  1
  Ba  Ba3  1  0.666667  0.333333  0.611197  1
  Ba  Ba4  1  0.666667  0.333333  0.888803  1
  Ba  Ba5  1  0.333333  0.666667  0.388803  1
  U  U6  1  0.000000  0.000000  0.000000  1
  U  U7  1  0.000000  0.000000  0.500000  1
  Cr  Cr8  1  0.333333  0.666667  0.839203  1
  Cr  Cr9  1  0.666667  0.333333  0.339203  1
  Cr  Cr10  1  0.666667  0.333333  0.160797  1
  Cr  Cr11  1  0.333333  0.666667  0.660797  1
  O  O12  1  0.516899  0.483101  0.250000  1
  O  O13  1  0.033798  0.516899  0.750000  1
  O  O14  1  0.483101  0.966202  0.750000  1
  O  O15  1  0.516899  0.033798  0.250000  1
  O  O16  1  0.966202  0.483101  0.250000  1
  O  O17  1  0.483101  0.516899  0.750000  1
  O  O18  1  0.833798  0.166202  0.082786  1
  O  O19  1  0.667598  0.833798  0.582786  1
  O  O20  1  0.166202  0.332402  0.582786  1
  O  O21  1  0.833798  0.667598  0.082786  1
  O  O22  1  0.332402  0.166202  0.082786  1
  O  O23  1  0.667598  0.833798  0.917214  1
  O  O24  1  0.166202  0.332402  0.917214  1
  O  O25  1  0.166202  0.833798  0.582786  1
  O  O26  1  0.166202  0.833798  0.917214  1
  O  O27  1  0.833798  0.166202  0.417214  1
  O  O28  1  0.332402  0.166202  0.417214  1
  O  O29  1  0.833798  0.667598  0.417214  1
