# generated using pymatgen
data_Mn3Si2Ru3
_symmetry_space_group_name_H-M   'P 1'
_cell_length_a   4.13852200
_cell_length_b   4.13852190
_cell_length_c   7.19473481
_cell_angle_alpha   73.28520496
_cell_angle_beta   90.00000000
_cell_angle_gamma   120.00000077
_symmetry_Int_Tables_number   1
_chemical_formula_structural   Mn3Si2Ru3
_chemical_formula_sum   'Mn3 Si2 Ru3'
_cell_volume   100.66069632
_cell_formula_units_Z   1
loop_
 _symmetry_equiv_pos_site_id
 _symmetry_equiv_pos_as_xyz
  1  'x, y, z'
loop_
 _atom_site_type_symbol
 _atom_site_label
 _atom_site_symmetry_multiplicity
 _atom_site_fract_x
 _atom_site_fract_y
 _atom_site_fract_z
 _atom_site_occupancy
  Mn  Mn0  1  0.251974  0.503947  0.244079  1
  Mn  Mn1  1  0.747653  0.495304  0.757043  1
  Mn  Mn2  1  0.624858  0.249718  0.125424  1
  Si  Si3  1  0.998840  0.997679  0.003482  1
  Si  Si4  1  0.501168  0.002335  0.496496  1
  Ru  Ru5  1  0.125763  0.251526  0.622712  1
  Ru  Ru6  1  0.876302  0.752603  0.371095  1
  Ru  Ru7  1  0.373443  0.746887  0.879669  1
