# generated using pymatgen
data_Lu3Al12CoRh3
_symmetry_space_group_name_H-M   'P 1'
_cell_length_a   8.72806400
_cell_length_b   8.72806300
_cell_length_c   9.36898600
_cell_angle_alpha   90.00000000
_cell_angle_beta   90.00000000
_cell_angle_gamma   120.00000377
_symmetry_Int_Tables_number   1
_chemical_formula_structural   Lu3Al12CoRh3
_chemical_formula_sum   'Lu6 Al24 Co2 Rh6'
_cell_volume   618.10036475
_cell_formula_units_Z   2
loop_
 _symmetry_equiv_pos_site_id
 _symmetry_equiv_pos_as_xyz
  1  'x, y, z'
loop_
 _atom_site_type_symbol
 _atom_site_label
 _atom_site_symmetry_multiplicity
 _atom_site_fract_x
 _atom_site_fract_y
 _atom_site_fract_z
 _atom_site_occupancy
  Lu  Lu0  1  0.803801  0.196199  0.750000  1
  Lu  Lu1  1  0.196199  0.803801  0.250000  1
  Lu  Lu2  1  0.392399  0.196199  0.750000  1
  Lu  Lu3  1  0.607601  0.803801  0.250000  1
  Lu  Lu4  1  0.803801  0.607601  0.750000  1
  Lu  Lu5  1  0.196199  0.392399  0.250000  1
  Al  Al6  1  0.438152  0.561848  0.750000  1
  Al  Al7  1  0.561848  0.438152  0.250000  1
  Al  Al8  1  0.123697  0.561848  0.750000  1
  Al  Al9  1  0.876303  0.438152  0.250000  1
  Al  Al10  1  0.438152  0.876303  0.750000  1
  Al  Al11  1  0.561848  0.123697  0.250000  1
  Al  Al12  1  0.839980  0.160020  0.421442  1
  Al  Al13  1  0.160020  0.839980  0.578558  1
  Al  Al14  1  0.320039  0.160020  0.421442  1
  Al  Al15  1  0.160020  0.839980  0.921442  1
  Al  Al16  1  0.679961  0.839980  0.578558  1
  Al  Al17  1  0.839980  0.160020  0.078558  1
  Al  Al18  1  0.839980  0.679961  0.421442  1
  Al  Al19  1  0.679961  0.839980  0.921442  1
  Al  Al20  1  0.160020  0.320039  0.578558  1
  Al  Al21  1  0.320039  0.160020  0.078558  1
  Al  Al22  1  0.160020  0.320039  0.921442  1
  Al  Al23  1  0.839980  0.679961  0.078558  1
  Al  Al24  1  0.666667  0.333333  0.975165  1
  Al  Al25  1  0.333333  0.666667  0.024835  1
  Al  Al26  1  0.333333  0.666667  0.475165  1
  Al  Al27  1  0.666667  0.333333  0.524835  1
  Al  Al28  1  0.000000  0.000000  0.750000  1
  Al  Al29  1  0.000000  0.000000  0.250000  1
  Co  Co30  1  0.000000  0.000000  0.000000  1
  Co  Co31  1  0.000000  0.000000  0.500000  1
  Rh  Rh32  1  0.500000  0.500000  0.000000  1
  Rh  Rh33  1  0.000000  0.500000  0.000000  1
  Rh  Rh34  1  0.500000  0.500000  0.500000  1
  Rh  Rh35  1  0.500000  0.000000  0.000000  1
  Rh  Rh36  1  0.000000  0.500000  0.500000  1
  Rh  Rh37  1  0.500000  0.000000  0.500000  1
