# generated using pymatgen
data_Tb4Tm3Lu9(CdPt)4
_symmetry_space_group_name_H-M   'P 1'
_cell_length_a   9.56117907
_cell_length_b   9.54521249
_cell_length_c   9.54521202
_cell_angle_alpha   60.10604149
_cell_angle_beta   59.95562372
_cell_angle_gamma   59.95562743
_symmetry_Int_Tables_number   1
_chemical_formula_structural   Tb4Tm3Lu9(CdPt)4
_chemical_formula_sum   'Tb4 Tm3 Lu9 Cd4 Pt4'
_cell_volume   616.05911682
_cell_formula_units_Z   1
loop_
 _symmetry_equiv_pos_site_id
 _symmetry_equiv_pos_as_xyz
  1  'x, y, z'
loop_
 _atom_site_type_symbol
 _atom_site_label
 _atom_site_symmetry_multiplicity
 _atom_site_fract_x
 _atom_site_fract_y
 _atom_site_fract_z
 _atom_site_occupancy
  Tb  Tb0  1  0.565108  0.934870  0.565141  1
  Tb  Tb1  1  0.934879  0.565066  0.934945  1
  Tb  Tb2  1  0.565108  0.565141  0.934870  1
  Tb  Tb3  1  0.934879  0.934945  0.565066  1
  Tm  Tm4  1  0.352695  0.352092  0.352092  1
  Tm  Tm5  1  0.352102  0.352693  0.943109  1
  Tm  Tm6  1  0.352102  0.943109  0.352693  1
  Lu  Lu7  1  0.943579  0.351962  0.351962  1
  Lu  Lu8  1  0.811468  0.188578  0.188578  1
  Lu  Lu9  1  0.188504  0.811512  0.811512  1
  Lu  Lu10  1  0.188314  0.811719  0.188289  1
  Lu  Lu11  1  0.811684  0.188371  0.811594  1
  Lu  Lu12  1  0.188314  0.188289  0.811719  1
  Lu  Lu13  1  0.811684  0.811594  0.188371  1
  Lu  Lu14  1  0.938969  0.560979  0.560979  1
  Lu  Lu15  1  0.561018  0.938956  0.938956  1
  Cd  Cd16  1  0.583037  0.580819  0.580819  1
  Cd  Cd17  1  0.581028  0.582825  0.255324  1
  Cd  Cd18  1  0.581028  0.255324  0.582825  1
  Cd  Cd19  1  0.255297  0.580899  0.580899  1
  Pt  Pt20  1  0.143719  0.142383  0.142383  1
  Pt  Pt21  1  0.141795  0.144320  0.571496  1
  Pt  Pt22  1  0.141795  0.571496  0.144320  1
  Pt  Pt23  1  0.571893  0.142056  0.142056  1
