# generated using pymatgen
data_Lu4CuB14
_symmetry_space_group_name_H-M   'P 1'
_cell_length_a   7.15239900
_cell_length_b   7.15239900
_cell_length_c   7.40650300
_cell_angle_alpha   90.00000000
_cell_angle_beta   90.00000000
_cell_angle_gamma   90.00000000
_symmetry_Int_Tables_number   1
_chemical_formula_structural   Lu4CuB14
_chemical_formula_sum   'Lu8 Cu2 B28'
_cell_volume   378.89307751
_cell_formula_units_Z   2
loop_
 _symmetry_equiv_pos_site_id
 _symmetry_equiv_pos_as_xyz
  1  'x, y, z'
loop_
 _atom_site_type_symbol
 _atom_site_label
 _atom_site_symmetry_multiplicity
 _atom_site_fract_x
 _atom_site_fract_y
 _atom_site_fract_z
 _atom_site_occupancy
  Lu  Lu0  1  0.194551  0.334196  0.000000  1
  Lu  Lu1  1  0.665804  0.194551  0.000000  1
  Lu  Lu2  1  0.334196  0.805449  0.000000  1
  Lu  Lu3  1  0.694551  0.165804  0.500000  1
  Lu  Lu4  1  0.305449  0.834196  0.500000  1
  Lu  Lu5  1  0.805449  0.665804  0.000000  1
  Lu  Lu6  1  0.834196  0.694551  0.500000  1
  Lu  Lu7  1  0.165804  0.305449  0.500000  1
  Cu  Cu8  1  0.000000  0.000000  0.000000  1
  Cu  Cu9  1  0.500000  0.500000  0.500000  1
  B  B10  1  0.176716  0.039325  0.234481  1
  B  B11  1  0.960675  0.176716  0.234481  1
  B  B12  1  0.039325  0.823284  0.234481  1
  B  B13  1  0.676716  0.460675  0.265519  1
  B  B14  1  0.323284  0.539325  0.265519  1
  B  B15  1  0.823284  0.960675  0.234481  1
  B  B16  1  0.539325  0.676716  0.265519  1
  B  B17  1  0.460675  0.323284  0.265519  1
  B  B18  1  0.823284  0.960675  0.765519  1
  B  B19  1  0.039325  0.823284  0.765519  1
  B  B20  1  0.960675  0.176716  0.765519  1
  B  B21  1  0.323284  0.539325  0.734481  1
  B  B22  1  0.676716  0.460675  0.734481  1
  B  B23  1  0.176716  0.039325  0.765519  1
  B  B24  1  0.460675  0.323284  0.734481  1
  B  B25  1  0.539325  0.676716  0.734481  1
  B  B26  1  0.087974  0.587974  0.250000  1
  B  B27  1  0.412026  0.087974  0.250000  1
  B  B28  1  0.587974  0.912026  0.250000  1
  B  B29  1  0.912026  0.412026  0.250000  1
  B  B30  1  0.912026  0.412026  0.750000  1
  B  B31  1  0.587974  0.912026  0.750000  1
  B  B32  1  0.412026  0.087974  0.750000  1
  B  B33  1  0.087974  0.587974  0.750000  1
  B  B34  1  0.000000  0.000000  0.389765  1
  B  B35  1  0.500000  0.500000  0.110235  1
  B  B36  1  0.000000  0.000000  0.610235  1
  B  B37  1  0.500000  0.500000  0.889765  1
