# generated using pymatgen
data_Zr4GaTc7
_symmetry_space_group_name_H-M   'P 1'
_cell_length_a   5.23791700
_cell_length_b   5.23791832
_cell_length_c   8.71424900
_cell_angle_alpha   90.00000000
_cell_angle_beta   90.00000000
_cell_angle_gamma   119.99998534
_symmetry_Int_Tables_number   1
_chemical_formula_structural   Zr4GaTc7
_chemical_formula_sum   'Zr4 Ga1 Tc7'
_cell_volume   207.05131609
_cell_formula_units_Z   1
loop_
 _symmetry_equiv_pos_site_id
 _symmetry_equiv_pos_as_xyz
  1  'x, y, z'
loop_
 _atom_site_type_symbol
 _atom_site_label
 _atom_site_symmetry_multiplicity
 _atom_site_fract_x
 _atom_site_fract_y
 _atom_site_fract_z
 _atom_site_occupancy
  Zr  Zr0  1  0.333333  0.666667  0.431079  1
  Zr  Zr1  1  0.666667  0.333333  0.568921  1
  Zr  Zr2  1  0.666667  0.333333  0.937142  1
  Zr  Zr3  1  0.333333  0.666667  0.062858  1
  Ga  Ga4  1  0.000000  0.000000  0.500000  1
  Tc  Tc5  1  0.000000  0.000000  0.000000  1
  Tc  Tc6  1  0.829034  0.170966  0.250502  1
  Tc  Tc7  1  0.829034  0.658067  0.250502  1
  Tc  Tc8  1  0.341933  0.170966  0.250502  1
  Tc  Tc9  1  0.170966  0.829034  0.749498  1
  Tc  Tc10  1  0.170966  0.341933  0.749498  1
  Tc  Tc11  1  0.658067  0.829034  0.749498  1
