# generated using pymatgen
data_CsMoS2O9
_symmetry_space_group_name_H-M   'P 1'
_cell_length_a   5.23853300
_cell_length_b   8.80262710
_cell_length_c   9.45839200
_cell_angle_alpha   76.50948832
_cell_angle_beta   90.00000000
_cell_angle_gamma   90.00000000
_symmetry_Int_Tables_number   1
_chemical_formula_structural   CsMoS2O9
_chemical_formula_sum   'Cs2 Mo2 S4 O18'
_cell_volume   424.11933715
_cell_formula_units_Z   2
loop_
 _symmetry_equiv_pos_site_id
 _symmetry_equiv_pos_as_xyz
  1  'x, y, z'
loop_
 _atom_site_type_symbol
 _atom_site_label
 _atom_site_symmetry_multiplicity
 _atom_site_fract_x
 _atom_site_fract_y
 _atom_site_fract_z
 _atom_site_occupancy
  Cs  Cs0  1  0.250000  0.421215  0.216751  1
  Cs  Cs1  1  0.750000  0.578785  0.783249  1
  Mo  Mo2  1  0.250000  0.912761  0.255639  1
  Mo  Mo3  1  0.750000  0.087239  0.744361  1
  S  S4  1  0.250000  0.319220  0.656352  1
  S  S5  1  0.750000  0.680780  0.343648  1
  S  S6  1  0.250000  0.854879  0.893336  1
  S  S7  1  0.750000  0.145121  0.106664  1
  O  O8  1  0.250000  0.260502  0.526209  1
  O  O9  1  0.750000  0.739498  0.473791  1
  O  O10  1  0.250000  0.487186  0.640431  1
  O  O11  1  0.750000  0.512814  0.359569  1
  O  O12  1  0.017962  0.254630  0.753132  1
  O  O13  1  0.517962  0.745370  0.246868  1
  O  O14  1  0.982038  0.745370  0.246868  1
  O  O15  1  0.482038  0.254630  0.753132  1
  O  O16  1  0.250000  0.933133  0.014990  1
  O  O17  1  0.750000  0.066867  0.985010  1
  O  O18  1  0.250000  0.685606  0.935967  1
  O  O19  1  0.750000  0.314394  0.064033  1
  O  O20  1  0.017421  0.906453  0.799653  1
  O  O21  1  0.517421  0.093547  0.200347  1
  O  O22  1  0.982579  0.093547  0.200347  1
  O  O23  1  0.482579  0.906453  0.799653  1
  O  O24  1  0.250000  0.896754  0.436835  1
  O  O25  1  0.750000  0.103246  0.563165  1
