# generated using pymatgen
data_TbNd2(Ga2Ni3)3
_symmetry_space_group_name_H-M   'P 1'
_cell_length_a   4.12812300
_cell_length_b   8.83615597
_cell_length_c   8.83615504
_cell_angle_alpha   60.07044743
_cell_angle_beta   90.00000000
_cell_angle_gamma   90.00000000
_symmetry_Int_Tables_number   1
_chemical_formula_structural   TbNd2(Ga2Ni3)3
_chemical_formula_sum   'Tb1 Nd2 Ga6 Ni9'
_cell_volume   279.33015253
_cell_formula_units_Z   1
loop_
 _symmetry_equiv_pos_site_id
 _symmetry_equiv_pos_as_xyz
  1  'x, y, z'
loop_
 _atom_site_type_symbol
 _atom_site_label
 _atom_site_symmetry_multiplicity
 _atom_site_fract_x
 _atom_site_fract_y
 _atom_site_fract_z
 _atom_site_occupancy
  Tb  Tb0  1  0.000000  0.999871  0.000129  1
  Nd  Nd1  1  0.500000  0.333387  0.333425  1
  Nd  Nd2  1  0.500000  0.666575  0.666613  1
  Ga  Ga3  1  0.500000  0.731632  0.268368  1
  Ga  Ga4  1  0.500000  0.268311  0.999969  1
  Ga  Ga5  1  0.500000  0.000031  0.731689  1
  Ga  Ga6  1  0.000000  0.480491  0.519509  1
  Ga  Ga7  1  0.000000  0.519518  0.999937  1
  Ga  Ga8  1  0.000000  0.000063  0.480482  1
  Ni  Ni9  1  0.000000  0.196442  0.171869  1
  Ni  Ni10  1  0.000000  0.171786  0.632015  1
  Ni  Ni11  1  0.000000  0.631750  0.196353  1
  Ni  Ni12  1  0.000000  0.828130  0.803558  1
  Ni  Ni13  1  0.000000  0.367985  0.828214  1
  Ni  Ni14  1  0.000000  0.803647  0.368250  1
  Ni  Ni15  1  0.500000  0.290928  0.709072  1
  Ni  Ni16  1  0.500000  0.709280  0.999927  1
  Ni  Ni17  1  0.500000  0.000073  0.290720  1
