# generated using pymatgen
data_Rb12GaGeAs6
_symmetry_space_group_name_H-M   'P 1'
_cell_length_a   13.32029487
_cell_length_b   5.52567000
_cell_length_c   13.27579073
_cell_angle_alpha   90.00000000
_cell_angle_beta   119.45145218
_cell_angle_gamma   90.00000000
_symmetry_Int_Tables_number   1
_chemical_formula_structural   Rb12GaGeAs6
_chemical_formula_sum   'Rb12 Ga1 Ge1 As6'
_cell_volume   850.87144312
_cell_formula_units_Z   1
loop_
 _symmetry_equiv_pos_site_id
 _symmetry_equiv_pos_as_xyz
  1  'x, y, z'
loop_
 _atom_site_type_symbol
 _atom_site_label
 _atom_site_symmetry_multiplicity
 _atom_site_fract_x
 _atom_site_fract_y
 _atom_site_fract_z
 _atom_site_occupancy
  Rb  Rb0  1  0.390010  0.250000  0.019585  1
  Rb  Rb1  1  0.965763  0.750001  0.221957  1
  Rb  Rb2  1  0.127167  0.250000  0.110555  1
  Rb  Rb3  1  0.715340  0.250000  0.251607  1
  Rb  Rb4  1  0.479878  0.250000  0.374116  1
  Rb  Rb5  1  0.758241  0.750001  0.529528  1
  Rb  Rb6  1  0.241260  0.250000  0.466814  1
  Rb  Rb7  1  0.514924  0.750001  0.619753  1
  Rb  Rb8  1  0.281589  0.750001  0.748840  1
  Rb  Rb9  1  0.878932  0.750001  0.889992  1
  Rb  Rb10  1  0.038216  0.250000  0.781506  1
  Rb  Rb11  1  0.609363  0.750001  0.985975  1
  Ga  Ga12  1  0.331965  0.750001  0.168325  1
  Ge  Ge13  1  0.668067  0.250000  0.831861  1
  As  As14  1  0.183383  0.750001  0.959808  1
  As  As15  1  0.539853  0.750001  0.224774  1
  As  As16  1  0.272439  0.750001  0.318866  1
  As  As17  1  0.726195  0.250000  0.685109  1
  As  As18  1  0.464050  0.250000  0.775523  1
  As  As19  1  0.813367  0.250000  0.035508  1
