# generated using pymatgen
data_Rb8Ho6NiBr20
_symmetry_space_group_name_H-M   'P 1'
_cell_length_a   12.29373677
_cell_length_b   12.29373783
_cell_length_c   12.29373700
_cell_angle_alpha   59.99999954
_cell_angle_beta   59.99999670
_cell_angle_gamma   60.00000064
_symmetry_Int_Tables_number   1
_chemical_formula_structural   Rb8Ho6NiBr20
_chemical_formula_sum   'Rb8 Ho6 Ni1 Br20'
_cell_volume   1313.82271810
_cell_formula_units_Z   1
loop_
 _symmetry_equiv_pos_site_id
 _symmetry_equiv_pos_as_xyz
  1  'x, y, z'
loop_
 _atom_site_type_symbol
 _atom_site_label
 _atom_site_symmetry_multiplicity
 _atom_site_fract_x
 _atom_site_fract_y
 _atom_site_fract_z
 _atom_site_occupancy
  Rb  Rb0  1  0.358723  0.358723  0.358723  1
  Rb  Rb1  1  0.641277  0.641277  0.641277  1
  Rb  Rb2  1  0.358723  0.358723  0.923830  1
  Rb  Rb3  1  0.358723  0.923830  0.358723  1
  Rb  Rb4  1  0.641277  0.641277  0.076170  1
  Rb  Rb5  1  0.641277  0.076170  0.641277  1
  Rb  Rb6  1  0.923830  0.358723  0.358723  1
  Rb  Rb7  1  0.076170  0.641277  0.641277  1
  Ho  Ho8  1  0.845278  0.154722  0.154722  1
  Ho  Ho9  1  0.154722  0.845278  0.845278  1
  Ho  Ho10  1  0.154722  0.845278  0.154722  1
  Ho  Ho11  1  0.845278  0.154722  0.845278  1
  Ho  Ho12  1  0.154722  0.154722  0.845278  1
  Ho  Ho13  1  0.845278  0.845278  0.154722  1
  Ni  Ni14  1  0.000000  0.000000  0.000000  1
  Br  Br15  1  0.330882  0.000000  0.000000  1
  Br  Br16  1  0.669118  0.000000  0.000000  1
  Br  Br17  1  0.000000  0.330882  0.669118  1
  Br  Br18  1  0.000000  0.669118  0.330882  1
  Br  Br19  1  0.000000  0.330882  0.000000  1
  Br  Br20  1  0.669118  0.000000  0.330882  1
  Br  Br21  1  0.000000  0.669118  0.000000  1
  Br  Br22  1  0.330882  0.000000  0.669118  1
  Br  Br23  1  0.000000  0.000000  0.330882  1
  Br  Br24  1  0.000000  0.000000  0.669118  1
  Br  Br25  1  0.669118  0.330882  0.000000  1
  Br  Br26  1  0.330882  0.669118  0.000000  1
  Br  Br27  1  0.679298  0.320702  0.320702  1
  Br  Br28  1  0.320702  0.679298  0.679298  1
  Br  Br29  1  0.320702  0.679298  0.320702  1
  Br  Br30  1  0.679298  0.320702  0.679298  1
  Br  Br31  1  0.320702  0.320702  0.679298  1
  Br  Br32  1  0.679298  0.679298  0.320702  1
  Br  Br33  1  0.250000  0.250000  0.250000  1
  Br  Br34  1  0.750000  0.750000  0.750000  1
