# generated using pymatgen
data_Lu2MnBe2Rh5
_symmetry_space_group_name_H-M   'P 1'
_cell_length_a   9.55357800
_cell_length_b   9.55357800
_cell_length_c   3.19849200
_cell_angle_alpha   90.00000000
_cell_angle_beta   90.00000000
_cell_angle_gamma   90.00000000
_symmetry_Int_Tables_number   1
_chemical_formula_structural   Lu2MnBe2Rh5
_chemical_formula_sum   'Lu4 Mn2 Be4 Rh10'
_cell_volume   291.92909188
_cell_formula_units_Z   2
loop_
 _symmetry_equiv_pos_site_id
 _symmetry_equiv_pos_as_xyz
  1  'x, y, z'
loop_
 _atom_site_type_symbol
 _atom_site_label
 _atom_site_symmetry_multiplicity
 _atom_site_fract_x
 _atom_site_fract_y
 _atom_site_fract_z
 _atom_site_occupancy
  Lu  Lu0  1  0.824127  0.324127  0.000000  1
  Lu  Lu1  1  0.324127  0.175873  0.000000  1
  Lu  Lu2  1  0.675873  0.824127  0.000000  1
  Lu  Lu3  1  0.175873  0.675873  0.000000  1
  Mn  Mn4  1  0.000000  0.000000  0.000000  1
  Mn  Mn5  1  0.500000  0.500000  0.000000  1
  Be  Be6  1  0.622941  0.122941  0.000000  1
  Be  Be7  1  0.122941  0.377059  0.000000  1
  Be  Be8  1  0.877059  0.622941  0.000000  1
  Be  Be9  1  0.377059  0.877059  0.000000  1
  Rh  Rh10  1  0.069534  0.210877  0.500000  1
  Rh  Rh11  1  0.210877  0.930466  0.500000  1
  Rh  Rh12  1  0.789123  0.069534  0.500000  1
  Rh  Rh13  1  0.930466  0.789123  0.500000  1
  Rh  Rh14  1  0.430466  0.710877  0.500000  1
  Rh  Rh15  1  0.569534  0.289123  0.500000  1
  Rh  Rh16  1  0.710877  0.569534  0.500000  1
  Rh  Rh17  1  0.289123  0.430466  0.500000  1
  Rh  Rh18  1  0.500000  0.000000  0.500000  1
  Rh  Rh19  1  0.000000  0.500000  0.500000  1
