# generated using pymatgen
data_La12Bi(OsI4)3
_symmetry_space_group_name_H-M   'P 1'
_cell_length_a   11.29740791
_cell_length_b   11.29787438
_cell_length_c   11.29645209
_cell_angle_alpha   110.49421333
_cell_angle_beta   110.49099320
_cell_angle_gamma   110.49917800
_symmetry_Int_Tables_number   1
_chemical_formula_structural   La12Bi(OsI4)3
_chemical_formula_sum   'La12 Bi1 Os3 I12'
_cell_volume   1065.79640033
_cell_formula_units_Z   1
loop_
 _symmetry_equiv_pos_site_id
 _symmetry_equiv_pos_as_xyz
  1  'x, y, z'
loop_
 _atom_site_type_symbol
 _atom_site_label
 _atom_site_symmetry_multiplicity
 _atom_site_fract_x
 _atom_site_fract_y
 _atom_site_fract_z
 _atom_site_occupancy
  La  La0  1  0.466105  0.503988  0.217378  1
  La  La1  1  0.749985  0.227131  0.272814  1
  La  La2  1  0.749971  0.020571  0.479337  1
  La  La3  1  0.217402  0.466138  0.504008  1
  La  La4  1  0.272903  0.750052  0.227186  1
  La  La5  1  0.033902  0.282653  0.995989  1
  La  La6  1  0.995975  0.033837  0.282640  1
  La  La7  1  0.479440  0.749997  0.020609  1
  La  La8  1  0.503981  0.217399  0.466159  1
  La  La9  1  0.020545  0.479416  0.749973  1
  La  La10  1  0.282622  0.995983  0.033878  1
  La  La11  1  0.227159  0.272861  0.749992  1
  Bi  Bi12  1  0.249974  0.249980  0.249998  1
  Os  Os13  1  0.501218  0.998793  0.249993  1
  Os  Os14  1  0.998769  0.250010  0.501220  1
  Os  Os15  1  0.250014  0.501230  0.998789  1
  I  I16  1  0.250002  0.763180  0.736828  1
  I  I17  1  0.512645  0.502294  0.752834  1
  I  I18  1  0.987380  0.747176  0.997721  1
  I  I19  1  0.736831  0.249990  0.763175  1
  I  I20  1  0.997711  0.987378  0.747178  1
  I  I21  1  0.250015  0.997719  0.502284  1
  I  I22  1  0.752822  0.512629  0.502281  1
  I  I23  1  0.502272  0.249996  0.997735  1
  I  I24  1  0.763158  0.736785  0.250003  1
  I  I25  1  0.747164  0.997698  0.987360  1
  I  I26  1  0.997734  0.502275  0.249994  1
  I  I27  1  0.502301  0.752841  0.512643  1
