# generated using pymatgen
data_Ho5Fe3Co16Si7P5
_symmetry_space_group_name_H-M   'P 1'
_cell_length_a   12.06121674
_cell_length_b   12.06121848
_cell_length_c   3.68540000
_cell_angle_alpha   90.00000000
_cell_angle_beta   90.00000000
_cell_angle_gamma   120.17294565
_symmetry_Int_Tables_number   1
_chemical_formula_structural   Ho5Fe3Co16Si7P5
_chemical_formula_sum   'Ho5 Fe3 Co16 Si7 P5'
_cell_volume   463.48755436
_cell_formula_units_Z   1
loop_
 _symmetry_equiv_pos_site_id
 _symmetry_equiv_pos_as_xyz
  1  'x, y, z'
loop_
 _atom_site_type_symbol
 _atom_site_label
 _atom_site_symmetry_multiplicity
 _atom_site_fract_x
 _atom_site_fract_y
 _atom_site_fract_z
 _atom_site_occupancy
  Ho  Ho0  1  0.667692  0.333182  0.000000  1
  Ho  Ho1  1  0.333182  0.667692  0.000000  1
  Ho  Ho2  1  0.813630  0.813630  0.500000  1
  Ho  Ho3  1  0.186573  0.999258  0.500000  1
  Ho  Ho4  1  0.999258  0.186573  0.500000  1
  Fe  Fe5  1  0.445137  0.445137  0.000000  1
  Fe  Fe6  1  0.553302  0.998575  0.000000  1
  Fe  Fe7  1  0.998575  0.553302  0.000000  1
  Co  Co8  1  0.877590  0.354538  0.500000  1
  Co  Co9  1  0.645647  0.523735  0.500000  1
  Co  Co10  1  0.476882  0.120352  0.500000  1
  Co  Co11  1  0.354538  0.877590  0.500000  1
  Co  Co12  1  0.523735  0.645647  0.500000  1
  Co  Co13  1  0.120352  0.476882  0.500000  1
  Co  Co14  1  0.804181  0.178188  0.000000  1
  Co  Co15  1  0.821797  0.626424  0.000000  1
  Co  Co16  1  0.377459  0.195003  0.000000  1
  Co  Co17  1  0.178188  0.804181  0.000000  1
  Co  Co18  1  0.626424  0.821797  0.000000  1
  Co  Co19  1  0.195003  0.377459  0.000000  1
  Co  Co20  1  0.282190  0.282190  0.500000  1
  Co  Co21  1  0.722229  0.000320  0.500000  1
  Co  Co22  1  0.000320  0.722229  0.500000  1
  Co  Co23  1  0.996107  0.996107  0.000000  1
  Si  Si24  1  0.680212  0.158770  0.500000  1
  Si  Si25  1  0.840382  0.520979  0.500000  1
  Si  Si26  1  0.479711  0.318040  0.500000  1
  Si  Si27  1  0.158770  0.680212  0.500000  1
  Si  Si28  1  0.520979  0.840382  0.500000  1
  Si  Si29  1  0.318040  0.479711  0.500000  1
  Si  Si30  1  0.182186  0.182186  0.000000  1
  P  P31  1  0.818992  0.000493  0.000000  1
  P  P32  1  0.000493  0.818992  0.000000  1
  P  P33  1  0.631202  0.631202  0.000000  1
  P  P34  1  0.369499  0.999542  0.000000  1
  P  P35  1  0.999542  0.369499  0.000000  1
