# generated using pymatgen
data_Ti7Si6Mo3N2
_symmetry_space_group_name_H-M   'P 1'
_cell_length_a   7.40422500
_cell_length_b   7.40422393
_cell_length_c   5.16898300
_cell_angle_alpha   90.00000000
_cell_angle_beta   90.00000000
_cell_angle_gamma   120.00000031
_symmetry_Int_Tables_number   1
_chemical_formula_structural   Ti7Si6Mo3N2
_chemical_formula_sum   'Ti7 Si6 Mo3 N2'
_cell_volume   245.41148693
_cell_formula_units_Z   1
loop_
 _symmetry_equiv_pos_site_id
 _symmetry_equiv_pos_as_xyz
  1  'x, y, z'
loop_
 _atom_site_type_symbol
 _atom_site_label
 _atom_site_symmetry_multiplicity
 _atom_site_fract_x
 _atom_site_fract_y
 _atom_site_fract_z
 _atom_site_occupancy
  Ti  Ti0  1  0.226879  0.999875  0.751045  1
  Ti  Ti1  1  0.772996  0.999875  0.248955  1
  Ti  Ti2  1  0.000125  0.227004  0.751045  1
  Ti  Ti3  1  0.000125  0.773121  0.248955  1
  Ti  Ti4  1  0.772996  0.773121  0.751045  1
  Ti  Ti5  1  0.226879  0.227004  0.248955  1
  Ti  Ti6  1  0.333333  0.666667  0.000000  1
  Si  Si7  1  0.590341  0.999797  0.747524  1
  Si  Si8  1  0.409456  0.999797  0.252476  1
  Si  Si9  1  0.000203  0.590544  0.747524  1
  Si  Si10  1  0.000203  0.409659  0.252476  1
  Si  Si11  1  0.409456  0.409659  0.747524  1
  Si  Si12  1  0.590341  0.590544  0.252476  1
  Mo  Mo13  1  0.333333  0.666667  0.500000  1
  Mo  Mo14  1  0.666667  0.333333  0.500000  1
  Mo  Mo15  1  0.666667  0.333333  0.000000  1
  N  N16  1  0.000000  0.000000  0.500000  1
  N  N17  1  0.000000  0.000000  0.000000  1
