# generated using pymatgen
data_Er2LuMg3Pb2Au
_symmetry_space_group_name_H-M   'P 1'
_cell_length_a   7.53986400
_cell_length_b   7.53126361
_cell_length_c   4.48483000
_cell_angle_alpha   90.00000000
_cell_angle_beta   90.00000000
_cell_angle_gamma   120.03778287
_symmetry_Int_Tables_number   1
_chemical_formula_structural   Er2LuMg3Pb2Au
_chemical_formula_sum   'Er2 Lu1 Mg3 Pb2 Au1'
_cell_volume   220.46644839
_cell_formula_units_Z   1
loop_
 _symmetry_equiv_pos_site_id
 _symmetry_equiv_pos_as_xyz
  1  'x, y, z'
loop_
 _atom_site_type_symbol
 _atom_site_label
 _atom_site_symmetry_multiplicity
 _atom_site_fract_x
 _atom_site_fract_y
 _atom_site_fract_z
 _atom_site_occupancy
  Er  Er0  1  0.000222  0.596132  0.000000  1
  Er  Er1  1  0.404090  0.403868  0.000000  1
  Lu  Lu2  1  0.597230  0.000000  0.000000  1
  Mg  Mg3  1  0.233387  0.000000  0.500000  1
  Mg  Mg4  1  0.999685  0.233158  0.500000  1
  Mg  Mg5  1  0.766527  0.766842  0.500000  1
  Pb  Pb6  1  0.334131  0.668037  0.500000  1
  Pb  Pb7  1  0.666096  0.331963  0.500000  1
  Au  Au8  1  0.998633  0.000000  0.000000  1
