# generated using pymatgen
data_Y12Er4Cd4RuPt3
_symmetry_space_group_name_H-M   'P 1'
_cell_length_a   9.69858173
_cell_length_b   9.69858178
_cell_length_c   9.69858244
_cell_angle_alpha   59.66935254
_cell_angle_beta   59.66935575
_cell_angle_gamma   59.66935630
_symmetry_Int_Tables_number   1
_chemical_formula_structural   Y12Er4Cd4RuPt3
_chemical_formula_sum   'Y12 Er4 Cd4 Ru1 Pt3'
_cell_volume   640.22849035
_cell_formula_units_Z   1
loop_
 _symmetry_equiv_pos_site_id
 _symmetry_equiv_pos_as_xyz
  1  'x, y, z'
loop_
 _atom_site_type_symbol
 _atom_site_label
 _atom_site_symmetry_multiplicity
 _atom_site_fract_x
 _atom_site_fract_y
 _atom_site_fract_z
 _atom_site_occupancy
  Y  Y0  1  0.813961  0.189527  0.189527  1
  Y  Y1  1  0.189668  0.809132  0.809132  1
  Y  Y2  1  0.189527  0.813961  0.189527  1
  Y  Y3  1  0.809132  0.189668  0.809132  1
  Y  Y4  1  0.189527  0.189527  0.813961  1
  Y  Y5  1  0.809132  0.809132  0.189668  1
  Y  Y6  1  0.936337  0.564485  0.564485  1
  Y  Y7  1  0.560287  0.936963  0.936963  1
  Y  Y8  1  0.564485  0.936337  0.564485  1
  Y  Y9  1  0.936963  0.560287  0.936963  1
  Y  Y10  1  0.564485  0.564485  0.936337  1
  Y  Y11  1  0.936963  0.936963  0.560287  1
  Er  Er12  1  0.351485  0.351485  0.351485  1
  Er  Er13  1  0.349036  0.349036  0.950041  1
  Er  Er14  1  0.349036  0.950041  0.349036  1
  Er  Er15  1  0.950041  0.349036  0.349036  1
  Cd  Cd16  1  0.580291  0.580291  0.580291  1
  Cd  Cd17  1  0.581140  0.581140  0.255078  1
  Cd  Cd18  1  0.581140  0.255078  0.581140  1
  Cd  Cd19  1  0.255078  0.581140  0.581140  1
  Ru  Ru20  1  0.144158  0.144158  0.144158  1
  Pt  Pt21  1  0.144697  0.144697  0.568731  1
  Pt  Pt22  1  0.144697  0.568731  0.144697  1
  Pt  Pt23  1  0.568731  0.144697  0.144697  1
