# generated using pymatgen
data_Sr2In4PtRh
_symmetry_space_group_name_H-M   'P 1'
_cell_length_a   5.98655477
_cell_length_b   5.98655440
_cell_length_c   8.13459200
_cell_angle_alpha   90.00000000
_cell_angle_beta   90.00000000
_cell_angle_gamma   136.52514724
_symmetry_Int_Tables_number   1
_chemical_formula_structural   Sr2In4PtRh
_chemical_formula_sum   'Sr2 In4 Pt1 Rh1'
_cell_volume   200.58613964
_cell_formula_units_Z   1
loop_
 _symmetry_equiv_pos_site_id
 _symmetry_equiv_pos_as_xyz
  1  'x, y, z'
loop_
 _atom_site_type_symbol
 _atom_site_label
 _atom_site_symmetry_multiplicity
 _atom_site_fract_x
 _atom_site_fract_y
 _atom_site_fract_z
 _atom_site_occupancy
  Sr  Sr0  1  0.939681  0.060319  0.750000  1
  Sr  Sr1  1  0.059269  0.940731  0.250000  1
  In  In2  1  0.654004  0.345996  0.949632  1
  In  In3  1  0.345965  0.654035  0.055742  1
  In  In4  1  0.345965  0.654035  0.444258  1
  In  In5  1  0.654004  0.345996  0.550368  1
  Pt  Pt6  1  0.220708  0.779292  0.750000  1
  Rh  Rh7  1  0.780404  0.219596  0.250000  1
