# generated using pymatgen
data_La2CuBiSe5
_symmetry_space_group_name_H-M   'P 1'
_cell_length_a   12.54178900
_cell_length_b   4.17943900
_cell_length_c   17.85446300
_cell_angle_alpha   90.00000000
_cell_angle_beta   90.00000000
_cell_angle_gamma   90.00000000
_symmetry_Int_Tables_number   1
_chemical_formula_structural   La2CuBiSe5
_chemical_formula_sum   'La8 Cu4 Bi4 Se20'
_cell_volume   935.88885100
_cell_formula_units_Z   4
loop_
 _symmetry_equiv_pos_site_id
 _symmetry_equiv_pos_as_xyz
  1  'x, y, z'
loop_
 _atom_site_type_symbol
 _atom_site_label
 _atom_site_symmetry_multiplicity
 _atom_site_fract_x
 _atom_site_fract_y
 _atom_site_fract_z
 _atom_site_occupancy
  La  La0  1  0.370140  0.750000  0.096254  1
  La  La1  1  0.034160  0.750000  0.175118  1
  La  La2  1  0.534159  0.750000  0.324882  1
  La  La3  1  0.870140  0.750000  0.403747  1
  La  La4  1  0.129860  0.250001  0.596253  1
  La  La5  1  0.465840  0.250001  0.675118  1
  La  La6  1  0.965840  0.250001  0.824882  1
  La  La7  1  0.629860  0.250001  0.903747  1
  Cu  Cu8  1  0.914254  0.750000  0.003798  1
  Cu  Cu9  1  0.414253  0.750000  0.496202  1
  Cu  Cu10  1  0.585747  0.250001  0.503798  1
  Cu  Cu11  1  0.085747  0.250001  0.996202  1
  Bi  Bi12  1  0.694812  0.250001  0.136639  1
  Bi  Bi13  1  0.194812  0.250001  0.363361  1
  Bi  Bi14  1  0.805188  0.750000  0.636639  1
  Bi  Bi15  1  0.305188  0.750000  0.863361  1
  Se  Se16  1  0.603382  0.750000  0.030869  1
  Se  Se17  1  0.912563  0.250001  0.078040  1
  Se  Se18  1  0.189021  0.250001  0.110825  1
  Se  Se19  1  0.481097  0.250001  0.199363  1
  Se  Se20  1  0.758505  0.750000  0.235803  1
  Se  Se21  1  0.258505  0.750000  0.264197  1
  Se  Se22  1  0.981097  0.250001  0.300637  1
  Se  Se23  1  0.689021  0.250001  0.389175  1
  Se  Se24  1  0.412563  0.250001  0.421960  1
  Se  Se25  1  0.103382  0.750000  0.469131  1
  Se  Se26  1  0.896618  0.250001  0.530869  1
  Se  Se27  1  0.587438  0.750000  0.578041  1
  Se  Se28  1  0.310979  0.750000  0.610825  1
  Se  Se29  1  0.018903  0.750000  0.699363  1
  Se  Se30  1  0.741495  0.250001  0.735803  1
  Se  Se31  1  0.241495  0.250001  0.764197  1
  Se  Se32  1  0.518903  0.750000  0.800637  1
  Se  Se33  1  0.810979  0.750000  0.889175  1
  Se  Se34  1  0.087438  0.750000  0.921959  1
  Se  Se35  1  0.396618  0.250001  0.969131  1
