# generated using pymatgen
data_SrAc10Yb9Sn16
_symmetry_space_group_name_H-M   'P 1'
_cell_length_a   8.24911989
_cell_length_b   8.75346836
_cell_length_c   16.61716800
_cell_angle_alpha   89.97887114
_cell_angle_beta   90.03879165
_cell_angle_gamma   90.08985778
_symmetry_Int_Tables_number   1
_chemical_formula_structural   SrAc10Yb9Sn16
_chemical_formula_sum   'Sr1 Ac10 Yb9 Sn16'
_cell_volume   1199.89744712
_cell_formula_units_Z   1
loop_
 _symmetry_equiv_pos_site_id
 _symmetry_equiv_pos_as_xyz
  1  'x, y, z'
loop_
 _atom_site_type_symbol
 _atom_site_label
 _atom_site_symmetry_multiplicity
 _atom_site_fract_x
 _atom_site_fract_y
 _atom_site_fract_z
 _atom_site_occupancy
  Sr  Sr0  1  0.166996  0.992884  0.249512  1
  Ac  Ac1  1  0.502978  0.817956  0.907467  1
  Ac  Ac2  1  0.002292  0.682579  0.592338  1
  Ac  Ac3  1  0.497881  0.183763  0.402921  1
  Ac  Ac4  1  0.996621  0.319223  0.097426  1
  Ac  Ac5  1  0.494621  0.184017  0.098546  1
  Ac  Ac6  1  0.993327  0.318555  0.401068  1
  Ac  Ac7  1  0.503208  0.815657  0.593408  1
  Ac  Ac8  1  0.003496  0.685275  0.906540  1
  Ac  Ac9  1  0.666351  0.325956  0.877463  1
  Ac  Ac10  1  0.166484  0.174009  0.622633  1
  Yb  Yb11  1  0.338387  0.669993  0.373606  1
  Yb  Yb12  1  0.836392  0.827314  0.125331  1
  Yb  Yb13  1  0.332277  0.670058  0.125690  1
  Yb  Yb14  1  0.830469  0.827459  0.375152  1
  Yb  Yb15  1  0.665067  0.329629  0.622213  1
  Yb  Yb16  1  0.165971  0.170141  0.877873  1
  Yb  Yb17  1  0.334006  0.503149  0.751126  1
  Yb  Yb18  1  0.833737  0.997351  0.748747  1
  Yb  Yb19  1  0.666808  0.506205  0.250473  1
  Sn  Sn20  1  0.169929  0.960262  0.038696  1
  Sn  Sn21  1  0.669145  0.539434  0.459992  1
  Sn  Sn22  1  0.824686  0.036271  0.535888  1
  Sn  Sn23  1  0.324894  0.464531  0.963923  1
  Sn  Sn24  1  0.838445  0.032874  0.964817  1
  Sn  Sn25  1  0.338380  0.467955  0.535361  1
  Sn  Sn26  1  0.165971  0.957100  0.457377  1
  Sn  Sn27  1  0.665432  0.542064  0.044117  1
  Sn  Sn28  1  0.709021  0.637153  0.749391  1
  Sn  Sn29  1  0.208567  0.862738  0.750821  1
  Sn  Sn30  1  0.294148  0.372811  0.250423  1
  Sn  Sn31  1  0.786098  0.134991  0.249663  1
  Sn  Sn32  1  0.463988  0.102355  0.752586  1
  Sn  Sn33  1  0.964464  0.397349  0.747875  1
  Sn  Sn34  1  0.544663  0.883739  0.248781  1
  Sn  Sn35  1  0.034804  0.607202  0.250758  1
