# generated using pymatgen
data_Ac3La5(ZnRh)8
_symmetry_space_group_name_H-M   'P 1'
_cell_length_a   4.06681500
_cell_length_b   7.41540267
_cell_length_c   16.69317000
_cell_angle_alpha   89.77798359
_cell_angle_beta   90.00000000
_cell_angle_gamma   90.00000000
_symmetry_Int_Tables_number   1
_chemical_formula_structural   Ac3La5(ZnRh)8
_chemical_formula_sum   'Ac3 La5 Zn8 Rh8'
_cell_volume   503.41333040
_cell_formula_units_Z   1
loop_
 _symmetry_equiv_pos_site_id
 _symmetry_equiv_pos_as_xyz
  1  'x, y, z'
loop_
 _atom_site_type_symbol
 _atom_site_label
 _atom_site_symmetry_multiplicity
 _atom_site_fract_x
 _atom_site_fract_y
 _atom_site_fract_z
 _atom_site_occupancy
  Ac  Ac0  1  0.250000  0.547833  0.784028  1
  Ac  Ac1  1  0.750000  0.331046  0.436828  1
  Ac  Ac2  1  0.250000  0.672619  0.560518  1
  La  La3  1  0.750000  0.448596  0.214922  1
  La  La4  1  0.750000  0.950763  0.280212  1
  La  La5  1  0.750000  0.827095  0.061090  1
  La  La6  1  0.250000  0.049759  0.718546  1
  La  La7  1  0.250000  0.169437  0.942330  1
  Zn  Zn8  1  0.250000  0.997336  0.437989  1
  Zn  Zn9  1  0.750000  0.501129  0.943824  1
  Zn  Zn10  1  0.750000  0.006506  0.560260  1
  Zn  Zn11  1  0.250000  0.633803  0.345812  1
  Zn  Zn12  1  0.750000  0.363751  0.650108  1
  Zn  Zn13  1  0.750000  0.878430  0.853203  1
  Zn  Zn14  1  0.250000  0.495765  0.059625  1
  Zn  Zn15  1  0.250000  0.125424  0.148831  1
  Rh  Rh16  1  0.250000  0.241303  0.567332  1
  Rh  Rh17  1  0.750000  0.253281  0.065708  1
  Rh  Rh18  1  0.250000  0.237766  0.309395  1
  Rh  Rh19  1  0.750000  0.253206  0.816776  1
  Rh  Rh20  1  0.250000  0.746479  0.937961  1
  Rh  Rh21  1  0.750000  0.768496  0.688260  1
  Rh  Rh22  1  0.750000  0.762374  0.430681  1
  Rh  Rh23  1  0.250000  0.737802  0.185768  1
