# generated using pymatgen
data_Lu5Al3C4
_symmetry_space_group_name_H-M   'P 1'
_cell_length_a   10.68860300
_cell_length_b   10.68860300
_cell_length_c   3.43767100
_cell_angle_alpha   90.00000000
_cell_angle_beta   90.00000000
_cell_angle_gamma   90.00000000
_symmetry_Int_Tables_number   1
_chemical_formula_structural   Lu5Al3C4
_chemical_formula_sum   'Lu10 Al6 C8'
_cell_volume   392.74096580
_cell_formula_units_Z   2
loop_
 _symmetry_equiv_pos_site_id
 _symmetry_equiv_pos_as_xyz
  1  'x, y, z'
loop_
 _atom_site_type_symbol
 _atom_site_label
 _atom_site_symmetry_multiplicity
 _atom_site_fract_x
 _atom_site_fract_y
 _atom_site_fract_z
 _atom_site_occupancy
  Lu  Lu0  1  0.549667  0.732413  0.500000  1
  Lu  Lu1  1  0.450333  0.267587  0.500000  1
  Lu  Lu2  1  0.049667  0.767587  0.500000  1
  Lu  Lu3  1  0.950333  0.232413  0.500000  1
  Lu  Lu4  1  0.267587  0.549667  0.500000  1
  Lu  Lu5  1  0.732413  0.450333  0.500000  1
  Lu  Lu6  1  0.232413  0.049667  0.500000  1
  Lu  Lu7  1  0.767587  0.950333  0.500000  1
  Lu  Lu8  1  0.500000  0.000000  0.000000  1
  Lu  Lu9  1  0.000000  0.500000  0.000000  1
  Al  Al10  1  0.703686  0.203686  0.000000  1
  Al  Al11  1  0.296314  0.796314  0.000000  1
  Al  Al12  1  0.203686  0.296314  0.000000  1
  Al  Al13  1  0.796314  0.703686  0.000000  1
  Al  Al14  1  0.500000  0.500000  0.000000  1
  Al  Al15  1  0.000000  0.000000  0.000000  1
  C  C16  1  0.628450  0.128450  0.500000  1
  C  C17  1  0.371550  0.871550  0.500000  1
  C  C18  1  0.128450  0.371550  0.500000  1
  C  C19  1  0.871550  0.628450  0.500000  1
  C  C20  1  0.160773  0.660773  0.000000  1
  C  C21  1  0.839227  0.339227  0.000000  1
  C  C22  1  0.660773  0.839227  0.000000  1
  C  C23  1  0.339227  0.160773  0.000000  1
