# generated using pymatgen
data_Nb2P3NO11
_symmetry_space_group_name_H-M   'P 1'
_cell_length_a   8.80141123
_cell_length_b   8.82809890
_cell_length_c   9.11233647
_cell_angle_alpha   90.43612233
_cell_angle_beta   118.55500682
_cell_angle_gamma   119.99962361
_symmetry_Int_Tables_number   1
_chemical_formula_structural   Nb2P3NO11
_chemical_formula_sum   'Nb4 P6 N2 O22'
_cell_volume   509.49510680
_cell_formula_units_Z   2
loop_
 _symmetry_equiv_pos_site_id
 _symmetry_equiv_pos_as_xyz
  1  'x, y, z'
loop_
 _atom_site_type_symbol
 _atom_site_label
 _atom_site_symmetry_multiplicity
 _atom_site_fract_x
 _atom_site_fract_y
 _atom_site_fract_z
 _atom_site_occupancy
  Nb  Nb0  1  0.221967  0.851053  0.087114  1
  Nb  Nb1  1  0.783188  0.640183  0.429817  1
  Nb  Nb2  1  0.216523  0.358557  0.574114  1
  Nb  Nb3  1  0.785958  0.124404  0.933166  1
  P  P4  1  0.997783  0.965451  0.250841  1
  P  P5  1  0.277894  0.526971  0.247666  1
  P  P6  1  0.280153  0.752017  0.746974  1
  P  P7  1  0.718860  0.250932  0.248227  1
  P  P8  1  0.721863  0.468101  0.753845  1
  P  P9  1  0.004499  0.034073  0.755059  1
  N  N10  1  0.283615  0.706356  0.212317  1
  N  N11  1  0.854153  0.993922  0.077798  1
  O  O12  1  0.862964  0.859181  0.591378  1
  O  O13  1  0.854874  0.797429  0.286932  1
  O  O14  1  0.143152  0.931262  0.231524  1
  O  O15  1  0.485720  0.554696  0.288024  1
  O  O16  1  0.085273  0.723285  0.580607  1
  O  O17  1  0.907410  0.646544  0.911111  1
  O  O18  1  0.278175  0.781209  0.910753  1
  O  O19  1  0.476610  0.918715  0.765352  1
  O  O20  1  0.729090  0.496888  0.587820  1
  O  O21  1  0.724613  0.427433  0.282866  1
  O  O22  1  0.277329  0.575868  0.717987  1
  O  O23  1  0.269458  0.500461  0.412233  1
  O  O24  1  0.518089  0.085172  0.223997  1
  O  O25  1  0.721070  0.229323  0.082858  1
  O  O26  1  0.092230  0.356493  0.084424  1
  O  O27  1  0.912209  0.273927  0.412936  1
  O  O28  1  0.513544  0.442654  0.712822  1
  O  O29  1  0.855403  0.070204  0.766640  1
  O  O30  1  0.142294  0.202371  0.713138  1
  O  O31  1  0.141060  0.139825  0.414177  1
  O  O32  1  0.146754  0.016890  0.921599  1
  O  O33  1  0.716223  0.298149  0.783885  1
