# generated using pymatgen
data_DyNp3Sc4(ReB6)4
_symmetry_space_group_name_H-M   'P 1'
_cell_length_a   3.58895400
_cell_length_b   9.02111202
_cell_length_c   11.40397600
_cell_angle_alpha   90.00362024
_cell_angle_beta   90.00000000
_cell_angle_gamma   90.00000000
_symmetry_Int_Tables_number   1
_chemical_formula_structural   DyNp3Sc4(ReB6)4
_chemical_formula_sum   'Dy1 Np3 Sc4 Re4 B24'
_cell_volume   369.21918676
_cell_formula_units_Z   1
loop_
 _symmetry_equiv_pos_site_id
 _symmetry_equiv_pos_as_xyz
  1  'x, y, z'
loop_
 _atom_site_type_symbol
 _atom_site_label
 _atom_site_symmetry_multiplicity
 _atom_site_fract_x
 _atom_site_fract_y
 _atom_site_fract_z
 _atom_site_occupancy
  Dy  Dy0  1  0.000000  0.180351  0.913978  1
  Np  Np1  1  0.000000  0.320441  0.414392  1
  Np  Np2  1  0.000000  0.679127  0.586689  1
  Np  Np3  1  0.000000  0.822149  0.084921  1
  Sc  Sc4  1  0.000000  0.945549  0.373571  1
  Sc  Sc5  1  0.000000  0.055035  0.626576  1
  Sc  Sc6  1  0.000000  0.444443  0.126410  1
  Sc  Sc7  1  0.000000  0.554366  0.873224  1
  Re  Re8  1  0.000000  0.639458  0.319680  1
  Re  Re9  1  0.000000  0.361883  0.678141  1
  Re  Re10  1  0.000000  0.139712  0.182517  1
  Re  Re11  1  0.000000  0.857945  0.819100  1
  B  B12  1  0.500000  0.553515  0.433014  1
  B  B13  1  0.500000  0.446784  0.566264  1
  B  B14  1  0.500000  0.053198  0.067370  1
  B  B15  1  0.500000  0.945750  0.933415  1
  B  B16  1  0.500000  0.752890  0.419470  1
  B  B17  1  0.500000  0.246734  0.580241  1
  B  B18  1  0.500000  0.253311  0.081564  1
  B  B19  1  0.500000  0.746631  0.920275  1
  B  B20  1  0.500000  0.795038  0.265050  1
  B  B21  1  0.500000  0.205603  0.734454  1
  B  B22  1  0.500000  0.295043  0.235031  1
  B  B23  1  0.500000  0.704971  0.764800  1
  B  B24  1  0.500000  0.630421  0.182119  1
  B  B25  1  0.500000  0.370784  0.816738  1
  B  B26  1  0.500000  0.130590  0.317765  1
  B  B27  1  0.500000  0.869551  0.682668  1
  B  B28  1  0.500000  0.980220  0.213984  1
  B  B29  1  0.500000  0.018765  0.785446  1
  B  B30  1  0.500000  0.480593  0.285836  1
  B  B31  1  0.500000  0.519134  0.714209  1
  B  B32  1  0.500000  0.599009  0.027262  1
  B  B33  1  0.500000  0.401202  0.972961  1
  B  B34  1  0.500000  0.100300  0.473073  1
  B  B35  1  0.500000  0.899506  0.527794  1
