# generated using pymatgen
data_Dy3Al3GePt2
_symmetry_space_group_name_H-M   'P 1'
_cell_length_a   7.06916100
_cell_length_b   7.06916261
_cell_length_c   4.15847100
_cell_angle_alpha   90.00000000
_cell_angle_beta   90.00000000
_cell_angle_gamma   120.00000651
_symmetry_Int_Tables_number   1
_chemical_formula_structural   Dy3Al3GePt2
_chemical_formula_sum   'Dy3 Al3 Ge1 Pt2'
_cell_volume   179.97000337
_cell_formula_units_Z   1
loop_
 _symmetry_equiv_pos_site_id
 _symmetry_equiv_pos_as_xyz
  1  'x, y, z'
loop_
 _atom_site_type_symbol
 _atom_site_label
 _atom_site_symmetry_multiplicity
 _atom_site_fract_x
 _atom_site_fract_y
 _atom_site_fract_z
 _atom_site_occupancy
  Dy  Dy0  1  0.585131  0.004103  0.500000  1
  Dy  Dy1  1  0.418971  0.414869  0.500000  1
  Dy  Dy2  1  0.995897  0.581029  0.500000  1
  Al  Al3  1  0.771273  0.755453  0.000000  1
  Al  Al4  1  0.984179  0.228727  0.000000  1
  Al  Al5  1  0.244547  0.015821  0.000000  1
  Ge  Ge6  1  0.333333  0.666667  0.000000  1
  Pt  Pt7  1  0.666667  0.333333  0.000000  1
  Pt  Pt8  1  0.000000  0.000000  0.500000  1
