# generated using pymatgen
data_La7ZnAu2
_symmetry_space_group_name_H-M   'P 1'
_cell_length_a   3.91948000
_cell_length_b   12.78470700
_cell_length_c   12.78470700
_cell_angle_alpha   90.00000000
_cell_angle_beta   90.00000000
_cell_angle_gamma   90.00000000
_symmetry_Int_Tables_number   1
_chemical_formula_structural   La7ZnAu2
_chemical_formula_sum   'La14 Zn2 Au4'
_cell_volume   640.63404032
_cell_formula_units_Z   2
loop_
 _symmetry_equiv_pos_site_id
 _symmetry_equiv_pos_as_xyz
  1  'x, y, z'
loop_
 _atom_site_type_symbol
 _atom_site_label
 _atom_site_symmetry_multiplicity
 _atom_site_fract_x
 _atom_site_fract_y
 _atom_site_fract_z
 _atom_site_occupancy
  La  La0  1  0.500000  0.000000  0.500000  1
  La  La1  1  0.500000  0.500000  0.000000  1
  La  La2  1  0.000000  0.320581  0.820581  1
  La  La3  1  0.000000  0.679419  0.179419  1
  La  La4  1  0.000000  0.179419  0.320581  1
  La  La5  1  0.000000  0.820581  0.679419  1
  La  La6  1  0.500000  0.553279  0.691884  1
  La  La7  1  0.500000  0.446721  0.308116  1
  La  La8  1  0.500000  0.946721  0.191884  1
  La  La9  1  0.500000  0.053279  0.808116  1
  La  La10  1  0.500000  0.691884  0.446721  1
  La  La11  1  0.500000  0.308116  0.553279  1
  La  La12  1  0.500000  0.191884  0.053279  1
  La  La13  1  0.500000  0.808116  0.946721  1
  Zn  Zn14  1  0.000000  0.500000  0.500000  1
  Zn  Zn15  1  0.000000  0.000000  0.000000  1
  Au  Au16  1  0.000000  0.134003  0.634003  1
  Au  Au17  1  0.000000  0.865997  0.365997  1
  Au  Au18  1  0.000000  0.365997  0.134003  1
  Au  Au19  1  0.000000  0.634003  0.865997  1
