# generated using pymatgen
data_Np4Al24Pd8Pt
_symmetry_space_group_name_H-M   'P 1'
_cell_length_a   7.57429437
_cell_length_b   7.57255073
_cell_length_c   13.20669420
_cell_angle_alpha   84.65073690
_cell_angle_beta   100.92940640
_cell_angle_gamma   119.84328981
_symmetry_Int_Tables_number   1
_chemical_formula_structural   Np4Al24Pd8Pt
_chemical_formula_sum   'Np4 Al24 Pd8 Pt1'
_cell_volume   645.12315457
_cell_formula_units_Z   1
loop_
 _symmetry_equiv_pos_site_id
 _symmetry_equiv_pos_as_xyz
  1  'x, y, z'
loop_
 _atom_site_type_symbol
 _atom_site_label
 _atom_site_symmetry_multiplicity
 _atom_site_fract_x
 _atom_site_fract_y
 _atom_site_fract_z
 _atom_site_occupancy
  Np  Np0  1  0.732382  0.998664  0.193305  1
  Np  Np1  1  0.267915  0.001697  0.807015  1
  Np  Np2  1  0.062143  0.667721  0.193311  1
  Np  Np3  1  0.937651  0.331985  0.806679  1
  Al  Al4  1  0.807841  0.868562  0.816327  1
  Al  Al5  1  0.191487  0.130935  0.183739  1
  Al  Al6  1  0.984166  0.666025  0.945991  1
  Al  Al7  1  0.016090  0.333983  0.054056  1
  Al  Al8  1  0.398646  0.663830  0.817419  1
  Al  Al9  1  0.600339  0.336267  0.182179  1
  Al  Al10  1  0.881545  0.664910  0.670874  1
  Al  Al11  1  0.119172  0.335004  0.329442  1
  Al  Al12  1  0.603210  0.457955  0.817563  1
  Al  Al13  1  0.396527  0.542388  0.182489  1
  Al  Al14  1  0.231758  0.341027  0.669742  1
  Al  Al15  1  0.768334  0.659753  0.330303  1
  Al  Al16  1  0.853164  0.333173  0.559226  1
  Al  Al17  1  0.186384  0.999760  0.559237  1
  Al  Al18  1  0.813798  0.000704  0.440750  1
  Al  Al19  1  0.351823  0.997713  0.054252  1
  Al  Al20  1  0.648158  0.002107  0.945854  1
  Al  Al21  1  0.556282  0.992732  0.671520  1
  Al  Al22  1  0.443117  0.006655  0.328558  1
  Al  Al23  1  0.520498  0.666092  0.560687  1
  Al  Al24  1  0.480086  0.333778  0.438888  1
  Al  Al25  1  0.684607  0.669343  0.046471  1
  Al  Al26  1  0.315437  0.330829  0.953496  1
  Al  Al27  1  0.146640  0.666271  0.440765  1
  Pd  Pd28  1  0.330068  0.669919  0.999801  1
  Pd  Pd29  1  0.546221  0.326596  0.636922  1
  Pd  Pd30  1  0.453885  0.673601  0.362934  1
  Pd  Pd31  1  0.885158  0.005757  0.637327  1
  Pd  Pd32  1  0.114821  0.994120  0.362790  1
  Pd  Pd33  1  0.670339  0.330172  0.000503  1
  Pd  Pd34  1  0.205760  0.666825  0.637283  1
  Pd  Pd35  1  0.999960  0.999968  0.000016  1
  Pt  Pt36  1  0.794584  0.333177  0.362286  1
