# generated using pymatgen
data_Sr3AgHg3Au2
_symmetry_space_group_name_H-M   'P 1'
_cell_length_a   8.34626600
_cell_length_b   8.34626603
_cell_length_c   4.10930800
_cell_angle_alpha   90.00000000
_cell_angle_beta   90.00000000
_cell_angle_gamma   119.99999194
_symmetry_Int_Tables_number   1
_chemical_formula_structural   Sr3AgHg3Au2
_chemical_formula_sum   'Sr3 Ag1 Hg3 Au2'
_cell_volume   247.90415510
_cell_formula_units_Z   1
loop_
 _symmetry_equiv_pos_site_id
 _symmetry_equiv_pos_as_xyz
  1  'x, y, z'
loop_
 _atom_site_type_symbol
 _atom_site_label
 _atom_site_symmetry_multiplicity
 _atom_site_fract_x
 _atom_site_fract_y
 _atom_site_fract_z
 _atom_site_occupancy
  Sr  Sr0  1  0.600110  0.000000  0.000000  1
  Sr  Sr1  1  0.000000  0.600110  0.000000  1
  Sr  Sr2  1  0.399890  0.399890  0.000000  1
  Ag  Ag3  1  0.000000  0.000000  0.000000  1
  Hg  Hg4  1  0.265610  0.000000  0.500000  1
  Hg  Hg5  1  0.000000  0.265610  0.500000  1
  Hg  Hg6  1  0.734390  0.734390  0.500000  1
  Au  Au7  1  0.333333  0.666667  0.500000  1
  Au  Au8  1  0.666667  0.333333  0.500000  1
