# generated using pymatgen
data_PrThSc2(Ga3Ir)6
_symmetry_space_group_name_H-M   'P 1'
_cell_length_a   7.61224443
_cell_length_b   7.60539648
_cell_length_c   9.47551600
_cell_angle_alpha   90.00000000
_cell_angle_beta   90.00000000
_cell_angle_gamma   119.81005545
_symmetry_Int_Tables_number   1
_chemical_formula_structural   PrThSc2(Ga3Ir)6
_chemical_formula_sum   'Pr1 Th1 Sc2 Ga18 Ir6'
_cell_volume   475.98816012
_cell_formula_units_Z   1
loop_
 _symmetry_equiv_pos_site_id
 _symmetry_equiv_pos_as_xyz
  1  'x, y, z'
loop_
 _atom_site_type_symbol
 _atom_site_label
 _atom_site_symmetry_multiplicity
 _atom_site_fract_x
 _atom_site_fract_y
 _atom_site_fract_z
 _atom_site_occupancy
  Pr  Pr0  1  0.669900  0.996733  0.750000  1
  Th  Th1  1  0.996439  0.669156  0.750000  1
  Sc  Sc2  1  0.000569  0.330052  0.250000  1
  Sc  Sc3  1  0.328084  0.999904  0.250000  1
  Ga  Ga4  1  0.132731  0.133186  0.750000  1
  Ga  Ga5  1  0.877930  0.879488  0.250000  1
  Ga  Ga6  1  0.003241  0.331918  0.570985  1
  Ga  Ga7  1  0.005087  0.664915  0.408091  1
  Ga  Ga8  1  0.005087  0.664915  0.091909  1
  Ga  Ga9  1  0.338126  0.005593  0.928930  1
  Ga  Ga10  1  0.003241  0.331918  0.929015  1
  Ga  Ga11  1  0.665184  0.005971  0.089499  1
  Ga  Ga12  1  0.665184  0.005971  0.410501  1
  Ga  Ga13  1  0.338126  0.005593  0.571070  1
  Ga  Ga14  1  0.327149  0.326811  0.075352  1
  Ga  Ga15  1  0.662388  0.665382  0.945892  1
  Ga  Ga16  1  0.662388  0.665382  0.554108  1
  Ga  Ga17  1  0.327149  0.326811  0.424648  1
  Ga  Ga18  1  0.339905  0.543383  0.750000  1
  Ga  Ga19  1  0.658155  0.446329  0.250000  1
  Ga  Ga20  1  0.541645  0.338176  0.750000  1
  Ga  Ga21  1  0.446369  0.659798  0.250000  1
  Ir  Ir22  1  0.675001  0.332536  0.499204  1
  Ir  Ir23  1  0.326987  0.671447  0.498905  1
  Ir  Ir24  1  0.326987  0.671447  0.001095  1
  Ir  Ir25  1  0.675001  0.332536  0.000796  1
  Ir  Ir26  1  0.000973  0.997324  0.498828  1
  Ir  Ir27  1  0.000973  0.997324  0.001172  1
