# generated using pymatgen
data_Sc8Tc3B24Rh
_symmetry_space_group_name_H-M   'P 1'
_cell_length_a   3.50539100
_cell_length_b   8.89331621
_cell_length_c   11.19841636
_cell_angle_alpha   90.09592199
_cell_angle_beta   90.00000000
_cell_angle_gamma   90.00000000
_symmetry_Int_Tables_number   1
_chemical_formula_structural   Sc8Tc3B24Rh
_chemical_formula_sum   'Sc8 Tc3 B24 Rh1'
_cell_volume   349.10510815
_cell_formula_units_Z   1
loop_
 _symmetry_equiv_pos_site_id
 _symmetry_equiv_pos_as_xyz
  1  'x, y, z'
loop_
 _atom_site_type_symbol
 _atom_site_label
 _atom_site_symmetry_multiplicity
 _atom_site_fract_x
 _atom_site_fract_y
 _atom_site_fract_z
 _atom_site_occupancy
  Sc  Sc0  1  0.000000  0.945810  0.371520  1
  Sc  Sc1  1  0.000000  0.055249  0.628514  1
  Sc  Sc2  1  0.000000  0.556090  0.871267  1
  Sc  Sc3  1  0.000000  0.178275  0.911978  1
  Sc  Sc4  1  0.000000  0.825467  0.080281  1
  Sc  Sc5  1  0.000000  0.681438  0.591853  1
  Sc  Sc6  1  0.000000  0.314202  0.415548  1
  Sc  Sc7  1  0.000000  0.441523  0.127589  1
  Tc  Tc8  1  0.000000  0.139254  0.180579  1
  Tc  Tc9  1  0.000000  0.361109  0.678517  1
  Tc  Tc10  1  0.000000  0.860796  0.820331  1
  B  B11  1  0.500000  0.370210  0.817498  1
  B  B12  1  0.500000  0.979463  0.212391  1
  B  B13  1  0.500000  0.554396  0.435586  1
  B  B14  1  0.500000  0.295503  0.237351  1
  B  B15  1  0.500000  0.205153  0.736135  1
  B  B16  1  0.500000  0.098765  0.472651  1
  B  B17  1  0.500000  0.794265  0.263634  1
  B  B18  1  0.500000  0.446670  0.564400  1
  B  B19  1  0.500000  0.246664  0.578974  1
  B  B20  1  0.500000  0.480537  0.287452  1
  B  B21  1  0.500000  0.705050  0.763991  1
  B  B22  1  0.500000  0.752902  0.422172  1
  B  B23  1  0.500000  0.520682  0.712426  1
  B  B24  1  0.500000  0.898991  0.527234  1
  B  B25  1  0.500000  0.053091  0.064954  1
  B  B26  1  0.500000  0.600026  0.027739  1
  B  B27  1  0.500000  0.747303  0.921206  1
  B  B28  1  0.500000  0.020413  0.787153  1
  B  B29  1  0.500000  0.400936  0.973077  1
  B  B30  1  0.500000  0.946789  0.934808  1
  B  B31  1  0.500000  0.630762  0.181366  1
  B  B32  1  0.500000  0.252884  0.078840  1
  B  B33  1  0.500000  0.869476  0.682372  1
  B  B34  1  0.500000  0.130531  0.318325  1
  Rh  Rh35  1  0.000000  0.639321  0.320290  1
