# generated using pymatgen
data_Ta4GaFe(B2Ru5)2
_symmetry_space_group_name_H-M   'P 1'
_cell_length_a   9.29956800
_cell_length_b   9.29956800
_cell_length_c   2.99555600
_cell_angle_alpha   90.00000000
_cell_angle_beta   90.00000000
_cell_angle_gamma   90.00000000
_symmetry_Int_Tables_number   1
_chemical_formula_structural   Ta4GaFe(B2Ru5)2
_chemical_formula_sum   'Ta4 Ga1 Fe1 B4 Ru10'
_cell_volume   259.06156911
_cell_formula_units_Z   1
loop_
 _symmetry_equiv_pos_site_id
 _symmetry_equiv_pos_as_xyz
  1  'x, y, z'
loop_
 _atom_site_type_symbol
 _atom_site_label
 _atom_site_symmetry_multiplicity
 _atom_site_fract_x
 _atom_site_fract_y
 _atom_site_fract_z
 _atom_site_occupancy
  Ta  Ta0  1  0.823830  0.676892  0.000000  1
  Ta  Ta1  1  0.176170  0.323108  0.000000  1
  Ta  Ta2  1  0.323108  0.823830  0.000000  1
  Ta  Ta3  1  0.676892  0.176170  0.000000  1
  Ga  Ga4  1  0.500000  0.500000  0.000000  1
  Fe  Fe5  1  0.000000  0.000000  0.000000  1
  B  B6  1  0.624626  0.874730  0.000000  1
  B  B7  1  0.375374  0.125270  0.000000  1
  B  B8  1  0.125270  0.624626  0.000000  1
  B  B9  1  0.874730  0.375374  0.000000  1
  Ru  Ru10  1  0.570573  0.714833  0.500000  1
  Ru  Ru11  1  0.429427  0.285167  0.500000  1
  Ru  Ru12  1  0.069119  0.785970  0.500000  1
  Ru  Ru13  1  0.930881  0.214030  0.500000  1
  Ru  Ru14  1  0.285167  0.570573  0.500000  1
  Ru  Ru15  1  0.714833  0.429427  0.500000  1
  Ru  Ru16  1  0.214030  0.069119  0.500000  1
  Ru  Ru17  1  0.785970  0.930881  0.500000  1
  Ru  Ru18  1  0.500000  0.000000  0.500000  1
  Ru  Ru19  1  0.000000  0.500000  0.500000  1
