# generated using pymatgen
data_DyEr3(InGa2)2
_symmetry_space_group_name_H-M   'P 1'
_cell_length_a   7.23101700
_cell_length_b   7.23101772
_cell_length_c   4.35285400
_cell_angle_alpha   90.00000000
_cell_angle_beta   90.00000000
_cell_angle_gamma   90.53879772
_symmetry_Int_Tables_number   1
_chemical_formula_structural   DyEr3(InGa2)2
_chemical_formula_sum   'Dy1 Er3 In2 Ga4'
_cell_volume   227.59027794
_cell_formula_units_Z   1
loop_
 _symmetry_equiv_pos_site_id
 _symmetry_equiv_pos_as_xyz
  1  'x, y, z'
loop_
 _atom_site_type_symbol
 _atom_site_label
 _atom_site_symmetry_multiplicity
 _atom_site_fract_x
 _atom_site_fract_y
 _atom_site_fract_z
 _atom_site_occupancy
  Dy  Dy0  1  0.672669  0.172669  0.500000  1
  Er  Er1  1  0.172889  0.327031  0.500000  1
  Er  Er2  1  0.827031  0.672889  0.500000  1
  Er  Er3  1  0.327061  0.827061  0.500000  1
  In  In4  1  0.000085  0.000083  0.000000  1
  In  In5  1  0.500083  0.500085  0.000000  1
  Ga  Ga6  1  0.874887  0.374887  0.000000  1
  Ga  Ga7  1  0.374004  0.125564  0.000000  1
  Ga  Ga8  1  0.625564  0.874004  0.000000  1
  Ga  Ga9  1  0.125726  0.625726  0.000000  1
