# generated using pymatgen
data_Ca4SnHgPd4
_symmetry_space_group_name_H-M   'P 1'
_cell_length_a   5.85725437
_cell_length_b   5.85725482
_cell_length_c   8.26419653
_cell_angle_alpha   76.95276711
_cell_angle_beta   76.95277324
_cell_angle_gamma   58.50871693
_symmetry_Int_Tables_number   1
_chemical_formula_structural   Ca4SnHgPd4
_chemical_formula_sum   'Ca4 Sn1 Hg1 Pd4'
_cell_volume   233.53202915
_cell_formula_units_Z   1
loop_
 _symmetry_equiv_pos_site_id
 _symmetry_equiv_pos_as_xyz
  1  'x, y, z'
loop_
 _atom_site_type_symbol
 _atom_site_label
 _atom_site_symmetry_multiplicity
 _atom_site_fract_x
 _atom_site_fract_y
 _atom_site_fract_z
 _atom_site_occupancy
  Ca  Ca0  1  0.503533  0.794929  0.348713  1
  Ca  Ca1  1  0.205071  0.496467  0.151287  1
  Ca  Ca2  1  0.497808  0.202778  0.648395  1
  Ca  Ca3  1  0.797222  0.502192  0.851605  1
  Sn  Sn4  1  0.841678  0.158322  0.250000  1
  Hg  Hg5  1  0.173253  0.826747  0.750000  1
  Pd  Pd6  1  0.726581  0.008915  0.003313  1
  Pd  Pd7  1  0.991085  0.273419  0.496687  1
  Pd  Pd8  1  0.267593  0.003826  0.001243  1
  Pd  Pd9  1  0.996174  0.732407  0.498757  1
