# generated using pymatgen
data_Dy3Y3Ho14(Cd3Fe)2
_symmetry_space_group_name_H-M   'P 1'
_cell_length_a   9.54091000
_cell_length_b   9.54090962
_cell_length_c   9.81241800
_cell_angle_alpha   90.00000000
_cell_angle_beta   90.00000000
_cell_angle_gamma   120.00000131
_symmetry_Int_Tables_number   1
_chemical_formula_structural   Dy3Y3Ho14(Cd3Fe)2
_chemical_formula_sum   'Dy3 Y3 Ho14 Cd6 Fe2'
_cell_volume   773.54618318
_cell_formula_units_Z   1
loop_
 _symmetry_equiv_pos_site_id
 _symmetry_equiv_pos_as_xyz
  1  'x, y, z'
loop_
 _atom_site_type_symbol
 _atom_site_label
 _atom_site_symmetry_multiplicity
 _atom_site_fract_x
 _atom_site_fract_y
 _atom_site_fract_z
 _atom_site_occupancy
  Dy  Dy0  1  0.540449  0.459551  0.250000  1
  Dy  Dy1  1  0.540449  0.080897  0.250000  1
  Dy  Dy2  1  0.919103  0.459551  0.250000  1
  Y  Y3  1  0.459668  0.540332  0.750000  1
  Y  Y4  1  0.459668  0.919337  0.750000  1
  Y  Y5  1  0.080663  0.540332  0.750000  1
  Ho  Ho6  1  0.000000  0.000000  0.500210  1
  Ho  Ho7  1  0.000000  0.000000  0.999790  1
  Ho  Ho8  1  0.212087  0.787913  0.436619  1
  Ho  Ho9  1  0.212087  0.424173  0.436619  1
  Ho  Ho10  1  0.575827  0.787913  0.436619  1
  Ho  Ho11  1  0.787906  0.212094  0.562954  1
  Ho  Ho12  1  0.787906  0.575814  0.562954  1
  Ho  Ho13  1  0.424186  0.212094  0.562954  1
  Ho  Ho14  1  0.787906  0.212094  0.937046  1
  Ho  Ho15  1  0.787906  0.575814  0.937046  1
  Ho  Ho16  1  0.424186  0.212094  0.937046  1
  Ho  Ho17  1  0.212087  0.787913  0.063381  1
  Ho  Ho18  1  0.212087  0.424173  0.063381  1
  Ho  Ho19  1  0.575827  0.787913  0.063381  1
  Cd  Cd20  1  0.885934  0.114066  0.250000  1
  Cd  Cd21  1  0.885934  0.771871  0.250000  1
  Cd  Cd22  1  0.228129  0.114066  0.250000  1
  Cd  Cd23  1  0.113989  0.886011  0.750000  1
  Cd  Cd24  1  0.113989  0.227978  0.750000  1
  Cd  Cd25  1  0.772022  0.886011  0.750000  1
  Fe  Fe26  1  0.333333  0.666667  0.250000  1
  Fe  Fe27  1  0.666667  0.333333  0.750000  1
