# generated using pymatgen
data_SrLaEr2(AsPt)4
_symmetry_space_group_name_H-M   'P 1'
_cell_length_a   4.31248300
_cell_length_b   4.31248340
_cell_length_c   16.27907400
_cell_angle_alpha   90.00000000
_cell_angle_beta   90.00000000
_cell_angle_gamma   120.00000463
_symmetry_Int_Tables_number   1
_chemical_formula_structural   SrLaEr2(AsPt)4
_chemical_formula_sum   'Sr1 La1 Er2 As4 Pt4'
_cell_volume   262.18940670
_cell_formula_units_Z   1
loop_
 _symmetry_equiv_pos_site_id
 _symmetry_equiv_pos_as_xyz
  1  'x, y, z'
loop_
 _atom_site_type_symbol
 _atom_site_label
 _atom_site_symmetry_multiplicity
 _atom_site_fract_x
 _atom_site_fract_y
 _atom_site_fract_z
 _atom_site_occupancy
  Sr  Sr0  1  0.000000  0.000000  0.500000  1
  La  La1  1  0.000000  0.000000  0.000000  1
  Er  Er2  1  0.000000  0.000000  0.246418  1
  Er  Er3  1  0.000000  0.000000  0.753582  1
  As  As4  1  0.333333  0.666667  0.881213  1
  As  As5  1  0.666667  0.333333  0.118787  1
  As  As6  1  0.666667  0.333333  0.369998  1
  As  As7  1  0.333333  0.666667  0.630002  1
  Pt  Pt8  1  0.333333  0.666667  0.349933  1
  Pt  Pt9  1  0.666667  0.333333  0.650067  1
  Pt  Pt10  1  0.666667  0.333333  0.858835  1
  Pt  Pt11  1  0.333333  0.666667  0.141165  1
