# generated using pymatgen
data_ReTc2MoIr4
_symmetry_space_group_name_H-M   'P 1'
_cell_length_a   5.49225700
_cell_length_b   5.55820674
_cell_length_c   4.40897300
_cell_angle_alpha   90.00000000
_cell_angle_beta   90.00000000
_cell_angle_gamma   119.60827535
_symmetry_Int_Tables_number   1
_chemical_formula_structural   ReTc2MoIr4
_chemical_formula_sum   'Re1 Tc2 Mo1 Ir4'
_cell_volume   117.01846619
_cell_formula_units_Z   1
loop_
 _symmetry_equiv_pos_site_id
 _symmetry_equiv_pos_as_xyz
  1  'x, y, z'
loop_
 _atom_site_type_symbol
 _atom_site_label
 _atom_site_symmetry_multiplicity
 _atom_site_fract_x
 _atom_site_fract_y
 _atom_site_fract_z
 _atom_site_occupancy
  Re  Re0  1  0.167552  0.335105  0.250000  1
  Tc  Tc1  1  0.331806  0.663612  0.750000  1
  Tc  Tc2  1  0.666020  0.332038  0.250000  1
  Mo  Mo3  1  0.832184  0.664369  0.750000  1
  Ir  Ir4  1  0.664602  0.833675  0.250000  1
  Ir  Ir5  1  0.169074  0.833675  0.250000  1
  Ir  Ir6  1  0.334131  0.168763  0.750000  1
  Ir  Ir7  1  0.834631  0.168763  0.750000  1
