# generated using pymatgen
data_LiPr2As2(PPd5)4
_symmetry_space_group_name_H-M   'P 1'
_cell_length_a   8.70638148
_cell_length_b   8.79482896
_cell_length_c   8.79482238
_cell_angle_alpha   59.33578821
_cell_angle_beta   60.33221349
_cell_angle_gamma   60.33224378
_symmetry_Int_Tables_number   1
_chemical_formula_structural   LiPr2As2(PPd5)4
_chemical_formula_sum   'Li1 Pr2 As2 P4 Pd20'
_cell_volume   476.09209828
_cell_formula_units_Z   1
loop_
 _symmetry_equiv_pos_site_id
 _symmetry_equiv_pos_as_xyz
  1  'x, y, z'
loop_
 _atom_site_type_symbol
 _atom_site_label
 _atom_site_symmetry_multiplicity
 _atom_site_fract_x
 _atom_site_fract_y
 _atom_site_fract_z
 _atom_site_occupancy
  Li  Li0  1  0.000000  0.000000  0.000000  1
  Pr  Pr1  1  0.250000  0.250000  0.250000  1
  Pr  Pr2  1  0.750000  0.750000  0.750000  1
  As  As3  1  0.740712  0.259289  0.259289  1
  As  As4  1  0.259288  0.740711  0.740711  1
  P  P5  1  0.260391  0.739609  0.260392  1
  P  P6  1  0.739609  0.260391  0.739608  1
  P  P7  1  0.260391  0.260391  0.739609  1
  P  P8  1  0.739609  0.739609  0.260391  1
  Pd  Pd9  1  0.380299  0.389307  0.389307  1
  Pd  Pd10  1  0.619701  0.610693  0.610693  1
  Pd  Pd11  1  0.389306  0.380300  0.841088  1
  Pd  Pd12  1  0.389306  0.841088  0.380300  1
  Pd  Pd13  1  0.610694  0.619700  0.158912  1
  Pd  Pd14  1  0.610694  0.158912  0.619700  1
  Pd  Pd15  1  0.841088  0.389306  0.389306  1
  Pd  Pd16  1  0.158912  0.610694  0.610694  1
  Pd  Pd17  1  0.344774  0.000000  0.000000  1
  Pd  Pd18  1  0.655226  0.000000  0.000000  1
  Pd  Pd19  1  0.000000  0.344775  0.655225  1
  Pd  Pd20  1  0.000000  0.655225  0.344775  1
  Pd  Pd21  1  0.009869  0.347503  0.990131  1
  Pd  Pd22  1  0.652497  0.990131  0.347504  1
  Pd  Pd23  1  0.990131  0.652497  0.009869  1
  Pd  Pd24  1  0.347503  0.009869  0.652496  1
  Pd  Pd25  1  0.009869  0.990131  0.347504  1
  Pd  Pd26  1  0.990131  0.009869  0.652496  1
  Pd  Pd27  1  0.652497  0.347503  0.990131  1
  Pd  Pd28  1  0.347503  0.652497  0.009869  1
