# generated using pymatgen
data_Nd2Ga12Pt
_symmetry_space_group_name_H-M   'P 1'
_cell_length_a   6.17236600
_cell_length_b   6.17236600
_cell_length_c   15.52418800
_cell_angle_alpha   90.00000000
_cell_angle_beta   90.00000000
_cell_angle_gamma   90.00000000
_symmetry_Int_Tables_number   1
_chemical_formula_structural   Nd2Ga12Pt
_chemical_formula_sum   'Nd4 Ga24 Pt2'
_cell_volume   591.44209848
_cell_formula_units_Z   2
loop_
 _symmetry_equiv_pos_site_id
 _symmetry_equiv_pos_as_xyz
  1  'x, y, z'
loop_
 _atom_site_type_symbol
 _atom_site_label
 _atom_site_symmetry_multiplicity
 _atom_site_fract_x
 _atom_site_fract_y
 _atom_site_fract_z
 _atom_site_occupancy
  Nd  Nd0  1  0.750000  0.250000  0.246526  1
  Nd  Nd1  1  0.250000  0.750000  0.246526  1
  Nd  Nd2  1  0.250000  0.750000  0.753474  1
  Nd  Nd3  1  0.750000  0.250000  0.753474  1
  Ga  Ga4  1  0.250000  0.250000  0.186271  1
  Ga  Ga5  1  0.750000  0.750000  0.186271  1
  Ga  Ga6  1  0.750000  0.750000  0.813729  1
  Ga  Ga7  1  0.250000  0.250000  0.813729  1
  Ga  Ga8  1  0.250000  0.250000  0.345367  1
  Ga  Ga9  1  0.750000  0.750000  0.345367  1
  Ga  Ga10  1  0.750000  0.750000  0.654633  1
  Ga  Ga11  1  0.250000  0.250000  0.654633  1
  Ga  Ga12  1  0.499989  0.999989  0.911490  1
  Ga  Ga13  1  0.999989  0.000011  0.911490  1
  Ga  Ga14  1  0.500011  0.499989  0.911490  1
  Ga  Ga15  1  0.000011  0.500011  0.911490  1
  Ga  Ga16  1  0.500011  0.000011  0.088510  1
  Ga  Ga17  1  0.000011  0.999989  0.088510  1
  Ga  Ga18  1  0.499989  0.500011  0.088510  1
  Ga  Ga19  1  0.999989  0.499989  0.088510  1
  Ga  Ga20  1  0.580582  0.080582  0.431275  1
  Ga  Ga21  1  0.080582  0.919418  0.431275  1
  Ga  Ga22  1  0.419418  0.580582  0.431275  1
  Ga  Ga23  1  0.919418  0.419418  0.431275  1
  Ga  Ga24  1  0.419418  0.919418  0.568725  1
  Ga  Ga25  1  0.919418  0.080582  0.568725  1
  Ga  Ga26  1  0.580582  0.419418  0.568725  1
  Ga  Ga27  1  0.080582  0.580582  0.568725  1
  Pt  Pt28  1  0.750000  0.250000  0.000000  1
  Pt  Pt29  1  0.250000  0.750000  0.000000  1
