# generated using pymatgen
data_Hf2CoSiNiAs
_symmetry_space_group_name_H-M   'P 1'
_cell_length_a   3.80135800
_cell_length_b   6.45444450
_cell_length_c   7.25943436
_cell_angle_alpha   89.73301085
_cell_angle_beta   90.00000000
_cell_angle_gamma   90.00000000
_symmetry_Int_Tables_number   1
_chemical_formula_structural   Hf2CoSiNiAs
_chemical_formula_sum   'Hf4 Co2 Si2 Ni2 As2'
_cell_volume   178.11303761
_cell_formula_units_Z   2
loop_
 _symmetry_equiv_pos_site_id
 _symmetry_equiv_pos_as_xyz
  1  'x, y, z'
loop_
 _atom_site_type_symbol
 _atom_site_label
 _atom_site_symmetry_multiplicity
 _atom_site_fract_x
 _atom_site_fract_y
 _atom_site_fract_z
 _atom_site_occupancy
  Hf  Hf0  1  0.250000  0.523088  0.186573  1
  Hf  Hf1  1  0.750000  0.476912  0.813427  1
  Hf  Hf2  1  0.250000  0.014768  0.314915  1
  Hf  Hf3  1  0.750000  0.985232  0.685085  1
  Co  Co4  1  0.250000  0.143826  0.929095  1
  Co  Co5  1  0.750000  0.856174  0.070905  1
  Si  Si6  1  0.750000  0.729389  0.385427  1
  Si  Si7  1  0.250000  0.270611  0.614573  1
  Ni  Ni8  1  0.250000  0.637296  0.555677  1
  Ni  Ni9  1  0.750000  0.362704  0.444323  1
  As  As10  1  0.750000  0.230090  0.115478  1
  As  As11  1  0.250000  0.769910  0.884522  1
