# generated using pymatgen
data_Mn20Ni(RuC3)2
_symmetry_space_group_name_H-M   'P 1'
_cell_length_a   7.36285347
_cell_length_b   7.36285284
_cell_length_c   7.36285300
_cell_angle_alpha   59.99999478
_cell_angle_beta   59.99999763
_cell_angle_gamma   60.00000075
_symmetry_Int_Tables_number   1
_chemical_formula_structural   Mn20Ni(RuC3)2
_chemical_formula_sum   'Mn20 Ni1 Ru2 C6'
_cell_volume   282.24313510
_cell_formula_units_Z   1
loop_
 _symmetry_equiv_pos_site_id
 _symmetry_equiv_pos_as_xyz
  1  'x, y, z'
loop_
 _atom_site_type_symbol
 _atom_site_label
 _atom_site_symmetry_multiplicity
 _atom_site_fract_x
 _atom_site_fract_y
 _atom_site_fract_z
 _atom_site_occupancy
  Mn  Mn0  1  0.848353  0.383883  0.383883  1
  Mn  Mn1  1  0.383883  0.848353  0.383883  1
  Mn  Mn2  1  0.383883  0.383883  0.848353  1
  Mn  Mn3  1  0.383883  0.383883  0.383883  1
  Mn  Mn4  1  0.151647  0.616117  0.616117  1
  Mn  Mn5  1  0.616117  0.151647  0.616117  1
  Mn  Mn6  1  0.616117  0.616117  0.151647  1
  Mn  Mn7  1  0.616117  0.616117  0.616117  1
  Mn  Mn8  1  0.662261  0.000000  0.000000  1
  Mn  Mn9  1  0.662261  0.000000  0.337739  1
  Mn  Mn10  1  0.662261  0.337739  0.000000  1
  Mn  Mn11  1  0.000000  0.662261  0.337739  1
  Mn  Mn12  1  0.000000  0.662261  0.000000  1
  Mn  Mn13  1  0.337739  0.662261  0.000000  1
  Mn  Mn14  1  0.000000  0.337739  0.662261  1
  Mn  Mn15  1  0.337739  0.000000  0.662261  1
  Mn  Mn16  1  0.000000  0.000000  0.662261  1
  Mn  Mn17  1  0.337739  0.000000  0.000000  1
  Mn  Mn18  1  0.000000  0.337739  0.000000  1
  Mn  Mn19  1  0.000000  0.000000  0.337739  1
  Ni  Ni20  1  0.000000  0.000000  0.000000  1
  Ru  Ru21  1  0.250000  0.250000  0.250000  1
  Ru  Ru22  1  0.750000  0.750000  0.750000  1
  C  C23  1  0.723857  0.276143  0.276143  1
  C  C24  1  0.723857  0.276143  0.723857  1
  C  C25  1  0.723857  0.723857  0.276143  1
  C  C26  1  0.276143  0.723857  0.723857  1
  C  C27  1  0.276143  0.723857  0.276143  1
  C  C28  1  0.276143  0.276143  0.723857  1
