# generated using pymatgen
data_Tb2Er14Tl5InRh2
_symmetry_space_group_name_H-M   'P 1'
_cell_length_a   10.33077192
_cell_length_b   10.33077252
_cell_length_c   7.12124922
_cell_angle_alpha   89.99078404
_cell_angle_beta   90.00922308
_cell_angle_gamma   119.93174381
_symmetry_Int_Tables_number   1
_chemical_formula_structural   Tb2Er14Tl5InRh2
_chemical_formula_sum   'Tb2 Er14 Tl5 In1 Rh2'
_cell_volume   658.64390307
_cell_formula_units_Z   1
loop_
 _symmetry_equiv_pos_site_id
 _symmetry_equiv_pos_as_xyz
  1  'x, y, z'
loop_
 _atom_site_type_symbol
 _atom_site_label
 _atom_site_symmetry_multiplicity
 _atom_site_fract_x
 _atom_site_fract_y
 _atom_site_fract_z
 _atom_site_occupancy
  Tb  Tb0  1  0.533353  0.068994  0.794128  1
  Tb  Tb1  1  0.931006  0.466647  0.794128  1
  Er  Er2  1  0.535569  0.464431  0.795929  1
  Er  Er3  1  0.463980  0.927549  0.296258  1
  Er  Er4  1  0.072451  0.536020  0.296258  1
  Er  Er5  1  0.463779  0.536221  0.296233  1
  Er  Er6  1  0.822539  0.647020  0.492494  1
  Er  Er7  1  0.352980  0.177461  0.492494  1
  Er  Er8  1  0.823737  0.176263  0.492694  1
  Er  Er9  1  0.176513  0.352504  0.994565  1
  Er  Er10  1  0.647496  0.823487  0.994565  1
  Er  Er11  1  0.176141  0.823859  0.996939  1
  Er  Er12  1  0.666516  0.333484  0.177929  1
  Er  Er13  1  0.333382  0.666618  0.678271  1
  Er  Er14  1  0.001062  0.998938  0.774825  1
  Er  Er15  1  0.000628  0.999372  0.276870  1
  Tl  Tl16  1  0.836690  0.673806  0.043824  1
  Tl  Tl17  1  0.326194  0.163310  0.043824  1
  Tl  Tl18  1  0.837181  0.162819  0.044662  1
  Tl  Tl19  1  0.162921  0.326093  0.544900  1
  Tl  Tl20  1  0.673907  0.837079  0.544900  1
  In  In21  1  0.162708  0.837292  0.542174  1
  Rh  Rh22  1  0.665837  0.334163  0.562620  1
  Rh  Rh23  1  0.333434  0.666566  0.064419  1
