# generated using pymatgen
data_Dy2YPa(Al3Co)6
_symmetry_space_group_name_H-M   'P 1'
_cell_length_a   7.40795101
_cell_length_b   7.40200718
_cell_length_c   9.26012000
_cell_angle_alpha   90.00000000
_cell_angle_beta   90.00000000
_cell_angle_gamma   119.28032038
_symmetry_Int_Tables_number   1
_chemical_formula_structural   Dy2YPa(Al3Co)6
_chemical_formula_sum   'Dy2 Y1 Pa1 Al18 Co6'
_cell_volume   442.89306362
_cell_formula_units_Z   1
loop_
 _symmetry_equiv_pos_site_id
 _symmetry_equiv_pos_as_xyz
  1  'x, y, z'
loop_
 _atom_site_type_symbol
 _atom_site_label
 _atom_site_symmetry_multiplicity
 _atom_site_fract_x
 _atom_site_fract_y
 _atom_site_fract_z
 _atom_site_occupancy
  Dy  Dy0  1  0.006673  0.328232  0.750000  1
  Dy  Dy1  1  0.327689  0.006224  0.750000  1
  Y  Y2  1  0.673375  0.993045  0.250000  1
  Pa  Pa3  1  0.994711  0.673000  0.250000  1
  Al  Al4  1  0.128592  0.127536  0.250000  1
  Al  Al5  1  0.875750  0.876770  0.750000  1
  Al  Al6  1  0.331665  0.331809  0.544004  1
  Al  Al7  1  0.665200  0.667170  0.041569  1
  Al  Al8  1  0.331665  0.331809  0.955996  1
  Al  Al9  1  0.665200  0.667170  0.458431  1
  Al  Al10  1  0.339375  0.552316  0.250000  1
  Al  Al11  1  0.659533  0.444795  0.750000  1
  Al  Al12  1  0.552180  0.341271  0.250000  1
  Al  Al13  1  0.445159  0.660627  0.750000  1
  Al  Al14  1  0.998126  0.333097  0.071636  1
  Al  Al15  1  0.001400  0.664414  0.574633  1
  Al  Al16  1  0.338305  0.000605  0.428383  1
  Al  Al17  1  0.665037  0.002922  0.927549  1
  Al  Al18  1  0.001400  0.664414  0.925367  1
  Al  Al19  1  0.998126  0.333097  0.428364  1
  Al  Al20  1  0.665037  0.002922  0.572451  1
  Al  Al21  1  0.338305  0.000605  0.071617  1
  Co  Co22  1  0.999299  0.995311  0.004335  1
  Co  Co23  1  0.999299  0.995311  0.495665  1
  Co  Co24  1  0.673926  0.331853  0.002770  1
  Co  Co25  1  0.325521  0.670911  0.497292  1
  Co  Co26  1  0.325521  0.670911  0.002708  1
  Co  Co27  1  0.673926  0.331853  0.497230  1
