# generated using pymatgen
data_Ba2Li3Cd19
_symmetry_space_group_name_H-M   'P 1'
_cell_length_a   9.41160124
_cell_length_b   9.44516197
_cell_length_c   9.44516168
_cell_angle_alpha   99.96176505
_cell_angle_beta   99.48310651
_cell_angle_gamma   131.69775914
_symmetry_Int_Tables_number   1
_chemical_formula_structural   Ba2Li3Cd19
_chemical_formula_sum   'Ba2 Li3 Cd19'
_cell_volume   571.01408759
_cell_formula_units_Z   1
loop_
 _symmetry_equiv_pos_site_id
 _symmetry_equiv_pos_as_xyz
  1  'x, y, z'
loop_
 _atom_site_type_symbol
 _atom_site_label
 _atom_site_symmetry_multiplicity
 _atom_site_fract_x
 _atom_site_fract_y
 _atom_site_fract_z
 _atom_site_occupancy
  Ba  Ba0  1  0.749570  0.248791  0.500779  1
  Ba  Ba1  1  0.500430  0.501209  0.999221  1
  Li  Li2  1  0.125000  0.375000  0.250000  1
  Li  Li3  1  0.125000  0.875000  0.750000  1
  Li  Li4  1  0.625000  0.875000  0.750000  1
  Cd  Cd5  1  0.928110  0.017450  0.326484  1
  Cd  Cd6  1  0.689173  0.610217  0.677779  1
  Cd  Cd7  1  0.251311  0.746754  0.504557  1
  Cd  Cd8  1  0.998689  0.003246  0.995443  1
  Cd  Cd9  1  0.125000  0.875000  0.250000  1
  Cd  Cd10  1  0.928110  0.601627  0.910661  1
  Cd  Cd11  1  0.854383  0.430422  0.176100  1
  Cd  Cd12  1  0.264154  0.682390  0.824601  1
  Cd  Cd13  1  0.689173  0.011394  0.078956  1
  Cd  Cd14  1  0.395617  0.071718  0.076039  1
  Cd  Cd15  1  0.985846  0.310446  0.918236  1
  Cd  Cd16  1  0.560827  0.139783  0.822221  1
  Cd  Cd17  1  0.321890  0.732550  0.173516  1
  Cd  Cd18  1  0.321890  0.148373  0.589339  1
  Cd  Cd19  1  0.395617  0.319578  0.323900  1
  Cd  Cd20  1  0.985846  0.067610  0.675399  1
  Cd  Cd21  1  0.560827  0.738606  0.421044  1
  Cd  Cd22  1  0.854383  0.678282  0.423961  1
  Cd  Cd23  1  0.264154  0.439554  0.581764  1
