# generated using pymatgen
data_Tm6MnFe(Co4P3)4
_symmetry_space_group_name_H-M   'P 1'
_cell_length_a   3.67041500
_cell_length_b   10.49676600
_cell_length_c   12.13313000
_cell_angle_alpha   90.00000000
_cell_angle_beta   90.00000000
_cell_angle_gamma   90.00000000
_symmetry_Int_Tables_number   1
_chemical_formula_structural   Tm6MnFe(Co4P3)4
_chemical_formula_sum   'Tm6 Mn1 Fe1 Co16 P12'
_cell_volume   467.45901293
_cell_formula_units_Z   1
loop_
 _symmetry_equiv_pos_site_id
 _symmetry_equiv_pos_as_xyz
  1  'x, y, z'
loop_
 _atom_site_type_symbol
 _atom_site_label
 _atom_site_symmetry_multiplicity
 _atom_site_fract_x
 _atom_site_fract_y
 _atom_site_fract_z
 _atom_site_occupancy
  Tm  Tm0  1  0.000000  0.500000  0.522642  1
  Tm  Tm1  1  0.500000  0.000000  0.476761  1
  Tm  Tm2  1  0.500000  0.817825  0.205094  1
  Tm  Tm3  1  0.500000  0.182175  0.205094  1
  Tm  Tm4  1  0.000000  0.681922  0.794383  1
  Tm  Tm5  1  0.000000  0.318078  0.794383  1
  Mn  Mn6  1  0.000000  0.000000  0.840393  1
  Fe  Fe7  1  0.500000  0.500000  0.157932  1
  Co  Co8  1  0.500000  0.500000  0.702333  1
  Co  Co9  1  0.000000  0.000000  0.297919  1
  Co  Co10  1  0.000000  0.500000  0.986122  1
  Co  Co11  1  0.500000  0.000000  0.014369  1
  Co  Co12  1  0.500000  0.332646  0.993824  1
  Co  Co13  1  0.500000  0.667354  0.993824  1
  Co  Co14  1  0.000000  0.166660  0.006305  1
  Co  Co15  1  0.000000  0.833340  0.006305  1
  Co  Co16  1  0.500000  0.296873  0.431315  1
  Co  Co17  1  0.500000  0.703127  0.431315  1
  Co  Co18  1  0.000000  0.202866  0.569623  1
  Co  Co19  1  0.000000  0.797134  0.569623  1
  Co  Co20  1  0.500000  0.878911  0.708984  1
  Co  Co21  1  0.500000  0.121089  0.708984  1
  Co  Co22  1  0.000000  0.621760  0.291554  1
  Co  Co23  1  0.000000  0.378240  0.291554  1
  P  P24  1  0.500000  0.500000  0.881664  1
  P  P25  1  0.000000  0.000000  0.118634  1
  P  P26  1  0.500000  0.500000  0.344483  1
  P  P27  1  0.000000  0.000000  0.653514  1
  P  P28  1  0.500000  0.312158  0.616535  1
  P  P29  1  0.500000  0.687842  0.616535  1
  P  P30  1  0.000000  0.188343  0.383478  1
  P  P31  1  0.000000  0.811657  0.383478  1
  P  P32  1  0.500000  0.847034  0.892311  1
  P  P33  1  0.500000  0.152966  0.892311  1
  P  P34  1  0.000000  0.652739  0.108212  1
  P  P35  1  0.000000  0.347261  0.108212  1
