# generated using pymatgen
data_Y2ThFe5(Co2P3)2
_symmetry_space_group_name_H-M   'P 1'
_cell_length_a   3.74098200
_cell_length_b   10.64775400
_cell_length_c   12.17096300
_cell_angle_alpha   90.00000000
_cell_angle_beta   90.00000000
_cell_angle_gamma   90.00000000
_symmetry_Int_Tables_number   1
_chemical_formula_structural   Y2ThFe5(Co2P3)2
_chemical_formula_sum   'Y4 Th2 Fe10 Co8 P12'
_cell_volume   484.80665142
_cell_formula_units_Z   2
loop_
 _symmetry_equiv_pos_site_id
 _symmetry_equiv_pos_as_xyz
  1  'x, y, z'
loop_
 _atom_site_type_symbol
 _atom_site_label
 _atom_site_symmetry_multiplicity
 _atom_site_fract_x
 _atom_site_fract_y
 _atom_site_fract_z
 _atom_site_occupancy
  Y  Y0  1  0.500000  0.818648  0.203056  1
  Y  Y1  1  0.500000  0.181352  0.203056  1
  Y  Y2  1  0.000000  0.681621  0.796992  1
  Y  Y3  1  0.000000  0.318379  0.796992  1
  Th  Th4  1  0.000000  0.500000  0.525982  1
  Th  Th5  1  0.500000  0.000000  0.474699  1
  Fe  Fe6  1  0.500000  0.500000  0.153232  1
  Fe  Fe7  1  0.000000  0.000000  0.848092  1
  Fe  Fe8  1  0.000000  0.500000  0.989107  1
  Fe  Fe9  1  0.500000  0.000000  0.010911  1
  Fe  Fe10  1  0.500000  0.332884  0.996762  1
  Fe  Fe11  1  0.500000  0.667116  0.996762  1
  Fe  Fe12  1  0.000000  0.166955  0.003241  1
  Fe  Fe13  1  0.000000  0.833045  0.003241  1
  Fe  Fe14  1  0.500000  0.299255  0.428472  1
  Fe  Fe15  1  0.500000  0.700745  0.428472  1
  Co  Co16  1  0.500000  0.500000  0.702145  1
  Co  Co17  1  0.000000  0.000000  0.298509  1
  Co  Co18  1  0.000000  0.200536  0.571433  1
  Co  Co19  1  0.000000  0.799464  0.571433  1
  Co  Co20  1  0.500000  0.880458  0.713108  1
  Co  Co21  1  0.500000  0.119542  0.713108  1
  Co  Co22  1  0.000000  0.618515  0.285847  1
  Co  Co23  1  0.000000  0.381485  0.285847  1
  P  P24  1  0.500000  0.500000  0.887100  1
  P  P25  1  0.000000  0.000000  0.113513  1
  P  P26  1  0.500000  0.500000  0.338209  1
  P  P27  1  0.000000  0.000000  0.663438  1
  P  P28  1  0.500000  0.304125  0.616829  1
  P  P29  1  0.500000  0.695875  0.616829  1
  P  P30  1  0.000000  0.197259  0.382132  1
  P  P31  1  0.000000  0.802741  0.382132  1
  P  P32  1  0.500000  0.844472  0.896875  1
  P  P33  1  0.500000  0.155528  0.896875  1
  P  P34  1  0.000000  0.654976  0.102784  1
  P  P35  1  0.000000  0.345024  0.102784  1
