# generated using pymatgen
data_Ho18Tm2(Ir3Pt)3
_symmetry_space_group_name_H-M   'P 1'
_cell_length_a   10.90446963
_cell_length_b   10.90446951
_cell_length_c   6.30882203
_cell_angle_alpha   89.97683848
_cell_angle_beta   89.97684118
_cell_angle_gamma   90.23774242
_symmetry_Int_Tables_number   1
_chemical_formula_structural   Ho18Tm2(Ir3Pt)3
_chemical_formula_sum   'Ho18 Tm2 Ir9 Pt3'
_cell_volume   750.15939997
_cell_formula_units_Z   1
loop_
 _symmetry_equiv_pos_site_id
 _symmetry_equiv_pos_as_xyz
  1  'x, y, z'
loop_
 _atom_site_type_symbol
 _atom_site_label
 _atom_site_symmetry_multiplicity
 _atom_site_fract_x
 _atom_site_fract_y
 _atom_site_fract_z
 _atom_site_occupancy
  Ho  Ho0  1  0.293532  0.086306  0.370897  1
  Ho  Ho1  1  0.292855  0.908754  0.876031  1
  Ho  Ho2  1  0.705464  0.089745  0.873155  1
  Ho  Ho3  1  0.704385  0.910080  0.372410  1
  Ho  Ho4  1  0.584595  0.790200  0.877405  1
  Ho  Ho5  1  0.585017  0.209744  0.377213  1
  Ho  Ho6  1  0.411076  0.790520  0.377271  1
  Ho  Ho7  1  0.414582  0.209727  0.876969  1
  Ho  Ho8  1  0.209800  0.415405  0.622595  1
  Ho  Ho9  1  0.209480  0.588924  0.122729  1
  Ho  Ho10  1  0.790256  0.414983  0.122787  1
  Ho  Ho11  1  0.790273  0.585418  0.623031  1
  Ho  Ho12  1  0.913694  0.706468  0.129103  1
  Ho  Ho13  1  0.910255  0.294536  0.626845  1
  Ho  Ho14  1  0.091246  0.707145  0.623969  1
  Ho  Ho15  1  0.089920  0.295615  0.127590  1
  Ho  Ho16  1  0.001131  0.998034  0.499638  1
  Ho  Ho17  1  0.001966  0.998869  0.000362  1
  Tm  Tm18  1  0.499748  0.499809  0.000503  1
  Tm  Tm19  1  0.500191  0.500252  0.499497  1
  Ir  Ir20  1  0.152576  0.847424  0.250000  1
  Ir  Ir21  1  0.653579  0.346421  0.750000  1
  Ir  Ir22  1  0.654154  0.653573  0.249537  1
  Ir  Ir23  1  0.346427  0.345846  0.250463  1
  Ir  Ir24  1  0.347378  0.652622  0.750000  1
  Ir  Ir25  1  0.500358  0.000006  0.122735  1
  Ir  Ir26  1  0.500185  0.000206  0.624228  1
  Ir  Ir27  1  0.999794  0.499815  0.875772  1
  Ir  Ir28  1  0.999994  0.499642  0.377265  1
  Pt  Pt29  1  0.846841  0.153159  0.250000  1
  Pt  Pt30  1  0.845212  0.845958  0.749956  1
  Pt  Pt31  1  0.154042  0.154788  0.750044  1
