# generated using pymatgen
data_LiCeSm2In3Pt2
_symmetry_space_group_name_H-M   'P 1'
_cell_length_a   7.75953451
_cell_length_b   7.88764753
_cell_length_c   3.92228500
_cell_angle_alpha   90.00000000
_cell_angle_beta   90.00000000
_cell_angle_gamma   120.54769041
_symmetry_Int_Tables_number   1
_chemical_formula_structural   LiCeSm2In3Pt2
_chemical_formula_sum   'Li1 Ce1 Sm2 In3 Pt2'
_cell_volume   206.74240536
_cell_formula_units_Z   1
loop_
 _symmetry_equiv_pos_site_id
 _symmetry_equiv_pos_as_xyz
  1  'x, y, z'
loop_
 _atom_site_type_symbol
 _atom_site_label
 _atom_site_symmetry_multiplicity
 _atom_site_fract_x
 _atom_site_fract_y
 _atom_site_fract_z
 _atom_site_occupancy
  Li  Li0  1  0.000000  0.999924  0.500000  1
  Ce  Ce1  1  0.000000  0.422078  0.500000  1
  Sm  Sm2  1  0.418881  0.999877  0.500000  1
  Sm  Sm3  1  0.581119  0.580996  0.500000  1
  In  In4  1  0.000000  0.752213  0.000000  1
  In  In5  1  0.751362  0.000358  0.000000  1
  In  In6  1  0.248638  0.248997  0.000000  1
  Pt  Pt7  1  0.674292  0.334924  0.000000  1
  Pt  Pt8  1  0.325708  0.660633  0.000000  1
