# generated using pymatgen
data_PrTh2In3RuRh2
_symmetry_space_group_name_H-M   'P 1'
_cell_length_a   7.51354800
_cell_length_b   7.76054296
_cell_length_c   4.05520000
_cell_angle_alpha   90.00000000
_cell_angle_beta   90.00000000
_cell_angle_gamma   118.72655503
_symmetry_Int_Tables_number   1
_chemical_formula_structural   PrTh2In3RuRh2
_chemical_formula_sum   'Pr1 Th2 In3 Ru1 Rh2'
_cell_volume   207.35339900
_cell_formula_units_Z   1
loop_
 _symmetry_equiv_pos_site_id
 _symmetry_equiv_pos_as_xyz
  1  'x, y, z'
loop_
 _atom_site_type_symbol
 _atom_site_label
 _atom_site_symmetry_multiplicity
 _atom_site_fract_x
 _atom_site_fract_y
 _atom_site_fract_z
 _atom_site_occupancy
  Pr  Pr0  1  0.588837  0.997222  0.500000  1
  Th  Th1  1  0.005225  0.587304  0.500000  1
  Th  Th2  1  0.412956  0.419555  0.500000  1
  In  In3  1  0.751466  0.762519  0.000000  1
  In  In4  1  0.988732  0.237492  0.000000  1
  In  In5  1  0.261391  0.000229  0.000000  1
  Ru  Ru6  1  0.305597  0.633553  0.000000  1
  Rh  Rh7  1  0.016038  0.999238  0.500000  1
  Rh  Rh8  1  0.669759  0.362888  0.000000  1
