# generated using pymatgen
data_HoEr7Tc3B24Ru
_symmetry_space_group_name_H-M   'P 1'
_cell_length_a   3.65473800
_cell_length_b   9.11932689
_cell_length_c   11.49865700
_cell_angle_alpha   89.92070851
_cell_angle_beta   90.00000000
_cell_angle_gamma   90.00000000
_symmetry_Int_Tables_number   1
_chemical_formula_structural   HoEr7Tc3B24Ru
_chemical_formula_sum   'Ho1 Er7 Tc3 B24 Ru1'
_cell_volume   383.23550366
_cell_formula_units_Z   1
loop_
 _symmetry_equiv_pos_site_id
 _symmetry_equiv_pos_as_xyz
  1  'x, y, z'
loop_
 _atom_site_type_symbol
 _atom_site_label
 _atom_site_symmetry_multiplicity
 _atom_site_fract_x
 _atom_site_fract_y
 _atom_site_fract_z
 _atom_site_occupancy
  Ho  Ho0  1  0.000000  0.323685  0.413893  1
  Er  Er1  1  0.000000  0.674997  0.584012  1
  Er  Er2  1  0.000000  0.823016  0.087362  1
  Er  Er3  1  0.000000  0.177860  0.914442  1
  Er  Er4  1  0.000000  0.942694  0.370374  1
  Er  Er5  1  0.000000  0.057468  0.630503  1
  Er  Er6  1  0.000000  0.443399  0.129875  1
  Er  Er7  1  0.000000  0.557663  0.869414  1
  Tc  Tc8  1  0.000000  0.638556  0.320572  1
  Tc  Tc9  1  0.000000  0.361560  0.680122  1
  Tc  Tc10  1  0.000000  0.137997  0.178246  1
  B  B11  1  0.500000  0.553130  0.433076  1
  B  B12  1  0.500000  0.446763  0.566793  1
  B  B13  1  0.500000  0.052990  0.066522  1
  B  B14  1  0.500000  0.946121  0.932974  1
  B  B15  1  0.500000  0.748969  0.419151  1
  B  B16  1  0.500000  0.250501  0.581249  1
  B  B17  1  0.500000  0.249584  0.080779  1
  B  B18  1  0.500000  0.751233  0.918798  1
  B  B19  1  0.500000  0.792270  0.265466  1
  B  B20  1  0.500000  0.207905  0.735352  1
  B  B21  1  0.500000  0.292176  0.234519  1
  B  B22  1  0.500000  0.708756  0.765129  1
  B  B23  1  0.500000  0.631330  0.185239  1
  B  B24  1  0.500000  0.368888  0.815298  1
  B  B25  1  0.500000  0.130577  0.314320  1
  B  B26  1  0.500000  0.868635  0.685396  1
  B  B27  1  0.500000  0.981530  0.211895  1
  B  B28  1  0.500000  0.016938  0.788256  1
  B  B29  1  0.500000  0.482066  0.287756  1
  B  B30  1  0.500000  0.518020  0.711825  1
  B  B31  1  0.500000  0.602406  0.028078  1
  B  B32  1  0.500000  0.399331  0.971622  1
  B  B33  1  0.500000  0.101451  0.472089  1
  B  B34  1  0.500000  0.898045  0.528745  1
  Ru  Ru35  1  0.000000  0.861491  0.820857  1
