# generated using pymatgen
data_Er2Lu4TcRu
_symmetry_space_group_name_H-M   'P 1'
_cell_length_a   6.16288800
_cell_length_b   7.31000500
_cell_length_c   8.90231600
_cell_angle_alpha   90.00000000
_cell_angle_beta   90.00000000
_cell_angle_gamma   90.00000000
_symmetry_Int_Tables_number   1
_chemical_formula_structural   Er2Lu4TcRu
_chemical_formula_sum   'Er4 Lu8 Tc2 Ru2'
_cell_volume   401.05594216
_cell_formula_units_Z   2
loop_
 _symmetry_equiv_pos_site_id
 _symmetry_equiv_pos_as_xyz
  1  'x, y, z'
loop_
 _atom_site_type_symbol
 _atom_site_label
 _atom_site_symmetry_multiplicity
 _atom_site_fract_x
 _atom_site_fract_y
 _atom_site_fract_z
 _atom_site_occupancy
  Er  Er0  1  0.876665  0.537941  0.250000  1
  Er  Er1  1  0.623335  0.037941  0.250000  1
  Er  Er2  1  0.130116  0.458134  0.750000  1
  Er  Er3  1  0.369884  0.958134  0.750000  1
  Lu  Lu4  1  0.338860  0.675836  0.063074  1
  Lu  Lu5  1  0.161140  0.175836  0.436926  1
  Lu  Lu6  1  0.659559  0.325275  0.562225  1
  Lu  Lu7  1  0.840441  0.825275  0.937775  1
  Lu  Lu8  1  0.659559  0.325275  0.937775  1
  Lu  Lu9  1  0.840441  0.825275  0.562225  1
  Lu  Lu10  1  0.338860  0.675836  0.436926  1
  Lu  Lu11  1  0.161140  0.175836  0.063074  1
  Tc  Tc12  1  0.040747  0.882893  0.250000  1
  Tc  Tc13  1  0.459253  0.382893  0.250000  1
  Ru  Ru14  1  0.955814  0.118810  0.750000  1
  Ru  Ru15  1  0.544186  0.618810  0.750000  1
