# generated using pymatgen
data_Nd5Lu3Pt4
_symmetry_space_group_name_H-M   'P 1'
_cell_length_a   4.83338700
_cell_length_b   7.26042553
_cell_length_c   8.88685764
_cell_angle_alpha   89.33349554
_cell_angle_beta   90.00000000
_cell_angle_gamma   90.00000000
_symmetry_Int_Tables_number   1
_chemical_formula_structural   Nd5Lu3Pt4
_chemical_formula_sum   'Nd5 Lu3 Pt4'
_cell_volume   311.84047481
_cell_formula_units_Z   1
loop_
 _symmetry_equiv_pos_site_id
 _symmetry_equiv_pos_as_xyz
  1  'x, y, z'
loop_
 _atom_site_type_symbol
 _atom_site_label
 _atom_site_symmetry_multiplicity
 _atom_site_fract_x
 _atom_site_fract_y
 _atom_site_fract_z
 _atom_site_occupancy
  Nd  Nd0  1  0.750000  0.647040  0.416617  1
  Nd  Nd1  1  0.250000  0.485478  0.167910  1
  Nd  Nd2  1  0.250000  0.996924  0.330160  1
  Nd  Nd3  1  0.750000  0.512377  0.823610  1
  Nd  Nd4  1  0.750000  0.011387  0.678168  1
  Lu  Lu5  1  0.250000  0.861013  0.925696  1
  Lu  Lu6  1  0.250000  0.354559  0.579510  1
  Lu  Lu7  1  0.750000  0.140920  0.075541  1
  Pt  Pt8  1  0.250000  0.244321  0.906978  1
  Pt  Pt9  1  0.250000  0.745208  0.606607  1
  Pt  Pt10  1  0.750000  0.755349  0.079263  1
  Pt  Pt11  1  0.750000  0.245426  0.409940  1
