# generated using pymatgen
data_Sm4Er4Tc3B24Os
_symmetry_space_group_name_H-M   'P 1'
_cell_length_a   3.69573300
_cell_length_b   9.18060940
_cell_length_c   11.60825501
_cell_angle_alpha   89.95329658
_cell_angle_beta   90.00000000
_cell_angle_gamma   90.00000000
_symmetry_Int_Tables_number   1
_chemical_formula_structural   Sm4Er4Tc3B24Os
_chemical_formula_sum   'Sm4 Er4 Tc3 B24 Os1'
_cell_volume   393.85729495
_cell_formula_units_Z   1
loop_
 _symmetry_equiv_pos_site_id
 _symmetry_equiv_pos_as_xyz
  1  'x, y, z'
loop_
 _atom_site_type_symbol
 _atom_site_label
 _atom_site_symmetry_multiplicity
 _atom_site_fract_x
 _atom_site_fract_y
 _atom_site_fract_z
 _atom_site_occupancy
  Sm  Sm0  1  0.000000  0.323175  0.413939  1
  Sm  Sm1  1  0.000000  0.675929  0.584513  1
  Sm  Sm2  1  0.000000  0.822702  0.087077  1
  Sm  Sm3  1  0.000000  0.178181  0.914630  1
  Er  Er4  1  0.000000  0.942646  0.369751  1
  Er  Er5  1  0.000000  0.058199  0.630259  1
  Er  Er6  1  0.000000  0.442980  0.130513  1
  Er  Er7  1  0.000000  0.556825  0.869168  1
  Tc  Tc8  1  0.000000  0.639119  0.319596  1
  Tc  Tc9  1  0.000000  0.360841  0.680898  1
  Tc  Tc10  1  0.000000  0.138676  0.179523  1
  B  B11  1  0.500000  0.554203  0.431459  1
  B  B12  1  0.500000  0.445758  0.568299  1
  B  B13  1  0.500000  0.054205  0.068445  1
  B  B14  1  0.500000  0.945250  0.931448  1
  B  B15  1  0.500000  0.749526  0.417183  1
  B  B16  1  0.500000  0.250200  0.582876  1
  B  B17  1  0.500000  0.250088  0.082891  1
  B  B18  1  0.500000  0.750437  0.916846  1
  B  B19  1  0.500000  0.791574  0.266082  1
  B  B20  1  0.500000  0.208692  0.734381  1
  B  B21  1  0.500000  0.291483  0.234146  1
  B  B22  1  0.500000  0.709193  0.765753  1
  B  B23  1  0.500000  0.630036  0.185885  1
  B  B24  1  0.500000  0.369925  0.814585  1
  B  B25  1  0.500000  0.129607  0.313860  1
  B  B26  1  0.500000  0.869938  0.685949  1
  B  B27  1  0.500000  0.982822  0.212810  1
  B  B28  1  0.500000  0.016072  0.787311  1
  B  B29  1  0.500000  0.483148  0.287047  1
  B  B30  1  0.500000  0.516617  0.712719  1
  B  B31  1  0.500000  0.598900  0.027112  1
  B  B32  1  0.500000  0.402073  0.972674  1
  B  B33  1  0.500000  0.098572  0.472861  1
  B  B34  1  0.500000  0.901507  0.527615  1
  Os  Os35  1  0.000000  0.860903  0.819897  1
