# generated using pymatgen
data_Zr6Mn7Fe8Si7Ru
_symmetry_space_group_name_H-M   'P 1'
_cell_length_a   8.20199126
_cell_length_b   8.20199218
_cell_length_c   8.21399164
_cell_angle_alpha   60.04831425
_cell_angle_beta   60.04831046
_cell_angle_gamma   59.99999956
_symmetry_Int_Tables_number   1
_chemical_formula_structural   Zr6Mn7Fe8Si7Ru
_chemical_formula_sum   'Zr6 Mn7 Fe8 Si7 Ru1'
_cell_volume   391.01612200
_cell_formula_units_Z   1
loop_
 _symmetry_equiv_pos_site_id
 _symmetry_equiv_pos_as_xyz
  1  'x, y, z'
loop_
 _atom_site_type_symbol
 _atom_site_label
 _atom_site_symmetry_multiplicity
 _atom_site_fract_x
 _atom_site_fract_y
 _atom_site_fract_z
 _atom_site_occupancy
  Zr  Zr0  1  0.701589  0.701589  0.297914  1
  Zr  Zr1  1  0.298907  0.701589  0.297914  1
  Zr  Zr2  1  0.701589  0.298907  0.297914  1
  Zr  Zr3  1  0.298282  0.298282  0.702327  1
  Zr  Zr4  1  0.701111  0.298282  0.702327  1
  Zr  Zr5  1  0.298282  0.701111  0.702327  1
  Mn  Mn6  1  0.876797  0.369663  0.876744  1
  Mn  Mn7  1  0.369663  0.876797  0.876744  1
  Mn  Mn8  1  0.876797  0.876797  0.876744  1
  Mn  Mn9  1  0.122768  0.122768  0.631694  1
  Mn  Mn10  1  0.124762  0.630484  0.119992  1
  Mn  Mn11  1  0.630484  0.124762  0.119992  1
  Mn  Mn12  1  0.124762  0.124762  0.119992  1
  Fe  Fe13  1  0.675804  0.675804  0.972587  1
  Fe  Fe14  1  0.674508  0.970629  0.680354  1
  Fe  Fe15  1  0.970629  0.674508  0.680354  1
  Fe  Fe16  1  0.674508  0.674508  0.680354  1
  Fe  Fe17  1  0.323448  0.323448  0.029656  1
  Fe  Fe18  1  0.324060  0.028129  0.323751  1
  Fe  Fe19  1  0.028129  0.324060  0.323751  1
  Fe  Fe20  1  0.324060  0.324060  0.323751  1
  Si  Si21  1  0.001777  0.001777  0.994669  1
  Si  Si22  1  0.000295  0.000295  0.501513  1
  Si  Si23  1  0.497899  0.000295  0.501513  1
  Si  Si24  1  0.000295  0.497899  0.501513  1
  Si  Si25  1  0.499678  0.499678  0.000909  1
  Si  Si26  1  0.999735  0.499678  0.000909  1
  Si  Si27  1  0.499678  0.999735  0.000909  1
  Ru  Ru28  1  0.879705  0.879705  0.360886  1
