# generated using pymatgen
data_BaLi2Tb4O8
_symmetry_space_group_name_H-M   'P 1'
_cell_length_a   6.92173690
_cell_length_b   6.92173836
_cell_length_c   9.64708089
_cell_angle_alpha   61.44700978
_cell_angle_beta   61.44700409
_cell_angle_gamma   29.87343503
_symmetry_Int_Tables_number   1
_chemical_formula_structural   BaLi2Tb4O8
_chemical_formula_sum   'Ba1 Li2 Tb4 O8'
_cell_volume   200.07179770
_cell_formula_units_Z   1
loop_
 _symmetry_equiv_pos_site_id
 _symmetry_equiv_pos_as_xyz
  1  'x, y, z'
loop_
 _atom_site_type_symbol
 _atom_site_label
 _atom_site_symmetry_multiplicity
 _atom_site_fract_x
 _atom_site_fract_y
 _atom_site_fract_z
 _atom_site_occupancy
  Ba  Ba0  1  0.500000  0.500000  0.000000  1
  Li  Li1  1  0.190973  0.190973  0.735755  1
  Li  Li2  1  0.809027  0.809027  0.264245  1
  Tb  Tb3  1  0.609690  0.609690  0.560425  1
  Tb  Tb4  1  0.390310  0.390310  0.439575  1
  Tb  Tb5  1  0.163858  0.163858  0.188717  1
  Tb  Tb6  1  0.836142  0.836142  0.811283  1
  O  O7  1  0.044554  0.044554  0.742819  1
  O  O8  1  0.955446  0.955446  0.257181  1
  O  O9  1  0.237996  0.237996  0.378376  1
  O  O10  1  0.762004  0.762004  0.621624  1
  O  O11  1  0.811143  0.811143  0.064572  1
  O  O12  1  0.188857  0.188857  0.935428  1
  O  O13  1  0.583154  0.583154  0.342846  1
  O  O14  1  0.416846  0.416846  0.657154  1
