# generated using pymatgen
data_CeTh3(TcN3)4
_symmetry_space_group_name_H-M   'P 1'
_cell_length_a   5.54850286
_cell_length_b   5.80624540
_cell_length_c   7.76623300
_cell_angle_alpha   90.00000000
_cell_angle_beta   90.00000000
_cell_angle_gamma   89.75173490
_symmetry_Int_Tables_number   1
_chemical_formula_structural   CeTh3(TcN3)4
_chemical_formula_sum   'Ce1 Th3 Tc4 N12'
_cell_volume   250.19437450
_cell_formula_units_Z   1
loop_
 _symmetry_equiv_pos_site_id
 _symmetry_equiv_pos_as_xyz
  1  'x, y, z'
loop_
 _atom_site_type_symbol
 _atom_site_label
 _atom_site_symmetry_multiplicity
 _atom_site_fract_x
 _atom_site_fract_y
 _atom_site_fract_z
 _atom_site_occupancy
  Ce  Ce0  1  0.535280  0.548103  0.250000  1
  Th  Th1  1  0.966567  0.050089  0.250000  1
  Th  Th2  1  0.514010  0.432766  0.750000  1
  Th  Th3  1  0.984203  0.931296  0.750000  1
  Tc  Tc4  1  0.023529  0.486520  0.003128  1
  Tc  Tc5  1  0.474450  0.982139  0.497288  1
  Tc  Tc6  1  0.023529  0.486520  0.496872  1
  Tc  Tc7  1  0.474450  0.982139  0.002712  1
  N  N8  1  0.429111  0.982108  0.250000  1
  N  N9  1  0.072176  0.490241  0.250000  1
  N  N10  1  0.576522  0.029013  0.750000  1
  N  N11  1  0.923966  0.521267  0.750000  1
  N  N12  1  0.804832  0.813852  0.035703  1
  N  N13  1  0.695483  0.315098  0.455223  1
  N  N14  1  0.202976  0.205162  0.537652  1
  N  N15  1  0.297812  0.704786  0.958081  1
  N  N16  1  0.202976  0.205162  0.962348  1
  N  N17  1  0.297812  0.704786  0.541919  1
  N  N18  1  0.804832  0.813852  0.464297  1
  N  N19  1  0.695483  0.315098  0.044777  1
