# generated using pymatgen
data_Er6GaTcNi
_symmetry_space_group_name_H-M   'P 1'
_cell_length_a   8.28362812
_cell_length_b   8.28362884
_cell_length_c   8.28362912
_cell_angle_alpha   113.22114744
_cell_angle_beta   111.22658832
_cell_angle_gamma   104.10275910
_symmetry_Int_Tables_number   1
_chemical_formula_structural   Er6GaTcNi
_chemical_formula_sum   'Er12 Ga2 Tc2 Ni2'
_cell_volume   434.57159940
_cell_formula_units_Z   2
loop_
 _symmetry_equiv_pos_site_id
 _symmetry_equiv_pos_as_xyz
  1  'x, y, z'
loop_
 _atom_site_type_symbol
 _atom_site_label
 _atom_site_symmetry_multiplicity
 _atom_site_fract_x
 _atom_site_fract_y
 _atom_site_fract_z
 _atom_site_occupancy
  Er  Er0  1  0.052460  0.743783  0.308677  1
  Er  Er1  1  0.947540  0.256217  0.691323  1
  Er  Er2  1  0.564895  0.256217  0.308677  1
  Er  Er3  1  0.435105  0.743783  0.691323  1
  Er  Er4  1  0.667704  0.853210  0.185505  1
  Er  Er5  1  0.332296  0.517801  0.185505  1
  Er  Er6  1  0.332296  0.146790  0.814495  1
  Er  Er7  1  0.667704  0.482199  0.814495  1
  Er  Er8  1  0.180167  0.218396  0.398564  1
  Er  Er9  1  0.819833  0.218396  0.038229  1
  Er  Er10  1  0.180167  0.781604  0.961771  1
  Er  Er11  1  0.819833  0.781604  0.601436  1
  Ga  Ga12  1  0.000000  0.500000  0.500000  1
  Ga  Ga13  1  0.500000  0.000000  0.500000  1
  Tc  Tc14  1  0.679144  0.500000  0.179144  1
  Tc  Tc15  1  0.320856  0.500000  0.820856  1
  Ni  Ni16  1  0.881991  0.881991  0.000000  1
  Ni  Ni17  1  0.118009  0.118009  0.000000  1
