# generated using pymatgen
data_Sm7(PSe3)2
_symmetry_space_group_name_H-M   'P 1'
_cell_length_a   8.21822492
_cell_length_b   7.11992272
_cell_length_c   8.23637400
_cell_angle_alpha   89.97499720
_cell_angle_beta   59.97771788
_cell_angle_gamma   73.05161390
_symmetry_Int_Tables_number   1
_chemical_formula_structural   Sm7(PSe3)2
_chemical_formula_sum   'Sm7 P2 Se6'
_cell_volume   392.95137740
_cell_formula_units_Z   1
loop_
 _symmetry_equiv_pos_site_id
 _symmetry_equiv_pos_as_xyz
  1  'x, y, z'
loop_
 _atom_site_type_symbol
 _atom_site_label
 _atom_site_symmetry_multiplicity
 _atom_site_fract_x
 _atom_site_fract_y
 _atom_site_fract_z
 _atom_site_occupancy
  Sm  Sm0  1  0.160192  0.688045  0.979902  1
  Sm  Sm1  1  0.660225  0.187880  0.741612  1
  Sm  Sm2  1  0.152239  0.177608  0.734503  1
  Sm  Sm3  1  0.659641  0.688685  0.980684  1
  Sm  Sm4  1  0.160324  0.688252  0.480087  1
  Sm  Sm5  1  0.660079  0.188248  0.218366  1
  Sm  Sm6  1  0.166635  0.200230  0.227339  1
  P  P7  1  0.409729  0.442141  0.105122  1
  P  P8  1  0.910520  0.934224  0.854860  1
  Se  Se9  1  0.414282  0.934260  0.358226  1
  Se  Se10  1  0.904997  0.443278  0.603387  1
  Se  Se11  1  0.904667  0.443669  0.113177  1
  Se  Se12  1  0.410160  0.433424  0.605011  1
  Se  Se13  1  0.910467  0.942633  0.354707  1
  Se  Se14  1  0.413775  0.934362  0.849435  1
