# generated using pymatgen
data_Y4Er8InCo4Ir
_symmetry_space_group_name_H-M   'P 1'
_cell_length_a   8.27084993
_cell_length_b   8.27084882
_cell_length_c   8.27084887
_cell_angle_alpha   110.93621370
_cell_angle_beta   110.76916604
_cell_angle_gamma   106.74230671
_symmetry_Int_Tables_number   1
_chemical_formula_structural   Y4Er8InCo4Ir
_chemical_formula_sum   'Y4 Er8 In1 Co4 Ir1'
_cell_volume   434.80287585
_cell_formula_units_Z   1
loop_
 _symmetry_equiv_pos_site_id
 _symmetry_equiv_pos_as_xyz
  1  'x, y, z'
loop_
 _atom_site_type_symbol
 _atom_site_label
 _atom_site_symmetry_multiplicity
 _atom_site_fract_x
 _atom_site_fract_y
 _atom_site_fract_z
 _atom_site_occupancy
  Y  Y0  1  0.184986  0.285304  0.470290  1
  Y  Y1  1  0.815014  0.714696  0.529710  1
  Y  Y2  1  0.184986  0.714696  0.899682  1
  Y  Y3  1  0.815014  0.285304  0.100318  1
  Er  Er4  1  0.315275  0.622228  0.306952  1
  Er  Er5  1  0.684725  0.377772  0.693048  1
  Er  Er6  1  0.315275  0.008322  0.693048  1
  Er  Er7  1  0.684725  0.991678  0.306952  1
  Er  Er8  1  0.411019  0.216924  0.194095  1
  Er  Er9  1  0.588981  0.783076  0.805905  1
  Er  Er10  1  0.022829  0.216924  0.805905  1
  Er  Er11  1  0.977171  0.783076  0.194095  1
  In  In12  1  0.500000  0.500000  0.000000  1
  Co  Co13  1  0.112297  0.612297  0.500000  1
  Co  Co14  1  0.887703  0.387703  0.500000  1
  Co  Co15  1  0.378376  0.000000  0.378376  1
  Co  Co16  1  0.621624  0.000000  0.621624  1
  Ir  Ir17  1  0.000000  0.000000  0.000000  1
