# generated using pymatgen
data_Ti8Al15Os3Rh4
_symmetry_space_group_name_H-M   'P 1'
_cell_length_a   8.65651951
_cell_length_b   8.66877615
_cell_length_c   8.65651926
_cell_angle_alpha   120.10266547
_cell_angle_beta   119.78577389
_cell_angle_gamma   90.05609744
_symmetry_Int_Tables_number   1
_chemical_formula_structural   Ti8Al15Os3Rh4
_chemical_formula_sum   'Ti8 Al15 Os3 Rh4'
_cell_volume   459.88057996
_cell_formula_units_Z   1
loop_
 _symmetry_equiv_pos_site_id
 _symmetry_equiv_pos_as_xyz
  1  'x, y, z'
loop_
 _atom_site_type_symbol
 _atom_site_label
 _atom_site_symmetry_multiplicity
 _atom_site_fract_x
 _atom_site_fract_y
 _atom_site_fract_z
 _atom_site_occupancy
  Ti  Ti0  1  0.781683  0.286566  0.069176  1
  Ti  Ti1  1  0.217390  0.286566  0.504883  1
  Ti  Ti2  1  0.210563  0.720534  0.509971  1
  Ti  Ti3  1  0.224594  0.722539  0.929841  1
  Ti  Ti4  1  0.792698  0.722539  0.497945  1
  Ti  Ti5  1  0.779841  0.270302  0.490461  1
  Ti  Ti6  1  0.377298  0.123078  0.745780  1
  Ti  Ti7  1  0.380616  0.635587  0.254971  1
  Al  Al8  1  0.996088  0.495010  0.498923  1
  Al  Al9  1  0.151722  0.348283  0.196560  1
  Al  Al10  1  0.155642  0.972528  0.816886  1
  Al  Al11  1  0.150147  0.347620  0.806821  1
  Al  Al12  1  0.540798  0.347620  0.197473  1
  Al  Al13  1  0.848331  0.648761  0.800430  1
  Al  Al14  1  0.846216  0.035100  0.188884  1
  Al  Al15  1  0.844039  0.653072  0.185230  1
  Al  Al16  1  0.467842  0.653072  0.809032  1
  Al  Al17  1  0.379047  0.123077  0.259703  1
  Al  Al18  1  0.863375  0.123077  0.744031  1
  Al  Al19  1  0.621023  0.874199  0.253176  1
  Al  Al20  1  0.620752  0.364393  0.743640  1
  Al  Al21  1  0.619563  0.877100  0.740993  1
  Al  Al22  1  0.136106  0.877100  0.257537  1
  Os  Os23  1  0.000378  0.999003  0.501106  1
  Os  Os24  1  0.497896  0.999003  0.998625  1
  Os  Os25  1  0.497451  0.497516  0.000066  1
  Rh  Rh26  1  0.498881  0.499396  0.498805  1
  Rh  Rh27  1  0.000590  0.499396  0.000515  1
  Rh  Rh28  1  0.999469  0.999043  0.999575  1
  Rh  Rh29  1  0.499958  0.998917  0.498959  1
