# generated using pymatgen
data_TmBeRu2C
_symmetry_space_group_name_H-M   'P 1'
_cell_length_a   5.64966201
_cell_length_b   5.64966367
_cell_length_c   6.95997800
_cell_angle_alpha   90.00000000
_cell_angle_beta   90.00000000
_cell_angle_gamma   141.19487455
_symmetry_Int_Tables_number   1
_chemical_formula_structural   TmBeRu2C
_chemical_formula_sum   'Tm2 Be2 Ru4 C2'
_cell_volume   139.21764286
_cell_formula_units_Z   2
loop_
 _symmetry_equiv_pos_site_id
 _symmetry_equiv_pos_as_xyz
  1  'x, y, z'
loop_
 _atom_site_type_symbol
 _atom_site_label
 _atom_site_symmetry_multiplicity
 _atom_site_fract_x
 _atom_site_fract_y
 _atom_site_fract_z
 _atom_site_occupancy
  Tm  Tm0  1  0.544479  0.455521  0.250000  1
  Tm  Tm1  1  0.455521  0.544479  0.750000  1
  Be  Be2  1  0.271599  0.728401  0.250000  1
  Be  Be3  1  0.728401  0.271599  0.750000  1
  Ru  Ru4  1  0.827347  0.172653  0.056497  1
  Ru  Ru5  1  0.172653  0.827347  0.943503  1
  Ru  Ru6  1  0.172653  0.827347  0.556497  1
  Ru  Ru7  1  0.827347  0.172653  0.443503  1
  C  C8  1  0.000000  0.000000  0.000000  1
  C  C9  1  0.000000  0.000000  0.500000  1
