# generated using pymatgen
data_Yb2Mg(PRh2)6
_symmetry_space_group_name_H-M   'P 1'
_cell_length_a   9.65383200
_cell_length_b   9.65383135
_cell_length_c   3.88845900
_cell_angle_alpha   90.00000000
_cell_angle_beta   90.00000000
_cell_angle_gamma   120.00000224
_symmetry_Int_Tables_number   1
_chemical_formula_structural   Yb2Mg(PRh2)6
_chemical_formula_sum   'Yb2 Mg1 P6 Rh12'
_cell_volume   313.83949051
_cell_formula_units_Z   1
loop_
 _symmetry_equiv_pos_site_id
 _symmetry_equiv_pos_as_xyz
  1  'x, y, z'
loop_
 _atom_site_type_symbol
 _atom_site_label
 _atom_site_symmetry_multiplicity
 _atom_site_fract_x
 _atom_site_fract_y
 _atom_site_fract_z
 _atom_site_occupancy
  Yb  Yb0  1  0.333333  0.666667  0.751676  1
  Yb  Yb1  1  0.666667  0.333333  0.248324  1
  Mg  Mg2  1  0.000000  0.000000  0.500000  1
  P  P3  1  0.402993  0.285502  0.746847  1
  P  P4  1  0.714498  0.117490  0.746847  1
  P  P5  1  0.882510  0.597007  0.746847  1
  P  P6  1  0.597007  0.714498  0.253153  1
  P  P7  1  0.285502  0.882510  0.253153  1
  P  P8  1  0.117490  0.402993  0.253153  1
  Rh  Rh9  1  0.451711  0.063721  0.748877  1
  Rh  Rh10  1  0.936279  0.387991  0.748877  1
  Rh  Rh11  1  0.612009  0.548289  0.748877  1
  Rh  Rh12  1  0.548289  0.936279  0.251123  1
  Rh  Rh13  1  0.063721  0.612009  0.251123  1
  Rh  Rh14  1  0.387991  0.451711  0.251123  1
  Rh  Rh15  1  0.159698  0.285937  0.753270  1
  Rh  Rh16  1  0.714063  0.873761  0.753270  1
  Rh  Rh17  1  0.126239  0.840302  0.753270  1
  Rh  Rh18  1  0.840302  0.714063  0.246730  1
  Rh  Rh19  1  0.285937  0.126239  0.246730  1
  Rh  Rh20  1  0.873761  0.159698  0.246730  1
