# generated using pymatgen
data_Li4Ce3SmFe3H22
_symmetry_space_group_name_H-M   'P 1'
_cell_length_a   6.65864787
_cell_length_b   6.65864742
_cell_length_c   6.65864800
_cell_angle_alpha   89.79201492
_cell_angle_beta   89.79201493
_cell_angle_gamma   89.79201851
_symmetry_Int_Tables_number   1
_chemical_formula_structural   Li4Ce3SmFe3H22
_chemical_formula_sum   'Li4 Ce3 Sm1 Fe3 H22'
_cell_volume   295.22257367
_cell_formula_units_Z   1
loop_
 _symmetry_equiv_pos_site_id
 _symmetry_equiv_pos_as_xyz
  1  'x, y, z'
loop_
 _atom_site_type_symbol
 _atom_site_label
 _atom_site_symmetry_multiplicity
 _atom_site_fract_x
 _atom_site_fract_y
 _atom_site_fract_z
 _atom_site_occupancy
  Li  Li0  1  0.788774  0.788774  0.210136  1
  Li  Li1  1  0.788774  0.210136  0.788774  1
  Li  Li2  1  0.210136  0.788774  0.788774  1
  Li  Li3  1  0.211530  0.211530  0.211530  1
  Ce  Ce4  1  0.282045  0.282045  0.717713  1
  Ce  Ce5  1  0.282045  0.717713  0.282045  1
  Ce  Ce6  1  0.717713  0.282045  0.282045  1
  Sm  Sm7  1  0.716436  0.716436  0.716436  1
  Fe  Fe8  1  0.999638  0.999638  0.500247  1
  Fe  Fe9  1  0.999638  0.500247  0.999638  1
  Fe  Fe10  1  0.500247  0.999638  0.999638  1
  H  H11  1  0.999743  0.499700  0.238927  1
  H  H12  1  0.502162  0.760649  0.998316  1
  H  H13  1  0.760649  0.998316  0.502162  1
  H  H14  1  0.998316  0.760649  0.502162  1
  H  H15  1  0.499700  0.999743  0.238927  1
  H  H16  1  0.760649  0.502162  0.998316  1
  H  H17  1  0.998316  0.502162  0.760649  1
  H  H18  1  0.499700  0.238927  0.999743  1
  H  H19  1  0.999743  0.238927  0.499700  1
  H  H20  1  0.502162  0.998316  0.760649  1
  H  H21  1  0.238927  0.999743  0.499700  1
  H  H22  1  0.238927  0.499700  0.999743  1
  H  H23  1  0.999519  0.999519  0.261431  1
  H  H24  1  0.999921  0.737868  0.999921  1
  H  H25  1  0.737868  0.999921  0.999921  1
  H  H26  1  0.999921  0.999921  0.737868  1
  H  H27  1  0.999519  0.261431  0.999519  1
  H  H28  1  0.261431  0.999519  0.999519  1
  H  H29  1  0.628475  0.628475  0.375196  1
  H  H30  1  0.628475  0.375196  0.628475  1
  H  H31  1  0.375196  0.628475  0.628475  1
  H  H32  1  0.373697  0.373697  0.373697  1
