# generated using pymatgen
data_Yb2Sc3Re2C7
_symmetry_space_group_name_H-M   'P 1'
_cell_length_a   7.96472483
_cell_length_b   8.34572065
_cell_length_c   3.26422400
_cell_angle_alpha   90.00000000
_cell_angle_beta   90.00000000
_cell_angle_gamma   123.71675264
_symmetry_Int_Tables_number   1
_chemical_formula_structural   Yb2Sc3Re2C7
_chemical_formula_sum   'Yb2 Sc3 Re2 C7'
_cell_volume   180.48006449
_cell_formula_units_Z   1
loop_
 _symmetry_equiv_pos_site_id
 _symmetry_equiv_pos_as_xyz
  1  'x, y, z'
loop_
 _atom_site_type_symbol
 _atom_site_label
 _atom_site_symmetry_multiplicity
 _atom_site_fract_x
 _atom_site_fract_y
 _atom_site_fract_z
 _atom_site_occupancy
  Yb  Yb0  1  0.293261  0.061020  0.500000  1
  Yb  Yb1  1  0.706739  0.938980  0.500000  1
  Sc  Sc2  1  0.077665  0.351366  0.500000  1
  Sc  Sc3  1  0.922335  0.648634  0.500000  1
  Sc  Sc4  1  0.500000  0.500000  0.000000  1
  Re  Re5  1  0.300252  0.715245  0.000000  1
  Re  Re6  1  0.699748  0.284755  0.000000  1
  C  C7  1  0.141510  0.188829  0.000000  1
  C  C8  1  0.858490  0.811171  0.000000  1
  C  C9  1  0.000000  0.000000  0.000000  1
  C  C10  1  0.387735  0.622436  0.500000  1
  C  C11  1  0.612265  0.377564  0.500000  1
  C  C12  1  0.500000  0.000000  0.000000  1
  C  C13  1  0.000000  0.500000  0.000000  1
