# generated using pymatgen
data_Pr4B4Cl5
_symmetry_space_group_name_H-M   'P 1'
_cell_length_a   10.51714058
_cell_length_b   10.51714053
_cell_length_c   9.43095223
_cell_angle_alpha   53.57862466
_cell_angle_beta   53.57862574
_cell_angle_gamma   23.54866149
_symmetry_Int_Tables_number   1
_chemical_formula_structural   Pr4B4Cl5
_chemical_formula_sum   'Pr4 B4 Cl5'
_cell_volume   331.37436273
_cell_formula_units_Z   1
loop_
 _symmetry_equiv_pos_site_id
 _symmetry_equiv_pos_as_xyz
  1  'x, y, z'
loop_
 _atom_site_type_symbol
 _atom_site_label
 _atom_site_symmetry_multiplicity
 _atom_site_fract_x
 _atom_site_fract_y
 _atom_site_fract_z
 _atom_site_occupancy
  Pr  Pr0  1  0.148803  0.148803  0.778932  1
  Pr  Pr1  1  0.518991  0.518991  0.235837  1
  Pr  Pr2  1  0.481009  0.481009  0.764163  1
  Pr  Pr3  1  0.851197  0.851197  0.221068  1
  B  B4  1  0.005898  0.005898  0.092915  1
  B  B5  1  0.686428  0.313572  0.000000  1
  B  B6  1  0.994102  0.994102  0.907085  1
  B  B7  1  0.313572  0.686428  0.000000  1
  Cl  Cl8  1  0.309077  0.309077  0.074052  1
  Cl  Cl9  1  0.000000  0.000000  0.500000  1
  Cl  Cl10  1  0.333662  0.333662  0.467975  1
  Cl  Cl11  1  0.666338  0.666338  0.532025  1
  Cl  Cl12  1  0.690923  0.690923  0.925948  1
