# generated using pymatgen
data_EuAs12Ru3Rh
_symmetry_space_group_name_H-M   'P 1'
_cell_length_a   7.45344480
_cell_length_b   7.45344559
_cell_length_c   7.45344500
_cell_angle_alpha   109.44052688
_cell_angle_beta   109.44052903
_cell_angle_gamma   109.44052601
_symmetry_Int_Tables_number   1
_chemical_formula_structural   EuAs12Ru3Rh
_chemical_formula_sum   'Eu1 As12 Ru3 Rh1'
_cell_volume   319.11104321
_cell_formula_units_Z   1
loop_
 _symmetry_equiv_pos_site_id
 _symmetry_equiv_pos_as_xyz
  1  'x, y, z'
loop_
 _atom_site_type_symbol
 _atom_site_label
 _atom_site_symmetry_multiplicity
 _atom_site_fract_x
 _atom_site_fract_y
 _atom_site_fract_z
 _atom_site_occupancy
  Eu  Eu0  1  0.000000  0.000000  0.000000  1
  As  As1  1  0.149911  0.801186  0.651360  1
  As  As2  1  0.850089  0.198814  0.348640  1
  As  As3  1  0.146841  0.498680  0.348453  1
  As  As4  1  0.853159  0.501320  0.651547  1
  As  As5  1  0.651360  0.149911  0.801186  1
  As  As6  1  0.348640  0.850089  0.198814  1
  As  As7  1  0.348453  0.146841  0.498680  1
  As  As8  1  0.651547  0.853159  0.501320  1
  As  As9  1  0.801186  0.651360  0.149911  1
  As  As10  1  0.198814  0.348640  0.850089  1
  As  As11  1  0.498680  0.348453  0.146841  1
  As  As12  1  0.501320  0.651547  0.853159  1
  Ru  Ru13  1  0.500000  0.000000  0.000000  1
  Ru  Ru14  1  0.000000  0.000000  0.500000  1
  Ru  Ru15  1  0.000000  0.500000  0.000000  1
  Rh  Rh16  1  0.500000  0.500000  0.500000  1
