# generated using pymatgen
data_Sc12Cu5TcIr6
_symmetry_space_group_name_H-M   'P 1'
_cell_length_a   4.60282805
_cell_length_b   6.48334800
_cell_length_c   13.70407615
_cell_angle_alpha   90.00000000
_cell_angle_beta   89.98305647
_cell_angle_gamma   90.00000000
_symmetry_Int_Tables_number   1
_chemical_formula_structural   Sc12Cu5TcIr6
_chemical_formula_sum   'Sc12 Cu5 Tc1 Ir6'
_cell_volume   408.95340518
_cell_formula_units_Z   1
loop_
 _symmetry_equiv_pos_site_id
 _symmetry_equiv_pos_as_xyz
  1  'x, y, z'
loop_
 _atom_site_type_symbol
 _atom_site_label
 _atom_site_symmetry_multiplicity
 _atom_site_fract_x
 _atom_site_fract_y
 _atom_site_fract_z
 _atom_site_occupancy
  Sc  Sc0  1  0.500000  0.254275  0.000000  1
  Sc  Sc1  1  0.500000  0.745725  0.000000  1
  Sc  Sc2  1  0.999836  0.252354  0.163673  1
  Sc  Sc3  1  0.999836  0.747646  0.163673  1
  Sc  Sc4  1  0.499840  0.249982  0.332749  1
  Sc  Sc5  1  0.499840  0.750018  0.332749  1
  Sc  Sc6  1  0.000000  0.248111  0.500000  1
  Sc  Sc7  1  0.000000  0.751889  0.500000  1
  Sc  Sc8  1  0.500160  0.249982  0.667251  1
  Sc  Sc9  1  0.500160  0.750018  0.667251  1
  Sc  Sc10  1  0.000165  0.252354  0.836328  1
  Sc  Sc11  1  0.000165  0.747646  0.836328  1
  Cu  Cu12  1  0.499930  0.000000  0.165701  1
  Cu  Cu13  1  0.000008  0.500000  0.329831  1
  Cu  Cu14  1  0.500000  0.000000  0.500000  1
  Cu  Cu15  1  0.999992  0.500000  0.670168  1
  Cu  Cu16  1  0.500070  0.000000  0.834299  1
  Tc  Tc17  1  0.000000  0.500000  0.000000  1
  Ir  Ir18  1  0.000000  0.000000  0.000000  1
  Ir  Ir19  1  0.499787  0.500000  0.168863  1
  Ir  Ir20  1  0.999750  0.000000  0.334506  1
  Ir  Ir21  1  0.500000  0.500000  0.500000  1
  Ir  Ir22  1  0.000251  0.000000  0.665494  1
  Ir  Ir23  1  0.500213  0.500000  0.831137  1
