# generated using pymatgen
data_LiNd2As4(PPd10)2
_symmetry_space_group_name_H-M   'P 1'
_cell_length_a   8.80510710
_cell_length_b   8.80510650
_cell_length_c   8.87410600
_cell_angle_alpha   59.74042924
_cell_angle_beta   59.74043153
_cell_angle_gamma   60.51913668
_symmetry_Int_Tables_number   1
_chemical_formula_structural   LiNd2As4(PPd10)2
_chemical_formula_sum   'Li1 Nd2 As4 P2 Pd20'
_cell_volume   486.43531400
_cell_formula_units_Z   1
loop_
 _symmetry_equiv_pos_site_id
 _symmetry_equiv_pos_as_xyz
  1  'x, y, z'
loop_
 _atom_site_type_symbol
 _atom_site_label
 _atom_site_symmetry_multiplicity
 _atom_site_fract_x
 _atom_site_fract_y
 _atom_site_fract_z
 _atom_site_occupancy
  Li  Li0  1  0.000000  0.000000  0.000000  1
  Nd  Nd1  1  0.250000  0.250000  0.250000  1
  Nd  Nd2  1  0.750000  0.750000  0.750000  1
  As  As3  1  0.740353  0.259647  0.259647  1
  As  As4  1  0.259647  0.740353  0.740353  1
  As  As5  1  0.259647  0.740353  0.259647  1
  As  As6  1  0.740353  0.259647  0.740353  1
  P  P7  1  0.261942  0.261942  0.738058  1
  P  P8  1  0.738058  0.738058  0.261942  1
  Pd  Pd9  1  0.382687  0.382687  0.390862  1
  Pd  Pd10  1  0.617313  0.617313  0.609138  1
  Pd  Pd11  1  0.382687  0.382687  0.843765  1
  Pd  Pd12  1  0.390862  0.843765  0.382687  1
  Pd  Pd13  1  0.617313  0.617313  0.156235  1
  Pd  Pd14  1  0.609138  0.156235  0.617313  1
  Pd  Pd15  1  0.843765  0.390862  0.382687  1
  Pd  Pd16  1  0.156235  0.609138  0.617313  1
  Pd  Pd17  1  0.346881  0.010066  0.989934  1
  Pd  Pd18  1  0.653119  0.989934  0.010066  1
  Pd  Pd19  1  0.010066  0.346881  0.653119  1
  Pd  Pd20  1  0.989934  0.653119  0.346881  1
  Pd  Pd21  1  0.010066  0.346881  0.989934  1
  Pd  Pd22  1  0.653119  0.989934  0.346881  1
  Pd  Pd23  1  0.989934  0.653119  0.010066  1
  Pd  Pd24  1  0.346881  0.010066  0.653119  1
  Pd  Pd25  1  0.000000  0.000000  0.349433  1
  Pd  Pd26  1  0.000000  0.000000  0.650567  1
  Pd  Pd27  1  0.650567  0.349433  0.000000  1
  Pd  Pd28  1  0.349433  0.650567  0.000000  1
