# generated using pymatgen
data_La7Pr9Cd4(RuPt)2
_symmetry_space_group_name_H-M   'P 1'
_cell_length_a   10.06132419
_cell_length_b   10.07171352
_cell_length_c   10.19132005
_cell_angle_alpha   59.52337653
_cell_angle_beta   59.91202104
_cell_angle_gamma   60.11324290
_symmetry_Int_Tables_number   1
_chemical_formula_structural   La7Pr9Cd4(RuPt)2
_chemical_formula_sum   'La7 Pr9 Cd4 Ru2 Pt2'
_cell_volume   727.72067979
_cell_formula_units_Z   1
loop_
 _symmetry_equiv_pos_site_id
 _symmetry_equiv_pos_as_xyz
  1  'x, y, z'
loop_
 _atom_site_type_symbol
 _atom_site_label
 _atom_site_symmetry_multiplicity
 _atom_site_fract_x
 _atom_site_fract_y
 _atom_site_fract_z
 _atom_site_occupancy
  La  La0  1  0.345354  0.345236  0.355133  1
  La  La1  1  0.346745  0.345924  0.951797  1
  La  La2  1  0.345325  0.956868  0.347405  1
  La  La3  1  0.958988  0.343491  0.349935  1
  La  La4  1  0.818477  0.188675  0.188578  1
  La  La5  1  0.186253  0.820369  0.802412  1
  La  La6  1  0.188563  0.818174  0.190226  1
  Pr  Pr7  1  0.812011  0.190208  0.804277  1
  Pr  Pr8  1  0.190572  0.192572  0.806703  1
  Pr  Pr9  1  0.803234  0.804753  0.193845  1
  Pr  Pr10  1  0.934732  0.562824  0.566940  1
  Pr  Pr11  1  0.560199  0.936264  0.937308  1
  Pr  Pr12  1  0.562078  0.935846  0.565779  1
  Pr  Pr13  1  0.936266  0.560074  0.938878  1
  Pr  Pr14  1  0.561959  0.562587  0.938889  1
  Pr  Pr15  1  0.936147  0.937423  0.563467  1
  Cd  Cd16  1  0.581180  0.578721  0.580165  1
  Cd  Cd17  1  0.581322  0.580220  0.258993  1
  Cd  Cd18  1  0.581220  0.256747  0.582195  1
  Cd  Cd19  1  0.256291  0.580214  0.581483  1
  Ru  Ru20  1  0.138438  0.139978  0.142571  1
  Ru  Ru21  1  0.149041  0.136356  0.575556  1
  Pt  Pt22  1  0.150328  0.576797  0.136444  1
  Pt  Pt23  1  0.575277  0.149677  0.141014  1
