# generated using pymatgen
data_Ce9Y(RuPb3)2
_symmetry_space_group_name_H-M   'P 1'
_cell_length_a   9.61097400
_cell_length_b   9.61097601
_cell_length_c   6.38779000
_cell_angle_alpha   90.00000000
_cell_angle_beta   90.00000000
_cell_angle_gamma   119.39245821
_symmetry_Int_Tables_number   1
_chemical_formula_structural   Ce9Y(RuPb3)2
_chemical_formula_sum   'Ce9 Y1 Ru2 Pb6'
_cell_volume   514.09393890
_cell_formula_units_Z   1
loop_
 _symmetry_equiv_pos_site_id
 _symmetry_equiv_pos_as_xyz
  1  'x, y, z'
loop_
 _atom_site_type_symbol
 _atom_site_label
 _atom_site_symmetry_multiplicity
 _atom_site_fract_x
 _atom_site_fract_y
 _atom_site_fract_z
 _atom_site_occupancy
  Ce  Ce0  1  0.757910  0.757910  0.250000  1
  Ce  Ce1  1  0.238248  0.999832  0.250000  1
  Ce  Ce2  1  0.761828  0.997649  0.750000  1
  Ce  Ce3  1  0.332906  0.668412  0.500706  1
  Ce  Ce4  1  0.668412  0.332906  0.500706  1
  Ce  Ce5  1  0.999832  0.238248  0.250000  1
  Ce  Ce6  1  0.997649  0.761828  0.750000  1
  Ce  Ce7  1  0.332906  0.668412  0.999294  1
  Ce  Ce8  1  0.668412  0.332906  0.999294  1
  Y  Y9  1  0.249058  0.249058  0.750000  1
  Ru  Ru10  1  0.998202  0.998202  0.002263  1
  Ru  Ru11  1  0.998202  0.998202  0.497737  1
  Pb  Pb12  1  0.395736  0.395736  0.250000  1
  Pb  Pb13  1  0.600605  0.600605  0.750000  1
  Pb  Pb14  1  0.002773  0.394567  0.750000  1
  Pb  Pb15  1  0.602628  0.000125  0.250000  1
  Pb  Pb16  1  0.394567  0.002773  0.750000  1
  Pb  Pb17  1  0.000125  0.602628  0.250000  1
