# generated using pymatgen
data_LaDyY(ZnPt)4
_symmetry_space_group_name_H-M   'P 1'
_cell_length_a   8.28950161
_cell_length_b   8.28950112
_cell_length_c   8.28950137
_cell_angle_alpha   151.65309705
_cell_angle_beta   125.90325959
_cell_angle_gamma   62.19217440
_symmetry_Int_Tables_number   1
_chemical_formula_structural   LaDyY(ZnPt)4
_chemical_formula_sum   'La1 Dy1 Y1 Zn4 Pt4'
_cell_volume   217.24636458
_cell_formula_units_Z   1
loop_
 _symmetry_equiv_pos_site_id
 _symmetry_equiv_pos_as_xyz
  1  'x, y, z'
loop_
 _atom_site_type_symbol
 _atom_site_label
 _atom_site_symmetry_multiplicity
 _atom_site_fract_x
 _atom_site_fract_y
 _atom_site_fract_z
 _atom_site_occupancy
  La  La0  1  0.499994  0.999994  0.500000  1
  Dy  Dy1  1  0.126043  0.126043  0.000000  1
  Y  Y2  1  0.873876  0.873876  0.000000  1
  Zn  Zn3  1  0.477524  0.674453  0.803070  1
  Zn  Zn4  1  0.871383  0.674453  0.196930  1
  Zn  Zn5  1  0.128707  0.325475  0.803232  1
  Zn  Zn6  1  0.522243  0.325475  0.196768  1
  Pt  Pt7  1  0.276212  0.776212  0.500000  1
  Pt  Pt8  1  0.723315  0.223315  0.500000  1
  Pt  Pt9  1  0.810579  0.500352  0.310228  1
  Pt  Pt10  1  0.190124  0.500352  0.689772  1
