# generated using pymatgen
data_Pa2InIrPt
_symmetry_space_group_name_H-M   'P 1'
_cell_length_a   7.82044300
_cell_length_b   7.81926400
_cell_length_c   3.62793100
_cell_angle_alpha   90.00000000
_cell_angle_beta   90.00000000
_cell_angle_gamma   90.00000000
_symmetry_Int_Tables_number   1
_chemical_formula_structural   Pa2InIrPt
_chemical_formula_sum   'Pa4 In2 Ir2 Pt2'
_cell_volume   221.84837397
_cell_formula_units_Z   2
loop_
 _symmetry_equiv_pos_site_id
 _symmetry_equiv_pos_as_xyz
  1  'x, y, z'
loop_
 _atom_site_type_symbol
 _atom_site_label
 _atom_site_symmetry_multiplicity
 _atom_site_fract_x
 _atom_site_fract_y
 _atom_site_fract_z
 _atom_site_occupancy
  Pa  Pa0  1  0.678590  0.829085  0.500000  1
  Pa  Pa1  1  0.821410  0.329085  0.500000  1
  Pa  Pa2  1  0.337389  0.171070  0.500000  1
  Pa  Pa3  1  0.162611  0.671070  0.500000  1
  In  In4  1  0.499816  0.502040  0.000000  1
  In  In5  1  0.000184  0.002040  0.000000  1
  Ir  Ir6  1  0.630395  0.131071  0.000000  1
  Ir  Ir7  1  0.869605  0.631071  0.000000  1
  Pt  Pt8  1  0.131862  0.366734  0.000000  1
  Pt  Pt9  1  0.368138  0.866734  0.000000  1
