# generated using pymatgen
data_Tm4HgC2I
_symmetry_space_group_name_H-M   'P 1'
_cell_length_a   3.65310600
_cell_length_b   3.65310548
_cell_length_c   14.92136700
_cell_angle_alpha   90.00000000
_cell_angle_beta   90.00000000
_cell_angle_gamma   120.00000470
_symmetry_Int_Tables_number   1
_chemical_formula_structural   Tm4HgC2I
_chemical_formula_sum   'Tm4 Hg1 C2 I1'
_cell_volume   172.45020297
_cell_formula_units_Z   1
loop_
 _symmetry_equiv_pos_site_id
 _symmetry_equiv_pos_as_xyz
  1  'x, y, z'
loop_
 _atom_site_type_symbol
 _atom_site_label
 _atom_site_symmetry_multiplicity
 _atom_site_fract_x
 _atom_site_fract_y
 _atom_site_fract_z
 _atom_site_occupancy
  Tm  Tm0  1  0.666668  0.333334  0.083250  1
  Tm  Tm1  1  0.666668  0.333334  0.416750  1
  Tm  Tm2  1  0.333334  0.666668  0.589597  1
  Tm  Tm3  1  0.333334  0.666668  0.910403  1
  Hg  Hg4  1  0.666668  0.333334  0.750000  1
  C  C5  1  0.000000  0.000000  0.008296  1
  C  C6  1  0.000000  0.000000  0.491704  1
  I  I7  1  0.333334  0.666668  0.250000  1
