# generated using pymatgen
data_DyLu5Pa2(ReB6)4
_symmetry_space_group_name_H-M   'P 1'
_cell_length_a   3.66544500
_cell_length_b   9.09237068
_cell_length_c   11.46334201
_cell_angle_alpha   90.27734632
_cell_angle_beta   90.00000000
_cell_angle_gamma   90.00000000
_symmetry_Int_Tables_number   1
_chemical_formula_structural   DyLu5Pa2(ReB6)4
_chemical_formula_sum   'Dy1 Lu5 Pa2 Re4 B24'
_cell_volume   382.04102523
_cell_formula_units_Z   1
loop_
 _symmetry_equiv_pos_site_id
 _symmetry_equiv_pos_as_xyz
  1  'x, y, z'
loop_
 _atom_site_type_symbol
 _atom_site_label
 _atom_site_symmetry_multiplicity
 _atom_site_fract_x
 _atom_site_fract_y
 _atom_site_fract_z
 _atom_site_occupancy
  Dy  Dy0  1  0.000000  0.823208  0.085569  1
  Lu  Lu1  1  0.000000  0.176803  0.914555  1
  Lu  Lu2  1  0.000000  0.945134  0.372185  1
  Lu  Lu3  1  0.000000  0.055038  0.627926  1
  Lu  Lu4  1  0.000000  0.443825  0.126081  1
  Lu  Lu5  1  0.000000  0.555693  0.873602  1
  Pa  Pa6  1  0.000000  0.320680  0.413354  1
  Pa  Pa7  1  0.000000  0.679314  0.586771  1
  Re  Re8  1  0.000000  0.636431  0.323408  1
  Re  Re9  1  0.000000  0.363262  0.677082  1
  Re  Re10  1  0.000000  0.141085  0.181299  1
  Re  Re11  1  0.000000  0.859709  0.818314  1
  B  B12  1  0.500000  0.554182  0.432810  1
  B  B13  1  0.500000  0.445745  0.567403  1
  B  B14  1  0.500000  0.054189  0.066463  1
  B  B15  1  0.500000  0.946976  0.932869  1
  B  B16  1  0.500000  0.750644  0.419136  1
  B  B17  1  0.500000  0.249322  0.581173  1
  B  B18  1  0.500000  0.249535  0.079162  1
  B  B19  1  0.500000  0.750487  0.919700  1
  B  B20  1  0.500000  0.792661  0.264909  1
  B  B21  1  0.500000  0.207006  0.735850  1
  B  B22  1  0.500000  0.292878  0.233471  1
  B  B23  1  0.500000  0.707164  0.766226  1
  B  B24  1  0.500000  0.630667  0.184400  1
  B  B25  1  0.500000  0.368498  0.816095  1
  B  B26  1  0.500000  0.131047  0.314581  1
  B  B27  1  0.500000  0.869238  0.685464  1
  B  B28  1  0.500000  0.982041  0.212185  1
  B  B29  1  0.500000  0.019102  0.788134  1
  B  B30  1  0.500000  0.482577  0.285747  1
  B  B31  1  0.500000  0.517090  0.714369  1
  B  B32  1  0.500000  0.601737  0.028278  1
  B  B33  1  0.500000  0.396982  0.971333  1
  B  B34  1  0.500000  0.105161  0.470978  1
  B  B35  1  0.500000  0.894887  0.529116  1
