# generated using pymatgen
data_Th2Fe2CuSi3
_symmetry_space_group_name_H-M   'P 1'
_cell_length_a   8.55332405
_cell_length_b   8.55332522
_cell_length_c   4.06989200
_cell_angle_alpha   90.00000000
_cell_angle_beta   90.00000000
_cell_angle_gamma   152.23962904
_symmetry_Int_Tables_number   1
_chemical_formula_structural   Th2Fe2CuSi3
_chemical_formula_sum   'Th2 Fe2 Cu1 Si3'
_cell_volume   138.68474518
_cell_formula_units_Z   1
loop_
 _symmetry_equiv_pos_site_id
 _symmetry_equiv_pos_as_xyz
  1  'x, y, z'
loop_
 _atom_site_type_symbol
 _atom_site_label
 _atom_site_symmetry_multiplicity
 _atom_site_fract_x
 _atom_site_fract_y
 _atom_site_fract_z
 _atom_site_occupancy
  Th  Th0  1  0.612451  0.387549  0.250000  1
  Th  Th1  1  0.385549  0.614451  0.750000  1
  Fe  Fe2  1  0.251052  0.748948  0.250000  1
  Fe  Fe3  1  0.750179  0.249821  0.750000  1
  Cu  Cu4  1  0.964587  0.035413  0.250000  1
  Si  Si5  1  0.035013  0.964987  0.750000  1
  Si  Si6  1  0.816952  0.183048  0.250000  1
  Si  Si7  1  0.184215  0.815785  0.750000  1
