# generated using pymatgen
data_DyY3(OsC2)2
_symmetry_space_group_name_H-M   'P 1'
_cell_length_a   5.15257500
_cell_length_b   6.44689015
_cell_length_c   9.83898223
_cell_angle_alpha   89.97524225
_cell_angle_beta   90.00000000
_cell_angle_gamma   90.00000000
_symmetry_Int_Tables_number   1
_chemical_formula_structural   DyY3(OsC2)2
_chemical_formula_sum   'Dy2 Y6 Os4 C8'
_cell_volume   326.83211767
_cell_formula_units_Z   2
loop_
 _symmetry_equiv_pos_site_id
 _symmetry_equiv_pos_as_xyz
  1  'x, y, z'
loop_
 _atom_site_type_symbol
 _atom_site_label
 _atom_site_symmetry_multiplicity
 _atom_site_fract_x
 _atom_site_fract_y
 _atom_site_fract_z
 _atom_site_occupancy
  Dy  Dy0  1  0.750000  0.976243  0.720513  1
  Dy  Dy1  1  0.250000  0.023757  0.279487  1
  Y  Y2  1  0.250000  0.686767  0.551959  1
  Y  Y3  1  0.750000  0.313233  0.448041  1
  Y  Y4  1  0.750000  0.813728  0.051724  1
  Y  Y5  1  0.250000  0.186272  0.948276  1
  Y  Y6  1  0.250000  0.524178  0.220579  1
  Y  Y7  1  0.750000  0.475822  0.779421  1
  Os  Os8  1  0.250000  0.727374  0.864511  1
  Os  Os9  1  0.750000  0.272626  0.135489  1
  Os  Os10  1  0.750000  0.772817  0.364375  1
  Os  Os11  1  0.250000  0.227183  0.635625  1
  C  C12  1  0.250000  0.463833  0.758030  1
  C  C13  1  0.750000  0.536167  0.241970  1
  C  C14  1  0.750000  0.036272  0.257982  1
  C  C15  1  0.250000  0.963728  0.742018  1
  C  C16  1  0.250000  0.822535  0.051814  1
  C  C17  1  0.750000  0.177465  0.948186  1
  C  C18  1  0.750000  0.678280  0.551766  1
  C  C19  1  0.250000  0.321720  0.448234  1
