# generated using pymatgen
data_K3La(PPt3)8
_symmetry_space_group_name_H-M   'P 1'
_cell_length_a   8.57154858
_cell_length_b   8.57154858
_cell_length_c   8.57154858
_cell_angle_alpha   90.10767535
_cell_angle_beta   89.89232465
_cell_angle_gamma   89.89232465
_symmetry_Int_Tables_number   1
_chemical_formula_structural   K3La(PPt3)8
_chemical_formula_sum   'K3 La1 P8 Pt24'
_cell_volume   629.76071910
_cell_formula_units_Z   1
loop_
 _symmetry_equiv_pos_site_id
 _symmetry_equiv_pos_as_xyz
  1  'x, y, z'
loop_
 _atom_site_type_symbol
 _atom_site_label
 _atom_site_symmetry_multiplicity
 _atom_site_fract_x
 _atom_site_fract_y
 _atom_site_fract_z
 _atom_site_occupancy
  K  K0  1  0.500000  0.000000  0.500000  1
  K  K1  1  0.000000  0.500000  0.500000  1
  K  K2  1  0.000000  0.000000  0.000000  1
  La  La3  1  0.500000  0.500000  0.000000  1
  P  P4  1  0.808326  0.304135  0.194905  1
  P  P5  1  0.193361  0.806639  0.306639  1
  P  P6  1  0.695865  0.694905  0.691674  1
  P  P7  1  0.305095  0.191674  0.804135  1
  P  P8  1  0.191674  0.695865  0.805095  1
  P  P9  1  0.806639  0.193361  0.693361  1
  P  P10  1  0.304135  0.305095  0.308326  1
  P  P11  1  0.694905  0.808326  0.195865  1
  Pt  Pt12  1  0.422178  0.839594  0.154349  1
  Pt  Pt13  1  0.578041  0.345219  0.340166  1
  Pt  Pt14  1  0.077901  0.157366  0.655867  1
  Pt  Pt15  1  0.922074  0.656449  0.844036  1
  Pt  Pt16  1  0.159834  0.421959  0.845219  1
  Pt  Pt17  1  0.345651  0.577822  0.339594  1
  Pt  Pt18  1  0.655964  0.077926  0.156449  1
  Pt  Pt19  1  0.844133  0.922099  0.657366  1
  Pt  Pt20  1  0.842634  0.155867  0.422099  1
  Pt  Pt21  1  0.343551  0.344036  0.577926  1
  Pt  Pt22  1  0.160406  0.654349  0.077822  1
  Pt  Pt23  1  0.654781  0.840166  0.921959  1
  Pt  Pt24  1  0.577822  0.160406  0.845651  1
  Pt  Pt25  1  0.421959  0.654781  0.659834  1
  Pt  Pt26  1  0.922099  0.842634  0.344133  1
  Pt  Pt27  1  0.077926  0.343551  0.155964  1
  Pt  Pt28  1  0.840166  0.578041  0.154781  1
  Pt  Pt29  1  0.654349  0.422178  0.660406  1
  Pt  Pt30  1  0.344036  0.922074  0.843551  1
  Pt  Pt31  1  0.155867  0.077901  0.342634  1
  Pt  Pt32  1  0.157366  0.844133  0.577901  1
  Pt  Pt33  1  0.656449  0.655964  0.422074  1
  Pt  Pt34  1  0.839594  0.345651  0.922178  1
  Pt  Pt35  1  0.345219  0.159834  0.078041  1
