# generated using pymatgen
data_Tb8Pd23PtPb
_symmetry_space_group_name_H-M   'P 1'
_cell_length_a   8.44748300
_cell_length_b   8.42792600
_cell_length_c   8.43333200
_cell_angle_alpha   90.00000000
_cell_angle_beta   90.00000000
_cell_angle_gamma   90.00000000
_symmetry_Int_Tables_number   1
_chemical_formula_structural   Tb8Pd23PtPb
_chemical_formula_sum   'Tb8 Pd23 Pt1 Pb1'
_cell_volume   600.40906132
_cell_formula_units_Z   1
loop_
 _symmetry_equiv_pos_site_id
 _symmetry_equiv_pos_as_xyz
  1  'x, y, z'
loop_
 _atom_site_type_symbol
 _atom_site_label
 _atom_site_symmetry_multiplicity
 _atom_site_fract_x
 _atom_site_fract_y
 _atom_site_fract_z
 _atom_site_occupancy
  Tb  Tb0  1  0.253056  0.253832  0.252203  1
  Tb  Tb1  1  0.746992  0.746881  0.746644  1
  Tb  Tb2  1  0.746992  0.746881  0.253356  1
  Tb  Tb3  1  0.746992  0.253119  0.746644  1
  Tb  Tb4  1  0.253056  0.253832  0.747797  1
  Tb  Tb5  1  0.253056  0.746168  0.252203  1
  Tb  Tb6  1  0.253056  0.746168  0.747797  1
  Tb  Tb7  1  0.746992  0.253119  0.253356  1
  Pd  Pd8  1  0.733287  0.500000  0.000000  1
  Pd  Pd9  1  0.999927  0.266984  0.500000  1
  Pd  Pd10  1  0.500335  0.266709  0.000000  1
  Pd  Pd11  1  0.999927  0.733016  0.500000  1
  Pd  Pd12  1  0.500335  0.733291  0.000000  1
  Pd  Pd13  1  0.500095  0.000000  0.267129  1
  Pd  Pd14  1  0.267195  0.000000  0.500000  1
  Pd  Pd15  1  0.500095  0.000000  0.732871  1
  Pd  Pd16  1  0.732985  0.000000  0.500000  1
  Pd  Pd17  1  0.999943  0.500000  0.267333  1
  Pd  Pd18  1  0.999943  0.500000  0.732667  1
  Pd  Pd19  1  0.255087  0.500000  0.500000  1
  Pd  Pd20  1  0.744754  0.500000  0.500000  1
  Pd  Pd21  1  0.500152  0.255127  0.500000  1
  Pd  Pd22  1  0.500152  0.744873  0.500000  1
  Pd  Pd23  1  0.499977  0.500000  0.255109  1
  Pd  Pd24  1  0.499977  0.500000  0.744891  1
  Pd  Pd25  1  0.316374  0.000000  0.000000  1
  Pd  Pd26  1  0.683805  0.000000  0.000000  1
  Pd  Pd27  1  0.999498  0.316244  0.000000  1
  Pd  Pd28  1  0.999498  0.683756  0.000000  1
  Pd  Pd29  1  0.999933  0.000000  0.316403  1
  Pd  Pd30  1  0.999933  0.000000  0.683597  1
  Pt  Pt31  1  0.266308  0.500000  0.000000  1
  Pb  Pb32  1  0.000296  0.000000  0.000000  1
