# generated using pymatgen
data_TbNd3Mg2Ir3
_symmetry_space_group_name_H-M   'P 1'
_cell_length_a   7.57134000
_cell_length_b   7.58532077
_cell_length_c   4.20128600
_cell_angle_alpha   90.00000000
_cell_angle_beta   90.00000000
_cell_angle_gamma   119.93903959
_symmetry_Int_Tables_number   1
_chemical_formula_structural   TbNd3Mg2Ir3
_chemical_formula_sum   'Tb1 Nd3 Mg2 Ir3'
_cell_volume   209.08651711
_cell_formula_units_Z   1
loop_
 _symmetry_equiv_pos_site_id
 _symmetry_equiv_pos_as_xyz
  1  'x, y, z'
loop_
 _atom_site_type_symbol
 _atom_site_label
 _atom_site_symmetry_multiplicity
 _atom_site_fract_x
 _atom_site_fract_y
 _atom_site_fract_z
 _atom_site_occupancy
  Tb  Tb0  1  0.753382  0.000000  0.000000  1
  Nd  Nd1  1  0.392887  0.000000  0.500000  1
  Nd  Nd2  1  0.017159  0.433751  0.500000  1
  Nd  Nd3  1  0.583408  0.566249  0.500000  1
  Mg  Mg4  1  0.244930  0.245309  0.000000  1
  Mg  Mg5  1  0.999620  0.754691  0.000000  1
  Ir  Ir6  1  0.669253  0.331229  0.000000  1
  Ir  Ir7  1  0.338025  0.668771  0.000000  1
  Ir  Ir8  1  0.001336  0.000000  0.500000  1
