# generated using pymatgen
data_HoScTaFe9
_symmetry_space_group_name_H-M   'P 1'
_cell_length_a   8.39316622
_cell_length_b   8.39316536
_cell_length_c   8.39316675
_cell_angle_alpha   34.26249217
_cell_angle_beta   34.26249212
_cell_angle_gamma   34.26249220
_symmetry_Int_Tables_number   1
_chemical_formula_structural   HoScTaFe9
_chemical_formula_sum   'Ho1 Sc1 Ta1 Fe9'
_cell_volume   167.11779722
_cell_formula_units_Z   1
loop_
 _symmetry_equiv_pos_site_id
 _symmetry_equiv_pos_as_xyz
  1  'x, y, z'
loop_
 _atom_site_type_symbol
 _atom_site_label
 _atom_site_symmetry_multiplicity
 _atom_site_fract_x
 _atom_site_fract_y
 _atom_site_fract_z
 _atom_site_occupancy
  Ho  Ho0  1  0.000006  0.000006  0.000006  1
  Sc  Sc1  1  0.856820  0.856820  0.856820  1
  Ta  Ta2  1  0.143550  0.143550  0.143550  1
  Fe  Fe3  1  0.499918  0.499918  0.499918  1
  Fe  Fe4  1  0.332929  0.332929  0.332929  1
  Fe  Fe5  1  0.667052  0.667052  0.667052  1
  Fe  Fe6  1  0.082174  0.586857  0.586857  1
  Fe  Fe7  1  0.586857  0.586857  0.082174  1
  Fe  Fe8  1  0.586857  0.082174  0.586857  1
  Fe  Fe9  1  0.412896  0.918046  0.412896  1
  Fe  Fe10  1  0.918046  0.412896  0.412896  1
  Fe  Fe11  1  0.412896  0.412896  0.918046  1
