# generated using pymatgen
data_Y2Ho2BOs2C3
_symmetry_space_group_name_H-M   'P 1'
_cell_length_a   5.13368600
_cell_length_b   6.56504009
_cell_length_c   9.81482993
_cell_angle_alpha   90.31326440
_cell_angle_beta   90.00000000
_cell_angle_gamma   90.00000000
_symmetry_Int_Tables_number   1
_chemical_formula_structural   Y2Ho2BOs2C3
_chemical_formula_sum   'Y4 Ho4 B2 Os4 C6'
_cell_volume   330.78284007
_cell_formula_units_Z   2
loop_
 _symmetry_equiv_pos_site_id
 _symmetry_equiv_pos_as_xyz
  1  'x, y, z'
loop_
 _atom_site_type_symbol
 _atom_site_label
 _atom_site_symmetry_multiplicity
 _atom_site_fract_x
 _atom_site_fract_y
 _atom_site_fract_z
 _atom_site_occupancy
  Y  Y0  1  0.250000  0.524323  0.211239  1
  Y  Y1  1  0.750000  0.475677  0.788761  1
  Y  Y2  1  0.750000  0.972894  0.715414  1
  Y  Y3  1  0.250000  0.027106  0.284586  1
  Ho  Ho4  1  0.250000  0.679043  0.550426  1
  Ho  Ho5  1  0.750000  0.320957  0.449574  1
  Ho  Ho6  1  0.750000  0.826463  0.053157  1
  Ho  Ho7  1  0.250000  0.173537  0.946843  1
  B  B8  1  0.250000  0.452559  0.757727  1
  B  B9  1  0.750000  0.547441  0.242273  1
  Os  Os10  1  0.250000  0.727777  0.863314  1
  Os  Os11  1  0.750000  0.272223  0.136686  1
  Os  Os12  1  0.750000  0.786499  0.370356  1
  Os  Os13  1  0.250000  0.213501  0.629644  1
  C  C14  1  0.750000  0.043440  0.260555  1
  C  C15  1  0.250000  0.956560  0.739445  1
  C  C16  1  0.250000  0.823992  0.050368  1
  C  C17  1  0.750000  0.176008  0.949632  1
  C  C18  1  0.750000  0.674170  0.552106  1
  C  C19  1  0.250000  0.325830  0.447894  1
