# generated using pymatgen
data_DyHo3MnTc7
_symmetry_space_group_name_H-M   'P 1'
_cell_length_a   5.33073107
_cell_length_b   5.33035516
_cell_length_c   8.94172600
_cell_angle_alpha   89.99852201
_cell_angle_beta   90.00076754
_cell_angle_gamma   120.09024996
_symmetry_Int_Tables_number   1
_chemical_formula_structural   DyHo3MnTc7
_chemical_formula_sum   'Dy1 Ho3 Mn1 Tc7'
_cell_volume   219.83621350
_cell_formula_units_Z   1
loop_
 _symmetry_equiv_pos_site_id
 _symmetry_equiv_pos_as_xyz
  1  'x, y, z'
loop_
 _atom_site_type_symbol
 _atom_site_label
 _atom_site_symmetry_multiplicity
 _atom_site_fract_x
 _atom_site_fract_y
 _atom_site_fract_z
 _atom_site_occupancy
  Dy  Dy0  1  0.666598  0.333395  0.564551  1
  Ho  Ho1  1  0.333392  0.666604  0.435311  1
  Ho  Ho2  1  0.333359  0.666645  0.063870  1
  Ho  Ho3  1  0.666643  0.333370  0.936210  1
  Mn  Mn4  1  0.999999  0.999999  0.000036  1
  Tc  Tc5  1  0.000001  0.999997  0.499973  1
  Tc  Tc6  1  0.170546  0.340903  0.752255  1
  Tc  Tc7  1  0.170271  0.829718  0.752251  1
  Tc  Tc8  1  0.659099  0.829453  0.752256  1
  Tc  Tc9  1  0.829472  0.659121  0.247759  1
  Tc  Tc10  1  0.829753  0.170270  0.247769  1
  Tc  Tc11  1  0.340868  0.170526  0.247761  1
