# generated using pymatgen
data_Tb6ErCo6Sn23
_symmetry_space_group_name_H-M   'P 1'
_cell_length_a   9.71618711
_cell_length_b   9.71377309
_cell_length_c   9.97175801
_cell_angle_alpha   89.99999929
_cell_angle_beta   89.99557648
_cell_angle_gamma   119.99178274
_symmetry_Int_Tables_number   1
_chemical_formula_structural   Tb6ErCo6Sn23
_chemical_formula_sum   'Tb6 Er1 Co6 Sn23'
_cell_volume   815.12110742
_cell_formula_units_Z   1
loop_
 _symmetry_equiv_pos_site_id
 _symmetry_equiv_pos_as_xyz
  1  'x, y, z'
loop_
 _atom_site_type_symbol
 _atom_site_label
 _atom_site_symmetry_multiplicity
 _atom_site_fract_x
 _atom_site_fract_y
 _atom_site_fract_z
 _atom_site_occupancy
  Tb  Tb0  1  0.478625  0.521313  0.305865  1
  Tb  Tb1  1  0.521308  0.478641  0.694158  1
  Tb  Tb2  1  0.478625  0.957313  0.305865  1
  Tb  Tb3  1  0.521308  0.042666  0.694158  1
  Tb  Tb4  1  0.042751  0.521376  0.306047  1
  Tb  Tb5  1  0.999871  0.999935  0.999891  1
  Er  Er6  1  0.958039  0.479019  0.694232  1
  Co  Co7  1  0.832578  0.167435  0.196914  1
  Co  Co8  1  0.167078  0.831919  0.802920  1
  Co  Co9  1  0.832578  0.665144  0.196914  1
  Co  Co10  1  0.167078  0.335158  0.802920  1
  Co  Co11  1  0.334880  0.167441  0.196854  1
  Co  Co12  1  0.665269  0.832634  0.803063  1
  Sn  Sn13  1  0.118260  0.881919  0.274889  1
  Sn  Sn14  1  0.881926  0.118496  0.724966  1
  Sn  Sn15  1  0.118260  0.236341  0.274889  1
  Sn  Sn16  1  0.881926  0.763431  0.724966  1
  Sn  Sn17  1  0.763715  0.881858  0.274899  1
  Sn  Sn18  1  0.236278  0.118139  0.725049  1
  Sn  Sn19  1  0.781182  0.219230  0.452419  1
  Sn  Sn20  1  0.218450  0.780500  0.548257  1
  Sn  Sn21  1  0.781182  0.561952  0.452419  1
  Sn  Sn22  1  0.218450  0.437950  0.548257  1
  Sn  Sn23  1  0.437961  0.218980  0.451973  1
  Sn  Sn24  1  0.562002  0.781001  0.547945  1
  Sn  Sn25  1  0.346069  0.000192  0.000090  1
  Sn  Sn26  1  0.653950  0.000044  0.999994  1
  Sn  Sn27  1  0.999988  0.345991  0.999864  1
  Sn  Sn28  1  0.999988  0.653997  0.999864  1
  Sn  Sn29  1  0.653950  0.653907  0.999994  1
  Sn  Sn30  1  0.346069  0.345876  0.000090  1
  Sn  Sn31  1  0.333261  0.666631  0.116944  1
  Sn  Sn32  1  0.667407  0.333703  0.882437  1
  Sn  Sn33  1  0.333148  0.666575  0.818031  1
  Sn  Sn34  1  0.666593  0.333296  0.181979  1
  Sn  Sn35  1  0.999996  0.999998  0.499984  1
