# generated using pymatgen
data_NdDyCo2Cu2(Ni2B)2
_symmetry_space_group_name_H-M   'P 1'
_cell_length_a   5.07826400
_cell_length_b   5.07831801
_cell_length_c   6.94271200
_cell_angle_alpha   90.00000000
_cell_angle_beta   90.00000000
_cell_angle_gamma   119.99964816
_symmetry_Int_Tables_number   1
_chemical_formula_structural   NdDyCo2Cu2(Ni2B)2
_chemical_formula_sum   'Nd1 Dy1 Co2 Cu2 Ni4 B2'
_cell_volume   155.05882534
_cell_formula_units_Z   1
loop_
 _symmetry_equiv_pos_site_id
 _symmetry_equiv_pos_as_xyz
  1  'x, y, z'
loop_
 _atom_site_type_symbol
 _atom_site_label
 _atom_site_symmetry_multiplicity
 _atom_site_fract_x
 _atom_site_fract_y
 _atom_site_fract_z
 _atom_site_occupancy
  Nd  Nd0  1  0.500000  0.000000  0.993298  1
  Dy  Dy1  1  0.500000  0.000000  0.503273  1
  Co  Co2  1  0.500000  0.500000  0.699869  1
  Co  Co3  1  0.000000  0.500000  0.699869  1
  Cu  Cu4  1  0.831006  0.662011  0.999525  1
  Cu  Cu5  1  0.168994  0.337989  0.999525  1
  Ni  Ni6  1  0.000000  0.000000  0.704786  1
  Ni  Ni7  1  0.000000  0.000000  0.299137  1
  Ni  Ni8  1  0.500000  0.500000  0.297392  1
  Ni  Ni9  1  0.000000  0.500000  0.297392  1
  B  B10  1  0.830836  0.661672  0.502967  1
  B  B11  1  0.169164  0.338328  0.502967  1
