# generated using pymatgen
data_ErThMn17
_symmetry_space_group_name_H-M   'P 1'
_cell_length_a   6.34497686
_cell_length_b   6.34497797
_cell_length_c   6.34497770
_cell_angle_alpha   86.13042193
_cell_angle_beta   86.13042407
_cell_angle_gamma   86.13044221
_symmetry_Int_Tables_number   1
_chemical_formula_structural   ErThMn17
_chemical_formula_sum   'Er1 Th1 Mn17'
_cell_volume   253.76881079
_cell_formula_units_Z   1
loop_
 _symmetry_equiv_pos_site_id
 _symmetry_equiv_pos_as_xyz
  1  'x, y, z'
loop_
 _atom_site_type_symbol
 _atom_site_label
 _atom_site_symmetry_multiplicity
 _atom_site_fract_x
 _atom_site_fract_y
 _atom_site_fract_z
 _atom_site_occupancy
  Er  Er0  1  0.352246  0.352246  0.352246  1
  Th  Th1  1  0.645234  0.645234  0.645234  1
  Mn  Mn2  1  0.272740  0.001432  0.727254  1
  Mn  Mn3  1  0.001432  0.727254  0.272740  1
  Mn  Mn4  1  0.727254  0.272740  0.001432  1
  Mn  Mn5  1  0.001432  0.272740  0.727254  1
  Mn  Mn6  1  0.272740  0.727254  0.001432  1
  Mn  Mn7  1  0.727254  0.001432  0.272740  1
  Mn  Mn8  1  0.643868  0.124258  0.643868  1
  Mn  Mn9  1  0.124258  0.643868  0.643868  1
  Mn  Mn10  1  0.643868  0.643868  0.124258  1
  Mn  Mn11  1  0.353955  0.875244  0.353955  1
  Mn  Mn12  1  0.875244  0.353955  0.353955  1
  Mn  Mn13  1  0.353955  0.353955  0.875244  1
  Mn  Mn14  1  0.002697  0.499256  0.002697  1
  Mn  Mn15  1  0.499256  0.002697  0.002697  1
  Mn  Mn16  1  0.002697  0.002697  0.499256  1
  Mn  Mn17  1  0.098207  0.098207  0.098207  1
  Mn  Mn18  1  0.901662  0.901662  0.901662  1
