# generated using pymatgen
data_Pr2Th(MgIr)3
_symmetry_space_group_name_H-M   'P 1'
_cell_length_a   7.58014400
_cell_length_b   7.46128417
_cell_length_c   4.11441900
_cell_angle_alpha   90.00000000
_cell_angle_beta   90.00000000
_cell_angle_gamma   120.52837232
_symmetry_Int_Tables_number   1
_chemical_formula_structural   Pr2Th(MgIr)3
_chemical_formula_sum   'Pr2 Th1 Mg3 Ir3'
_cell_volume   200.44406036
_cell_formula_units_Z   1
loop_
 _symmetry_equiv_pos_site_id
 _symmetry_equiv_pos_as_xyz
  1  'x, y, z'
loop_
 _atom_site_type_symbol
 _atom_site_label
 _atom_site_symmetry_multiplicity
 _atom_site_fract_x
 _atom_site_fract_y
 _atom_site_fract_z
 _atom_site_occupancy
  Pr  Pr0  1  0.999845  0.590917  0.000000  1
  Pr  Pr1  1  0.408928  0.409083  0.000000  1
  Th  Th2  1  0.590600  0.000000  0.000000  1
  Mg  Mg3  1  0.233299  0.000000  0.500000  1
  Mg  Mg4  1  0.003472  0.245425  0.500000  1
  Mg  Mg5  1  0.758047  0.754575  0.500000  1
  Ir  Ir6  1  0.352287  0.688427  0.500000  1
  Ir  Ir7  1  0.663860  0.311573  0.500000  1
  Ir  Ir8  1  0.989662  0.000000  0.000000  1
