# generated using pymatgen
data_Ba6Zn(TcO6)2
_symmetry_space_group_name_H-M   'P 1'
_cell_length_a   9.24048476
_cell_length_b   9.24048406
_cell_length_c   7.28302873
_cell_angle_alpha   67.70466787
_cell_angle_beta   67.70467248
_cell_angle_gamma   36.81827731
_symmetry_Int_Tables_number   1
_chemical_formula_structural   Ba6Zn(TcO6)2
_chemical_formula_sum   'Ba6 Zn1 Tc2 O12'
_cell_volume   341.58813996
_cell_formula_units_Z   1
loop_
 _symmetry_equiv_pos_site_id
 _symmetry_equiv_pos_as_xyz
  1  'x, y, z'
loop_
 _atom_site_type_symbol
 _atom_site_label
 _atom_site_symmetry_multiplicity
 _atom_site_fract_x
 _atom_site_fract_y
 _atom_site_fract_z
 _atom_site_occupancy
  Ba  Ba0  1  0.208445  0.208445  0.710395  1
  Ba  Ba1  1  0.886767  0.886767  0.708845  1
  Ba  Ba2  1  0.547350  0.547350  0.718670  1
  Ba  Ba3  1  0.791555  0.791555  0.289605  1
  Ba  Ba4  1  0.452650  0.452650  0.281330  1
  Ba  Ba5  1  0.113233  0.113233  0.291155  1
  Zn  Zn6  1  0.000000  0.000000  0.000000  1
  Tc  Tc7  1  0.669754  0.669754  0.001133  1
  Tc  Tc8  1  0.330246  0.330246  0.998867  1
  O  O9  1  0.278783  0.278783  0.302430  1
  O  O10  1  0.948432  0.948432  0.310390  1
  O  O11  1  0.620387  0.620387  0.303276  1
  O  O12  1  0.721217  0.721217  0.697570  1
  O  O13  1  0.379613  0.379613  0.696724  1
  O  O14  1  0.051568  0.051568  0.689610  1
  O  O15  1  0.000000  0.500000  0.000000  1
  O  O16  1  0.641464  0.177326  0.000475  1
  O  O17  1  0.358536  0.822674  0.999525  1
  O  O18  1  0.500000  0.000000  0.000000  1
  O  O19  1  0.177326  0.641464  0.000475  1
  O  O20  1  0.822674  0.358536  0.999525  1
