# generated using pymatgen
data_Mg2GaB2PtRh4
_symmetry_space_group_name_H-M   'P 1'
_cell_length_a   9.46692508
_cell_length_b   9.45121008
_cell_length_c   2.95631500
_cell_angle_alpha   90.00000000
_cell_angle_beta   90.00000000
_cell_angle_gamma   89.98499626
_symmetry_Int_Tables_number   1
_chemical_formula_structural   Mg2GaB2PtRh4
_chemical_formula_sum   'Mg4 Ga2 B4 Pt2 Rh8'
_cell_volume   264.51301700
_cell_formula_units_Z   2
loop_
 _symmetry_equiv_pos_site_id
 _symmetry_equiv_pos_as_xyz
  1  'x, y, z'
loop_
 _atom_site_type_symbol
 _atom_site_label
 _atom_site_symmetry_multiplicity
 _atom_site_fract_x
 _atom_site_fract_y
 _atom_site_fract_z
 _atom_site_occupancy
  Mg  Mg0  1  0.329526  0.174687  0.000000  1
  Mg  Mg1  1  0.819527  0.332221  0.000000  1
  Mg  Mg2  1  0.174876  0.677456  0.000000  1
  Mg  Mg3  1  0.671582  0.817079  0.000000  1
  Ga  Ga4  1  0.005511  0.991197  0.000000  1
  Ga  Ga5  1  0.500192  0.500985  0.000000  1
  B  B6  1  0.616992  0.128696  0.000000  1
  B  B7  1  0.128791  0.385074  0.000000  1
  B  B8  1  0.870295  0.626079  0.000000  1
  B  B9  1  0.375201  0.870492  0.000000  1
  Pt  Pt10  1  0.786581  0.072600  0.499998  1
  Pt  Pt11  1  0.071495  0.215321  0.499998  1
  Rh  Rh12  1  0.503565  0.998103  0.499998  1
  Rh  Rh13  1  0.572116  0.284654  0.499998  1
  Rh  Rh14  1  0.285561  0.426604  0.499998  1
  Rh  Rh15  1  0.999975  0.499951  0.499998  1
  Rh  Rh16  1  0.715315  0.569809  0.499998  1
  Rh  Rh17  1  0.427472  0.714626  0.499998  1
  Rh  Rh18  1  0.926315  0.783404  0.499998  1
  Rh  Rh19  1  0.219115  0.930966  0.499998  1
