# generated using pymatgen
data_Tb5SnBi2Cl
_symmetry_space_group_name_H-M   'P 1'
_cell_length_a   9.19555700
_cell_length_b   9.26518438
_cell_length_c   6.55235300
_cell_angle_alpha   90.00000000
_cell_angle_beta   90.00000000
_cell_angle_gamma   119.75172090
_symmetry_Int_Tables_number   1
_chemical_formula_structural   Tb5SnBi2Cl
_chemical_formula_sum   'Tb10 Sn2 Bi4 Cl2'
_cell_volume   484.66440623
_cell_formula_units_Z   2
loop_
 _symmetry_equiv_pos_site_id
 _symmetry_equiv_pos_as_xyz
  1  'x, y, z'
loop_
 _atom_site_type_symbol
 _atom_site_label
 _atom_site_symmetry_multiplicity
 _atom_site_fract_x
 _atom_site_fract_y
 _atom_site_fract_z
 _atom_site_occupancy
  Tb  Tb0  1  0.667746  0.335492  0.000000  1
  Tb  Tb1  1  0.330757  0.661515  0.500000  1
  Tb  Tb2  1  0.667746  0.335492  0.500000  1
  Tb  Tb3  1  0.330757  0.661515  0.000000  1
  Tb  Tb4  1  0.739918  0.005360  0.750000  1
  Tb  Tb5  1  0.731546  0.731056  0.250000  1
  Tb  Tb6  1  0.005577  0.267491  0.250000  1
  Tb  Tb7  1  0.999509  0.731056  0.750000  1
  Tb  Tb8  1  0.261914  0.267491  0.750000  1
  Tb  Tb9  1  0.265442  0.005360  0.250000  1
  Sn  Sn10  1  0.999310  0.388972  0.750000  1
  Sn  Sn11  1  0.389662  0.388972  0.250000  1
  Bi  Bi12  1  0.612159  0.613243  0.750000  1
  Bi  Bi13  1  0.001084  0.613243  0.250000  1
  Bi  Bi14  1  0.612092  0.000345  0.250000  1
  Bi  Bi15  1  0.388252  0.000345  0.750000  1
  Cl  Cl16  1  0.998264  0.996527  0.500000  1
  Cl  Cl17  1  0.998264  0.996527  0.000000  1
