# generated using pymatgen
data_Ca2Bi3
_symmetry_space_group_name_H-M   'P 1'
_cell_length_a   6.49432300
_cell_length_b   6.77735200
_cell_length_c   14.97750600
_cell_angle_alpha   90.00000000
_cell_angle_beta   90.00000000
_cell_angle_gamma   90.00000000
_symmetry_Int_Tables_number   1
_chemical_formula_structural   Ca2Bi3
_chemical_formula_sum   'Ca8 Bi12'
_cell_volume   659.22463663
_cell_formula_units_Z   4
loop_
 _symmetry_equiv_pos_site_id
 _symmetry_equiv_pos_as_xyz
  1  'x, y, z'
loop_
 _atom_site_type_symbol
 _atom_site_label
 _atom_site_symmetry_multiplicity
 _atom_site_fract_x
 _atom_site_fract_y
 _atom_site_fract_z
 _atom_site_occupancy
  Ca  Ca0  1  0.938811  0.000000  0.250000  1
  Ca  Ca1  1  0.561189  0.500000  0.250000  1
  Ca  Ca2  1  0.061189  0.000000  0.750000  1
  Ca  Ca3  1  0.438811  0.500000  0.750000  1
  Ca  Ca4  1  0.750000  0.750000  0.999840  1
  Ca  Ca5  1  0.750000  0.250000  0.500160  1
  Ca  Ca6  1  0.250000  0.250000  0.000160  1
  Ca  Ca7  1  0.250000  0.750000  0.499840  1
  Bi  Bi8  1  0.750000  0.750000  0.433503  1
  Bi  Bi9  1  0.750000  0.250000  0.066497  1
  Bi  Bi10  1  0.250000  0.250000  0.566497  1
  Bi  Bi11  1  0.250000  0.750000  0.933503  1
  Bi  Bi12  1  0.420288  0.933100  0.149832  1
  Bi  Bi13  1  0.420288  0.066900  0.350168  1
  Bi  Bi14  1  0.079712  0.433100  0.350168  1
  Bi  Bi15  1  0.079712  0.566900  0.149832  1
  Bi  Bi16  1  0.579712  0.066900  0.850168  1
  Bi  Bi17  1  0.579712  0.933100  0.649832  1
  Bi  Bi18  1  0.920288  0.566900  0.649832  1
  Bi  Bi19  1  0.920288  0.433100  0.850168  1
