# generated using pymatgen
data_Nd8Y12Si15S
_symmetry_space_group_name_H-M   'P 1'
_cell_length_a   7.61494006
_cell_length_b   7.76525578
_cell_length_c   14.80290200
_cell_angle_alpha   89.75929116
_cell_angle_beta   86.92137641
_cell_angle_gamma   89.97238101
_symmetry_Int_Tables_number   1
_chemical_formula_structural   Nd8Y12Si15S
_chemical_formula_sum   'Nd8 Y12 Si15 S1'
_cell_volume   874.05353836
_cell_formula_units_Z   1
loop_
 _symmetry_equiv_pos_site_id
 _symmetry_equiv_pos_as_xyz
  1  'x, y, z'
loop_
 _atom_site_type_symbol
 _atom_site_label
 _atom_site_symmetry_multiplicity
 _atom_site_fract_x
 _atom_site_fract_y
 _atom_site_fract_z
 _atom_site_occupancy
  Nd  Nd0  1  0.004712  0.827903  0.102252  1
  Nd  Nd1  1  0.477261  0.681026  0.399117  1
  Nd  Nd2  1  0.497466  0.316270  0.901733  1
  Nd  Nd3  1  0.022694  0.179979  0.601412  1
  Nd  Nd4  1  0.001954  0.178237  0.901796  1
  Nd  Nd5  1  0.522495  0.317635  0.600647  1
  Nd  Nd6  1  0.497770  0.686982  0.100444  1
  Nd  Nd7  1  0.977114  0.817699  0.398970  1
  Y  Y8  1  0.670850  0.996007  0.245998  1
  Y  Y9  1  0.168118  0.505783  0.245360  1
  Y  Y10  1  0.831638  0.491469  0.750707  1
  Y  Y11  1  0.330025  0.005661  0.754069  1
  Y  Y12  1  0.646254  0.831311  0.880700  1
  Y  Y13  1  0.173294  0.677403  0.623653  1
  Y  Y14  1  0.849526  0.342288  0.114168  1
  Y  Y15  1  0.326371  0.178188  0.376825  1
  Y  Y16  1  0.352977  0.166784  0.120176  1
  Y  Y17  1  0.826832  0.322078  0.377320  1
  Y  Y18  1  0.145534  0.664814  0.884009  1
  Y  Y19  1  0.673581  0.820763  0.623704  1
  Si  Si20  1  0.784007  0.623088  0.250435  1
  Si  Si21  1  0.284601  0.876975  0.251430  1
  Si  Si22  1  0.715552  0.121463  0.750271  1
  Si  Si23  1  0.215893  0.377129  0.750373  1
  Si  Si24  1  0.044004  0.115309  0.249970  1
  Si  Si25  1  0.546356  0.388286  0.249714  1
  Si  Si26  1  0.454234  0.611242  0.751534  1
  Si  Si27  1  0.954963  0.885212  0.751523  1
  Si  Si28  1  0.357081  0.969612  0.541301  1
  Si  Si29  1  0.699664  0.039095  0.041897  1
  Si  Si30  1  0.144103  0.469472  0.459521  1
  Si  Si31  1  0.203093  0.464607  0.045002  1
  Si  Si32  1  0.643575  0.028747  0.458812  1
  Si  Si33  1  0.306171  0.962379  0.955969  1
  Si  Si34  1  0.857172  0.528085  0.541983  1
  S  S35  1  0.793064  0.531015  0.947202  1
