# generated using pymatgen
data_Y2GaSi13Ir6
_symmetry_space_group_name_H-M   'P 1'
_cell_length_a   8.03597450
_cell_length_b   8.03597279
_cell_length_c   8.03597418
_cell_angle_alpha   57.08170456
_cell_angle_beta   57.08170520
_cell_angle_gamma   57.08170341
_symmetry_Int_Tables_number   1
_chemical_formula_structural   Y2GaSi13Ir6
_chemical_formula_sum   'Y2 Ga1 Si13 Ir6'
_cell_volume   342.26324172
_cell_formula_units_Z   1
loop_
 _symmetry_equiv_pos_site_id
 _symmetry_equiv_pos_as_xyz
  1  'x, y, z'
loop_
 _atom_site_type_symbol
 _atom_site_label
 _atom_site_symmetry_multiplicity
 _atom_site_fract_x
 _atom_site_fract_y
 _atom_site_fract_z
 _atom_site_occupancy
  Y  Y0  1  0.999357  0.999357  0.999357  1
  Y  Y1  1  0.500643  0.500643  0.500643  1
  Ga  Ga2  1  0.750000  0.750000  0.750000  1
  Si  Si3  1  0.250000  0.250000  0.250000  1
  Si  Si4  1  0.850319  0.065768  0.670694  1
  Si  Si5  1  0.670694  0.850319  0.065768  1
  Si  Si6  1  0.065768  0.670694  0.850319  1
  Si  Si7  1  0.649681  0.829306  0.434232  1
  Si  Si8  1  0.434232  0.649681  0.829306  1
  Si  Si9  1  0.829306  0.434232  0.649681  1
  Si  Si10  1  0.171297  0.560760  0.354940  1
  Si  Si11  1  0.560760  0.354940  0.171297  1
  Si  Si12  1  0.354940  0.171297  0.560760  1
  Si  Si13  1  0.939240  0.328703  0.145060  1
  Si  Si14  1  0.328703  0.145060  0.939240  1
  Si  Si15  1  0.145060  0.939240  0.328703  1
  Ir  Ir16  1  0.082139  0.417861  0.750000  1
  Ir  Ir17  1  0.250000  0.928803  0.571197  1
  Ir  Ir18  1  0.571197  0.250000  0.928803  1
  Ir  Ir19  1  0.928803  0.571197  0.250000  1
  Ir  Ir20  1  0.417861  0.750000  0.082139  1
  Ir  Ir21  1  0.750000  0.082139  0.417861  1
