# generated using pymatgen
data_Pa(CoB)4
_symmetry_space_group_name_H-M   'P 1'
_cell_length_a   5.02717900
_cell_length_b   5.02717900
_cell_length_c   7.02276600
_cell_angle_alpha   90.00000000
_cell_angle_beta   90.00000000
_cell_angle_gamma   90.00000000
_symmetry_Int_Tables_number   1
_chemical_formula_structural   Pa(CoB)4
_chemical_formula_sum   'Pa2 Co8 B8'
_cell_volume   177.48305527
_cell_formula_units_Z   2
loop_
 _symmetry_equiv_pos_site_id
 _symmetry_equiv_pos_as_xyz
  1  'x, y, z'
loop_
 _atom_site_type_symbol
 _atom_site_label
 _atom_site_symmetry_multiplicity
 _atom_site_fract_x
 _atom_site_fract_y
 _atom_site_fract_z
 _atom_site_occupancy
  Pa  Pa0  1  0.000000  0.000000  0.000000  1
  Pa  Pa1  1  0.500000  0.500000  0.500000  1
  Co  Co2  1  0.248957  0.500000  0.861245  1
  Co  Co3  1  0.751043  0.500000  0.861245  1
  Co  Co4  1  0.000000  0.748957  0.361245  1
  Co  Co5  1  0.000000  0.251043  0.361245  1
  Co  Co6  1  0.251043  0.000000  0.638755  1
  Co  Co7  1  0.748957  0.000000  0.638755  1
  Co  Co8  1  0.500000  0.751043  0.138755  1
  Co  Co9  1  0.500000  0.248957  0.138755  1
  B  B10  1  0.827103  0.500000  0.157876  1
  B  B11  1  0.172897  0.500000  0.157876  1
  B  B12  1  0.000000  0.327103  0.657876  1
  B  B13  1  0.000000  0.672897  0.657876  1
  B  B14  1  0.672897  0.000000  0.342124  1
  B  B15  1  0.327103  0.000000  0.342124  1
  B  B16  1  0.500000  0.172897  0.842124  1
  B  B17  1  0.500000  0.827103  0.842124  1
