# generated using pymatgen
data_Tb3Al12CuRu3
_symmetry_space_group_name_H-M   'P 1'
_cell_length_a   8.82812795
_cell_length_b   8.82812734
_cell_length_c   9.47710200
_cell_angle_alpha   90.00000000
_cell_angle_beta   90.00000000
_cell_angle_gamma   119.50927827
_symmetry_Int_Tables_number   1
_chemical_formula_structural   Tb3Al12CuRu3
_chemical_formula_sum   'Tb6 Al24 Cu2 Ru6'
_cell_volume   642.79093157
_cell_formula_units_Z   2
loop_
 _symmetry_equiv_pos_site_id
 _symmetry_equiv_pos_as_xyz
  1  'x, y, z'
loop_
 _atom_site_type_symbol
 _atom_site_label
 _atom_site_symmetry_multiplicity
 _atom_site_fract_x
 _atom_site_fract_y
 _atom_site_fract_z
 _atom_site_occupancy
  Tb  Tb0  1  0.383469  0.188650  0.250000  1
  Tb  Tb1  1  0.806371  0.193629  0.250000  1
  Tb  Tb2  1  0.811350  0.616531  0.250000  1
  Tb  Tb3  1  0.616531  0.811350  0.750000  1
  Tb  Tb4  1  0.193629  0.806371  0.750000  1
  Tb  Tb5  1  0.188650  0.383469  0.750000  1
  Al  Al6  1  0.439801  0.878142  0.250000  1
  Al  Al7  1  0.121858  0.560199  0.250000  1
  Al  Al8  1  0.439028  0.560972  0.250000  1
  Al  Al9  1  0.560199  0.121858  0.750000  1
  Al  Al10  1  0.878142  0.439801  0.750000  1
  Al  Al11  1  0.560972  0.439028  0.750000  1
  Al  Al12  1  0.163591  0.836409  0.423068  1
  Al  Al13  1  0.157020  0.323913  0.422006  1
  Al  Al14  1  0.676087  0.842980  0.422006  1
  Al  Al15  1  0.836409  0.163591  0.576932  1
  Al  Al16  1  0.842980  0.676087  0.577994  1
  Al  Al17  1  0.323913  0.157020  0.577994  1
  Al  Al18  1  0.836409  0.163591  0.923068  1
  Al  Al19  1  0.842980  0.676087  0.922006  1
  Al  Al20  1  0.323913  0.157020  0.922006  1
  Al  Al21  1  0.163591  0.836409  0.076932  1
  Al  Al22  1  0.157020  0.323913  0.077994  1
  Al  Al23  1  0.676087  0.842980  0.077994  1
  Al  Al24  1  0.331932  0.668068  0.518739  1
  Al  Al25  1  0.668068  0.331932  0.481261  1
  Al  Al26  1  0.668068  0.331932  0.018739  1
  Al  Al27  1  0.331932  0.668068  0.981261  1
  Al  Al28  1  0.001764  0.998236  0.250000  1
  Al  Al29  1  0.998236  0.001764  0.750000  1
  Cu  Cu30  1  0.500000  0.500000  0.500000  1
  Cu  Cu31  1  0.500000  0.500000  0.000000  1
  Ru  Ru32  1  0.000000  0.000000  0.500000  1
  Ru  Ru33  1  0.000000  0.000000  0.000000  1
  Ru  Ru34  1  0.500000  0.000000  0.500000  1
  Ru  Ru35  1  0.000000  0.500000  0.500000  1
  Ru  Ru36  1  0.500000  0.000000  0.000000  1
  Ru  Ru37  1  0.000000  0.500000  0.000000  1
