# generated using pymatgen
data_TbYb12Dy7Sn16
_symmetry_space_group_name_H-M   'P 1'
_cell_length_a   7.83905103
_cell_length_b   8.43831302
_cell_length_c   16.05065505
_cell_angle_alpha   89.99512054
_cell_angle_beta   89.99283448
_cell_angle_gamma   89.99352314
_symmetry_Int_Tables_number   1
_chemical_formula_structural   TbYb12Dy7Sn16
_chemical_formula_sum   'Tb1 Yb12 Dy7 Sn16'
_cell_volume   1061.72459139
_cell_formula_units_Z   1
loop_
 _symmetry_equiv_pos_site_id
 _symmetry_equiv_pos_as_xyz
  1  'x, y, z'
loop_
 _atom_site_type_symbol
 _atom_site_label
 _atom_site_symmetry_multiplicity
 _atom_site_fract_x
 _atom_site_fract_y
 _atom_site_fract_z
 _atom_site_occupancy
  Tb  Tb0  1  0.672829  0.166009  0.621997  1
  Yb  Yb1  1  0.504988  0.688648  0.592757  1
  Yb  Yb2  1  0.005026  0.811305  0.907253  1
  Yb  Yb3  1  0.494993  0.311321  0.092757  1
  Yb  Yb4  1  0.995008  0.188685  0.407235  1
  Yb  Yb5  1  0.494952  0.311336  0.407209  1
  Yb  Yb6  1  0.994983  0.188681  0.092757  1
  Yb  Yb7  1  0.505011  0.688677  0.907253  1
  Yb  Yb8  1  0.005065  0.811287  0.592744  1
  Yb  Yb9  1  0.835526  0.512275  0.750033  1
  Yb  Yb10  1  0.335464  0.987734  0.750027  1
  Yb  Yb11  1  0.164501  0.487776  0.250004  1
  Yb  Yb12  1  0.664493  0.012212  0.249992  1
  Dy  Dy13  1  0.172821  0.334101  0.877999  1
  Dy  Dy14  1  0.327167  0.834071  0.122034  1
  Dy  Dy15  1  0.827159  0.665927  0.377944  1
  Dy  Dy16  1  0.327140  0.834066  0.377954  1
  Dy  Dy17  1  0.827163  0.665919  0.122032  1
  Dy  Dy18  1  0.672857  0.165905  0.878003  1
  Dy  Dy19  1  0.172848  0.334136  0.622007  1
  Sn  Sn20  1  0.671646  0.964119  0.459065  1
  Sn  Sn21  1  0.171703  0.535680  0.040770  1
  Sn  Sn22  1  0.328321  0.035670  0.959231  1
  Sn  Sn23  1  0.828565  0.464558  0.540688  1
  Sn  Sn24  1  0.328032  0.035573  0.540706  1
  Sn  Sn25  1  0.828290  0.464314  0.959235  1
  Sn  Sn26  1  0.671696  0.964316  0.040770  1
  Sn  Sn27  1  0.171717  0.535707  0.459220  1
  Sn  Sn28  1  0.471457  0.374884  0.750079  1
  Sn  Sn29  1  0.971788  0.125240  0.750125  1
  Sn  Sn30  1  0.528373  0.625285  0.250002  1
  Sn  Sn31  1  0.028375  0.874699  0.250005  1
  Sn  Sn32  1  0.717745  0.873348  0.750093  1
  Sn  Sn33  1  0.217650  0.626551  0.750015  1
  Sn  Sn34  1  0.282318  0.126524  0.250003  1
  Sn  Sn35  1  0.782330  0.373460  0.250001  1
