# generated using pymatgen
data_Nd20NiRh15
_symmetry_space_group_name_H-M   'P 1'
_cell_length_a   7.57030500
_cell_length_b   7.70735398
_cell_length_c   14.99400600
_cell_angle_alpha   90.00000000
_cell_angle_beta   90.00000000
_cell_angle_gamma   90.14353830
_symmetry_Int_Tables_number   1
_chemical_formula_structural   Nd20NiRh15
_chemical_formula_sum   'Nd20 Ni1 Rh15'
_cell_volume   874.85282873
_cell_formula_units_Z   1
loop_
 _symmetry_equiv_pos_site_id
 _symmetry_equiv_pos_as_xyz
  1  'x, y, z'
loop_
 _atom_site_type_symbol
 _atom_site_label
 _atom_site_symmetry_multiplicity
 _atom_site_fract_x
 _atom_site_fract_y
 _atom_site_fract_z
 _atom_site_occupancy
  Nd  Nd0  1  0.662709  0.168011  0.622113  1
  Nd  Nd1  1  0.161817  0.332724  0.878380  1
  Nd  Nd2  1  0.337241  0.831672  0.121967  1
  Nd  Nd3  1  0.836832  0.668684  0.378183  1
  Nd  Nd4  1  0.337241  0.831672  0.378033  1
  Nd  Nd5  1  0.836832  0.668684  0.121817  1
  Nd  Nd6  1  0.662709  0.168011  0.877887  1
  Nd  Nd7  1  0.161817  0.332724  0.621620  1
  Nd  Nd8  1  0.512573  0.683989  0.592284  1
  Nd  Nd9  1  0.013409  0.818398  0.906945  1
  Nd  Nd10  1  0.487555  0.319684  0.092928  1
  Nd  Nd11  1  0.987802  0.180682  0.406790  1
  Nd  Nd12  1  0.487555  0.319684  0.407072  1
  Nd  Nd13  1  0.987802  0.180682  0.093210  1
  Nd  Nd14  1  0.512573  0.683989  0.907716  1
  Nd  Nd15  1  0.013409  0.818398  0.593055  1
  Nd  Nd16  1  0.824210  0.511864  0.750000  1
  Nd  Nd17  1  0.321884  0.987364  0.750000  1
  Nd  Nd18  1  0.175076  0.488812  0.250000  1
  Nd  Nd19  1  0.675635  0.011444  0.250000  1
  Ni  Ni20  1  0.453184  0.401881  0.750000  1
  Rh  Rh21  1  0.676717  0.969753  0.459798  1
  Rh  Rh22  1  0.174973  0.530699  0.040885  1
  Rh  Rh23  1  0.323385  0.031611  0.958515  1
  Rh  Rh24  1  0.821681  0.469524  0.542157  1
  Rh  Rh25  1  0.323385  0.031611  0.541485  1
  Rh  Rh26  1  0.821681  0.469524  0.957843  1
  Rh  Rh27  1  0.676717  0.969753  0.040202  1
  Rh  Rh28  1  0.174973  0.530699  0.459115  1
  Rh  Rh29  1  0.956050  0.101364  0.750000  1
  Rh  Rh30  1  0.542415  0.599074  0.250000  1
  Rh  Rh31  1  0.042470  0.899983  0.250000  1
  Rh  Rh32  1  0.696129  0.854996  0.750000  1
  Rh  Rh33  1  0.215107  0.632358  0.750000  1
  Rh  Rh34  1  0.302650  0.144833  0.250000  1
  Rh  Rh35  1  0.801795  0.355164  0.250000  1
