# generated using pymatgen
data_Hf3TiNbGaSi2
_symmetry_space_group_name_H-M   'P 1'
_cell_length_a   7.84301656
_cell_length_b   7.84301796
_cell_length_c   5.33121329
_cell_angle_alpha   90.01876951
_cell_angle_beta   90.01877553
_cell_angle_gamma   120.21139982
_symmetry_Int_Tables_number   1
_chemical_formula_structural   Hf3TiNbGaSi2
_chemical_formula_sum   'Hf6 Ti2 Nb2 Ga2 Si4'
_cell_volume   283.39608978
_cell_formula_units_Z   2
loop_
 _symmetry_equiv_pos_site_id
 _symmetry_equiv_pos_as_xyz
  1  'x, y, z'
loop_
 _atom_site_type_symbol
 _atom_site_label
 _atom_site_symmetry_multiplicity
 _atom_site_fract_x
 _atom_site_fract_y
 _atom_site_fract_z
 _atom_site_occupancy
  Hf  Hf0  1  0.251889  0.998181  0.247613  1
  Hf  Hf1  1  0.748111  0.001819  0.752387  1
  Hf  Hf2  1  0.998181  0.251889  0.247613  1
  Hf  Hf3  1  0.001819  0.748111  0.752387  1
  Hf  Hf4  1  0.755865  0.755865  0.246502  1
  Hf  Hf5  1  0.244135  0.244135  0.753498  1
  Ti  Ti6  1  0.670564  0.329436  0.500000  1
  Ti  Ti7  1  0.329436  0.670564  0.500000  1
  Nb  Nb8  1  0.329106  0.670894  0.000000  1
  Nb  Nb9  1  0.670894  0.329106  0.000000  1
  Ga  Ga10  1  0.400065  0.400065  0.254663  1
  Ga  Ga11  1  0.599935  0.599935  0.745337  1
  Si  Si12  1  0.603897  0.997906  0.253373  1
  Si  Si13  1  0.396103  0.002094  0.746627  1
  Si  Si14  1  0.997906  0.603897  0.253373  1
  Si  Si15  1  0.002094  0.396103  0.746627  1
