# generated using pymatgen
data_Pr2Pa2(Al8Pt3)3
_symmetry_space_group_name_H-M   'P 1'
_cell_length_a   7.59396660
_cell_length_b   7.58771942
_cell_length_c   13.17604302
_cell_angle_alpha   84.50468373
_cell_angle_beta   101.05817446
_cell_angle_gamma   119.89992850
_symmetry_Int_Tables_number   1
_chemical_formula_structural   Pr2Pa2(Al8Pt3)3
_chemical_formula_sum   'Pr2 Pa2 Al24 Pt9'
_cell_volume   645.94160754
_cell_formula_units_Z   1
loop_
 _symmetry_equiv_pos_site_id
 _symmetry_equiv_pos_as_xyz
  1  'x, y, z'
loop_
 _atom_site_type_symbol
 _atom_site_label
 _atom_site_symmetry_multiplicity
 _atom_site_fract_x
 _atom_site_fract_y
 _atom_site_fract_z
 _atom_site_occupancy
  Pr  Pr0  1  0.768213  0.501734  0.809300  1
  Pr  Pr1  1  0.231787  0.498266  0.190700  1
  Pa  Pa2  1  0.435810  0.832019  0.803656  1
  Pa  Pa3  1  0.564190  0.167981  0.196344  1
  Al  Al4  1  0.480946  0.164534  0.946040  1
  Al  Al5  1  0.519054  0.835466  0.053960  1
  Al  Al6  1  0.021355  0.166925  0.560757  1
  Al  Al7  1  0.978645  0.833075  0.439243  1
  Al  Al8  1  0.351706  0.832361  0.557834  1
  Al  Al9  1  0.648294  0.167639  0.442166  1
  Al  Al10  1  0.619081  0.832703  0.332777  1
  Al  Al11  1  0.380919  0.167297  0.667223  1
  Al  Al12  1  0.053194  0.490331  0.667747  1
  Al  Al13  1  0.946806  0.509669  0.332253  1
  Al  Al14  1  0.732071  0.841517  0.666236  1
  Al  Al15  1  0.267929  0.158483  0.333764  1
  Al  Al16  1  0.149136  0.500417  0.943597  1
  Al  Al17  1  0.850864  0.499583  0.056403  1
  Al  Al18  1  0.816755  0.833854  0.953828  1
  Al  Al19  1  0.183245  0.166146  0.046172  1
  Al  Al20  1  0.314173  0.499788  0.441776  1
  Al  Al21  1  0.685827  0.500212  0.558224  1
  Al  Al22  1  0.102601  0.841588  0.183091  1
  Al  Al23  1  0.897399  0.158412  0.816909  1
  Al  Al24  1  0.303701  0.369578  0.815586  1
  Al  Al25  1  0.696299  0.630422  0.184414  1
  Al  Al26  1  0.108220  0.963051  0.816598  1
  Al  Al27  1  0.891780  0.036949  0.183402  1
  Pt  Pt28  1  0.386704  0.508899  0.638918  1
  Pt  Pt29  1  0.613296  0.491101  0.361082  1
  Pt  Pt30  1  0.170923  0.828431  0.999986  1
  Pt  Pt31  1  0.829077  0.171569  0.000014  1
  Pt  Pt32  1  0.296604  0.835118  0.361202  1
  Pt  Pt33  1  0.703396  0.164882  0.638798  1
  Pt  Pt34  1  0.047897  0.825916  0.638043  1
  Pt  Pt35  1  0.952103  0.174084  0.361957  1
  Pt  Pt36  1  0.500000  0.500000  0.000000  1
