# generated using pymatgen
data_AcNd(Ga3Pd)2
_symmetry_space_group_name_H-M   'P 1'
_cell_length_a   6.12330300
_cell_length_b   6.12330361
_cell_length_c   5.95169700
_cell_angle_alpha   90.00000000
_cell_angle_beta   90.00000000
_cell_angle_gamma   116.47446336
_symmetry_Int_Tables_number   1
_chemical_formula_structural   AcNd(Ga3Pd)2
_chemical_formula_sum   'Ac1 Nd1 Ga6 Pd2'
_cell_volume   199.75607406
_cell_formula_units_Z   1
loop_
 _symmetry_equiv_pos_site_id
 _symmetry_equiv_pos_as_xyz
  1  'x, y, z'
loop_
 _atom_site_type_symbol
 _atom_site_label
 _atom_site_symmetry_multiplicity
 _atom_site_fract_x
 _atom_site_fract_y
 _atom_site_fract_z
 _atom_site_occupancy
  Ac  Ac0  1  0.766552  0.233448  0.250000  1
  Nd  Nd1  1  0.232696  0.767304  0.750000  1
  Ga  Ga2  1  0.663194  0.336806  0.750000  1
  Ga  Ga3  1  0.335912  0.664088  0.250000  1
  Ga  Ga4  1  0.716395  0.715448  0.997013  1
  Ga  Ga5  1  0.716395  0.715448  0.502987  1
  Ga  Ga6  1  0.284552  0.283605  0.997013  1
  Ga  Ga7  1  0.284552  0.283605  0.502987  1
  Pd  Pd8  1  0.904440  0.095560  0.750000  1
  Pd  Pd9  1  0.095310  0.904690  0.250000  1
