# generated using pymatgen
data_LiEr16In(Co2Ag)2
_symmetry_space_group_name_H-M   'P 1'
_cell_length_a   9.39752913
_cell_length_b   9.36262825
_cell_length_c   9.36262924
_cell_angle_alpha   60.21569064
_cell_angle_beta   60.18464804
_cell_angle_gamma   60.18465074
_symmetry_Int_Tables_number   1
_chemical_formula_structural   LiEr16In(Co2Ag)2
_chemical_formula_sum   'Li1 Er16 In1 Co4 Ag2'
_cell_volume   585.06975645
_cell_formula_units_Z   1
loop_
 _symmetry_equiv_pos_site_id
 _symmetry_equiv_pos_as_xyz
  1  'x, y, z'
loop_
 _atom_site_type_symbol
 _atom_site_label
 _atom_site_symmetry_multiplicity
 _atom_site_fract_x
 _atom_site_fract_y
 _atom_site_fract_z
 _atom_site_occupancy
  Li  Li0  1  0.706563  0.434910  0.434910  1
  Er  Er1  1  0.062044  0.058269  0.438701  1
  Er  Er2  1  0.651886  0.038860  0.654400  1
  Er  Er3  1  0.190453  0.809727  0.188227  1
  Er  Er4  1  0.437395  0.058177  0.435358  1
  Er  Er5  1  0.190453  0.188227  0.809727  1
  Er  Er6  1  0.655953  0.655008  0.655008  1
  Er  Er7  1  0.047477  0.649713  0.649713  1
  Er  Er8  1  0.436743  0.061410  0.061410  1
  Er  Er9  1  0.651886  0.654400  0.038860  1
  Er  Er10  1  0.191878  0.809875  0.809875  1
  Er  Er11  1  0.815060  0.185661  0.814306  1
  Er  Er12  1  0.810804  0.188311  0.188311  1
  Er  Er13  1  0.815060  0.814306  0.185661  1
  Er  Er14  1  0.064258  0.435628  0.435628  1
  Er  Er15  1  0.437395  0.435358  0.058177  1
  Er  Er16  1  0.062044  0.438701  0.058269  1
  In  In17  1  0.421333  0.419705  0.419705  1
  Co  Co18  1  0.863957  0.856175  0.856175  1
  Co  Co19  1  0.424415  0.859354  0.859354  1
  Co  Co20  1  0.862672  0.859406  0.422972  1
  Co  Co21  1  0.862672  0.422972  0.859406  1
  Ag  Ag22  1  0.418800  0.416582  0.749264  1
  Ag  Ag23  1  0.418800  0.749264  0.416582  1
