# generated using pymatgen
data_TaTi3Nb4(GaC3)2
_symmetry_space_group_name_H-M   'P 1'
_cell_length_a   3.11769200
_cell_length_b   3.11769332
_cell_length_c   23.86958400
_cell_angle_alpha   90.00000000
_cell_angle_beta   90.00000000
_cell_angle_gamma   119.99998597
_symmetry_Int_Tables_number   1
_chemical_formula_structural   TaTi3Nb4(GaC3)2
_chemical_formula_sum   'Ta1 Ti3 Nb4 Ga2 C6'
_cell_volume   200.92877875
_cell_formula_units_Z   1
loop_
 _symmetry_equiv_pos_site_id
 _symmetry_equiv_pos_as_xyz
  1  'x, y, z'
loop_
 _atom_site_type_symbol
 _atom_site_label
 _atom_site_symmetry_multiplicity
 _atom_site_fract_x
 _atom_site_fract_y
 _atom_site_fract_z
 _atom_site_occupancy
  Ta  Ta0  1  0.333333  0.666667  0.447021  1
  Ti  Ti1  1  0.666667  0.333333  0.555239  1
  Ti  Ti2  1  0.666667  0.333333  0.948746  1
  Ti  Ti3  1  0.333333  0.666667  0.050911  1
  Nb  Nb4  1  0.000000  0.000000  0.340205  1
  Nb  Nb5  1  0.000000  0.000000  0.658733  1
  Nb  Nb6  1  0.000000  0.000000  0.844126  1
  Nb  Nb7  1  0.000000  0.000000  0.155632  1
  Ga  Ga8  1  0.333333  0.666667  0.247620  1
  Ga  Ga9  1  0.666667  0.333333  0.751335  1
  C  C10  1  0.000000  0.000000  0.501222  1
  C  C11  1  0.000000  0.000000  0.999910  1
  C  C12  1  0.666667  0.333333  0.392596  1
  C  C13  1  0.333333  0.666667  0.607072  1
  C  C14  1  0.333333  0.666667  0.894604  1
  C  C15  1  0.666667  0.333333  0.105027  1
