# generated using pymatgen
data_TaBe8GaFe2
_symmetry_space_group_name_H-M   'P 1'
_cell_length_a   4.29357400
_cell_length_b   4.29357336
_cell_length_c   7.09620700
_cell_angle_alpha   90.00000000
_cell_angle_beta   90.00000000
_cell_angle_gamma   119.99998949
_symmetry_Int_Tables_number   1
_chemical_formula_structural   TaBe8GaFe2
_chemical_formula_sum   'Ta1 Be8 Ga1 Fe2'
_cell_volume   113.29083917
_cell_formula_units_Z   1
loop_
 _symmetry_equiv_pos_site_id
 _symmetry_equiv_pos_as_xyz
  1  'x, y, z'
loop_
 _atom_site_type_symbol
 _atom_site_label
 _atom_site_symmetry_multiplicity
 _atom_site_fract_x
 _atom_site_fract_y
 _atom_site_fract_z
 _atom_site_occupancy
  Ta  Ta0  1  0.666667  0.333333  0.562763  1
  Be  Be1  1  0.000000  0.000000  0.000932  1
  Be  Be2  1  0.000000  0.000000  0.491256  1
  Be  Be3  1  0.830972  0.661946  0.244295  1
  Be  Be4  1  0.166555  0.833445  0.758299  1
  Be  Be5  1  0.666890  0.833445  0.758299  1
  Be  Be6  1  0.338054  0.169028  0.244295  1
  Be  Be7  1  0.830972  0.169028  0.244295  1
  Be  Be8  1  0.166555  0.333110  0.758299  1
  Ga  Ga9  1  0.333333  0.666667  0.061860  1
  Fe  Fe10  1  0.666667  0.333333  0.931133  1
  Fe  Fe11  1  0.333333  0.666667  0.444272  1
