# generated using pymatgen
data_Tb12InNi6
_symmetry_space_group_name_H-M   'P 1'
_cell_length_a   8.42864717
_cell_length_b   8.42360447
_cell_length_c   8.42360539
_cell_angle_alpha   109.52249007
_cell_angle_beta   109.42077374
_cell_angle_gamma   109.44620132
_symmetry_Int_Tables_number   1
_chemical_formula_structural   Tb12InNi6
_chemical_formula_sum   'Tb12 In1 Ni6'
_cell_volume   460.53358498
_cell_formula_units_Z   1
loop_
 _symmetry_equiv_pos_site_id
 _symmetry_equiv_pos_as_xyz
  1  'x, y, z'
loop_
 _atom_site_type_symbol
 _atom_site_label
 _atom_site_symmetry_multiplicity
 _atom_site_fract_x
 _atom_site_fract_y
 _atom_site_fract_z
 _atom_site_occupancy
  Tb  Tb0  1  0.813420  0.696468  0.509691  1
  Tb  Tb1  1  0.186891  0.303474  0.490457  1
  Tb  Tb2  1  0.186891  0.696433  0.883417  1
  Tb  Tb3  1  0.813420  0.303728  0.116952  1
  Tb  Tb4  1  0.695922  0.508970  0.812994  1
  Tb  Tb5  1  0.304115  0.490942  0.187412  1
  Tb  Tb6  1  0.695922  0.882928  0.186951  1
  Tb  Tb7  1  0.304115  0.116702  0.813172  1
  Tb  Tb8  1  0.509036  0.812852  0.696185  1
  Tb  Tb9  1  0.491474  0.187560  0.303914  1
  Tb  Tb10  1  0.115943  0.812864  0.303080  1
  Tb  Tb11  1  0.884379  0.187361  0.697018  1
  In  In12  1  0.999880  0.000017  0.999863  1
  Ni  Ni13  1  0.876752  0.376604  0.500149  1
  Ni  Ni14  1  0.123947  0.623925  0.500021  1
  Ni  Ni15  1  0.375106  0.498934  0.876172  1
  Ni  Ni16  1  0.624117  0.500245  0.123872  1
  Ni  Ni17  1  0.499336  0.876639  0.375980  1
  Ni  Ni18  1  0.499336  0.123356  0.622697  1
