# generated using pymatgen
data_NdCoCuO5
_symmetry_space_group_name_H-M   'P 1'
_cell_length_a   5.64502800
_cell_length_b   7.79039100
_cell_length_c   8.49592700
_cell_angle_alpha   90.00000000
_cell_angle_beta   90.00000000
_cell_angle_gamma   90.00000000
_symmetry_Int_Tables_number   1
_chemical_formula_structural   NdCoCuO5
_chemical_formula_sum   'Nd4 Co4 Cu4 O20'
_cell_volume   373.62517205
_cell_formula_units_Z   4
loop_
 _symmetry_equiv_pos_site_id
 _symmetry_equiv_pos_as_xyz
  1  'x, y, z'
loop_
 _atom_site_type_symbol
 _atom_site_label
 _atom_site_symmetry_multiplicity
 _atom_site_fract_x
 _atom_site_fract_y
 _atom_site_fract_z
 _atom_site_occupancy
  Nd  Nd0  1  0.000000  0.346349  0.674091  1
  Nd  Nd1  1  0.000000  0.653651  0.325909  1
  Nd  Nd2  1  0.000000  0.846349  0.825909  1
  Nd  Nd3  1  0.000000  0.153651  0.174091  1
  Co  Co4  1  0.260220  0.500000  0.000000  1
  Co  Co5  1  0.739780  0.000000  0.500000  1
  Co  Co6  1  0.739780  0.500000  0.000000  1
  Co  Co7  1  0.260220  0.000000  0.500000  1
  Cu  Cu8  1  0.500000  0.065659  0.845347  1
  Cu  Cu9  1  0.500000  0.934341  0.154653  1
  Cu  Cu10  1  0.500000  0.565659  0.654653  1
  Cu  Cu11  1  0.500000  0.434341  0.345347  1
  O  O12  1  0.247222  0.913249  0.292486  1
  O  O13  1  0.247222  0.086751  0.707514  1
  O  O14  1  0.752778  0.413249  0.207514  1
  O  O15  1  0.752778  0.586751  0.792486  1
  O  O16  1  0.752778  0.086751  0.707514  1
  O  O17  1  0.752778  0.913249  0.292486  1
  O  O18  1  0.247222  0.586751  0.792486  1
  O  O19  1  0.247222  0.413249  0.207514  1
  O  O20  1  0.500000  0.354587  0.942894  1
  O  O21  1  0.500000  0.645413  0.057106  1
  O  O22  1  0.500000  0.854587  0.557106  1
  O  O23  1  0.500000  0.145413  0.442894  1
  O  O24  1  0.277962  0.000000  0.000000  1
  O  O25  1  0.722038  0.500000  0.500000  1
  O  O26  1  0.722038  0.000000  0.000000  1
  O  O27  1  0.277962  0.500000  0.500000  1
  O  O28  1  0.000000  0.155230  0.451468  1
  O  O29  1  0.000000  0.844770  0.548532  1
  O  O30  1  0.000000  0.655230  0.048532  1
  O  O31  1  0.000000  0.344770  0.951468  1
