# generated using pymatgen
data_Ce4CdPt3PbAu
_symmetry_space_group_name_H-M   'P 1'
_cell_length_a   8.03453093
_cell_length_b   8.05756258
_cell_length_c   3.73225500
_cell_angle_alpha   90.00000000
_cell_angle_beta   90.00000000
_cell_angle_gamma   90.31587007
_symmetry_Int_Tables_number   1
_chemical_formula_structural   Ce4CdPt3PbAu
_chemical_formula_sum   'Ce4 Cd1 Pt3 Pb1 Au1'
_cell_volume   241.61779848
_cell_formula_units_Z   1
loop_
 _symmetry_equiv_pos_site_id
 _symmetry_equiv_pos_as_xyz
  1  'x, y, z'
loop_
 _atom_site_type_symbol
 _atom_site_label
 _atom_site_symmetry_multiplicity
 _atom_site_fract_x
 _atom_site_fract_y
 _atom_site_fract_z
 _atom_site_occupancy
  Ce  Ce0  1  0.172347  0.323686  0.500000  1
  Ce  Ce1  1  0.315966  0.833333  0.500000  1
  Ce  Ce2  1  0.840080  0.661661  0.500000  1
  Ce  Ce3  1  0.669747  0.182793  0.500000  1
  Cd  Cd4  1  0.997429  0.001313  0.000000  1
  Pt  Pt5  1  0.126290  0.631975  0.000000  1
  Pt  Pt6  1  0.877879  0.364559  0.000000  1
  Pt  Pt7  1  0.368184  0.121994  0.000000  1
  Pb  Pb8  1  0.497673  0.502551  0.000000  1
  Au  Au9  1  0.634403  0.876136  0.000000  1
