# generated using pymatgen
data_NdPIrPtAu
_symmetry_space_group_name_H-M   'P 1'
_cell_length_a   4.03084900
_cell_length_b   4.03084900
_cell_length_c   11.35272500
_cell_angle_alpha   90.00000000
_cell_angle_beta   90.00000000
_cell_angle_gamma   90.00000000
_symmetry_Int_Tables_number   1
_chemical_formula_structural   NdPIrPtAu
_chemical_formula_sum   'Nd2 P2 Ir2 Pt2 Au2'
_cell_volume   184.45616565
_cell_formula_units_Z   2
loop_
 _symmetry_equiv_pos_site_id
 _symmetry_equiv_pos_as_xyz
  1  'x, y, z'
loop_
 _atom_site_type_symbol
 _atom_site_label
 _atom_site_symmetry_multiplicity
 _atom_site_fract_x
 _atom_site_fract_y
 _atom_site_fract_z
 _atom_site_occupancy
  Nd  Nd0  1  0.000000  0.500000  0.236820  1
  Nd  Nd1  1  0.500000  0.000000  0.763180  1
  P  P2  1  0.000000  0.500000  0.882003  1
  P  P3  1  0.500000  0.000000  0.117997  1
  Ir  Ir4  1  0.000000  0.000000  0.000000  1
  Ir  Ir5  1  0.500000  0.500000  0.000000  1
  Pt  Pt6  1  0.000000  0.500000  0.679492  1
  Pt  Pt7  1  0.500000  0.000000  0.320508  1
  Au  Au8  1  0.000000  0.000000  0.500000  1
  Au  Au9  1  0.500000  0.500000  0.500000  1
