# generated using pymatgen
data_Sc5Ta(ZnRh2)6
_symmetry_space_group_name_H-M   'P 1'
_cell_length_a   4.43608913
_cell_length_b   6.22724119
_cell_length_c   13.26149201
_cell_angle_alpha   89.99679593
_cell_angle_beta   89.99749876
_cell_angle_gamma   90.02821052
_symmetry_Int_Tables_number   1
_chemical_formula_structural   Sc5Ta(ZnRh2)6
_chemical_formula_sum   'Sc5 Ta1 Zn6 Rh12'
_cell_volume   366.34332692
_cell_formula_units_Z   1
loop_
 _symmetry_equiv_pos_site_id
 _symmetry_equiv_pos_as_xyz
  1  'x, y, z'
loop_
 _atom_site_type_symbol
 _atom_site_label
 _atom_site_symmetry_multiplicity
 _atom_site_fract_x
 _atom_site_fract_y
 _atom_site_fract_z
 _atom_site_occupancy
  Sc  Sc0  1  0.000010  0.000203  0.000627  1
  Sc  Sc1  1  0.499957  0.499809  0.167140  1
  Sc  Sc2  1  0.999935  0.000161  0.333314  1
  Sc  Sc3  1  0.500009  0.499809  0.499548  1
  Sc  Sc4  1  0.000036  0.000204  0.666029  1
  Ta  Ta5  1  0.500040  0.500073  0.833334  1
  Zn  Zn6  1  0.000009  0.500007  0.002816  1
  Zn  Zn7  1  0.499959  0.999986  0.166349  1
  Zn  Zn8  1  0.999952  0.500010  0.333347  1
  Zn  Zn9  1  0.500001  0.999984  0.500318  1
  Zn  Zn10  1  0.000039  0.500009  0.663826  1
  Zn  Zn11  1  0.500046  0.999940  0.833350  1
  Rh  Rh12  1  0.500076  0.253557  0.995274  1
  Rh  Rh13  1  0.499958  0.746389  0.995284  1
  Rh  Rh14  1  0.000049  0.248948  0.165942  1
  Rh  Rh15  1  0.999893  0.750996  0.165935  1
  Rh  Rh16  1  0.499645  0.250471  0.333354  1
  Rh  Rh17  1  0.500256  0.749576  0.333345  1
  Rh  Rh18  1  0.000097  0.248929  0.500694  1
  Rh  Rh19  1  0.999914  0.751029  0.500691  1
  Rh  Rh20  1  0.500088  0.253574  0.671454  1
  Rh  Rh21  1  0.499965  0.746401  0.671425  1
  Rh  Rh22  1  0.000055  0.258988  0.833302  1
  Rh  Rh23  1  0.000008  0.740947  0.833304  1
