# generated using pymatgen
data_LiPr16Cd3(IrRu)2
_symmetry_space_group_name_H-M   'P 1'
_cell_length_a   10.01601643
_cell_length_b   10.01601579
_cell_length_c   10.02220520
_cell_angle_alpha   59.93540264
_cell_angle_beta   59.93540619
_cell_angle_gamma   59.86406506
_symmetry_Int_Tables_number   1
_chemical_formula_structural   LiPr16Cd3(IrRu)2
_chemical_formula_sum   'Li1 Pr16 Cd3 Ir2 Ru2'
_cell_volume   709.52274712
_cell_formula_units_Z   1
loop_
 _symmetry_equiv_pos_site_id
 _symmetry_equiv_pos_as_xyz
  1  'x, y, z'
loop_
 _atom_site_type_symbol
 _atom_site_label
 _atom_site_symmetry_multiplicity
 _atom_site_fract_x
 _atom_site_fract_y
 _atom_site_fract_z
 _atom_site_occupancy
  Li  Li0  1  0.570428  0.570428  0.570301  1
  Pr  Pr1  1  0.347155  0.347155  0.349079  1
  Pr  Pr2  1  0.345927  0.345927  0.960348  1
  Pr  Pr3  1  0.344328  0.961759  0.346081  1
  Pr  Pr4  1  0.961759  0.344328  0.346081  1
  Pr  Pr5  1  0.811039  0.191807  0.191257  1
  Pr  Pr6  1  0.189168  0.813659  0.810011  1
  Pr  Pr7  1  0.191807  0.811039  0.191257  1
  Pr  Pr8  1  0.813659  0.189168  0.810011  1
  Pr  Pr9  1  0.191221  0.191221  0.809428  1
  Pr  Pr10  1  0.811281  0.811281  0.189644  1
  Pr  Pr11  1  0.937564  0.561687  0.562622  1
  Pr  Pr12  1  0.561272  0.938530  0.938820  1
  Pr  Pr13  1  0.561687  0.937564  0.562622  1
  Pr  Pr14  1  0.938530  0.561272  0.938820  1
  Pr  Pr15  1  0.562079  0.562079  0.938497  1
  Pr  Pr16  1  0.938320  0.938320  0.562469  1
  Cd  Cd17  1  0.580793  0.580793  0.260087  1
  Cd  Cd18  1  0.580496  0.259802  0.580943  1
  Cd  Cd19  1  0.259802  0.580496  0.580943  1
  Ir  Ir20  1  0.142355  0.578424  0.140690  1
  Ir  Ir21  1  0.578424  0.142355  0.140690  1
  Ru  Ru22  1  0.140418  0.140418  0.136530  1
  Ru  Ru23  1  0.140487  0.140487  0.582768  1
