# generated using pymatgen
data_Ba2U3PaSe10
_symmetry_space_group_name_H-M   'P 1'
_cell_length_a   7.98269500
_cell_length_b   8.80969700
_cell_length_c   12.47586600
_cell_angle_alpha   89.58061054
_cell_angle_beta   90.00000000
_cell_angle_gamma   90.00000000
_symmetry_Int_Tables_number   1
_chemical_formula_structural   Ba2U3PaSe10
_chemical_formula_sum   'Ba4 U6 Pa2 Se20'
_cell_volume   877.34332239
_cell_formula_units_Z   2
loop_
 _symmetry_equiv_pos_site_id
 _symmetry_equiv_pos_as_xyz
  1  'x, y, z'
loop_
 _atom_site_type_symbol
 _atom_site_label
 _atom_site_symmetry_multiplicity
 _atom_site_fract_x
 _atom_site_fract_y
 _atom_site_fract_z
 _atom_site_occupancy
  Ba  Ba0  1  0.055211  0.492884  0.331074  1
  Ba  Ba1  1  0.555211  0.507116  0.168926  1
  Ba  Ba2  1  0.946309  0.507952  0.668465  1
  Ba  Ba3  1  0.446309  0.492048  0.831535  1
  U  U4  1  0.974429  0.000874  0.683988  1
  U  U5  1  0.474429  0.999126  0.816012  1
  U  U6  1  0.068408  0.756386  0.005760  1
  U  U7  1  0.568408  0.243614  0.494240  1
  U  U8  1  0.932498  0.243671  0.992293  1
  U  U9  1  0.432498  0.756329  0.507707  1
  Pa  Pa10  1  0.023138  0.998054  0.320029  1
  Pa  Pa11  1  0.523138  0.001946  0.179971  1
  Se  Se12  1  0.662972  0.956517  0.397376  1
  Se  Se13  1  0.162972  0.043483  0.102624  1
  Se  Se14  1  0.335815  0.043564  0.597622  1
  Se  Se15  1  0.835815  0.956436  0.902378  1
  Se  Se16  1  0.452391  0.794056  0.004341  1
  Se  Se17  1  0.952391  0.205944  0.495659  1
  Se  Se18  1  0.547686  0.207047  0.001357  1
  Se  Se19  1  0.047686  0.792953  0.498643  1
  Se  Se20  1  0.839162  0.786020  0.188175  1
  Se  Se21  1  0.339162  0.213980  0.311825  1
  Se  Se22  1  0.161569  0.216394  0.812372  1
  Se  Se23  1  0.661569  0.783606  0.687628  1
  Se  Se24  1  0.311865  0.778346  0.285079  1
  Se  Se25  1  0.811865  0.221654  0.214921  1
  Se  Se26  1  0.688843  0.225925  0.715679  1
  Se  Se27  1  0.188843  0.774075  0.784321  1
  Se  Se28  1  0.176873  0.462817  0.073954  1
  Se  Se29  1  0.676873  0.537183  0.426046  1
  Se  Se30  1  0.822831  0.537547  0.928155  1
  Se  Se31  1  0.322831  0.462453  0.571845  1
