# generated using pymatgen
data_Pr16MgCd2AgPt4
_symmetry_space_group_name_H-M   'P 1'
_cell_length_a   10.09601219
_cell_length_b   10.09601215
_cell_length_c   10.07403888
_cell_angle_alpha   60.12708497
_cell_angle_beta   60.12708082
_cell_angle_gamma   60.13358956
_symmetry_Int_Tables_number   1
_chemical_formula_structural   Pr16MgCd2AgPt4
_chemical_formula_sum   'Pr16 Mg1 Cd2 Ag1 Pt4'
_cell_volume   728.21251027
_cell_formula_units_Z   1
loop_
 _symmetry_equiv_pos_site_id
 _symmetry_equiv_pos_as_xyz
  1  'x, y, z'
loop_
 _atom_site_type_symbol
 _atom_site_label
 _atom_site_symmetry_multiplicity
 _atom_site_fract_x
 _atom_site_fract_y
 _atom_site_fract_z
 _atom_site_occupancy
  Pr  Pr0  1  0.348278  0.348278  0.349366  1
  Pr  Pr1  1  0.352353  0.352353  0.944123  1
  Pr  Pr2  1  0.351141  0.947333  0.351758  1
  Pr  Pr3  1  0.947333  0.351141  0.351758  1
  Pr  Pr4  1  0.811086  0.191389  0.189817  1
  Pr  Pr5  1  0.190584  0.808074  0.807802  1
  Pr  Pr6  1  0.191389  0.811086  0.189817  1
  Pr  Pr7  1  0.808074  0.190584  0.807802  1
  Pr  Pr8  1  0.192106  0.192106  0.809612  1
  Pr  Pr9  1  0.809958  0.809958  0.188024  1
  Pr  Pr10  1  0.936807  0.563520  0.562564  1
  Pr  Pr11  1  0.561135  0.936281  0.935641  1
  Pr  Pr12  1  0.563520  0.936807  0.562564  1
  Pr  Pr13  1  0.936281  0.561135  0.935641  1
  Pr  Pr14  1  0.563410  0.563410  0.935981  1
  Pr  Pr15  1  0.936362  0.936362  0.560145  1
  Mg  Mg16  1  0.575856  0.575856  0.276074  1
  Cd  Cd17  1  0.581994  0.257736  0.580913  1
  Cd  Cd18  1  0.257736  0.581994  0.580913  1
  Ag  Ag19  1  0.583918  0.583918  0.580734  1
  Pt  Pt20  1  0.144754  0.144754  0.143677  1
  Pt  Pt21  1  0.142652  0.142652  0.570856  1
  Pt  Pt22  1  0.142701  0.570566  0.142206  1
  Pt  Pt23  1  0.570566  0.142701  0.142206  1
