# generated using pymatgen
data_Sc5CrB4(Ir4Ru)2
_symmetry_space_group_name_H-M   'P 1'
_cell_length_a   3.02900400
_cell_length_b   9.53723900
_cell_length_c   9.53723900
_cell_angle_alpha   90.00000000
_cell_angle_beta   90.00000000
_cell_angle_gamma   90.00000000
_symmetry_Int_Tables_number   1
_chemical_formula_structural   Sc5CrB4(Ir4Ru)2
_chemical_formula_sum   'Sc5 Cr1 B4 Ir8 Ru2'
_cell_volume   275.51495597
_cell_formula_units_Z   1
loop_
 _symmetry_equiv_pos_site_id
 _symmetry_equiv_pos_as_xyz
  1  'x, y, z'
loop_
 _atom_site_type_symbol
 _atom_site_label
 _atom_site_symmetry_multiplicity
 _atom_site_fract_x
 _atom_site_fract_y
 _atom_site_fract_z
 _atom_site_occupancy
  Sc  Sc0  1  0.000000  0.173587  0.674536  1
  Sc  Sc1  1  0.000000  0.826413  0.325464  1
  Sc  Sc2  1  0.000000  0.325464  0.173587  1
  Sc  Sc3  1  0.000000  0.674536  0.826413  1
  Sc  Sc4  1  0.000000  0.500000  0.500000  1
  Cr  Cr5  1  0.000000  0.000000  0.000000  1
  B  B6  1  0.000000  0.622127  0.119826  1
  B  B7  1  0.000000  0.377873  0.880174  1
  B  B8  1  0.000000  0.880174  0.622127  1
  B  B9  1  0.000000  0.119826  0.377873  1
  Ir  Ir10  1  0.500000  0.067913  0.214207  1
  Ir  Ir11  1  0.500000  0.932087  0.785793  1
  Ir  Ir12  1  0.500000  0.785793  0.067913  1
  Ir  Ir13  1  0.500000  0.424160  0.722383  1
  Ir  Ir14  1  0.500000  0.214207  0.932087  1
  Ir  Ir15  1  0.500000  0.575840  0.277617  1
  Ir  Ir16  1  0.500000  0.722383  0.575840  1
  Ir  Ir17  1  0.500000  0.277617  0.424160  1
  Ru  Ru18  1  0.500000  0.000000  0.500000  1
  Ru  Ru19  1  0.500000  0.500000  0.000000  1
