# generated using pymatgen
data_Tb3Cd2SnRh3
_symmetry_space_group_name_H-M   'P 1'
_cell_length_a   7.50638101
_cell_length_b   7.50638194
_cell_length_c   3.97010700
_cell_angle_alpha   90.00000000
_cell_angle_beta   90.00000000
_cell_angle_gamma   119.70420472
_symmetry_Int_Tables_number   1
_chemical_formula_structural   Tb3Cd2SnRh3
_chemical_formula_sum   'Tb3 Cd2 Sn1 Rh3'
_cell_volume   194.30361286
_cell_formula_units_Z   1
loop_
 _symmetry_equiv_pos_site_id
 _symmetry_equiv_pos_as_xyz
  1  'x, y, z'
loop_
 _atom_site_type_symbol
 _atom_site_label
 _atom_site_symmetry_multiplicity
 _atom_site_fract_x
 _atom_site_fract_y
 _atom_site_fract_z
 _atom_site_occupancy
  Tb  Tb0  1  0.404720  0.002376  0.500000  1
  Tb  Tb1  1  0.002376  0.404720  0.500000  1
  Tb  Tb2  1  0.590794  0.590794  0.500000  1
  Cd  Cd3  1  0.741032  0.994368  0.000000  1
  Cd  Cd4  1  0.994368  0.741032  0.000000  1
  Sn  Sn5  1  0.259428  0.259428  0.000000  1
  Rh  Rh6  1  0.327998  0.656383  0.000000  1
  Rh  Rh7  1  0.656383  0.327998  0.000000  1
  Rh  Rh8  1  0.022901  0.022901  0.500000  1
