# generated using pymatgen
data_Yb3Sm(Si5Pt3)2
_symmetry_space_group_name_H-M   'P 1'
_cell_length_a   8.24447318
_cell_length_b   8.25526555
_cell_length_c   8.25526592
_cell_angle_alpha   137.98655535
_cell_angle_beta   104.36891936
_cell_angle_gamma   90.52622453
_symmetry_Int_Tables_number   1
_chemical_formula_structural   Yb3Sm(Si5Pt3)2
_chemical_formula_sum   'Yb3 Sm1 Si10 Pt6'
_cell_volume   347.67601066
_cell_formula_units_Z   1
loop_
 _symmetry_equiv_pos_site_id
 _symmetry_equiv_pos_as_xyz
  1  'x, y, z'
loop_
 _atom_site_type_symbol
 _atom_site_label
 _atom_site_symmetry_multiplicity
 _atom_site_fract_x
 _atom_site_fract_y
 _atom_site_fract_z
 _atom_site_occupancy
  Yb  Yb0  1  0.637119  0.369432  0.267687  1
  Yb  Yb1  1  0.362567  0.629667  0.732900  1
  Yb  Yb2  1  0.104182  0.871263  0.232919  1
  Sm  Sm3  1  0.898032  0.129728  0.768303  1
  Si  Si4  1  0.272615  0.522520  0.251741  1
  Si  Si5  1  0.726915  0.477310  0.747797  1
  Si  Si6  1  0.726915  0.979118  0.249605  1
  Si  Si7  1  0.272615  0.020874  0.750094  1
  Si  Si8  1  0.459356  0.111513  0.347843  1
  Si  Si9  1  0.539488  0.887703  0.651785  1
  Si  Si10  1  0.761186  0.611078  0.150108  1
  Si  Si11  1  0.238157  0.389267  0.848890  1
  Si  Si12  1  0.001025  0.251483  0.251833  1
  Si  Si13  1  0.001025  0.749192  0.749542  1
  Pt  Pt14  1  0.250770  0.136433  0.114337  1
  Pt  Pt15  1  0.749685  0.863796  0.885889  1
  Pt  Pt16  1  0.020956  0.636712  0.384244  1
  Pt  Pt17  1  0.978473  0.363674  0.614799  1
  Pt  Pt18  1  0.499460  0.248330  0.748553  1
  Pt  Pt19  1  0.499460  0.750907  0.251130  1
