# generated using pymatgen
data_RbCu(AuSe)2
_symmetry_space_group_name_H-M   'P 1'
_cell_length_a   6.37527100
_cell_length_b   5.67770403
_cell_length_c   6.13094986
_cell_angle_alpha   88.40152759
_cell_angle_beta   90.00000000
_cell_angle_gamma   124.15478158
_symmetry_Int_Tables_number   1
_chemical_formula_structural   RbCu(AuSe)2
_chemical_formula_sum   'Rb1 Cu1 Au2 Se2'
_cell_volume   183.54089147
_cell_formula_units_Z   1
loop_
 _symmetry_equiv_pos_site_id
 _symmetry_equiv_pos_as_xyz
  1  'x, y, z'
loop_
 _atom_site_type_symbol
 _atom_site_label
 _atom_site_symmetry_multiplicity
 _atom_site_fract_x
 _atom_site_fract_y
 _atom_site_fract_z
 _atom_site_occupancy
  Rb  Rb0  1  0.000000  0.000000  0.500000  1
  Cu  Cu1  1  0.500000  0.000000  0.000000  1
  Au  Au2  1  0.000000  0.500000  0.000000  1
  Au  Au3  1  0.500000  0.500000  0.000000  1
  Se  Se4  1  0.342953  0.685908  0.717554  1
  Se  Se5  1  0.657047  0.314092  0.282446  1
