# generated using pymatgen
data_CeCr3(NiH6)2
_symmetry_space_group_name_H-M   'P 1'
_cell_length_a   5.69610563
_cell_length_b   5.66865000
_cell_length_c   4.35457600
_cell_angle_alpha   90.00000000
_cell_angle_beta   90.00000000
_cell_angle_gamma   119.99634681
_symmetry_Int_Tables_number   1
_chemical_formula_structural   CeCr3(NiH6)2
_chemical_formula_sum   'Ce1 Cr3 Ni2 H12'
_cell_volume   121.77276569
_cell_formula_units_Z   1
loop_
 _symmetry_equiv_pos_site_id
 _symmetry_equiv_pos_as_xyz
  1  'x, y, z'
loop_
 _atom_site_type_symbol
 _atom_site_label
 _atom_site_symmetry_multiplicity
 _atom_site_fract_x
 _atom_site_fract_y
 _atom_site_fract_z
 _atom_site_occupancy
  Ce  Ce0  1  0.000000  0.000000  0.000000  1
  Cr  Cr1  1  0.500000  0.000000  0.500000  1
  Cr  Cr2  1  0.000000  0.500000  0.500000  1
  Cr  Cr3  1  0.500000  0.500000  0.500000  1
  Ni  Ni4  1  0.667177  0.333541  0.000000  1
  Ni  Ni5  1  0.332823  0.666459  0.000000  1
  H  H6  1  0.792189  0.584848  0.731906  1
  H  H7  1  0.207811  0.415152  0.268094  1
  H  H8  1  0.207518  0.792555  0.266664  1
  H  H9  1  0.792482  0.207445  0.266664  1
  H  H10  1  0.585135  0.792510  0.265452  1
  H  H11  1  0.414865  0.207490  0.265452  1
  H  H12  1  0.414865  0.207490  0.734548  1
  H  H13  1  0.207811  0.415152  0.731906  1
  H  H14  1  0.792482  0.207445  0.733336  1
  H  H15  1  0.585135  0.792510  0.734548  1
  H  H16  1  0.792189  0.584848  0.268094  1
  H  H17  1  0.207518  0.792555  0.733336  1
