# generated using pymatgen
data_Hf6Mn5FeSi11As
_symmetry_space_group_name_H-M   'P 1'
_cell_length_a   9.76712215
_cell_length_b   9.77910118
_cell_length_c   9.77695598
_cell_angle_alpha   149.71110897
_cell_angle_beta   132.66239964
_cell_angle_gamma   57.28162241
_symmetry_Int_Tables_number   1
_chemical_formula_structural   Hf6Mn5FeSi11As
_chemical_formula_sum   'Hf6 Mn5 Fe1 Si11 As1'
_cell_volume   343.82558608
_cell_formula_units_Z   1
loop_
 _symmetry_equiv_pos_site_id
 _symmetry_equiv_pos_as_xyz
  1  'x, y, z'
loop_
 _atom_site_type_symbol
 _atom_site_label
 _atom_site_symmetry_multiplicity
 _atom_site_fract_x
 _atom_site_fract_y
 _atom_site_fract_z
 _atom_site_occupancy
  Hf  Hf0  1  0.852319  0.596300  0.259262  1
  Hf  Hf1  1  0.145116  0.404361  0.737696  1
  Hf  Hf2  1  0.666845  0.404655  0.261347  1
  Hf  Hf3  1  0.336025  0.595589  0.740832  1
  Hf  Hf4  1  0.140772  0.140544  0.997918  1
  Hf  Hf5  1  0.859280  0.861206  0.000267  1
  Mn  Mn6  1  0.747883  0.001068  0.745779  1
  Mn  Mn7  1  0.998355  0.002043  0.501465  1
  Mn  Mn8  1  0.501438  0.502109  0.501253  1
  Mn  Mn9  1  0.502041  0.000329  0.999593  1
  Mn  Mn10  1  0.250217  0.997686  0.252751  1
  Fe  Fe11  1  0.997744  0.497641  0.996520  1
  Si  Si12  1  0.512663  0.862882  0.648260  1
  Si  Si13  1  0.210796  0.860549  0.348515  1
  Si  Si14  1  0.790377  0.138381  0.654513  1
  Si  Si15  1  0.707743  0.702121  0.003385  1
  Si  Si16  1  0.297227  0.299692  0.000127  1
  Si  Si17  1  0.497696  0.736205  0.241751  1
  Si  Si18  1  0.497566  0.255412  0.760967  1
  Si  Si19  1  0.000533  0.255599  0.254359  1
  Si  Si20  1  0.210616  0.710109  0.497687  1
  Si  Si21  1  0.000584  0.746008  0.744959  1
  Si  Si22  1  0.793141  0.293552  0.503571  1
  As  As23  1  0.483023  0.135957  0.347224  1
