# generated using pymatgen
data_YbCe(ZnIr)2
_symmetry_space_group_name_H-M   'P 1'
_cell_length_a   4.00802200
_cell_length_b   7.05585459
_cell_length_c   8.21407323
_cell_angle_alpha   90.21470494
_cell_angle_beta   90.00000000
_cell_angle_gamma   90.00000000
_symmetry_Int_Tables_number   1
_chemical_formula_structural   YbCe(ZnIr)2
_chemical_formula_sum   'Yb2 Ce2 Zn4 Ir4'
_cell_volume   232.29252753
_cell_formula_units_Z   2
loop_
 _symmetry_equiv_pos_site_id
 _symmetry_equiv_pos_as_xyz
  1  'x, y, z'
loop_
 _atom_site_type_symbol
 _atom_site_label
 _atom_site_symmetry_multiplicity
 _atom_site_fract_x
 _atom_site_fract_y
 _atom_site_fract_z
 _atom_site_occupancy
  Yb  Yb0  1  0.750000  0.964389  0.679548  1
  Yb  Yb1  1  0.250000  0.035423  0.320361  1
  Ce  Ce2  1  0.250000  0.531845  0.189050  1
  Ce  Ce3  1  0.750000  0.468188  0.810945  1
  Zn  Zn4  1  0.250000  0.648325  0.559527  1
  Zn  Zn5  1  0.750000  0.351484  0.440504  1
  Zn  Zn6  1  0.750000  0.874764  0.064503  1
  Zn  Zn7  1  0.250000  0.125564  0.935537  1
  Ir  Ir8  1  0.250000  0.746060  0.877927  1
  Ir  Ir9  1  0.750000  0.254287  0.122257  1
  Ir  Ir10  1  0.750000  0.728706  0.361196  1
  Ir  Ir11  1  0.250000  0.270965  0.638644  1
