# generated using pymatgen
data_PrNdSn6(BRh6)2
_symmetry_space_group_name_H-M   'P 1'
_cell_length_a   5.79991000
_cell_length_b   5.79990915
_cell_length_c   13.65155400
_cell_angle_alpha   90.00000000
_cell_angle_beta   90.00000000
_cell_angle_gamma   119.99999342
_symmetry_Int_Tables_number   1
_chemical_formula_structural   PrNdSn6(BRh6)2
_chemical_formula_sum   'Pr1 Nd1 Sn6 B2 Rh12'
_cell_volume   397.69963956
_cell_formula_units_Z   1
loop_
 _symmetry_equiv_pos_site_id
 _symmetry_equiv_pos_as_xyz
  1  'x, y, z'
loop_
 _atom_site_type_symbol
 _atom_site_label
 _atom_site_symmetry_multiplicity
 _atom_site_fract_x
 _atom_site_fract_y
 _atom_site_fract_z
 _atom_site_occupancy
  Pr  Pr0  1  0.666667  0.333333  0.893756  1
  Nd  Nd1  1  0.333333  0.666667  0.394783  1
  Sn  Sn2  1  0.000000  0.000000  0.752103  1
  Sn  Sn3  1  0.000000  0.000000  0.252306  1
  Sn  Sn4  1  0.333333  0.666667  0.754502  1
  Sn  Sn5  1  0.666667  0.333333  0.254608  1
  Sn  Sn6  1  0.666667  0.333333  0.574880  1
  Sn  Sn7  1  0.333333  0.666667  0.074985  1
  B  B8  1  0.000000  0.000000  0.504563  1
  B  B9  1  0.000000  0.000000  0.004715  1
  Rh  Rh10  1  0.334692  0.167347  0.411228  1
  Rh  Rh11  1  0.832653  0.167347  0.411228  1
  Rh  Rh12  1  0.832653  0.665308  0.411228  1
  Rh  Rh13  1  0.167333  0.334665  0.911263  1
  Rh  Rh14  1  0.660660  0.830330  0.595150  1
  Rh  Rh15  1  0.665335  0.832667  0.911263  1
  Rh  Rh16  1  0.339204  0.169602  0.095292  1
  Rh  Rh17  1  0.169670  0.339340  0.595150  1
  Rh  Rh18  1  0.169670  0.830330  0.595150  1
  Rh  Rh19  1  0.830398  0.169602  0.095292  1
  Rh  Rh20  1  0.830398  0.660796  0.095292  1
  Rh  Rh21  1  0.167333  0.832667  0.911263  1
