# generated using pymatgen
data_Lu12Fe3BiAu
_symmetry_space_group_name_H-M   'P 1'
_cell_length_a   8.13072241
_cell_length_b   8.13144406
_cell_length_c   8.13072239
_cell_angle_alpha   110.34485182
_cell_angle_beta   107.60126080
_cell_angle_gamma   110.47981320
_symmetry_Int_Tables_number   1
_chemical_formula_structural   Lu12Fe3BiAu
_chemical_formula_sum   'Lu12 Fe3 Bi1 Au1'
_cell_volume   413.50278183
_cell_formula_units_Z   1
loop_
 _symmetry_equiv_pos_site_id
 _symmetry_equiv_pos_as_xyz
  1  'x, y, z'
loop_
 _atom_site_type_symbol
 _atom_site_label
 _atom_site_symmetry_multiplicity
 _atom_site_fract_x
 _atom_site_fract_y
 _atom_site_fract_z
 _atom_site_occupancy
  Lu  Lu0  1  0.300741  0.314947  0.615813  1
  Lu  Lu1  1  0.699259  0.685053  0.384187  1
  Lu  Lu2  1  0.699135  0.314947  0.014207  1
  Lu  Lu3  1  0.300865  0.685053  0.985793  1
  Lu  Lu4  1  0.193370  0.450779  0.257409  1
  Lu  Lu5  1  0.806630  0.549221  0.742591  1
  Lu  Lu6  1  0.193441  0.936026  0.742584  1
  Lu  Lu7  1  0.971143  0.191172  0.780018  1
  Lu  Lu8  1  0.806559  0.063974  0.257416  1
  Lu  Lu9  1  0.028857  0.808828  0.219982  1
  Lu  Lu10  1  0.411154  0.191172  0.220027  1
  Lu  Lu11  1  0.588846  0.808828  0.779973  1
  Fe  Fe12  1  0.384816  0.384750  0.999934  1
  Fe  Fe13  1  0.615184  0.615250  0.000066  1
  Fe  Fe14  1  0.000000  0.000000  0.000000  1
  Bi  Bi15  1  0.500000  0.000000  0.500000  1
  Au  Au16  1  0.000000  0.500000  0.500000  1
