# generated using pymatgen
data_Tb3PaAg2Rh3
_symmetry_space_group_name_H-M   'P 1'
_cell_length_a   7.73776828
_cell_length_b   7.73776737
_cell_length_c   3.82577200
_cell_angle_alpha   90.00000000
_cell_angle_beta   90.00000000
_cell_angle_gamma   121.50812141
_symmetry_Int_Tables_number   1
_chemical_formula_structural   Tb3PaAg2Rh3
_chemical_formula_sum   'Tb3 Pa1 Ag2 Rh3'
_cell_volume   195.28933674
_cell_formula_units_Z   1
loop_
 _symmetry_equiv_pos_site_id
 _symmetry_equiv_pos_as_xyz
  1  'x, y, z'
loop_
 _atom_site_type_symbol
 _atom_site_label
 _atom_site_symmetry_multiplicity
 _atom_site_fract_x
 _atom_site_fract_y
 _atom_site_fract_z
 _atom_site_occupancy
  Tb  Tb0  1  0.040121  0.595034  0.500000  1
  Tb  Tb1  1  0.355598  0.355598  0.500000  1
  Tb  Tb2  1  0.595034  0.040121  0.500000  1
  Pa  Pa3  1  0.733435  0.733435  0.000000  1
  Ag  Ag4  1  0.987809  0.257566  0.000000  1
  Ag  Ag5  1  0.257566  0.987809  0.000000  1
  Rh  Rh6  1  0.380759  0.680097  0.000000  1
  Rh  Rh7  1  0.969577  0.969577  0.500000  1
  Rh  Rh8  1  0.680097  0.380759  0.000000  1
