# generated using pymatgen
data_Tm4GaCo4Ru3
_symmetry_space_group_name_H-M   'P 1'
_cell_length_a   5.08149607
_cell_length_b   5.17840659
_cell_length_c   8.56826700
_cell_angle_alpha   90.00000000
_cell_angle_beta   90.00000000
_cell_angle_gamma   120.60480740
_symmetry_Int_Tables_number   1
_chemical_formula_structural   Tm4GaCo4Ru3
_chemical_formula_sum   'Tm4 Ga1 Co4 Ru3'
_cell_volume   194.05828433
_cell_formula_units_Z   1
loop_
 _symmetry_equiv_pos_site_id
 _symmetry_equiv_pos_as_xyz
  1  'x, y, z'
loop_
 _atom_site_type_symbol
 _atom_site_label
 _atom_site_symmetry_multiplicity
 _atom_site_fract_x
 _atom_site_fract_y
 _atom_site_fract_z
 _atom_site_occupancy
  Tm  Tm0  1  0.677045  0.338578  0.563448  1
  Tm  Tm1  1  0.337818  0.668815  0.431481  1
  Tm  Tm2  1  0.337818  0.668815  0.068519  1
  Tm  Tm3  1  0.677045  0.338578  0.936552  1
  Ga  Ga4  1  0.637008  0.818525  0.750000  1
  Co  Co5  1  0.161266  0.321818  0.750000  1
  Co  Co6  1  0.161389  0.839691  0.750000  1
  Co  Co7  1  0.824688  0.655920  0.250000  1
  Co  Co8  1  0.824654  0.168758  0.250000  1
  Ru  Ru9  1  0.013116  0.006519  0.500462  1
  Ru  Ru10  1  0.013116  0.006519  0.999538  1
  Ru  Ru11  1  0.335034  0.167463  0.250000  1
