# generated using pymatgen
data_Zr2Ti4O3
_symmetry_space_group_name_H-M   'P 1'
_cell_length_a   3.05339200
_cell_length_b   4.76290445
_cell_length_c   8.43621297
_cell_angle_alpha   88.79193088
_cell_angle_beta   90.00000000
_cell_angle_gamma   90.00000000
_symmetry_Int_Tables_number   1
_chemical_formula_structural   Zr2Ti4O3
_chemical_formula_sum   'Zr2 Ti4 O3'
_cell_volume   122.66069580
_cell_formula_units_Z   1
loop_
 _symmetry_equiv_pos_site_id
 _symmetry_equiv_pos_as_xyz
  1  'x, y, z'
loop_
 _atom_site_type_symbol
 _atom_site_label
 _atom_site_symmetry_multiplicity
 _atom_site_fract_x
 _atom_site_fract_y
 _atom_site_fract_z
 _atom_site_occupancy
  Zr  Zr0  1  0.000000  0.243996  0.753921  1
  Zr  Zr1  1  0.000000  0.756004  0.246079  1
  Ti  Ti2  1  0.500000  0.261490  0.084635  1
  Ti  Ti3  1  0.500000  0.746004  0.576321  1
  Ti  Ti4  1  0.500000  0.738510  0.915365  1
  Ti  Ti5  1  0.500000  0.253996  0.423679  1
  O  O6  1  0.000000  0.273038  0.257839  1
  O  O7  1  0.000000  0.726962  0.742161  1
  O  O8  1  0.000000  0.000000  0.000000  1
