# generated using pymatgen
data_Tb3PaCu3Sb8
_symmetry_space_group_name_H-M   'P 1'
_cell_length_a   10.49657897
_cell_length_b   10.50065272
_cell_length_c   10.49472127
_cell_angle_alpha   145.94895618
_cell_angle_beta   145.94213250
_cell_angle_gamma   48.97435413
_symmetry_Int_Tables_number   1
_chemical_formula_structural   Tb3PaCu3Sb8
_chemical_formula_sum   'Tb3 Pa1 Cu3 Sb8'
_cell_volume   361.06130681
_cell_formula_units_Z   1
loop_
 _symmetry_equiv_pos_site_id
 _symmetry_equiv_pos_as_xyz
  1  'x, y, z'
loop_
 _atom_site_type_symbol
 _atom_site_label
 _atom_site_symmetry_multiplicity
 _atom_site_fract_x
 _atom_site_fract_y
 _atom_site_fract_z
 _atom_site_occupancy
  Tb  Tb0  1  0.632108  0.632853  0.508858  1
  Tb  Tb1  1  0.123249  0.123994  0.491142  1
  Tb  Tb2  1  0.874683  0.365943  0.000000  1
  Pa  Pa3  1  0.367900  0.873495  0.000000  1
  Cu  Cu4  1  0.997909  0.001247  0.000000  1
  Cu  Cu5  1  0.001073  0.499737  0.499083  1
  Cu  Cu6  1  0.501990  0.000654  0.500917  1
  Sb  Sb7  1  0.335755  0.334889  0.511626  1
  Sb  Sb8  1  0.824130  0.823263  0.488374  1
  Sb  Sb9  1  0.666860  0.181869  0.000000  1
  Sb  Sb10  1  0.181995  0.667598  0.000000  1
  Sb  Sb11  1  0.250855  0.246429  0.000000  1
  Sb  Sb12  1  0.745636  0.750141  0.000000  1
  Sb  Sb13  1  0.746328  0.247344  0.496800  1
  Sb  Sb14  1  0.249528  0.750544  0.503200  1
