# generated using pymatgen
data_Er12Tc2RuPt
_symmetry_space_group_name_H-M   'P 1'
_cell_length_a   6.26261148
_cell_length_b   7.35894155
_cell_length_c   9.07180300
_cell_angle_alpha   90.00000000
_cell_angle_beta   90.00000000
_cell_angle_gamma   89.95536304
_symmetry_Int_Tables_number   1
_chemical_formula_structural   Er12Tc2RuPt
_chemical_formula_sum   'Er12 Tc2 Ru1 Pt1'
_cell_volume   418.08472659
_cell_formula_units_Z   1
loop_
 _symmetry_equiv_pos_site_id
 _symmetry_equiv_pos_as_xyz
  1  'x, y, z'
loop_
 _atom_site_type_symbol
 _atom_site_label
 _atom_site_symmetry_multiplicity
 _atom_site_fract_x
 _atom_site_fract_y
 _atom_site_fract_z
 _atom_site_occupancy
  Er  Er0  1  0.333929  0.677037  0.064484  1
  Er  Er1  1  0.167419  0.176637  0.432869  1
  Er  Er2  1  0.660449  0.327117  0.560132  1
  Er  Er3  1  0.835150  0.818654  0.940771  1
  Er  Er4  1  0.660449  0.327117  0.939868  1
  Er  Er5  1  0.835150  0.818654  0.559229  1
  Er  Er6  1  0.333929  0.677037  0.435516  1
  Er  Er7  1  0.167419  0.176637  0.067131  1
  Er  Er8  1  0.873050  0.539391  0.250000  1
  Er  Er9  1  0.627451  0.040289  0.250000  1
  Er  Er10  1  0.132648  0.464916  0.750000  1
  Er  Er11  1  0.372777  0.956067  0.750000  1
  Tc  Tc12  1  0.037739  0.884868  0.250000  1
  Tc  Tc13  1  0.461937  0.384557  0.250000  1
  Ru  Ru14  1  0.542830  0.615641  0.750000  1
  Pt  Pt15  1  0.957673  0.115378  0.750000  1
