# generated using pymatgen
data_Gd5CdRh2
_symmetry_space_group_name_H-M   'P 1'
_cell_length_a   8.77691108
_cell_length_b   8.77691076
_cell_length_c   8.77691200
_cell_angle_alpha   126.93505496
_cell_angle_beta   126.93506158
_cell_angle_gamma   78.35666350
_symmetry_Int_Tables_number   1
_chemical_formula_structural   Gd5CdRh2
_chemical_formula_sum   'Gd10 Cd2 Rh4'
_cell_volume   418.34163224
_cell_formula_units_Z   2
loop_
 _symmetry_equiv_pos_site_id
 _symmetry_equiv_pos_as_xyz
  1  'x, y, z'
loop_
 _atom_site_type_symbol
 _atom_site_label
 _atom_site_symmetry_multiplicity
 _atom_site_fract_x
 _atom_site_fract_y
 _atom_site_fract_z
 _atom_site_occupancy
  Gd  Gd0  1  0.000000  0.000000  0.000000  1
  Gd  Gd1  1  0.500000  0.500000  0.000000  1
  Gd  Gd2  1  0.794051  0.294051  0.818251  1
  Gd  Gd3  1  0.205949  0.705949  0.181749  1
  Gd  Gd4  1  0.475799  0.975799  0.181749  1
  Gd  Gd5  1  0.294051  0.475799  0.500000  1
  Gd  Gd6  1  0.024201  0.205949  0.500000  1
  Gd  Gd7  1  0.524201  0.024201  0.818251  1
  Gd  Gd8  1  0.705949  0.524201  0.500000  1
  Gd  Gd9  1  0.975799  0.794051  0.500000  1
  Cd  Cd10  1  0.250000  0.250000  0.000000  1
  Cd  Cd11  1  0.750000  0.750000  0.000000  1
  Rh  Rh12  1  0.140526  0.640526  0.781051  1
  Rh  Rh13  1  0.859474  0.359474  0.218949  1
  Rh  Rh14  1  0.640526  0.859474  0.500000  1
  Rh  Rh15  1  0.359474  0.140526  0.500000  1
