# generated using pymatgen
data_RbDySiSe4
_symmetry_space_group_name_H-M   'P 1'
_cell_length_a   6.67802800
_cell_length_b   7.03332000
_cell_length_c   18.03962200
_cell_angle_alpha   90.00000000
_cell_angle_beta   90.00000000
_cell_angle_gamma   90.00000000
_symmetry_Int_Tables_number   1
_chemical_formula_structural   RbDySiSe4
_chemical_formula_sum   'Rb4 Dy4 Si4 Se16'
_cell_volume   847.29773622
_cell_formula_units_Z   4
loop_
 _symmetry_equiv_pos_site_id
 _symmetry_equiv_pos_as_xyz
  1  'x, y, z'
loop_
 _atom_site_type_symbol
 _atom_site_label
 _atom_site_symmetry_multiplicity
 _atom_site_fract_x
 _atom_site_fract_y
 _atom_site_fract_z
 _atom_site_occupancy
  Rb  Rb0  1  0.995194  0.004108  0.031925  1
  Rb  Rb1  1  0.004805  0.504108  0.468075  1
  Rb  Rb2  1  0.504806  0.995892  0.531926  1
  Rb  Rb3  1  0.495195  0.495892  0.968075  1
  Dy  Dy4  1  0.292134  0.478677  0.227157  1
  Dy  Dy5  1  0.707865  0.978677  0.272842  1
  Dy  Dy6  1  0.207866  0.521322  0.727157  1
  Dy  Dy7  1  0.792135  0.021322  0.772842  1
  Si  Si8  1  0.790356  0.516909  0.166904  1
  Si  Si9  1  0.209645  0.016909  0.333096  1
  Si  Si10  1  0.709644  0.483091  0.666904  1
  Si  Si11  1  0.290355  0.983091  0.833096  1
  Se  Se12  1  0.059163  0.514100  0.090203  1
  Se  Se13  1  0.560030  0.751174  0.143501  1
  Se  Se14  1  0.600605  0.246940  0.152862  1
  Se  Se15  1  0.101900  0.083280  0.215775  1
  Se  Se16  1  0.898100  0.583280  0.284225  1
  Se  Se17  1  0.399396  0.746940  0.347138  1
  Se  Se18  1  0.439969  0.251174  0.356500  1
  Se  Se19  1  0.940836  0.014099  0.409796  1
  Se  Se20  1  0.440835  0.485901  0.590203  1
  Se  Se21  1  0.939970  0.248826  0.643501  1
  Se  Se22  1  0.899395  0.753061  0.652862  1
  Se  Se23  1  0.398099  0.916720  0.715776  1
  Se  Se24  1  0.601900  0.416720  0.784225  1
  Se  Se25  1  0.100605  0.253061  0.847138  1
  Se  Se26  1  0.060030  0.748826  0.856500  1
  Se  Se27  1  0.559164  0.985901  0.909796  1
