# generated using pymatgen
data_Er3Ga6Co5Ni4
_symmetry_space_group_name_H-M   'P 1'
_cell_length_a   4.06403000
_cell_length_b   8.67807034
_cell_length_c   8.67189663
_cell_angle_alpha   60.13842416
_cell_angle_beta   90.00000000
_cell_angle_gamma   90.00000000
_symmetry_Int_Tables_number   1
_chemical_formula_structural   Er3Ga6Co5Ni4
_chemical_formula_sum   'Er3 Ga6 Co5 Ni4'
_cell_volume   265.23381012
_cell_formula_units_Z   1
loop_
 _symmetry_equiv_pos_site_id
 _symmetry_equiv_pos_as_xyz
  1  'x, y, z'
loop_
 _atom_site_type_symbol
 _atom_site_label
 _atom_site_symmetry_multiplicity
 _atom_site_fract_x
 _atom_site_fract_y
 _atom_site_fract_z
 _atom_site_occupancy
  Er  Er0  1  0.500000  0.334425  0.333641  1
  Er  Er1  1  0.500000  0.664629  0.670918  1
  Er  Er2  1  0.000000  0.001584  0.998158  1
  Ga  Ga3  1  0.500000  0.727637  0.271936  1
  Ga  Ga4  1  0.500000  0.274713  0.998727  1
  Ga  Ga5  1  0.500000  0.999610  0.725567  1
  Ga  Ga6  1  0.000000  0.488771  0.507938  1
  Ga  Ga7  1  0.000000  0.508490  0.000580  1
  Ga  Ga8  1  0.000000  0.000376  0.491223  1
  Co  Co9  1  0.000000  0.187122  0.178146  1
  Co  Co10  1  0.000000  0.176223  0.636816  1
  Co  Co11  1  0.000000  0.636461  0.186786  1
  Co  Co12  1  0.000000  0.821703  0.813271  1
  Co  Co13  1  0.000000  0.366285  0.820933  1
  Ni  Ni14  1  0.000000  0.809730  0.369282  1
  Ni  Ni15  1  0.500000  0.299177  0.700293  1
  Ni  Ni16  1  0.500000  0.701193  0.000250  1
  Ni  Ni17  1  0.500000  0.001771  0.295633  1
