# generated using pymatgen
data_Ho6Sc2SnAu9
_symmetry_space_group_name_H-M   'P 1'
_cell_length_a   7.94508891
_cell_length_b   7.94508848
_cell_length_c   7.94508656
_cell_angle_alpha   65.90623791
_cell_angle_beta   65.90624246
_cell_angle_gamma   65.90623674
_symmetry_Int_Tables_number   1
_chemical_formula_structural   Ho6Sc2SnAu9
_chemical_formula_sum   'Ho6 Sc2 Sn1 Au9'
_cell_volume   400.00136433
_cell_formula_units_Z   1
loop_
 _symmetry_equiv_pos_site_id
 _symmetry_equiv_pos_as_xyz
  1  'x, y, z'
loop_
 _atom_site_type_symbol
 _atom_site_label
 _atom_site_symmetry_multiplicity
 _atom_site_fract_x
 _atom_site_fract_y
 _atom_site_fract_z
 _atom_site_occupancy
  Ho  Ho0  1  0.896953  0.185498  0.620825  1
  Ho  Ho1  1  0.620825  0.896953  0.185498  1
  Ho  Ho2  1  0.185498  0.620825  0.896953  1
  Ho  Ho3  1  0.103047  0.814502  0.379175  1
  Ho  Ho4  1  0.379175  0.103047  0.814502  1
  Ho  Ho5  1  0.814502  0.379175  0.103047  1
  Sc  Sc6  1  0.662447  0.662447  0.662447  1
  Sc  Sc7  1  0.337553  0.337553  0.337553  1
  Sn  Sn8  1  0.500000  0.500000  0.500000  1
  Au  Au9  1  0.000000  0.000000  0.000000  1
  Au  Au10  1  0.807446  0.807446  0.807446  1
  Au  Au11  1  0.192554  0.192554  0.192554  1
  Au  Au12  1  0.937330  0.550290  0.318984  1
  Au  Au13  1  0.318984  0.937330  0.550290  1
  Au  Au14  1  0.550290  0.318984  0.937330  1
  Au  Au15  1  0.062670  0.449710  0.681016  1
  Au  Au16  1  0.681016  0.062670  0.449710  1
  Au  Au17  1  0.449710  0.681016  0.062670  1
