# generated using pymatgen
data_Ho2Tm3Zr3Pt4
_symmetry_space_group_name_H-M   'P 1'
_cell_length_a   4.71764300
_cell_length_b   7.07099871
_cell_length_c   8.33263886
_cell_angle_alpha   89.27335565
_cell_angle_beta   90.00000000
_cell_angle_gamma   90.00000000
_symmetry_Int_Tables_number   1
_chemical_formula_structural   Ho2Tm3Zr3Pt4
_chemical_formula_sum   'Ho2 Tm3 Zr3 Pt4'
_cell_volume   277.94154276
_cell_formula_units_Z   1
loop_
 _symmetry_equiv_pos_site_id
 _symmetry_equiv_pos_as_xyz
  1  'x, y, z'
loop_
 _atom_site_type_symbol
 _atom_site_label
 _atom_site_symmetry_multiplicity
 _atom_site_fract_x
 _atom_site_fract_y
 _atom_site_fract_z
 _atom_site_occupancy
  Ho  Ho0  1  0.250000  0.989107  0.325941  1
  Ho  Ho1  1  0.250000  0.481592  0.170618  1
  Tm  Tm2  1  0.750000  0.647249  0.418240  1
  Tm  Tm3  1  0.750000  0.018044  0.681077  1
  Tm  Tm4  1  0.750000  0.514893  0.821466  1
  Zr  Zr5  1  0.250000  0.855205  0.921784  1
  Zr  Zr6  1  0.250000  0.353596  0.580091  1
  Zr  Zr7  1  0.750000  0.148417  0.079853  1
  Pt  Pt8  1  0.250000  0.232540  0.905451  1
  Pt  Pt9  1  0.250000  0.737215  0.603828  1
  Pt  Pt10  1  0.750000  0.767735  0.082881  1
  Pt  Pt11  1  0.750000  0.254408  0.408770  1
