# generated using pymatgen
data_Ho3Tm3(AuO7)2
_symmetry_space_group_name_H-M   'P 1'
_cell_length_a   6.43623445
_cell_length_b   6.43673779
_cell_length_c   7.37739701
_cell_angle_alpha   90.00480578
_cell_angle_beta   89.99909763
_cell_angle_gamma   108.72143721
_symmetry_Int_Tables_number   1
_chemical_formula_structural   Ho3Tm3(AuO7)2
_chemical_formula_sum   'Ho3 Tm3 Au2 O14'
_cell_volume   289.46242420
_cell_formula_units_Z   1
loop_
 _symmetry_equiv_pos_site_id
 _symmetry_equiv_pos_as_xyz
  1  'x, y, z'
loop_
 _atom_site_type_symbol
 _atom_site_label
 _atom_site_symmetry_multiplicity
 _atom_site_fract_x
 _atom_site_fract_y
 _atom_site_fract_z
 _atom_site_occupancy
  Ho  Ho0  1  0.471204  0.002273  0.251018  1
  Ho  Ho1  1  0.503575  0.503511  0.500381  1
  Ho  Ho2  1  0.497589  0.497821  0.999604  1
  Tm  Tm3  1  0.002117  0.471295  0.748929  1
  Tm  Tm4  1  0.998356  0.528740  0.248926  1
  Tm  Tm5  1  0.528621  0.998365  0.751037  1
  Au  Au6  1  0.999487  0.999409  0.500521  1
  Au  Au7  1  0.000230  0.000297  0.999505  1
  O  O8  1  0.641048  0.359700  0.749995  1
  O  O9  1  0.359257  0.637567  0.250053  1
  O  O10  1  0.918270  0.083038  0.750060  1
  O  O11  1  0.080141  0.916426  0.250045  1
  O  O12  1  0.918186  0.666302  0.524248  1
  O  O13  1  0.081837  0.333407  0.023815  1
  O  O14  1  0.333021  0.084915  0.974444  1
  O  O15  1  0.666464  0.914581  0.478071  1
  O  O16  1  0.365645  0.634334  0.749963  1
  O  O17  1  0.635604  0.368840  0.249894  1
  O  O18  1  0.920455  0.668113  0.974169  1
  O  O19  1  0.079427  0.331547  0.474524  1
  O  O20  1  0.331637  0.082771  0.527244  1
  O  O21  1  0.667827  0.916747  0.023554  1
