# generated using pymatgen
data_KTiF5
_symmetry_space_group_name_H-M   'P 1'
_cell_length_a   5.63776000
_cell_length_b   7.77527100
_cell_length_c   10.36214100
_cell_angle_alpha   90.00000000
_cell_angle_beta   90.00000000
_cell_angle_gamma   90.00000000
_symmetry_Int_Tables_number   1
_chemical_formula_structural   KTiF5
_chemical_formula_sum   'K4 Ti4 F20'
_cell_volume   454.22560956
_cell_formula_units_Z   4
loop_
 _symmetry_equiv_pos_site_id
 _symmetry_equiv_pos_as_xyz
  1  'x, y, z'
loop_
 _atom_site_type_symbol
 _atom_site_label
 _atom_site_symmetry_multiplicity
 _atom_site_fract_x
 _atom_site_fract_y
 _atom_site_fract_z
 _atom_site_occupancy
  K  K0  1  0.500000  0.892321  0.977992  1
  K  K1  1  0.500000  0.107679  0.477992  1
  K  K2  1  0.000000  0.374170  0.118463  1
  K  K3  1  0.000000  0.625830  0.618463  1
  Ti  Ti4  1  0.000000  0.888149  0.241289  1
  Ti  Ti5  1  0.500000  0.570300  0.341709  1
  Ti  Ti6  1  0.500000  0.429700  0.841709  1
  Ti  Ti7  1  0.000000  0.111851  0.741289  1
  F  F8  1  0.264287  0.549151  0.923585  1
  F  F9  1  0.749419  0.700231  0.239209  1
  F  F10  1  0.235001  0.051138  0.236605  1
  F  F11  1  0.749419  0.299769  0.739209  1
  F  F12  1  0.500000  0.242143  0.951239  1
  F  F13  1  0.764999  0.948862  0.736605  1
  F  F14  1  0.500000  0.573179  0.698863  1
  F  F15  1  0.235001  0.948862  0.736605  1
  F  F16  1  0.000000  0.848735  0.065395  1
  F  F17  1  0.764999  0.051138  0.236605  1
  F  F18  1  0.500000  0.426821  0.198863  1
  F  F19  1  0.735713  0.450849  0.423585  1
  F  F20  1  0.250581  0.700231  0.239209  1
  F  F21  1  0.000000  0.857046  0.417759  1
  F  F22  1  0.000000  0.151265  0.565395  1
  F  F23  1  0.250581  0.299769  0.739209  1
  F  F24  1  0.000000  0.142954  0.917759  1
  F  F25  1  0.264287  0.450849  0.423585  1
  F  F26  1  0.500000  0.757857  0.451239  1
  F  F27  1  0.735713  0.549151  0.923585  1
