# generated using pymatgen
data_La2Ho(Ga2Ni3)3
_symmetry_space_group_name_H-M   'P 1'
_cell_length_a   4.12672000
_cell_length_b   8.89111058
_cell_length_c   8.94487110
_cell_angle_alpha   119.80137471
_cell_angle_beta   90.00000000
_cell_angle_gamma   90.00000000
_symmetry_Int_Tables_number   1
_chemical_formula_structural   La2Ho(Ga2Ni3)3
_chemical_formula_sum   'La2 Ho1 Ga6 Ni9'
_cell_volume   284.79442908
_cell_formula_units_Z   1
loop_
 _symmetry_equiv_pos_site_id
 _symmetry_equiv_pos_as_xyz
  1  'x, y, z'
loop_
 _atom_site_type_symbol
 _atom_site_label
 _atom_site_symmetry_multiplicity
 _atom_site_fract_x
 _atom_site_fract_y
 _atom_site_fract_z
 _atom_site_occupancy
  La  La0  1  0.500000  0.332490  0.665771  1
  La  La1  1  0.500000  0.666720  0.334229  1
  Ho  Ho2  1  0.000000  0.997960  0.000000  1
  Ga  Ga3  1  0.000000  0.524863  0.000000  1
  Ga  Ga4  1  0.000000  0.475986  0.474828  1
  Ga  Ga5  1  0.000000  0.001158  0.525172  1
  Ga  Ga6  1  0.500000  0.263942  0.000000  1
  Ga  Ga7  1  0.500000  0.735760  0.736063  1
  Ga  Ga8  1  0.500000  0.999696  0.263937  1
  Ni  Ni9  1  0.000000  0.167923  0.364294  1
  Ni  Ni10  1  0.000000  0.197611  0.832830  1
  Ni  Ni11  1  0.000000  0.632573  0.799653  1
  Ni  Ni12  1  0.000000  0.803629  0.635706  1
  Ni  Ni13  1  0.000000  0.364781  0.167170  1
  Ni  Ni14  1  0.000000  0.832920  0.200347  1
  Ni  Ni15  1  0.500000  0.713903  0.000000  1
  Ni  Ni16  1  0.500000  0.287152  0.286318  1
  Ni  Ni17  1  0.500000  0.000833  0.713682  1
