# generated using pymatgen
data_Tb7Er3In8(PdAu)2
_symmetry_space_group_name_H-M   'P 1'
_cell_length_a   3.66790600
_cell_length_b   8.19324019
_cell_length_c   18.33862328
_cell_angle_alpha   89.90593028
_cell_angle_beta   90.00000000
_cell_angle_gamma   90.00000000
_symmetry_Int_Tables_number   1
_chemical_formula_structural   Tb7Er3In8(PdAu)2
_chemical_formula_sum   'Tb7 Er3 In8 Pd2 Au2'
_cell_volume   551.11220344
_cell_formula_units_Z   1
loop_
 _symmetry_equiv_pos_site_id
 _symmetry_equiv_pos_as_xyz
  1  'x, y, z'
loop_
 _atom_site_type_symbol
 _atom_site_label
 _atom_site_symmetry_multiplicity
 _atom_site_fract_x
 _atom_site_fract_y
 _atom_site_fract_z
 _atom_site_occupancy
  Tb  Tb0  1  0.000000  0.500259  0.500183  1
  Tb  Tb1  1  0.000000  0.999598  0.999760  1
  Tb  Tb2  1  0.000000  0.745489  0.285445  1
  Tb  Tb3  1  0.000000  0.254646  0.714743  1
  Tb  Tb4  1  0.000000  0.768165  0.780371  1
  Tb  Tb5  1  0.000000  0.232003  0.219844  1
  Tb  Tb6  1  0.000000  0.619619  0.080002  1
  Er  Er7  1  0.000000  0.380058  0.918597  1
  Er  Er8  1  0.000000  0.884794  0.583207  1
  Er  Er9  1  0.000000  0.115742  0.416944  1
  In  In10  1  0.500000  0.708762  0.932236  1
  In  In11  1  0.500000  0.289492  0.066638  1
  In  In12  1  0.500000  0.794811  0.435069  1
  In  In13  1  0.500000  0.205504  0.565058  1
  In  In14  1  0.500000  0.585321  0.647895  1
  In  In15  1  0.500000  0.414465  0.352597  1
  In  In16  1  0.500000  0.920551  0.149889  1
  In  In17  1  0.500000  0.080501  0.850518  1
  Pd  Pd18  1  0.500000  0.973947  0.694596  1
  Pd  Pd19  1  0.500000  0.026899  0.305520  1
  Au  Au20  1  0.500000  0.528185  0.197984  1
  Au  Au21  1  0.500000  0.471190  0.802903  1
