# generated using pymatgen
data_DyEr7(CuS2)8
_symmetry_space_group_name_H-M   'P 1'
_cell_length_a   7.79514480
_cell_length_b   9.09890592
_cell_length_c   12.29179600
_cell_angle_alpha   47.89242705
_cell_angle_beta   89.88463872
_cell_angle_gamma   89.91809472
_symmetry_Int_Tables_number   1
_chemical_formula_structural   DyEr7(CuS2)8
_chemical_formula_sum   'Dy1 Er7 Cu8 S16'
_cell_volume   646.79359981
_cell_formula_units_Z   1
loop_
 _symmetry_equiv_pos_site_id
 _symmetry_equiv_pos_as_xyz
  1  'x, y, z'
loop_
 _atom_site_type_symbol
 _atom_site_label
 _atom_site_symmetry_multiplicity
 _atom_site_fract_x
 _atom_site_fract_y
 _atom_site_fract_z
 _atom_site_occupancy
  Dy  Dy0  1  0.502585  0.000732  0.250362  1
  Er  Er1  1  0.497378  0.998957  0.749773  1
  Er  Er2  1  0.748165  0.505837  0.996863  1
  Er  Er3  1  0.752094  0.505285  0.497439  1
  Er  Er4  1  0.997418  0.001134  0.750275  1
  Er  Er5  1  0.002626  0.999108  0.249743  1
  Er  Er6  1  0.248018  0.494201  0.503187  1
  Er  Er7  1  0.251586  0.494666  0.002549  1
  Cu  Cu8  1  0.500555  0.666384  0.103065  1
  Cu  Cu9  1  0.747336  0.168912  0.351312  1
  Cu  Cu10  1  0.001544  0.333458  0.396949  1
  Cu  Cu11  1  0.248915  0.831341  0.148774  1
  Cu  Cu12  1  0.752055  0.167868  0.851362  1
  Cu  Cu13  1  0.998517  0.667037  0.602844  1
  Cu  Cu14  1  0.252230  0.831991  0.648917  1
  Cu  Cu15  1  0.499274  0.332755  0.897206  1
  S  S16  1  0.504336  0.338368  0.207731  1
  S  S17  1  0.743715  0.839305  0.955831  1
  S  S18  1  0.244429  0.160813  0.544132  1
  S  S19  1  0.997478  0.334280  0.205237  1
  S  S20  1  0.497847  0.663339  0.295476  1
  S  S21  1  0.249770  0.829929  0.958319  1
  S  S22  1  0.750483  0.170013  0.541711  1
  S  S23  1  0.004956  0.662939  0.292137  1
  S  S24  1  0.995093  0.337067  0.708091  1
  S  S25  1  0.248578  0.829213  0.459258  1
  S  S26  1  0.751854  0.171542  0.040208  1
  S  S27  1  0.502079  0.333888  0.705451  1
  S  S28  1  0.002346  0.666333  0.794553  1
  S  S29  1  0.756625  0.839036  0.456720  1
  S  S30  1  0.254670  0.161344  0.042693  1
  S  S31  1  0.495439  0.662923  0.791834  1
