# generated using pymatgen
data_Ti12V8Si15B
_symmetry_space_group_name_H-M   'P 1'
_cell_length_a   6.49524850
_cell_length_b   6.52104805
_cell_length_c   11.96808521
_cell_angle_alpha   89.88190865
_cell_angle_beta   89.84607309
_cell_angle_gamma   90.08089834
_symmetry_Int_Tables_number   1
_chemical_formula_structural   Ti12V8Si15B
_chemical_formula_sum   'Ti12 V8 Si15 B1'
_cell_volume   506.91473847
_cell_formula_units_Z   1
loop_
 _symmetry_equiv_pos_site_id
 _symmetry_equiv_pos_as_xyz
  1  'x, y, z'
loop_
 _atom_site_type_symbol
 _atom_site_label
 _atom_site_symmetry_multiplicity
 _atom_site_fract_x
 _atom_site_fract_y
 _atom_site_fract_z
 _atom_site_occupancy
  Ti  Ti0  1  0.002991  0.339223  0.220111  1
  Ti  Ti1  1  0.161642  0.503141  0.471797  1
  Ti  Ti2  1  0.848484  0.489167  0.964183  1
  Ti  Ti3  1  0.500576  0.162300  0.531819  1
  Ti  Ti4  1  0.495773  0.840487  0.029521  1
  Ti  Ti5  1  0.996485  0.651191  0.722821  1
  Ti  Ti6  1  0.333579  0.007326  0.781038  1
  Ti  Ti7  1  0.659960  0.996482  0.279404  1
  Ti  Ti8  1  0.163089  0.172098  0.992617  1
  Ti  Ti9  1  0.334327  0.667578  0.249744  1
  Ti  Ti10  1  0.678463  0.332779  0.751895  1
  Ti  Ti11  1  0.833154  0.833487  0.500535  1
  V  V12  1  0.992690  0.157343  0.627628  1
  V  V13  1  0.336378  0.489846  0.871117  1
  V  V14  1  0.655255  0.505594  0.372123  1
  V  V15  1  0.494654  0.344560  0.127679  1
  V  V16  1  0.502162  0.652663  0.630265  1
  V  V17  1  0.005114  0.845318  0.120589  1
  V  V18  1  0.155361  0.994005  0.378642  1
  V  V19  1  0.854714  0.020207  0.872461  1
  Si  Si20  1  0.202375  0.543031  0.062068  1
  Si  Si21  1  0.797762  0.458374  0.563102  1
  Si  Si22  1  0.543300  0.202473  0.936605  1
  Si  Si23  1  0.457315  0.798169  0.438885  1
  Si  Si24  1  0.957741  0.702023  0.312216  1
  Si  Si25  1  0.295917  0.044215  0.185104  1
  Si  Si26  1  0.700170  0.955812  0.688133  1
  Si  Si27  1  0.283917  0.363953  0.680550  1
  Si  Si28  1  0.130597  0.791256  0.921773  1
  Si  Si29  1  0.867026  0.208131  0.423984  1
  Si  Si30  1  0.792357  0.133343  0.075747  1
  Si  Si31  1  0.205898  0.867099  0.579762  1
  Si  Si32  1  0.710139  0.631748  0.170782  1
  Si  Si33  1  0.366973  0.290721  0.327353  1
  Si  Si34  1  0.632592  0.709513  0.829876  1
  B  B35  1  0.051070  0.295346  0.808069  1
