# generated using pymatgen
data_Sr6LaTmSb6
_symmetry_space_group_name_H-M   'P 1'
_cell_length_a   8.53410900
_cell_length_b   8.48178358
_cell_length_c   9.84619932
_cell_angle_alpha   55.39645300
_cell_angle_beta   55.16803666
_cell_angle_gamma   70.91485374
_symmetry_Int_Tables_number   1
_chemical_formula_structural   Sr6LaTmSb6
_chemical_formula_sum   'Sr6 La1 Tm1 Sb6'
_cell_volume   481.52361836
_cell_formula_units_Z   1
loop_
 _symmetry_equiv_pos_site_id
 _symmetry_equiv_pos_as_xyz
  1  'x, y, z'
loop_
 _atom_site_type_symbol
 _atom_site_label
 _atom_site_symmetry_multiplicity
 _atom_site_fract_x
 _atom_site_fract_y
 _atom_site_fract_z
 _atom_site_occupancy
  Sr  Sr0  1  0.001985  0.134268  0.112462  1
  Sr  Sr1  1  0.864448  0.001352  0.886158  1
  Sr  Sr2  1  0.499185  0.855952  0.750841  1
  Sr  Sr3  1  0.144595  0.500994  0.248225  1
  Sr  Sr4  1  0.997676  0.645588  0.605440  1
  Sr  Sr5  1  0.354834  0.000720  0.395682  1
  La  La6  1  0.637908  0.498731  0.248883  1
  Tm  Tm7  1  0.500794  0.367086  0.749450  1
  Sb  Sb8  1  0.856277  0.141960  0.504210  1
  Sb  Sb9  1  0.622215  0.373690  0.993374  1
  Sb  Sb10  1  0.265774  0.259543  0.623772  1
  Sb  Sb11  1  0.735600  0.729113  0.388531  1
  Sb  Sb12  1  0.133596  0.609711  0.875295  1
  Sb  Sb13  1  0.385112  0.881293  0.117678  1
