# generated using pymatgen
data_Yb3Er5Si8(PdPt3)2
_symmetry_space_group_name_H-M   'P 1'
_cell_length_a   4.28626500
_cell_length_b   7.38851609
_cell_length_c   14.02276814
_cell_angle_alpha   90.03199189
_cell_angle_beta   90.00000000
_cell_angle_gamma   90.00000000
_symmetry_Int_Tables_number   1
_chemical_formula_structural   Yb3Er5Si8(PdPt3)2
_chemical_formula_sum   'Yb3 Er5 Si8 Pd2 Pt6'
_cell_volume   444.08890891
_cell_formula_units_Z   1
loop_
 _symmetry_equiv_pos_site_id
 _symmetry_equiv_pos_as_xyz
  1  'x, y, z'
loop_
 _atom_site_type_symbol
 _atom_site_label
 _atom_site_symmetry_multiplicity
 _atom_site_fract_x
 _atom_site_fract_y
 _atom_site_fract_z
 _atom_site_occupancy
  Yb  Yb0  1  0.000000  0.200238  0.248744  1
  Yb  Yb1  1  0.500000  0.801074  0.251441  1
  Yb  Yb2  1  0.000000  0.204564  0.750944  1
  Er  Er3  1  0.000000  0.299305  0.999872  1
  Er  Er4  1  0.500000  0.700663  0.499195  1
  Er  Er5  1  0.000000  0.293732  0.499795  1
  Er  Er6  1  0.500000  0.706186  0.000799  1
  Er  Er7  1  0.500000  0.799287  0.749240  1
  Si  Si8  1  0.000000  0.905842  0.593022  1
  Si  Si9  1  0.500000  0.091076  0.908709  1
  Si  Si10  1  0.000000  0.906668  0.409171  1
  Si  Si11  1  0.500000  0.089188  0.090057  1
  Si  Si12  1  0.000000  0.593871  0.147127  1
  Si  Si13  1  0.500000  0.408064  0.354910  1
  Si  Si14  1  0.000000  0.594539  0.850994  1
  Si  Si15  1  0.500000  0.409336  0.643301  1
  Pd  Pd16  1  0.500000  0.418274  0.154923  1
  Pd  Pd17  1  0.500000  0.419848  0.845305  1
  Pt  Pt18  1  0.500000  0.079641  0.608062  1
  Pt  Pt19  1  0.000000  0.920172  0.892532  1
  Pt  Pt20  1  0.500000  0.082502  0.395922  1
  Pt  Pt21  1  0.000000  0.917405  0.103696  1
  Pt  Pt22  1  0.000000  0.578040  0.344401  1
  Pt  Pt23  1  0.000000  0.580484  0.657840  1
