# generated using pymatgen
data_GdScSb5
_symmetry_space_group_name_H-M   'P 1'
_cell_length_a   4.20130300
_cell_length_b   13.07004459
_cell_length_c   14.24013000
_cell_angle_alpha   78.75911883
_cell_angle_beta   90.00000000
_cell_angle_gamma   90.00000000
_symmetry_Int_Tables_number   1
_chemical_formula_structural   GdScSb5
_chemical_formula_sum   'Gd4 Sc4 Sb20'
_cell_volume   766.94233218
_cell_formula_units_Z   4
loop_
 _symmetry_equiv_pos_site_id
 _symmetry_equiv_pos_as_xyz
  1  'x, y, z'
loop_
 _atom_site_type_symbol
 _atom_site_label
 _atom_site_symmetry_multiplicity
 _atom_site_fract_x
 _atom_site_fract_y
 _atom_site_fract_z
 _atom_site_occupancy
  Gd  Gd0  1  0.250000  0.668390  0.576930  1
  Gd  Gd1  1  0.750000  0.331610  0.423070  1
  Gd  Gd2  1  0.250000  0.953090  0.355062  1
  Gd  Gd3  1  0.750000  0.046910  0.644938  1
  Sc  Sc4  1  0.250000  0.397416  0.773220  1
  Sc  Sc5  1  0.750000  0.602584  0.226780  1
  Sc  Sc6  1  0.250000  0.656967  0.859094  1
  Sc  Sc7  1  0.750000  0.343033  0.140906  1
  Sb  Sb8  1  0.250000  0.149444  0.781884  1
  Sb  Sb9  1  0.750000  0.850556  0.218116  1
  Sb  Sb10  1  0.250000  0.143656  0.481768  1
  Sb  Sb11  1  0.750000  0.856344  0.518232  1
  Sb  Sb12  1  0.250000  0.163189  0.159478  1
  Sb  Sb13  1  0.750000  0.836811  0.840522  1
  Sb  Sb14  1  0.250000  0.422170  0.975092  1
  Sb  Sb15  1  0.750000  0.577830  0.024908  1
  Sb  Sb16  1  0.750000  0.028762  0.913258  1
  Sb  Sb17  1  0.250000  0.971238  0.086742  1
  Sb  Sb18  1  0.750000  0.143842  0.313832  1
  Sb  Sb19  1  0.250000  0.856158  0.686168  1
  Sb  Sb20  1  0.750000  0.280600  0.936149  1
  Sb  Sb21  1  0.250000  0.719400  0.063851  1
  Sb  Sb22  1  0.750000  0.290054  0.659816  1
  Sb  Sb23  1  0.250000  0.709946  0.340184  1
  Sb  Sb24  1  0.750000  0.572512  0.743058  1
  Sb  Sb25  1  0.250000  0.427488  0.256942  1
  Sb  Sb26  1  0.750000  0.570310  0.443159  1
  Sb  Sb27  1  0.250000  0.429690  0.556841  1
