# generated using pymatgen
data_YbMnFe2Sb12Os
_symmetry_space_group_name_H-M   'P 1'
_cell_length_a   8.07971650
_cell_length_b   8.03300620
_cell_length_c   8.08949111
_cell_angle_alpha   109.45552349
_cell_angle_beta   109.81793060
_cell_angle_gamma   109.37509061
_symmetry_Int_Tables_number   1
_chemical_formula_structural   YbMnFe2Sb12Os
_chemical_formula_sum   'Yb1 Mn1 Fe2 Sb12 Os1'
_cell_volume   402.99780292
_cell_formula_units_Z   1
loop_
 _symmetry_equiv_pos_site_id
 _symmetry_equiv_pos_as_xyz
  1  'x, y, z'
loop_
 _atom_site_type_symbol
 _atom_site_label
 _atom_site_symmetry_multiplicity
 _atom_site_fract_x
 _atom_site_fract_y
 _atom_site_fract_z
 _atom_site_occupancy
  Yb  Yb0  1  0.000000  0.000000  0.000000  1
  Mn  Mn1  1  0.500000  0.500000  0.500000  1
  Fe  Fe2  1  0.500000  0.000000  0.000000  1
  Fe  Fe3  1  0.000000  0.000000  0.500000  1
  Sb  Sb4  1  0.849254  0.670027  0.504233  1
  Sb  Sb5  1  0.150746  0.329973  0.495767  1
  Sb  Sb6  1  0.165938  0.670264  0.824165  1
  Sb  Sb7  1  0.834062  0.329736  0.175835  1
  Sb  Sb8  1  0.658559  0.502930  0.844799  1
  Sb  Sb9  1  0.341441  0.497070  0.155201  1
  Sb  Sb10  1  0.668404  0.830690  0.162315  1
  Sb  Sb11  1  0.331596  0.169310  0.837685  1
  Sb  Sb12  1  0.504497  0.849381  0.670742  1
  Sb  Sb13  1  0.495503  0.150619  0.329258  1
  Sb  Sb14  1  0.175850  0.846751  0.341732  1
  Sb  Sb15  1  0.824150  0.153249  0.658268  1
  Os  Os16  1  0.000000  0.500000  0.000000  1
