# generated using pymatgen
data_YHoCo9Mo3As7
_symmetry_space_group_name_H-M   'P 1'
_cell_length_a   3.84620100
_cell_length_b   9.39414183
_cell_length_c   9.39414200
_cell_angle_alpha   119.99999356
_cell_angle_beta   90.00000000
_cell_angle_gamma   90.00000000
_symmetry_Int_Tables_number   1
_chemical_formula_structural   YHoCo9Mo3As7
_chemical_formula_sum   'Y1 Ho1 Co9 Mo3 As7'
_cell_volume   293.95230479
_cell_formula_units_Z   1
loop_
 _symmetry_equiv_pos_site_id
 _symmetry_equiv_pos_as_xyz
  1  'x, y, z'
loop_
 _atom_site_type_symbol
 _atom_site_label
 _atom_site_symmetry_multiplicity
 _atom_site_fract_x
 _atom_site_fract_y
 _atom_site_fract_z
 _atom_site_occupancy
  Y  Y0  1  0.500000  0.333333  0.666667  1
  Ho  Ho1  1  0.000000  0.666667  0.333333  1
  Co  Co2  1  0.000000  0.570177  0.940553  1
  Co  Co3  1  0.000000  0.370376  0.429823  1
  Co  Co4  1  0.000000  0.059447  0.629624  1
  Co  Co5  1  0.000000  0.876349  0.158426  1
  Co  Co6  1  0.000000  0.282077  0.123651  1
  Co  Co7  1  0.000000  0.841574  0.717923  1
  Co  Co8  1  0.500000  0.949024  0.382850  1
  Co  Co9  1  0.500000  0.433825  0.050976  1
  Co  Co10  1  0.500000  0.617150  0.566175  1
  Mo  Mo11  1  0.500000  0.781106  0.902584  1
  Mo  Mo12  1  0.500000  0.121478  0.218894  1
  Mo  Mo13  1  0.500000  0.097416  0.878522  1
  As  As14  1  0.000000  0.000000  0.000000  1
  As  As15  1  0.500000  0.707743  0.120246  1
  As  As16  1  0.500000  0.412504  0.292257  1
  As  As17  1  0.500000  0.879754  0.587496  1
  As  As18  1  0.000000  0.585874  0.699241  1
  As  As19  1  0.000000  0.113368  0.414126  1
  As  As20  1  0.000000  0.300759  0.886632  1
