# generated using pymatgen
data_NdDy(Tc2P)4
_symmetry_space_group_name_H-M   'P 1'
_cell_length_a   7.45430510
_cell_length_b   7.45430510
_cell_length_c   3.96102700
_cell_angle_alpha   90.00000000
_cell_angle_beta   90.00000000
_cell_angle_gamma   89.52108268
_symmetry_Int_Tables_number   1
_chemical_formula_structural   NdDy(Tc2P)4
_chemical_formula_sum   'Nd1 Dy1 Tc8 P4'
_cell_volume   220.09336966
_cell_formula_units_Z   1
loop_
 _symmetry_equiv_pos_site_id
 _symmetry_equiv_pos_as_xyz
  1  'x, y, z'
loop_
 _atom_site_type_symbol
 _atom_site_label
 _atom_site_symmetry_multiplicity
 _atom_site_fract_x
 _atom_site_fract_y
 _atom_site_fract_z
 _atom_site_occupancy
  Nd  Nd0  1  0.000000  0.000000  0.000000  1
  Dy  Dy1  1  0.500000  0.500000  0.500000  1
  Tc  Tc2  1  0.580809  0.838279  0.000000  1
  Tc  Tc3  1  0.838279  0.580809  0.000000  1
  Tc  Tc4  1  0.161721  0.419191  0.000000  1
  Tc  Tc5  1  0.419191  0.161721  0.000000  1
  Tc  Tc6  1  0.657799  0.083886  0.500000  1
  Tc  Tc7  1  0.916114  0.342201  0.500000  1
  Tc  Tc8  1  0.083886  0.657799  0.500000  1
  Tc  Tc9  1  0.342201  0.916114  0.500000  1
  P  P10  1  0.709586  0.290414  0.000000  1
  P  P11  1  0.290414  0.709586  0.000000  1
  P  P12  1  0.784612  0.784612  0.500000  1
  P  P13  1  0.215388  0.215388  0.500000  1
