# generated using pymatgen
data_Y2Ho3RuPt2
_symmetry_space_group_name_H-M   'P 1'
_cell_length_a   10.98497900
_cell_length_b   10.98497900
_cell_length_c   6.34140400
_cell_angle_alpha   90.00000000
_cell_angle_beta   90.00000000
_cell_angle_gamma   90.00000000
_symmetry_Int_Tables_number   1
_chemical_formula_structural   Y2Ho3RuPt2
_chemical_formula_sum   'Y8 Ho12 Ru4 Pt8'
_cell_volume   765.21572177
_cell_formula_units_Z   4
loop_
 _symmetry_equiv_pos_site_id
 _symmetry_equiv_pos_as_xyz
  1  'x, y, z'
loop_
 _atom_site_type_symbol
 _atom_site_label
 _atom_site_symmetry_multiplicity
 _atom_site_fract_x
 _atom_site_fract_y
 _atom_site_fract_z
 _atom_site_occupancy
  Y  Y0  1  0.295470  0.087461  0.370688  1
  Y  Y1  1  0.295470  0.912539  0.870688  1
  Y  Y2  1  0.704530  0.087461  0.870688  1
  Y  Y3  1  0.704530  0.912539  0.370688  1
  Y  Y4  1  0.587461  0.795470  0.870688  1
  Y  Y5  1  0.587461  0.204530  0.370688  1
  Y  Y6  1  0.412539  0.795470  0.370688  1
  Y  Y7  1  0.412539  0.204530  0.870688  1
  Ho  Ho8  1  0.202574  0.414970  0.627807  1
  Ho  Ho9  1  0.202574  0.585030  0.127807  1
  Ho  Ho10  1  0.797426  0.414970  0.127807  1
  Ho  Ho11  1  0.797426  0.585030  0.627807  1
  Ho  Ho12  1  0.914970  0.702574  0.127807  1
  Ho  Ho13  1  0.914970  0.297426  0.627807  1
  Ho  Ho14  1  0.085030  0.702574  0.627807  1
  Ho  Ho15  1  0.085030  0.297426  0.127807  1
  Ho  Ho16  1  0.000000  0.000000  0.502311  1
  Ho  Ho17  1  0.000000  0.000000  0.002311  1
  Ho  Ho18  1  0.500000  0.500000  0.002311  1
  Ho  Ho19  1  0.500000  0.500000  0.502311  1
  Ru  Ru20  1  0.500000  0.000000  0.121768  1
  Ru  Ru21  1  0.500000  0.000000  0.621768  1
  Ru  Ru22  1  0.000000  0.500000  0.876529  1
  Ru  Ru23  1  0.000000  0.500000  0.376529  1
  Pt  Pt24  1  0.849624  0.155600  0.250774  1
  Pt  Pt25  1  0.849624  0.844400  0.750774  1
  Pt  Pt26  1  0.150376  0.155600  0.750774  1
  Pt  Pt27  1  0.150376  0.844400  0.250774  1
  Pt  Pt28  1  0.655600  0.349624  0.750774  1
  Pt  Pt29  1  0.655600  0.650376  0.250774  1
  Pt  Pt30  1  0.344400  0.349624  0.250774  1
  Pt  Pt31  1  0.344400  0.650376  0.750774  1
