# generated using pymatgen
data_Nb3Co3Ni17B6
_symmetry_space_group_name_H-M   'P 1'
_cell_length_a   7.47456789
_cell_length_b   7.47456805
_cell_length_c   7.47763583
_cell_angle_alpha   59.94221969
_cell_angle_beta   59.94221895
_cell_angle_gamma   59.92890855
_symmetry_Int_Tables_number   1
_chemical_formula_structural   Nb3Co3Ni17B6
_chemical_formula_sum   'Nb3 Co3 Ni17 B6'
_cell_volume   294.99060754
_cell_formula_units_Z   1
loop_
 _symmetry_equiv_pos_site_id
 _symmetry_equiv_pos_as_xyz
  1  'x, y, z'
loop_
 _atom_site_type_symbol
 _atom_site_label
 _atom_site_symmetry_multiplicity
 _atom_site_fract_x
 _atom_site_fract_y
 _atom_site_fract_z
 _atom_site_occupancy
  Nb  Nb0  1  0.254040  0.254040  0.245736  1
  Nb  Nb1  1  0.747866  0.747866  0.747436  1
  Nb  Nb2  1  0.000198  0.000198  0.999534  1
  Co  Co3  1  0.383713  0.383713  0.383827  1
  Co  Co4  1  0.616820  0.616820  0.616323  1
  Co  Co5  1  0.383667  0.383667  0.849344  1
  Ni  Ni6  1  0.384611  0.845311  0.385139  1
  Ni  Ni7  1  0.615440  0.615440  0.154244  1
  Ni  Ni8  1  0.615767  0.153478  0.615400  1
  Ni  Ni9  1  0.845311  0.384611  0.385139  1
  Ni  Ni10  1  0.153478  0.615767  0.615400  1
  Ni  Ni11  1  0.342660  0.999970  0.000531  1
  Ni  Ni12  1  0.657952  0.998762  0.999390  1
  Ni  Ni13  1  0.000456  0.342362  0.656834  1
  Ni  Ni14  1  0.999720  0.657008  0.343484  1
  Ni  Ni15  1  0.999970  0.342660  0.000531  1
  Ni  Ni16  1  0.657008  0.999720  0.343484  1
  Ni  Ni17  1  0.998762  0.657952  0.999390  1
  Ni  Ni18  1  0.342362  0.000456  0.656834  1
  Ni  Ni19  1  0.000426  0.000426  0.343050  1
  Ni  Ni20  1  0.999938  0.999938  0.657119  1
  Ni  Ni21  1  0.657682  0.342713  0.999841  1
  Ni  Ni22  1  0.342713  0.657682  0.999841  1
  B  B23  1  0.728296  0.269618  0.269880  1
  B  B24  1  0.272828  0.727187  0.730871  1
  B  B25  1  0.269618  0.728296  0.269880  1
  B  B26  1  0.727187  0.272828  0.730871  1
  B  B27  1  0.271217  0.271217  0.728743  1
  B  B28  1  0.730292  0.730292  0.271905  1
