# generated using pymatgen
data_Dy3Sc3OsPb2
_symmetry_space_group_name_H-M   'P 1'
_cell_length_a   7.95786700
_cell_length_b   7.95787851
_cell_length_c   4.24591500
_cell_angle_alpha   90.00000000
_cell_angle_beta   90.00000000
_cell_angle_gamma   119.99893372
_symmetry_Int_Tables_number   1
_chemical_formula_structural   Dy3Sc3OsPb2
_chemical_formula_sum   'Dy3 Sc3 Os1 Pb2'
_cell_volume   232.86304647
_cell_formula_units_Z   1
loop_
 _symmetry_equiv_pos_site_id
 _symmetry_equiv_pos_as_xyz
  1  'x, y, z'
loop_
 _atom_site_type_symbol
 _atom_site_label
 _atom_site_symmetry_multiplicity
 _atom_site_fract_x
 _atom_site_fract_y
 _atom_site_fract_z
 _atom_site_occupancy
  Dy  Dy0  1  0.607148  0.000061  0.000000  1
  Dy  Dy1  1  0.000010  0.607059  0.000000  1
  Dy  Dy2  1  0.392771  0.392742  0.000000  1
  Sc  Sc3  1  0.227411  0.999784  0.500000  1
  Sc  Sc4  1  0.000010  0.227586  0.500000  1
  Sc  Sc5  1  0.772519  0.772583  0.500000  1
  Os  Os6  1  0.999953  0.000025  0.000000  1
  Pb  Pb7  1  0.333557  0.666673  0.500000  1
  Pb  Pb8  1  0.666627  0.333487  0.500000  1
