# generated using pymatgen
data_RbCaBO3
_symmetry_space_group_name_H-M   'P 1'
_cell_length_a   7.51062900
_cell_length_b   7.51062900
_cell_length_c   7.51062900
_cell_angle_alpha   90.00000000
_cell_angle_beta   90.00000000
_cell_angle_gamma   90.00000000
_symmetry_Int_Tables_number   1
_chemical_formula_structural   RbCaBO3
_chemical_formula_sum   'Rb4 Ca4 B4 O12'
_cell_volume   423.67118690
_cell_formula_units_Z   4
loop_
 _symmetry_equiv_pos_site_id
 _symmetry_equiv_pos_as_xyz
  1  'x, y, z'
loop_
 _atom_site_type_symbol
 _atom_site_label
 _atom_site_symmetry_multiplicity
 _atom_site_fract_x
 _atom_site_fract_y
 _atom_site_fract_z
 _atom_site_occupancy
  Rb  Rb0  1  0.628548  0.128548  0.371452  1
  Rb  Rb1  1  0.128548  0.371452  0.628548  1
  Rb  Rb2  1  0.371452  0.628548  0.128548  1
  Rb  Rb3  1  0.871452  0.871452  0.871452  1
  Ca  Ca4  1  0.647604  0.352396  0.852396  1
  Ca  Ca5  1  0.147604  0.147604  0.147604  1
  Ca  Ca6  1  0.852396  0.647604  0.352396  1
  Ca  Ca7  1  0.352396  0.852396  0.647604  1
  B  B8  1  0.579607  0.579607  0.579607  1
  B  B9  1  0.420393  0.079607  0.920393  1
  B  B10  1  0.079607  0.920393  0.420393  1
  B  B11  1  0.920393  0.420393  0.079607  1
  O  O12  1  0.542146  0.066339  0.780105  1
  O  O13  1  0.219895  0.042146  0.433661  1
  O  O14  1  0.566339  0.719895  0.457854  1
  O  O15  1  0.042146  0.433661  0.219895  1
  O  O16  1  0.719895  0.457854  0.566339  1
  O  O17  1  0.066339  0.780105  0.542146  1
  O  O18  1  0.457854  0.566339  0.719895  1
  O  O19  1  0.780105  0.542146  0.066339  1
  O  O20  1  0.433661  0.219895  0.042146  1
  O  O21  1  0.957854  0.933661  0.280105  1
  O  O22  1  0.280105  0.957854  0.933661  1
  O  O23  1  0.933661  0.280105  0.957854  1
