# generated using pymatgen
data_Dy8SnHg3Au8
_symmetry_space_group_name_H-M   'P 1'
_cell_length_a   8.02868400
_cell_length_b   8.02868400
_cell_length_c   7.36371000
_cell_angle_alpha   90.00000000
_cell_angle_beta   90.00000000
_cell_angle_gamma   90.00000000
_symmetry_Int_Tables_number   1
_chemical_formula_structural   Dy8SnHg3Au8
_chemical_formula_sum   'Dy8 Sn1 Hg3 Au8'
_cell_volume   474.66302918
_cell_formula_units_Z   1
loop_
 _symmetry_equiv_pos_site_id
 _symmetry_equiv_pos_as_xyz
  1  'x, y, z'
loop_
 _atom_site_type_symbol
 _atom_site_label
 _atom_site_symmetry_multiplicity
 _atom_site_fract_x
 _atom_site_fract_y
 _atom_site_fract_z
 _atom_site_occupancy
  Dy  Dy0  1  0.840879  0.159894  0.500207  1
  Dy  Dy1  1  0.159121  0.840106  0.500207  1
  Dy  Dy2  1  0.340106  0.340879  0.999793  1
  Dy  Dy3  1  0.659894  0.659121  0.999793  1
  Dy  Dy4  1  0.684550  0.684808  0.499969  1
  Dy  Dy5  1  0.315450  0.315192  0.499969  1
  Dy  Dy6  1  0.184808  0.815450  0.000031  1
  Dy  Dy7  1  0.815192  0.184550  0.000031  1
  Sn  Sn8  1  0.000000  0.500000  0.250000  1
  Hg  Hg9  1  0.500000  0.000000  0.250000  1
  Hg  Hg10  1  0.000000  0.500000  0.750000  1
  Hg  Hg11  1  0.500000  0.000000  0.750000  1
  Au  Au12  1  0.625992  0.372238  0.275998  1
  Au  Au13  1  0.374008  0.627762  0.275998  1
  Au  Au14  1  0.127748  0.126257  0.775196  1
  Au  Au15  1  0.872252  0.873743  0.775196  1
  Au  Au16  1  0.373743  0.627748  0.724804  1
  Au  Au17  1  0.626257  0.372252  0.724804  1
  Au  Au18  1  0.872238  0.874008  0.224002  1
  Au  Au19  1  0.127762  0.125992  0.224002  1
