# generated using pymatgen
data_Th3Co3SnTe3
_symmetry_space_group_name_H-M   'P 1'
_cell_length_a   8.30727367
_cell_length_b   8.29746388
_cell_length_c   8.29746300
_cell_angle_alpha   109.42370676
_cell_angle_beta   109.47620090
_cell_angle_gamma   109.47619901
_symmetry_Int_Tables_number   1
_chemical_formula_structural   Th3Co3SnTe3
_chemical_formula_sum   'Th6 Co6 Sn2 Te6'
_cell_volume   440.48219216
_cell_formula_units_Z   2
loop_
 _symmetry_equiv_pos_site_id
 _symmetry_equiv_pos_as_xyz
  1  'x, y, z'
loop_
 _atom_site_type_symbol
 _atom_site_label
 _atom_site_symmetry_multiplicity
 _atom_site_fract_x
 _atom_site_fract_y
 _atom_site_fract_z
 _atom_site_occupancy
  Th  Th0  1  0.372424  0.245560  0.622493  1
  Th  Th1  1  0.750442  0.876069  0.127970  1
  Th  Th2  1  0.250442  0.627970  0.376069  1
  Th  Th3  1  0.625739  0.373596  0.251442  1
  Th  Th4  1  0.872424  0.122493  0.745560  1
  Th  Th5  1  0.125739  0.751442  0.873596  1
  Co  Co6  1  0.124364  0.875115  0.247473  1
  Co  Co7  1  0.624364  0.747473  0.375115  1
  Co  Co8  1  0.874514  0.249320  0.125055  1
  Co  Co9  1  0.252902  0.126385  0.876008  1
  Co  Co10  1  0.752902  0.376008  0.626385  1
  Co  Co11  1  0.374514  0.625055  0.749320  1
  Sn  Sn12  1  0.499293  0.999974  0.340811  1
  Sn  Sn13  1  0.999293  0.840811  0.499974  1
  Te  Te14  1  0.999552  0.342161  0.500954  1
  Te  Te15  1  0.841739  0.501179  0.000402  1
  Te  Te16  1  0.499552  0.000954  0.842161  1
  Te  Te17  1  0.659031  0.659148  0.658885  1
  Te  Te18  1  0.159031  0.158885  0.159148  1
  Te  Te19  1  0.341739  0.500402  0.001179  1
