# generated using pymatgen
data_Yb3Si2(PPd5)4
_symmetry_space_group_name_H-M   'P 1'
_cell_length_a   8.68854486
_cell_length_b   8.68336454
_cell_length_c   8.68854400
_cell_angle_alpha   60.01971073
_cell_angle_beta   59.92923111
_cell_angle_gamma   60.01971721
_symmetry_Int_Tables_number   1
_chemical_formula_structural   Yb3Si2(PPd5)4
_chemical_formula_sum   'Yb3 Si2 P4 Pd20'
_cell_volume   463.40795083
_cell_formula_units_Z   1
loop_
 _symmetry_equiv_pos_site_id
 _symmetry_equiv_pos_as_xyz
  1  'x, y, z'
loop_
 _atom_site_type_symbol
 _atom_site_label
 _atom_site_symmetry_multiplicity
 _atom_site_fract_x
 _atom_site_fract_y
 _atom_site_fract_z
 _atom_site_occupancy
  Yb  Yb0  1  0.998812  0.000000  0.001188  1
  Yb  Yb1  1  0.751442  0.749894  0.748772  1
  Yb  Yb2  1  0.251228  0.250106  0.248558  1
  Si  Si3  1  0.734693  0.266885  0.265307  1
  Si  Si4  1  0.734693  0.733115  0.265307  1
  P  P5  1  0.737697  0.264187  0.733928  1
  P  P6  1  0.266072  0.735813  0.262303  1
  P  P7  1  0.264906  0.737140  0.735094  1
  P  P8  1  0.264906  0.262860  0.735094  1
  Pd  Pd9  1  0.343568  0.001407  0.001027  1
  Pd  Pd10  1  0.000280  0.655807  0.345987  1
  Pd  Pd11  1  0.345382  0.000000  0.654618  1
  Pd  Pd12  1  0.001427  0.654327  0.998573  1
  Pd  Pd13  1  0.654013  0.344193  0.999720  1
  Pd  Pd14  1  0.614322  0.616821  0.152035  1
  Pd  Pd15  1  0.383228  0.846388  0.385003  1
  Pd  Pd16  1  0.155217  0.615015  0.614751  1
  Pd  Pd17  1  0.654445  0.000000  0.345555  1
  Pd  Pd18  1  0.998973  0.346002  0.656432  1
  Pd  Pd19  1  0.654013  0.002074  0.999720  1
  Pd  Pd20  1  0.000280  0.997926  0.345987  1
  Pd  Pd21  1  0.614997  0.153612  0.616772  1
  Pd  Pd22  1  0.343568  0.653998  0.001027  1
  Pd  Pd23  1  0.383228  0.385382  0.385003  1
  Pd  Pd24  1  0.614997  0.614618  0.616772  1
  Pd  Pd25  1  0.385249  0.384985  0.844783  1
  Pd  Pd26  1  0.998973  0.998593  0.656432  1
  Pd  Pd27  1  0.847965  0.383179  0.385678  1
  Pd  Pd28  1  0.001427  0.345673  0.998573  1
