# generated using pymatgen
data_Sc5Si2As
_symmetry_space_group_name_H-M   'P 1'
_cell_length_a   7.91332401
_cell_length_b   7.91391561
_cell_length_c   5.80242400
_cell_angle_alpha   90.00000000
_cell_angle_beta   90.00000000
_cell_angle_gamma   120.00246115
_symmetry_Int_Tables_number   1
_chemical_formula_structural   Sc5Si2As
_chemical_formula_sum   'Sc10 Si4 As2'
_cell_volume   314.68763905
_cell_formula_units_Z   2
loop_
 _symmetry_equiv_pos_site_id
 _symmetry_equiv_pos_as_xyz
  1  'x, y, z'
loop_
 _atom_site_type_symbol
 _atom_site_label
 _atom_site_symmetry_multiplicity
 _atom_site_fract_x
 _atom_site_fract_y
 _atom_site_fract_z
 _atom_site_occupancy
  Sc  Sc0  1  0.996913  0.754381  0.750000  1
  Sc  Sc1  1  0.996913  0.242531  0.250000  1
  Sc  Sc2  1  0.759081  0.758615  0.250000  1
  Sc  Sc3  1  0.759081  0.000466  0.750000  1
  Sc  Sc4  1  0.242170  0.246113  0.750000  1
  Sc  Sc5  1  0.242170  0.996057  0.250000  1
  Sc  Sc6  1  0.332437  0.666219  0.500000  1
  Sc  Sc7  1  0.670142  0.335071  0.000000  1
  Sc  Sc8  1  0.670142  0.335071  0.500000  1
  Sc  Sc9  1  0.332437  0.666219  0.000000  1
  Si  Si10  1  0.000761  0.605841  0.250000  1
  Si  Si11  1  0.000761  0.394921  0.750000  1
  Si  Si12  1  0.607486  0.607762  0.750000  1
  Si  Si13  1  0.607486  0.999724  0.250000  1
  As  As14  1  0.391009  0.000929  0.750000  1
  As  As15  1  0.391009  0.390080  0.250000  1
