# generated using pymatgen
data_Na2U(NbN2)3
_symmetry_space_group_name_H-M   'P 1'
_cell_length_a   5.42155200
_cell_length_b   5.42155171
_cell_length_c   11.03527200
_cell_angle_alpha   90.00000000
_cell_angle_beta   90.00000000
_cell_angle_gamma   119.99998958
_symmetry_Int_Tables_number   1
_chemical_formula_structural   Na2U(NbN2)3
_chemical_formula_sum   'Na4 U2 Nb6 N12'
_cell_volume   280.90595843
_cell_formula_units_Z   2
loop_
 _symmetry_equiv_pos_site_id
 _symmetry_equiv_pos_as_xyz
  1  'x, y, z'
loop_
 _atom_site_type_symbol
 _atom_site_label
 _atom_site_symmetry_multiplicity
 _atom_site_fract_x
 _atom_site_fract_y
 _atom_site_fract_z
 _atom_site_occupancy
  Na  Na0  1  0.333333  0.666667  0.000000  1
  Na  Na1  1  0.333333  0.666667  0.500000  1
  Na  Na2  1  0.666667  0.333333  0.500000  1
  Na  Na3  1  0.666667  0.333333  0.000000  1
  U  U4  1  0.000000  0.000000  0.500000  1
  U  U5  1  0.000000  0.000000  0.000000  1
  Nb  Nb6  1  0.000000  0.346332  0.250000  1
  Nb  Nb7  1  0.653668  0.000000  0.750000  1
  Nb  Nb8  1  0.346332  0.346332  0.750000  1
  Nb  Nb9  1  0.653668  0.653668  0.250000  1
  Nb  Nb10  1  0.346332  0.000000  0.250000  1
  Nb  Nb11  1  0.000000  0.653668  0.750000  1
  N  N12  1  0.688342  0.688342  0.632841  1
  N  N13  1  0.688342  0.688342  0.867159  1
  N  N14  1  0.311658  0.311658  0.132841  1
  N  N15  1  0.311658  0.311658  0.367159  1
  N  N16  1  0.311658  0.000000  0.867159  1
  N  N17  1  0.311658  0.000000  0.632841  1
  N  N18  1  0.000000  0.688342  0.367159  1
  N  N19  1  0.000000  0.688342  0.132841  1
  N  N20  1  0.688342  0.000000  0.132841  1
  N  N21  1  0.688342  0.000000  0.367159  1
  N  N22  1  0.000000  0.311658  0.867159  1
  N  N23  1  0.000000  0.311658  0.632841  1
