# generated using pymatgen
data_Er3Tm13In4RuRh3
_symmetry_space_group_name_H-M   'P 1'
_cell_length_a   9.54127971
_cell_length_b   9.53166793
_cell_length_c   9.54573046
_cell_angle_alpha   59.93925986
_cell_angle_beta   59.91914451
_cell_angle_gamma   59.88426440
_symmetry_Int_Tables_number   1
_chemical_formula_structural   Er3Tm13In4RuRh3
_chemical_formula_sum   'Er3 Tm13 In4 Ru1 Rh3'
_cell_volume   612.66576001
_cell_formula_units_Z   1
loop_
 _symmetry_equiv_pos_site_id
 _symmetry_equiv_pos_as_xyz
  1  'x, y, z'
loop_
 _atom_site_type_symbol
 _atom_site_label
 _atom_site_symmetry_multiplicity
 _atom_site_fract_x
 _atom_site_fract_y
 _atom_site_fract_z
 _atom_site_occupancy
  Er  Er0  1  0.059225  0.059227  0.438325  1
  Er  Er1  1  0.441007  0.061991  0.435204  1
  Er  Er2  1  0.062525  0.438466  0.060891  1
  Tm  Tm3  1  0.046236  0.650319  0.649994  1
  Tm  Tm4  1  0.439012  0.438782  0.060437  1
  Tm  Tm5  1  0.650353  0.046163  0.649328  1
  Tm  Tm6  1  0.189078  0.809826  0.192962  1
  Tm  Tm7  1  0.190834  0.190975  0.809486  1
  Tm  Tm8  1  0.809524  0.809707  0.193404  1
  Tm  Tm9  1  0.439361  0.061126  0.059574  1
  Tm  Tm10  1  0.810136  0.188907  0.192807  1
  Tm  Tm11  1  0.060311  0.442710  0.436683  1
  Tm  Tm12  1  0.809245  0.192112  0.808986  1
  Tm  Tm13  1  0.192059  0.809482  0.809025  1
  Tm  Tm14  1  0.650119  0.649457  0.049146  1
  Tm  Tm15  1  0.652005  0.652882  0.649797  1
  In  In16  1  0.415990  0.416284  0.418382  1
  In  In17  1  0.749785  0.416759  0.416584  1
  In  In18  1  0.416905  0.749367  0.416118  1
  In  In19  1  0.417854  0.417134  0.747943  1
  Ru  Ru20  1  0.858750  0.857738  0.424512  1
  Rh  Rh21  1  0.858165  0.858728  0.860237  1
  Rh  Rh22  1  0.424135  0.857716  0.860538  1
  Rh  Rh23  1  0.857388  0.424145  0.859641  1
