# generated using pymatgen
data_ErMg(Ga2Ni)2
_symmetry_space_group_name_H-M   'P 1'
_cell_length_a   5.23819891
_cell_length_b   5.23819878
_cell_length_c   6.72889600
_cell_angle_alpha   90.00000000
_cell_angle_beta   90.00000000
_cell_angle_gamma   134.70505429
_symmetry_Int_Tables_number   1
_chemical_formula_structural   ErMg(Ga2Ni)2
_chemical_formula_sum   'Er1 Mg1 Ga4 Ni2'
_cell_volume   131.22511424
_cell_formula_units_Z   1
loop_
 _symmetry_equiv_pos_site_id
 _symmetry_equiv_pos_as_xyz
  1  'x, y, z'
loop_
 _atom_site_type_symbol
 _atom_site_label
 _atom_site_symmetry_multiplicity
 _atom_site_fract_x
 _atom_site_fract_y
 _atom_site_fract_z
 _atom_site_occupancy
  Er  Er0  1  0.432852  0.567148  0.750000  1
  Mg  Mg1  1  0.568958  0.431042  0.250000  1
  Ga  Ga2  1  0.854170  0.145830  0.056411  1
  Ga  Ga3  1  0.142624  0.857376  0.954226  1
  Ga  Ga4  1  0.142624  0.857376  0.545774  1
  Ga  Ga5  1  0.854170  0.145830  0.443589  1
  Ni  Ni6  1  0.291832  0.708168  0.250000  1
  Ni  Ni7  1  0.712771  0.287229  0.750000  1
