# generated using pymatgen
data_Tb4Tm4V(B8Os)3
_symmetry_space_group_name_H-M   'P 1'
_cell_length_a   3.62299000
_cell_length_b   9.14305433
_cell_length_c   11.54445701
_cell_angle_alpha   89.94877411
_cell_angle_beta   90.00000000
_cell_angle_gamma   90.00000000
_symmetry_Int_Tables_number   1
_chemical_formula_structural   Tb4Tm4V(B8Os)3
_chemical_formula_sum   'Tb4 Tm4 V1 B24 Os3'
_cell_volume   382.41222991
_cell_formula_units_Z   1
loop_
 _symmetry_equiv_pos_site_id
 _symmetry_equiv_pos_as_xyz
  1  'x, y, z'
loop_
 _atom_site_type_symbol
 _atom_site_label
 _atom_site_symmetry_multiplicity
 _atom_site_fract_x
 _atom_site_fract_y
 _atom_site_fract_z
 _atom_site_occupancy
  Tb  Tb0  1  0.000000  0.322389  0.413178  1
  Tb  Tb1  1  0.000000  0.677192  0.584203  1
  Tb  Tb2  1  0.000000  0.820813  0.087188  1
  Tb  Tb3  1  0.000000  0.177817  0.914668  1
  Tm  Tm4  1  0.000000  0.943500  0.372280  1
  Tm  Tm5  1  0.000000  0.057427  0.628169  1
  Tm  Tm6  1  0.000000  0.444133  0.128203  1
  Tm  Tm7  1  0.000000  0.556951  0.871167  1
  V  V8  1  0.000000  0.638013  0.320342  1
  B  B9  1  0.500000  0.552268  0.433586  1
  B  B10  1  0.500000  0.446200  0.567638  1
  B  B11  1  0.500000  0.053761  0.067921  1
  B  B12  1  0.500000  0.945999  0.932649  1
  B  B13  1  0.500000  0.749940  0.419586  1
  B  B14  1  0.500000  0.251567  0.581488  1
  B  B15  1  0.500000  0.249615  0.081725  1
  B  B16  1  0.500000  0.750633  0.918589  1
  B  B17  1  0.500000  0.793154  0.265697  1
  B  B18  1  0.500000  0.208633  0.734154  1
  B  B19  1  0.500000  0.291531  0.233554  1
  B  B20  1  0.500000  0.709188  0.765941  1
  B  B21  1  0.500000  0.630656  0.184553  1
  B  B22  1  0.500000  0.369154  0.815026  1
  B  B23  1  0.500000  0.130375  0.313794  1
  B  B24  1  0.500000  0.869770  0.685197  1
  B  B25  1  0.500000  0.982428  0.213323  1
  B  B26  1  0.500000  0.017360  0.787302  1
  B  B27  1  0.500000  0.480387  0.286723  1
  B  B28  1  0.500000  0.516881  0.712798  1
  B  B29  1  0.500000  0.602721  0.027641  1
  B  B30  1  0.500000  0.397494  0.971236  1
  B  B31  1  0.500000  0.103455  0.471518  1
  B  B32  1  0.500000  0.897780  0.529096  1
  Os  Os33  1  0.000000  0.360459  0.681270  1
  Os  Os34  1  0.000000  0.138338  0.178322  1
  Os  Os35  1  0.000000  0.862014  0.820276  1
