# generated using pymatgen
data_KHf2CuS5
_symmetry_space_group_name_H-M   'P 1'
_cell_length_a   3.72541100
_cell_length_b   7.52478607
_cell_length_c   15.62647300
_cell_angle_alpha   90.00000000
_cell_angle_beta   90.00000000
_cell_angle_gamma   75.66784956
_symmetry_Int_Tables_number   1
_chemical_formula_structural   KHf2CuS5
_chemical_formula_sum   'K2 Hf4 Cu2 S10'
_cell_volume   424.42206412
_cell_formula_units_Z   2
loop_
 _symmetry_equiv_pos_site_id
 _symmetry_equiv_pos_as_xyz
  1  'x, y, z'
loop_
 _atom_site_type_symbol
 _atom_site_label
 _atom_site_symmetry_multiplicity
 _atom_site_fract_x
 _atom_site_fract_y
 _atom_site_fract_z
 _atom_site_occupancy
  K  K0  1  0.958439  0.083121  0.250000  1
  K  K1  1  0.041560  0.916879  0.750000  1
  Hf  Hf2  1  0.210398  0.579203  0.097541  1
  Hf  Hf3  1  0.210398  0.579203  0.402459  1
  Hf  Hf4  1  0.789601  0.420797  0.597541  1
  Hf  Hf5  1  0.789601  0.420797  0.902459  1
  Cu  Cu6  1  0.677839  0.644319  0.250000  1
  Cu  Cu7  1  0.322159  0.355681  0.750000  1
  S  S8  1  0.827866  0.344266  0.061401  1
  S  S9  1  0.594596  0.810807  0.125444  1
  S  S10  1  0.277030  0.445939  0.250000  1
  S  S11  1  0.594596  0.810807  0.374556  1
  S  S12  1  0.827866  0.344266  0.438599  1
  S  S13  1  0.172133  0.655734  0.561401  1
  S  S14  1  0.405403  0.189193  0.625444  1
  S  S15  1  0.722969  0.554061  0.750000  1
  S  S16  1  0.405403  0.189193  0.874556  1
  S  S17  1  0.172133  0.655734  0.938599  1
