# generated using pymatgen
data_Ac5LaCd23Ir
_symmetry_space_group_name_H-M   'P 1'
_cell_length_a   10.34473927
_cell_length_b   10.33783138
_cell_length_c   10.33783000
_cell_angle_alpha   60.04421681
_cell_angle_beta   59.97788605
_cell_angle_gamma   59.97789108
_symmetry_Int_Tables_number   1
_chemical_formula_structural   Ac5LaCd23Ir
_chemical_formula_sum   'Ac5 La1 Cd23 Ir1'
_cell_volume   781.74115047
_cell_formula_units_Z   1
loop_
 _symmetry_equiv_pos_site_id
 _symmetry_equiv_pos_as_xyz
  1  'x, y, z'
loop_
 _atom_site_type_symbol
 _atom_site_label
 _atom_site_symmetry_multiplicity
 _atom_site_fract_x
 _atom_site_fract_y
 _atom_site_fract_z
 _atom_site_occupancy
  Ac  Ac0  1  0.795189  0.794639  0.204811  1
  Ac  Ac1  1  0.205361  0.794639  0.204811  1
  Ac  Ac2  1  0.795985  0.204015  0.204015  1
  Ac  Ac3  1  0.205361  0.204811  0.794639  1
  Ac  Ac4  1  0.795189  0.204811  0.794639  1
  La  La5  1  0.202188  0.797812  0.797812  1
  Cd  Cd6  1  0.828055  0.827757  0.516135  1
  Cd  Cd7  1  0.828055  0.516135  0.827757  1
  Cd  Cd8  1  0.513582  0.828055  0.828055  1
  Cd  Cd9  1  0.830311  0.828055  0.828055  1
  Cd  Cd10  1  0.171945  0.169689  0.486418  1
  Cd  Cd11  1  0.171945  0.486418  0.169689  1
  Cd  Cd12  1  0.483865  0.171945  0.171945  1
  Cd  Cd13  1  0.172243  0.171945  0.171945  1
  Cd  Cd14  1  0.621737  0.621472  0.135053  1
  Cd  Cd15  1  0.621737  0.135053  0.621472  1
  Cd  Cd16  1  0.136569  0.623033  0.623033  1
  Cd  Cd17  1  0.617363  0.623033  0.623033  1
  Cd  Cd18  1  0.376967  0.382637  0.863431  1
  Cd  Cd19  1  0.376967  0.863431  0.382637  1
  Cd  Cd20  1  0.864947  0.378263  0.378263  1
  Cd  Cd21  1  0.378528  0.378263  0.378263  1
  Cd  Cd22  1  0.001168  0.998832  0.501193  1
  Cd  Cd23  1  0.498807  0.998832  0.501193  1
  Cd  Cd24  1  0.000309  0.499691  0.499691  1
  Cd  Cd25  1  0.498807  0.501193  0.998832  1
  Cd  Cd26  1  0.001168  0.501193  0.998832  1
  Cd  Cd27  1  0.500309  0.999691  0.999691  1
  Cd  Cd28  1  0.500268  0.499732  0.499732  1
  Ir  Ir29  1  0.005077  0.994923  0.994923  1
