# generated using pymatgen
data_Y3Zn2Ga6Co7
_symmetry_space_group_name_H-M   'P 1'
_cell_length_a   4.07962800
_cell_length_b   8.82895794
_cell_length_c   8.92720648
_cell_angle_alpha   59.41122827
_cell_angle_beta   90.00000000
_cell_angle_gamma   90.00000000
_symmetry_Int_Tables_number   1
_chemical_formula_structural   Y3Zn2Ga6Co7
_chemical_formula_sum   'Y3 Zn2 Ga6 Co7'
_cell_volume   276.80180780
_cell_formula_units_Z   1
loop_
 _symmetry_equiv_pos_site_id
 _symmetry_equiv_pos_as_xyz
  1  'x, y, z'
loop_
 _atom_site_type_symbol
 _atom_site_label
 _atom_site_symmetry_multiplicity
 _atom_site_fract_x
 _atom_site_fract_y
 _atom_site_fract_z
 _atom_site_occupancy
  Y  Y0  1  0.500000  0.324521  0.335081  1
  Y  Y1  1  0.500000  0.676381  0.657355  1
  Y  Y2  1  0.000000  0.999505  0.001081  1
  Zn  Zn3  1  0.500000  0.296805  0.706324  1
  Zn  Zn4  1  0.500000  0.703686  0.003193  1
  Ga  Ga5  1  0.000000  0.496142  0.506222  1
  Ga  Ga6  1  0.000000  0.503376  0.002771  1
  Ga  Ga7  1  0.000000  0.999202  0.490560  1
  Ga  Ga8  1  0.500000  0.726838  0.281875  1
  Ga  Ga9  1  0.500000  0.273987  0.007193  1
  Ga  Ga10  1  0.500000  0.000078  0.719022  1
  Co  Co11  1  0.000000  0.179801  0.178902  1
  Co  Co12  1  0.000000  0.179357  0.630028  1
  Co  Co13  1  0.000000  0.632203  0.190256  1
  Co  Co14  1  0.000000  0.820639  0.810299  1
  Co  Co15  1  0.000000  0.367551  0.822947  1
  Co  Co16  1  0.000000  0.818687  0.360534  1
  Co  Co17  1  0.500000  0.001138  0.296459  1
