# generated using pymatgen
data_Tb7Dy9Cd4Ni3Os
_symmetry_space_group_name_H-M   'P 1'
_cell_length_a   9.60103719
_cell_length_b   9.60103659
_cell_length_c   9.60023646
_cell_angle_alpha   59.57267955
_cell_angle_beta   59.57268882
_cell_angle_gamma   59.57047381
_symmetry_Int_Tables_number   1
_chemical_formula_structural   Tb7Dy9Cd4Ni3Os
_chemical_formula_sum   'Tb7 Dy9 Cd4 Ni3 Os1'
_cell_volume   619.66430232
_cell_formula_units_Z   1
loop_
 _symmetry_equiv_pos_site_id
 _symmetry_equiv_pos_as_xyz
  1  'x, y, z'
loop_
 _atom_site_type_symbol
 _atom_site_label
 _atom_site_symmetry_multiplicity
 _atom_site_fract_x
 _atom_site_fract_y
 _atom_site_fract_z
 _atom_site_occupancy
  Tb  Tb0  1  0.811358  0.811358  0.186589  1
  Tb  Tb1  1  0.936249  0.565459  0.565638  1
  Tb  Tb2  1  0.556662  0.939109  0.939013  1
  Tb  Tb3  1  0.565459  0.936249  0.565638  1
  Tb  Tb4  1  0.939109  0.556662  0.939013  1
  Tb  Tb5  1  0.565511  0.565511  0.936155  1
  Tb  Tb6  1  0.939071  0.939071  0.556721  1
  Dy  Dy7  1  0.347462  0.347462  0.347472  1
  Dy  Dy8  1  0.350680  0.350680  0.954087  1
  Dy  Dy9  1  0.350558  0.954106  0.350779  1
  Dy  Dy10  1  0.954106  0.350558  0.350779  1
  Dy  Dy11  1  0.810394  0.188472  0.188263  1
  Dy  Dy12  1  0.186710  0.811427  0.811260  1
  Dy  Dy13  1  0.188472  0.810394  0.188263  1
  Dy  Dy14  1  0.811427  0.186710  0.811260  1
  Dy  Dy15  1  0.188297  0.188297  0.810372  1
  Cd  Cd16  1  0.580070  0.580070  0.580230  1
  Cd  Cd17  1  0.579902  0.579902  0.256212  1
  Cd  Cd18  1  0.579957  0.256212  0.579956  1
  Cd  Cd19  1  0.256212  0.579957  0.579956  1
  Ni  Ni20  1  0.142191  0.142191  0.575028  1
  Ni  Ni21  1  0.142360  0.574864  0.142172  1
  Ni  Ni22  1  0.574864  0.142360  0.142172  1
  Os  Os23  1  0.142919  0.142919  0.142974  1
