# generated using pymatgen
data_Mg4SiGe3Rh4
_symmetry_space_group_name_H-M   'P 1'
_cell_length_a   6.68583555
_cell_length_b   4.13603300
_cell_length_c   7.18275041
_cell_angle_alpha   90.00000000
_cell_angle_beta   89.37233981
_cell_angle_gamma   90.00000000
_symmetry_Int_Tables_number   1
_chemical_formula_structural   Mg4SiGe3Rh4
_chemical_formula_sum   'Mg4 Si1 Ge3 Rh4'
_cell_volume   198.61150440
_cell_formula_units_Z   1
loop_
 _symmetry_equiv_pos_site_id
 _symmetry_equiv_pos_as_xyz
  1  'x, y, z'
loop_
 _atom_site_type_symbol
 _atom_site_label
 _atom_site_symmetry_multiplicity
 _atom_site_fract_x
 _atom_site_fract_y
 _atom_site_fract_z
 _atom_site_occupancy
  Mg  Mg0  1  0.989468  0.750000  0.171419  1
  Mg  Mg1  1  0.491778  0.750000  0.326155  1
  Mg  Mg2  1  0.510655  0.249999  0.674782  1
  Mg  Mg3  1  0.005415  0.249999  0.825977  1
  Si  Si4  1  0.705446  0.750000  0.872771  1
  Ge  Ge5  1  0.289596  0.249999  0.127037  1
  Ge  Ge6  1  0.789249  0.249999  0.371075  1
  Ge  Ge7  1  0.210233  0.750000  0.630172  1
  Rh  Rh8  1  0.659795  0.249999  0.039391  1
  Rh  Rh9  1  0.154743  0.249999  0.451233  1
  Rh  Rh10  1  0.840420  0.750000  0.559259  1
  Rh  Rh11  1  0.353203  0.750000  0.950733  1
