# generated using pymatgen
data_Y8Lu11ScBi12
_symmetry_space_group_name_H-M   'P 1'
_cell_length_a   8.15535200
_cell_length_b   9.36336900
_cell_length_c   11.97015200
_cell_angle_alpha   90.00000000
_cell_angle_beta   89.99734437
_cell_angle_gamma   90.00000000
_symmetry_Int_Tables_number   1
_chemical_formula_structural   Y8Lu11ScBi12
_chemical_formula_sum   'Y8 Lu11 Sc1 Bi12'
_cell_volume   914.05960058
_cell_formula_units_Z   1
loop_
 _symmetry_equiv_pos_site_id
 _symmetry_equiv_pos_as_xyz
  1  'x, y, z'
loop_
 _atom_site_type_symbol
 _atom_site_label
 _atom_site_symmetry_multiplicity
 _atom_site_fract_x
 _atom_site_fract_y
 _atom_site_fract_z
 _atom_site_occupancy
  Y  Y0  1  0.183949  0.750000  0.720426  1
  Y  Y1  1  0.686006  0.750000  0.782734  1
  Y  Y2  1  0.814085  0.250000  0.281644  1
  Y  Y3  1  0.313983  0.250000  0.218323  1
  Y  Y4  1  0.352101  0.750000  0.216057  1
  Y  Y5  1  0.852909  0.750000  0.283326  1
  Y  Y6  1  0.648319  0.250000  0.783918  1
  Y  Y7  1  0.146077  0.250000  0.717282  1
  Lu  Lu8  1  0.523833  0.750000  0.510602  1
  Lu  Lu9  1  0.975958  0.250000  0.010524  1
  Lu  Lu10  1  0.477066  0.250000  0.488918  1
  Lu  Lu11  1  0.307322  0.433582  0.941073  1
  Lu  Lu12  1  0.808641  0.067373  0.559255  1
  Lu  Lu13  1  0.694687  0.931382  0.057769  1
  Lu  Lu14  1  0.191615  0.567331  0.440493  1
  Lu  Lu15  1  0.694687  0.568618  0.057769  1
  Lu  Lu16  1  0.191615  0.932669  0.440493  1
  Lu  Lu17  1  0.307322  0.066418  0.941073  1
  Lu  Lu18  1  0.808641  0.432627  0.559255  1
  Sc  Sc19  1  0.022863  0.750000  0.988883  1
  Bi  Bi20  1  0.433814  0.003635  0.671760  1
  Bi  Bi21  1  0.935520  0.498705  0.830259  1
  Bi  Bi22  1  0.565927  0.504093  0.328136  1
  Bi  Bi23  1  0.065718  0.993491  0.169614  1
  Bi  Bi24  1  0.565927  0.995907  0.328136  1
  Bi  Bi25  1  0.065718  0.506509  0.169614  1
  Bi  Bi26  1  0.433814  0.496365  0.671760  1
  Bi  Bi27  1  0.935520  0.001295  0.830259  1
  Bi  Bi28  1  0.399985  0.750000  0.957880  1
  Bi  Bi29  1  0.904052  0.750000  0.542857  1
  Bi  Bi30  1  0.595859  0.250000  0.042828  1
  Bi  Bi31  1  0.096465  0.250000  0.457079  1
