# generated using pymatgen
data_Tm2Lu10Fe3Hg2
_symmetry_space_group_name_H-M   'P 1'
_cell_length_a   8.13135049
_cell_length_b   8.13135197
_cell_length_c   8.14301255
_cell_angle_alpha   108.41407758
_cell_angle_beta   108.41408599
_cell_angle_gamma   111.55100964
_symmetry_Int_Tables_number   1
_chemical_formula_structural   Tm2Lu10Fe3Hg2
_chemical_formula_sum   'Tm2 Lu10 Fe3 Hg2'
_cell_volume   414.32861680
_cell_formula_units_Z   1
loop_
 _symmetry_equiv_pos_site_id
 _symmetry_equiv_pos_as_xyz
  1  'x, y, z'
loop_
 _atom_site_type_symbol
 _atom_site_label
 _atom_site_symmetry_multiplicity
 _atom_site_fract_x
 _atom_site_fract_y
 _atom_site_fract_z
 _atom_site_occupancy
  Tm  Tm0  1  0.308196  0.308196  0.616390  1
  Tm  Tm1  1  0.691804  0.691804  0.383610  1
  Lu  Lu2  1  0.691257  0.308743  0.000000  1
  Lu  Lu3  1  0.308743  0.691257  0.000000  1
  Lu  Lu4  1  0.187577  0.425898  0.237317  1
  Lu  Lu5  1  0.812423  0.574102  0.762683  1
  Lu  Lu6  1  0.188581  0.950259  0.762683  1
  Lu  Lu7  1  0.950259  0.188581  0.762683  1
  Lu  Lu8  1  0.811419  0.049741  0.237317  1
  Lu  Lu9  1  0.049741  0.811419  0.237317  1
  Lu  Lu10  1  0.425898  0.187577  0.237317  1
  Lu  Lu11  1  0.574102  0.812423  0.762683  1
  Fe  Fe12  1  0.382012  0.382012  0.000000  1
  Fe  Fe13  1  0.617988  0.617988  0.000000  1
  Fe  Fe14  1  0.000000  0.000000  0.000000  1
  Hg  Hg15  1  0.000000  0.500000  0.500000  1
  Hg  Hg16  1  0.500000  0.000000  0.500000  1
