# generated using pymatgen
data_Er3In3NiIrPd
_symmetry_space_group_name_H-M   'P 1'
_cell_length_a   7.72217300
_cell_length_b   7.72217412
_cell_length_c   3.66089300
_cell_angle_alpha   90.00000000
_cell_angle_beta   90.00000000
_cell_angle_gamma   119.99999947
_symmetry_Int_Tables_number   1
_chemical_formula_structural   Er3In3NiIrPd
_chemical_formula_sum   'Er3 In3 Ni1 Ir1 Pd1'
_cell_volume   189.05875196
_cell_formula_units_Z   1
loop_
 _symmetry_equiv_pos_site_id
 _symmetry_equiv_pos_as_xyz
  1  'x, y, z'
loop_
 _atom_site_type_symbol
 _atom_site_label
 _atom_site_symmetry_multiplicity
 _atom_site_fract_x
 _atom_site_fract_y
 _atom_site_fract_z
 _atom_site_occupancy
  Er  Er0  1  0.412343  0.015101  0.500000  1
  Er  Er1  1  0.602758  0.587657  0.500000  1
  Er  Er2  1  0.984899  0.397242  0.500000  1
  In  In3  1  0.252090  0.256304  0.000000  1
  In  In4  1  0.743696  0.995786  0.000000  1
  In  In5  1  0.004214  0.747910  0.000000  1
  Ni  Ni6  1  0.000000  0.000000  0.500000  1
  Ir  Ir7  1  0.666667  0.333333  0.000000  1
  Pd  Pd8  1  0.333333  0.666667  0.000000  1
