# generated using pymatgen
data_Nd4Np(BN3)2
_symmetry_space_group_name_H-M   'P 1'
_cell_length_a   6.39729758
_cell_length_b   6.39729734
_cell_length_c   8.74319305
_cell_angle_alpha   74.50542900
_cell_angle_beta   74.50542818
_cell_angle_gamma   32.38263337
_symmetry_Int_Tables_number   1
_chemical_formula_structural   Nd4Np(BN3)2
_chemical_formula_sum   'Nd4 Np1 B2 N6'
_cell_volume   184.07314899
_cell_formula_units_Z   1
loop_
 _symmetry_equiv_pos_site_id
 _symmetry_equiv_pos_as_xyz
  1  'x, y, z'
loop_
 _atom_site_type_symbol
 _atom_site_label
 _atom_site_symmetry_multiplicity
 _atom_site_fract_x
 _atom_site_fract_y
 _atom_site_fract_z
 _atom_site_occupancy
  Nd  Nd0  1  0.622649  0.622649  0.625112  1
  Nd  Nd1  1  0.309476  0.309476  0.815758  1
  Nd  Nd2  1  0.690524  0.690524  0.184242  1
  Nd  Nd3  1  0.377351  0.377351  0.374888  1
  Np  Np4  1  0.000000  0.000000  0.000000  1
  B  B5  1  0.054623  0.054623  0.408757  1
  B  B6  1  0.945377  0.945377  0.591243  1
  N  N7  1  0.026786  0.026786  0.251510  1
  N  N8  1  0.363393  0.363393  0.074328  1
  N  N9  1  0.824858  0.824858  0.592668  1
  N  N10  1  0.973214  0.973214  0.748490  1
  N  N11  1  0.636607  0.636607  0.925672  1
  N  N12  1  0.175142  0.175142  0.407332  1
