# generated using pymatgen
data_Ce2AlSi13Ir6
_symmetry_space_group_name_H-M   'P 1'
_cell_length_a   8.08441065
_cell_length_b   8.08441087
_cell_length_c   8.08440985
_cell_angle_alpha   56.93466164
_cell_angle_beta   56.93466156
_cell_angle_gamma   56.93465357
_symmetry_Int_Tables_number   1
_chemical_formula_structural   Ce2AlSi13Ir6
_chemical_formula_sum   'Ce2 Al1 Si13 Ir6'
_cell_volume   347.20408612
_cell_formula_units_Z   1
loop_
 _symmetry_equiv_pos_site_id
 _symmetry_equiv_pos_as_xyz
  1  'x, y, z'
loop_
 _atom_site_type_symbol
 _atom_site_label
 _atom_site_symmetry_multiplicity
 _atom_site_fract_x
 _atom_site_fract_y
 _atom_site_fract_z
 _atom_site_occupancy
  Ce  Ce0  1  0.999493  0.999493  0.999493  1
  Ce  Ce1  1  0.500507  0.500507  0.500507  1
  Al  Al2  1  0.750000  0.750000  0.750000  1
  Si  Si3  1  0.250000  0.250000  0.250000  1
  Si  Si4  1  0.850265  0.064448  0.670739  1
  Si  Si5  1  0.670739  0.850265  0.064448  1
  Si  Si6  1  0.064448  0.670739  0.850265  1
  Si  Si7  1  0.649735  0.829261  0.435552  1
  Si  Si8  1  0.435552  0.649735  0.829261  1
  Si  Si9  1  0.829261  0.435552  0.649735  1
  Si  Si10  1  0.169304  0.562289  0.355704  1
  Si  Si11  1  0.562289  0.355704  0.169304  1
  Si  Si12  1  0.355704  0.169304  0.562289  1
  Si  Si13  1  0.937711  0.330696  0.144296  1
  Si  Si14  1  0.330696  0.144296  0.937711  1
  Si  Si15  1  0.144296  0.937711  0.330696  1
  Ir  Ir16  1  0.078984  0.421016  0.750000  1
  Ir  Ir17  1  0.250000  0.930785  0.569215  1
  Ir  Ir18  1  0.569215  0.250000  0.930785  1
  Ir  Ir19  1  0.930785  0.569215  0.250000  1
  Ir  Ir20  1  0.421016  0.750000  0.078984  1
  Ir  Ir21  1  0.750000  0.078984  0.421016  1
