# generated using pymatgen
data_Cs4Tm9Lu3Se20
_symmetry_space_group_name_H-M   'P 1'
_cell_length_a   4.09537200
_cell_length_b   12.36606642
_cell_length_c   21.99520374
_cell_angle_alpha   90.02972502
_cell_angle_beta   90.00000000
_cell_angle_gamma   90.00000000
_symmetry_Int_Tables_number   1
_chemical_formula_structural   Cs4Tm9Lu3Se20
_chemical_formula_sum   'Cs4 Tm9 Lu3 Se20'
_cell_volume   1113.91707733
_cell_formula_units_Z   1
loop_
 _symmetry_equiv_pos_site_id
 _symmetry_equiv_pos_as_xyz
  1  'x, y, z'
loop_
 _atom_site_type_symbol
 _atom_site_label
 _atom_site_symmetry_multiplicity
 _atom_site_fract_x
 _atom_site_fract_y
 _atom_site_fract_z
 _atom_site_occupancy
  Cs  Cs0  1  0.250000  0.854192  0.091260  1
  Cs  Cs1  1  0.750000  0.145899  0.908703  1
  Cs  Cs2  1  0.750000  0.353769  0.408469  1
  Cs  Cs3  1  0.250000  0.646225  0.591432  1
  Tm  Tm4  1  0.750000  0.796923  0.825392  1
  Tm  Tm5  1  0.250000  0.202936  0.174692  1
  Tm  Tm6  1  0.250000  0.296760  0.674479  1
  Tm  Tm7  1  0.750000  0.703173  0.325497  1
  Tm  Tm8  1  0.250000  0.956673  0.697772  1
  Tm  Tm9  1  0.750000  0.043287  0.302218  1
  Tm  Tm10  1  0.750000  0.456588  0.801981  1
  Tm  Tm11  1  0.250000  0.543548  0.197858  1
  Tm  Tm12  1  0.750000  0.392306  0.054034  1
  Lu  Lu13  1  0.250000  0.607817  0.945815  1
  Lu  Lu14  1  0.250000  0.892473  0.445909  1
  Lu  Lu15  1  0.750000  0.107490  0.554053  1
  Se  Se16  1  0.250000  0.949209  0.568552  1
  Se  Se17  1  0.750000  0.050787  0.431456  1
  Se  Se18  1  0.750000  0.449526  0.931059  1
  Se  Se19  1  0.250000  0.552117  0.068633  1
  Se  Se20  1  0.750000  0.762532  0.952410  1
  Se  Se21  1  0.250000  0.235820  0.047664  1
  Se  Se22  1  0.250000  0.262312  0.547563  1
  Se  Se23  1  0.750000  0.737669  0.452432  1
  Se  Se24  1  0.250000  0.949186  0.825616  1
  Se  Se25  1  0.750000  0.050705  0.174447  1
  Se  Se26  1  0.750000  0.449135  0.674258  1
  Se  Se27  1  0.250000  0.550843  0.325643  1
  Se  Se28  1  0.750000  0.125531  0.684082  1
  Se  Se29  1  0.250000  0.874456  0.315921  1
  Se  Se30  1  0.250000  0.625648  0.815824  1
  Se  Se31  1  0.750000  0.374399  0.184785  1
  Se  Se32  1  0.750000  0.694321  0.197859  1
  Se  Se33  1  0.250000  0.305836  0.802175  1
  Se  Se34  1  0.250000  0.194008  0.302295  1
  Se  Se35  1  0.750000  0.805900  0.697763  1
