# generated using pymatgen
data_Y2Sc3Si4(GePt3)3
_symmetry_space_group_name_H-M   'P 1'
_cell_length_a   10.15434700
_cell_length_b   10.15434772
_cell_length_c   4.02414200
_cell_angle_alpha   90.00000000
_cell_angle_beta   90.00000000
_cell_angle_gamma   120.00000092
_symmetry_Int_Tables_number   1
_chemical_formula_structural   Y2Sc3Si4(GePt3)3
_chemical_formula_sum   'Y2 Sc3 Si4 Ge3 Pt9'
_cell_volume   359.34197974
_cell_formula_units_Z   1
loop_
 _symmetry_equiv_pos_site_id
 _symmetry_equiv_pos_as_xyz
  1  'x, y, z'
loop_
 _atom_site_type_symbol
 _atom_site_label
 _atom_site_symmetry_multiplicity
 _atom_site_fract_x
 _atom_site_fract_y
 _atom_site_fract_z
 _atom_site_occupancy
  Y  Y0  1  0.000000  0.000000  0.000000  1
  Y  Y1  1  0.333333  0.666667  0.500000  1
  Sc  Sc2  1  0.894109  0.455478  0.500000  1
  Sc  Sc3  1  0.561368  0.105891  0.500000  1
  Sc  Sc4  1  0.544522  0.438632  0.500000  1
  Si  Si5  1  0.556248  0.646969  0.000000  1
  Si  Si6  1  0.353031  0.909278  0.000000  1
  Si  Si7  1  0.090722  0.443752  0.000000  1
  Si  Si8  1  0.666667  0.333333  0.000000  1
  Ge  Ge9  1  0.244342  0.195995  0.500000  1
  Ge  Ge10  1  0.804005  0.048348  0.500000  1
  Ge  Ge11  1  0.951652  0.755658  0.500000  1
  Pt  Pt12  1  0.229842  0.935143  0.500000  1
  Pt  Pt13  1  0.064857  0.294701  0.500000  1
  Pt  Pt14  1  0.705299  0.770158  0.500000  1
  Pt  Pt15  1  0.316508  0.417375  0.000000  1
  Pt  Pt16  1  0.582625  0.899133  0.000000  1
  Pt  Pt17  1  0.100867  0.683492  0.000000  1
  Pt  Pt18  1  0.390338  0.171689  0.000000  1
  Pt  Pt19  1  0.828311  0.218649  0.000000  1
  Pt  Pt20  1  0.781351  0.609662  0.000000  1
