# generated using pymatgen
data_LaTh(AsSe)2
_symmetry_space_group_name_H-M   'P 1'
_cell_length_a   4.12164100
_cell_length_b   4.12164100
_cell_length_c   8.80519900
_cell_angle_alpha   90.00000000
_cell_angle_beta   90.00000000
_cell_angle_gamma   90.00000000
_symmetry_Int_Tables_number   1
_chemical_formula_structural   LaTh(AsSe)2
_chemical_formula_sum   'La1 Th1 As2 Se2'
_cell_volume   149.58205611
_cell_formula_units_Z   1
loop_
 _symmetry_equiv_pos_site_id
 _symmetry_equiv_pos_as_xyz
  1  'x, y, z'
loop_
 _atom_site_type_symbol
 _atom_site_label
 _atom_site_symmetry_multiplicity
 _atom_site_fract_x
 _atom_site_fract_y
 _atom_site_fract_z
 _atom_site_occupancy
  La  La0  1  0.000000  0.500000  0.727826  1
  Th  Th1  1  0.500000  0.000000  0.270842  1
  As  As2  1  0.000000  0.000000  0.006622  1
  As  As3  1  0.500000  0.500000  0.006622  1
  Se  Se4  1  0.000000  0.500000  0.364564  1
  Se  Se5  1  0.500000  0.000000  0.623524  1
