# generated using pymatgen
data_Ho16CdHg3(IrRu)2
_symmetry_space_group_name_H-M   'P 1'
_cell_length_a   9.56332111
_cell_length_b   9.56421755
_cell_length_c   9.61296500
_cell_angle_alpha   59.83125016
_cell_angle_beta   59.82812818
_cell_angle_gamma   59.76258532
_symmetry_Int_Tables_number   1
_chemical_formula_structural   Ho16CdHg3(IrRu)2
_chemical_formula_sum   'Ho16 Cd1 Hg3 Ir2 Ru2'
_cell_volume   619.00830507
_cell_formula_units_Z   1
loop_
 _symmetry_equiv_pos_site_id
 _symmetry_equiv_pos_as_xyz
  1  'x, y, z'
loop_
 _atom_site_type_symbol
 _atom_site_label
 _atom_site_symmetry_multiplicity
 _atom_site_fract_x
 _atom_site_fract_y
 _atom_site_fract_z
 _atom_site_occupancy
  Ho  Ho0  1  0.599370  0.599079  0.599082  1
  Ho  Ho1  1  0.599370  0.599079  0.202471  1
  Ho  Ho2  1  0.597988  0.206489  0.597762  1
  Ho  Ho3  1  0.204656  0.598376  0.598485  1
  Ho  Ho4  1  0.060945  0.438881  0.441191  1
  Ho  Ho5  1  0.438114  0.061542  0.059501  1
  Ho  Ho6  1  0.438114  0.061542  0.440843  1
  Ho  Ho7  1  0.060945  0.438881  0.058983  1
  Ho  Ho8  1  0.438354  0.438739  0.061454  1
  Ho  Ho9  1  0.058502  0.058690  0.441404  1
  Ho  Ho10  1  0.187117  0.809904  0.813094  1
  Ho  Ho11  1  0.809916  0.188290  0.188670  1
  Ho  Ho12  1  0.809916  0.188290  0.813124  1
  Ho  Ho13  1  0.187117  0.809904  0.189886  1
  Ho  Ho14  1  0.811207  0.811327  0.188733  1
  Ho  Ho15  1  0.187639  0.189645  0.811358  1
  Cd  Cd16  1  0.508522  0.830258  0.830609  1
  Hg  Hg17  1  0.832732  0.834424  0.834327  1
  Hg  Hg18  1  0.832732  0.834424  0.498518  1
  Hg  Hg19  1  0.833016  0.497209  0.834886  1
  Ir  Ir20  1  0.393833  0.826570  0.389799  1
  Ir  Ir21  1  0.826583  0.394196  0.389610  1
  Ru  Ru22  1  0.391656  0.392132  0.387831  1
  Ru  Ru23  1  0.391656  0.392132  0.828381  1
