# generated using pymatgen
data_Ho2Er3Pb3Cl
_symmetry_space_group_name_H-M   'P 1'
_cell_length_a   9.15394913
_cell_length_b   9.15394893
_cell_length_c   6.56440500
_cell_angle_alpha   90.00000000
_cell_angle_beta   90.00000000
_cell_angle_gamma   119.98081205
_symmetry_Int_Tables_number   1
_chemical_formula_structural   Ho2Er3Pb3Cl
_chemical_formula_sum   'Ho4 Er6 Pb6 Cl2'
_cell_volume   476.46051677
_cell_formula_units_Z   2
loop_
 _symmetry_equiv_pos_site_id
 _symmetry_equiv_pos_as_xyz
  1  'x, y, z'
loop_
 _atom_site_type_symbol
 _atom_site_label
 _atom_site_symmetry_multiplicity
 _atom_site_fract_x
 _atom_site_fract_y
 _atom_site_fract_z
 _atom_site_occupancy
  Ho  Ho0  1  0.260956  0.000001  0.250000  1
  Ho  Ho1  1  0.739044  0.999999  0.750000  1
  Ho  Ho2  1  0.000001  0.260956  0.250000  1
  Ho  Ho3  1  0.999999  0.739044  0.750000  1
  Er  Er4  1  0.738942  0.738942  0.250000  1
  Er  Er5  1  0.261058  0.261058  0.750000  1
  Er  Er6  1  0.333358  0.666642  0.000000  1
  Er  Er7  1  0.666642  0.333358  0.000000  1
  Er  Er8  1  0.666642  0.333358  0.500000  1
  Er  Er9  1  0.333358  0.666642  0.500000  1
  Pb  Pb10  1  0.610226  0.999873  0.250000  1
  Pb  Pb11  1  0.389774  0.000127  0.750000  1
  Pb  Pb12  1  0.999873  0.610226  0.250000  1
  Pb  Pb13  1  0.000127  0.389774  0.750000  1
  Pb  Pb14  1  0.390002  0.390002  0.250000  1
  Pb  Pb15  1  0.609998  0.609998  0.750000  1
  Cl  Cl16  1  0.000000  0.000000  0.000000  1
  Cl  Cl17  1  0.000000  0.000000  0.500000  1
