# generated using pymatgen
data_Ca2TbSm(Ga2Ag)4
_symmetry_space_group_name_H-M   'P 1'
_cell_length_a   4.39770200
_cell_length_b   7.02702554
_cell_length_c   10.43794610
_cell_angle_alpha   89.30394870
_cell_angle_beta   90.00000000
_cell_angle_gamma   90.00000000
_symmetry_Int_Tables_number   1
_chemical_formula_structural   Ca2TbSm(Ga2Ag)4
_chemical_formula_sum   'Ca2 Tb1 Sm1 Ga8 Ag4'
_cell_volume   322.53758573
_cell_formula_units_Z   1
loop_
 _symmetry_equiv_pos_site_id
 _symmetry_equiv_pos_as_xyz
  1  'x, y, z'
loop_
 _atom_site_type_symbol
 _atom_site_label
 _atom_site_symmetry_multiplicity
 _atom_site_fract_x
 _atom_site_fract_y
 _atom_site_fract_z
 _atom_site_occupancy
  Ca  Ca0  1  0.250000  0.777434  0.827510  1
  Ca  Ca1  1  0.750000  0.222542  0.172258  1
  Tb  Tb2  1  0.250000  0.279277  0.670619  1
  Sm  Sm3  1  0.750000  0.720788  0.329098  1
  Ga  Ga4  1  0.250000  0.926010  0.152405  1
  Ga  Ga5  1  0.750000  0.074727  0.846869  1
  Ga  Ga6  1  0.750000  0.573093  0.650629  1
  Ga  Ga7  1  0.250000  0.425227  0.349781  1
  Ga  Ga8  1  0.250000  0.703523  0.536256  1
  Ga  Ga9  1  0.750000  0.295714  0.464742  1
  Ga  Ga10  1  0.750000  0.798110  0.035392  1
  Ga  Ga11  1  0.250000  0.202436  0.963784  1
  Ag  Ag12  1  0.250000  0.542511  0.098055  1
  Ag  Ag13  1  0.750000  0.457312  0.901637  1
  Ag  Ag14  1  0.750000  0.957121  0.598195  1
  Ag  Ag15  1  0.250000  0.044175  0.402772  1
