# generated using pymatgen
data_Y5Si10As2Rh19
_symmetry_space_group_name_H-M   'P 1'
_cell_length_a   12.82185600
_cell_length_b   12.82185571
_cell_length_c   3.93313400
_cell_angle_alpha   90.00000000
_cell_angle_beta   90.00000000
_cell_angle_gamma   120.17313246
_symmetry_Int_Tables_number   1
_chemical_formula_structural   Y5Si10As2Rh19
_chemical_formula_sum   'Y5 Si10 As2 Rh19'
_cell_volume   558.99875303
_cell_formula_units_Z   1
loop_
 _symmetry_equiv_pos_site_id
 _symmetry_equiv_pos_as_xyz
  1  'x, y, z'
loop_
 _atom_site_type_symbol
 _atom_site_label
 _atom_site_symmetry_multiplicity
 _atom_site_fract_x
 _atom_site_fract_y
 _atom_site_fract_z
 _atom_site_occupancy
  Y  Y0  1  0.666909  0.334765  0.000000  1
  Y  Y1  1  0.334765  0.666909  0.000000  1
  Y  Y2  1  0.192309  0.192309  0.500000  1
  Y  Y3  1  0.807478  0.996681  0.500000  1
  Y  Y4  1  0.996681  0.807478  0.500000  1
  Si  Si5  1  0.372899  0.372899  0.000000  1
  Si  Si6  1  0.628431  0.000289  0.000000  1
  Si  Si7  1  0.000289  0.628431  0.000000  1
  Si  Si8  1  0.833419  0.315118  0.500000  1
  Si  Si9  1  0.686284  0.521617  0.500000  1
  Si  Si10  1  0.481244  0.166967  0.500000  1
  Si  Si11  1  0.315118  0.833419  0.500000  1
  Si  Si12  1  0.521617  0.686284  0.500000  1
  Si  Si13  1  0.166967  0.481244  0.500000  1
  Si  Si14  1  0.815135  0.815135  0.000000  1
  As  As15  1  0.178047  0.998676  0.000000  1
  As  As16  1  0.998676  0.178047  0.000000  1
  Rh  Rh17  1  0.555395  0.555395  0.000000  1
  Rh  Rh18  1  0.446052  0.000878  0.000000  1
  Rh  Rh19  1  0.000878  0.446052  0.000000  1
  Rh  Rh20  1  0.816094  0.195646  0.000000  1
  Rh  Rh21  1  0.806660  0.623839  0.000000  1
  Rh  Rh22  1  0.377866  0.183483  0.000000  1
  Rh  Rh23  1  0.195646  0.816094  0.000000  1
  Rh  Rh24  1  0.623839  0.806660  0.000000  1
  Rh  Rh25  1  0.183483  0.377866  0.000000  1
  Rh  Rh26  1  0.639537  0.126535  0.500000  1
  Rh  Rh27  1  0.873643  0.514051  0.500000  1
  Rh  Rh28  1  0.487117  0.360696  0.500000  1
  Rh  Rh29  1  0.126535  0.639537  0.500000  1
  Rh  Rh30  1  0.514051  0.873643  0.500000  1
  Rh  Rh31  1  0.360696  0.487117  0.500000  1
  Rh  Rh32  1  0.719668  0.719668  0.500000  1
  Rh  Rh33  1  0.283664  0.999634  0.500000  1
  Rh  Rh34  1  0.999634  0.283664  0.500000  1
  Rh  Rh35  1  0.993274  0.993274  0.000000  1
