# generated using pymatgen
data_Pr2Be25Ni
_symmetry_space_group_name_H-M   'P 1'
_cell_length_a   7.36642009
_cell_length_b   7.37755797
_cell_length_c   7.34916433
_cell_angle_alpha   60.02711067
_cell_angle_beta   59.93823518
_cell_angle_gamma   59.79520184
_symmetry_Int_Tables_number   1
_chemical_formula_structural   Pr2Be25Ni
_chemical_formula_sum   'Pr2 Be25 Ni1'
_cell_volume   281.90411307
_cell_formula_units_Z   1
loop_
 _symmetry_equiv_pos_site_id
 _symmetry_equiv_pos_as_xyz
  1  'x, y, z'
loop_
 _atom_site_type_symbol
 _atom_site_label
 _atom_site_symmetry_multiplicity
 _atom_site_fract_x
 _atom_site_fract_y
 _atom_site_fract_z
 _atom_site_occupancy
  Pr  Pr0  1  0.249934  0.251401  0.250287  1
  Pr  Pr1  1  0.749713  0.751622  0.750066  1
  Be  Be2  1  0.500964  0.500393  0.499036  1
  Be  Be3  1  0.999905  0.001730  0.000095  1
  Be  Be4  1  0.208616  0.437890  0.791384  1
  Be  Be5  1  0.565200  0.787964  0.434800  1
  Be  Be6  1  0.434397  0.209611  0.565603  1
  Be  Be7  1  0.287760  0.935082  0.712240  1
  Be  Be8  1  0.711445  0.065107  0.288555  1
  Be  Be9  1  0.934509  0.288079  0.065491  1
  Be  Be10  1  0.065888  0.714627  0.934112  1
  Be  Be11  1  0.210374  0.790946  0.562770  1
  Be  Be12  1  0.788734  0.209870  0.437341  1
  Be  Be13  1  0.437230  0.564090  0.789626  1
  Be  Be14  1  0.562659  0.435946  0.211266  1
  Be  Be15  1  0.713135  0.284586  0.935419  1
  Be  Be16  1  0.286421  0.713686  0.064245  1
  Be  Be17  1  0.064581  0.933140  0.286865  1
  Be  Be18  1  0.935755  0.064352  0.713579  1
  Be  Be19  1  0.562585  0.211538  0.788946  1
  Be  Be20  1  0.435017  0.788072  0.211726  1
  Be  Be21  1  0.788274  0.434816  0.564983  1
  Be  Be22  1  0.211054  0.563069  0.437415  1
  Be  Be23  1  0.936255  0.713167  0.286533  1
  Be  Be24  1  0.065059  0.286863  0.712363  1
  Be  Be25  1  0.287637  0.064285  0.934941  1
  Be  Be26  1  0.713467  0.935954  0.063745  1
  Ni  Ni27  1  0.793429  0.562113  0.206571  1
