# generated using pymatgen
data_LuZr3(ScPt)4
_symmetry_space_group_name_H-M   'P 1'
_cell_length_a   4.62696400
_cell_length_b   6.74317161
_cell_length_c   8.18666899
_cell_angle_alpha   88.80923724
_cell_angle_beta   90.00000000
_cell_angle_gamma   90.00000000
_symmetry_Int_Tables_number   1
_chemical_formula_structural   LuZr3(ScPt)4
_chemical_formula_sum   'Lu1 Zr3 Sc4 Pt4'
_cell_volume   255.37228730
_cell_formula_units_Z   1
loop_
 _symmetry_equiv_pos_site_id
 _symmetry_equiv_pos_as_xyz
  1  'x, y, z'
loop_
 _atom_site_type_symbol
 _atom_site_label
 _atom_site_symmetry_multiplicity
 _atom_site_fract_x
 _atom_site_fract_y
 _atom_site_fract_z
 _atom_site_occupancy
  Lu  Lu0  1  0.250000  0.486017  0.182105  1
  Zr  Zr1  1  0.250000  0.850470  0.916832  1
  Zr  Zr2  1  0.250000  0.349281  0.579321  1
  Zr  Zr3  1  0.750000  0.147042  0.081773  1
  Sc  Sc4  1  0.750000  0.656911  0.424264  1
  Sc  Sc5  1  0.250000  0.983362  0.325946  1
  Sc  Sc6  1  0.750000  0.014873  0.675080  1
  Sc  Sc7  1  0.750000  0.514759  0.817807  1
  Pt  Pt8  1  0.250000  0.243648  0.906375  1
  Pt  Pt9  1  0.250000  0.748372  0.595015  1
  Pt  Pt10  1  0.750000  0.751247  0.089322  1
  Pt  Pt11  1  0.750000  0.254021  0.406161  1
