# generated using pymatgen
data_Tb2Er(SnRh)3
_symmetry_space_group_name_H-M   'P 1'
_cell_length_a   7.68854900
_cell_length_b   7.66988193
_cell_length_c   3.73531800
_cell_angle_alpha   90.00000000
_cell_angle_beta   90.00000000
_cell_angle_gamma   120.08052968
_symmetry_Int_Tables_number   1
_chemical_formula_structural   Tb2Er(SnRh)3
_chemical_formula_sum   'Tb2 Er1 Sn3 Rh3'
_cell_volume   190.60675521
_cell_formula_units_Z   1
loop_
 _symmetry_equiv_pos_site_id
 _symmetry_equiv_pos_as_xyz
  1  'x, y, z'
loop_
 _atom_site_type_symbol
 _atom_site_label
 _atom_site_symmetry_multiplicity
 _atom_site_fract_x
 _atom_site_fract_y
 _atom_site_fract_z
 _atom_site_occupancy
  Tb  Tb0  1  0.403448  0.403728  0.000000  1
  Tb  Tb1  1  0.999720  0.596272  0.000000  1
  Er  Er2  1  0.597046  0.000000  0.000000  1
  Sn  Sn3  1  0.734158  0.736156  0.500000  1
  Sn  Sn4  1  0.998002  0.263844  0.500000  1
  Sn  Sn5  1  0.266678  0.000000  0.500000  1
  Rh  Rh6  1  0.999879  0.000000  0.000000  1
  Rh  Rh7  1  0.666241  0.331412  0.500000  1
  Rh  Rh8  1  0.334828  0.668588  0.500000  1
