# generated using pymatgen
data_Pr4ReOsC4
_symmetry_space_group_name_H-M   'P 1'
_cell_length_a   5.43604800
_cell_length_b   6.69253400
_cell_length_c   10.27339200
_cell_angle_alpha   90.00000000
_cell_angle_beta   90.00000000
_cell_angle_gamma   90.00000000
_symmetry_Int_Tables_number   1
_chemical_formula_structural   Pr4ReOsC4
_chemical_formula_sum   'Pr8 Re2 Os2 C8'
_cell_volume   373.75561753
_cell_formula_units_Z   2
loop_
 _symmetry_equiv_pos_site_id
 _symmetry_equiv_pos_as_xyz
  1  'x, y, z'
loop_
 _atom_site_type_symbol
 _atom_site_label
 _atom_site_symmetry_multiplicity
 _atom_site_fract_x
 _atom_site_fract_y
 _atom_site_fract_z
 _atom_site_occupancy
  Pr  Pr0  1  0.250000  0.474690  0.786291  1
  Pr  Pr1  1  0.750000  0.025310  0.286291  1
  Pr  Pr2  1  0.250000  0.976030  0.712596  1
  Pr  Pr3  1  0.750000  0.523970  0.212596  1
  Pr  Pr4  1  0.250000  0.811095  0.048820  1
  Pr  Pr5  1  0.750000  0.688905  0.548820  1
  Pr  Pr6  1  0.250000  0.309151  0.450209  1
  Pr  Pr7  1  0.750000  0.190849  0.950209  1
  Re  Re8  1  0.250000  0.768176  0.356094  1
  Re  Re9  1  0.750000  0.731824  0.856094  1
  Os  Os10  1  0.250000  0.267859  0.143715  1
  Os  Os11  1  0.750000  0.232141  0.643715  1
  C  C12  1  0.250000  0.688481  0.536312  1
  C  C13  1  0.750000  0.811519  0.036312  1
  C  C14  1  0.250000  0.188859  0.965191  1
  C  C15  1  0.750000  0.311141  0.465191  1
  C  C16  1  0.250000  0.031973  0.257947  1
  C  C17  1  0.750000  0.468027  0.757947  1
  C  C18  1  0.250000  0.530488  0.242828  1
  C  C19  1  0.750000  0.969512  0.742828  1
