# generated using pymatgen
data_Dy5HoCoCl10
_symmetry_space_group_name_H-M   'P 1'
_cell_length_a   7.07309949
_cell_length_b   8.72980790
_cell_length_c   8.87638648
_cell_angle_alpha   109.25863254
_cell_angle_beta   96.74325984
_cell_angle_gamma   105.77344416
_symmetry_Int_Tables_number   1
_chemical_formula_structural   Dy5HoCoCl10
_chemical_formula_sum   'Dy5 Ho1 Co1 Cl10'
_cell_volume   484.82536858
_cell_formula_units_Z   1
loop_
 _symmetry_equiv_pos_site_id
 _symmetry_equiv_pos_as_xyz
  1  'x, y, z'
loop_
 _atom_site_type_symbol
 _atom_site_label
 _atom_site_symmetry_multiplicity
 _atom_site_fract_x
 _atom_site_fract_y
 _atom_site_fract_z
 _atom_site_occupancy
  Dy  Dy0  1  0.135044  0.859527  0.810706  1
  Dy  Dy1  1  0.530563  0.703612  0.903639  1
  Dy  Dy2  1  0.470062  0.296753  0.097044  1
  Dy  Dy3  1  0.634895  0.054640  0.755675  1
  Dy  Dy4  1  0.366203  0.946331  0.244691  1
  Ho  Ho5  1  0.863324  0.138837  0.187506  1
  Co  Co6  1  0.499492  0.999972  0.999636  1
  Cl  Cl7  1  0.743001  0.082679  0.453182  1
  Cl  Cl8  1  0.259587  0.918894  0.546133  1
  Cl  Cl9  1  0.950016  0.825168  0.076700  1
  Cl  Cl10  1  0.049527  0.175661  0.924564  1
  Cl  Cl11  1  0.283514  0.251554  0.344323  1
  Cl  Cl12  1  0.711417  0.747196  0.653338  1
  Cl  Cl13  1  0.590375  0.373337  0.838899  1
  Cl  Cl14  1  0.411487  0.627924  0.162723  1
  Cl  Cl15  1  0.850822  0.453629  0.277099  1
  Cl  Cl16  1  0.150670  0.544285  0.724142  1
