# generated using pymatgen
data_Hf3Co8ReP6
_symmetry_space_group_name_H-M   'P 1'
_cell_length_a   11.90736602
_cell_length_b   11.92630429
_cell_length_c   3.64754500
_cell_angle_alpha   90.00000000
_cell_angle_beta   90.00000000
_cell_angle_gamma   120.05263132
_symmetry_Int_Tables_number   1
_chemical_formula_structural   Hf3Co8ReP6
_chemical_formula_sum   'Hf6 Co16 Re2 P12'
_cell_volume   448.35530037
_cell_formula_units_Z   2
loop_
 _symmetry_equiv_pos_site_id
 _symmetry_equiv_pos_as_xyz
  1  'x, y, z'
loop_
 _atom_site_type_symbol
 _atom_site_label
 _atom_site_symmetry_multiplicity
 _atom_site_fract_x
 _atom_site_fract_y
 _atom_site_fract_z
 _atom_site_occupancy
  Hf  Hf0  1  0.821473  0.820158  0.500000  1
  Hf  Hf1  1  0.000000  0.174635  0.500000  1
  Hf  Hf2  1  0.333663  0.667298  0.000000  1
  Hf  Hf3  1  0.666337  0.333634  0.000000  1
  Hf  Hf4  1  0.000000  0.556305  0.000000  1
  Hf  Hf5  1  0.178527  0.998686  0.500000  1
  Co  Co6  1  0.624971  0.821349  0.000000  1
  Co  Co7  1  0.375029  0.196378  0.000000  1
  Co  Co8  1  0.000000  0.721851  0.500000  1
  Co  Co9  1  0.281574  0.281162  0.500000  1
  Co  Co10  1  0.869982  0.351683  0.500000  1
  Co  Co11  1  0.718426  0.999588  0.500000  1
  Co  Co12  1  0.816070  0.627096  0.000000  1
  Co  Co13  1  0.183930  0.811026  0.000000  1
  Co  Co14  1  0.359513  0.874845  0.500000  1
  Co  Co15  1  0.130018  0.481700  0.500000  1
  Co  Co16  1  0.640487  0.515332  0.500000  1
  Co  Co17  1  0.000000  0.000004  0.000000  1
  Co  Co18  1  0.513734  0.644911  0.500000  1
  Co  Co19  1  0.486266  0.131177  0.500000  1
  Co  Co20  1  0.195893  0.371109  0.000000  1
  Co  Co21  1  0.804107  0.175216  0.000000  1
  Re  Re22  1  0.447942  0.448921  0.000000  1
  Re  Re23  1  0.552058  0.000979  0.000000  1
  P  P24  1  0.000000  0.345386  0.000000  1
  P  P25  1  0.824818  0.516309  0.500000  1
  P  P26  1  0.685118  0.166007  0.500000  1
  P  P27  1  0.176567  0.174290  0.000000  1
  P  P28  1  0.641346  0.645502  0.000000  1
  P  P29  1  0.823433  0.997723  0.000000  1
  P  P30  1  0.518434  0.833578  0.500000  1
  P  P31  1  0.175182  0.691490  0.500000  1
  P  P32  1  0.358654  0.004156  0.000000  1
  P  P33  1  0.481566  0.315146  0.500000  1
  P  P34  1  0.000000  0.824481  0.000000  1
  P  P35  1  0.314882  0.480889  0.500000  1
