# generated using pymatgen
data_PrNd4Ta2BiO14
_symmetry_space_group_name_H-M   'P 1'
_cell_length_a   6.69380831
_cell_length_b   6.78480977
_cell_length_c   7.71975911
_cell_angle_alpha   89.98612973
_cell_angle_beta   89.99228160
_cell_angle_gamma   109.16397676
_symmetry_Int_Tables_number   1
_chemical_formula_structural   PrNd4Ta2BiO14
_chemical_formula_sum   'Pr1 Nd4 Ta2 Bi1 O14'
_cell_volume   331.17288656
_cell_formula_units_Z   1
loop_
 _symmetry_equiv_pos_site_id
 _symmetry_equiv_pos_as_xyz
  1  'x, y, z'
loop_
 _atom_site_type_symbol
 _atom_site_label
 _atom_site_symmetry_multiplicity
 _atom_site_fract_x
 _atom_site_fract_y
 _atom_site_fract_z
 _atom_site_occupancy
  Pr  Pr0  1  0.539301  0.529430  0.500908  1
  Nd  Nd1  1  0.541477  0.531667  0.998768  1
  Nd  Nd2  1  0.010374  0.463675  0.750451  1
  Nd  Nd3  1  0.531100  0.003358  0.750407  1
  Nd  Nd4  1  0.450596  0.000141  0.249554  1
  Ta  Ta5  1  0.995103  0.995348  0.501205  1
  Ta  Ta6  1  0.995053  0.995297  0.998833  1
  Bi  Bi7  1  0.013889  0.503493  0.249481  1
  O  O8  1  0.938483  0.067571  0.750039  1
  O  O9  1  0.047443  0.961620  0.250033  1
  O  O10  1  0.368985  0.631840  0.248356  1
  O  O11  1  0.642996  0.363084  0.751658  1
  O  O12  1  0.379258  0.631562  0.751860  1
  O  O13  1  0.629656  0.359332  0.248066  1
  O  O14  1  0.300096  0.054469  0.967912  1
  O  O15  1  0.677949  0.924781  0.470986  1
  O  O16  1  0.300765  0.055007  0.532007  1
  O  O17  1  0.677589  0.923490  0.028930  1
  O  O18  1  0.053981  0.309424  0.468498  1
  O  O19  1  0.925300  0.692935  0.959643  1
  O  O20  1  0.926969  0.693566  0.540754  1
  O  O21  1  0.053635  0.308908  0.031648  1
