# generated using pymatgen
data_Er3Tm2IrRu
_symmetry_space_group_name_H-M   'P 1'
_cell_length_a   6.34506987
_cell_length_b   7.22409952
_cell_length_c   8.36718387
_cell_angle_alpha   96.80217889
_cell_angle_beta   112.28191578
_cell_angle_gamma   90.00000165
_symmetry_Int_Tables_number   1
_chemical_formula_structural   Er3Tm2IrRu
_chemical_formula_sum   'Er6 Tm4 Ir2 Ru2'
_cell_volume   351.97242504
_cell_formula_units_Z   2
loop_
 _symmetry_equiv_pos_site_id
 _symmetry_equiv_pos_as_xyz
  1  'x, y, z'
loop_
 _atom_site_type_symbol
 _atom_site_label
 _atom_site_symmetry_multiplicity
 _atom_site_fract_x
 _atom_site_fract_y
 _atom_site_fract_z
 _atom_site_occupancy
  Er  Er0  1  0.792121  0.081728  0.814800  1
  Er  Er1  1  0.977321  0.418272  0.185200  1
  Er  Er2  1  0.209487  0.915121  0.183619  1
  Er  Er3  1  0.025869  0.584879  0.816381  1
  Er  Er4  1  0.208125  0.182062  0.563401  1
  Er  Er5  1  0.644724  0.317938  0.436599  1
  Tm  Tm6  1  0.790210  0.815096  0.437721  1
  Tm  Tm7  1  0.352489  0.684904  0.562279  1
  Tm  Tm8  1  0.423818  0.250000  0.000000  1
  Tm  Tm9  1  0.576348  0.750000  0.000000  1
  Ir  Ir10  1  0.604151  0.424113  0.779416  1
  Ir  Ir11  1  0.824733  0.075887  0.220584  1
  Ru  Ru12  1  0.394995  0.575089  0.219389  1
  Ru  Ru13  1  0.175607  0.924911  0.780611  1
