# generated using pymatgen
data_Hf5Sc3V12Si15Ge
_symmetry_space_group_name_H-M   'P 1'
_cell_length_a   6.62076230
_cell_length_b   6.63022781
_cell_length_c   12.27022163
_cell_angle_alpha   89.98329430
_cell_angle_beta   90.00278725
_cell_angle_gamma   89.97467855
_symmetry_Int_Tables_number   1
_chemical_formula_structural   Hf5Sc3V12Si15Ge
_chemical_formula_sum   'Hf5 Sc3 V12 Si15 Ge1'
_cell_volume   538.62783520
_cell_formula_units_Z   1
loop_
 _symmetry_equiv_pos_site_id
 _symmetry_equiv_pos_as_xyz
  1  'x, y, z'
loop_
 _atom_site_type_symbol
 _atom_site_label
 _atom_site_symmetry_multiplicity
 _atom_site_fract_x
 _atom_site_fract_y
 _atom_site_fract_z
 _atom_site_occupancy
  Hf  Hf0  1  0.002524  0.659242  0.029492  1
  Hf  Hf1  1  0.837354  0.503381  0.280419  1
  Hf  Hf2  1  0.161476  0.496550  0.779778  1
  Hf  Hf3  1  0.502815  0.837745  0.719387  1
  Hf  Hf4  1  0.499279  0.164609  0.221512  1
  Sc  Sc5  1  0.998206  0.337844  0.529447  1
  Sc  Sc6  1  0.664461  0.001190  0.970077  1
  Sc  Sc7  1  0.337898  0.998166  0.470671  1
  V  V8  1  0.331238  0.338030  0.999376  1
  V  V9  1  0.165986  0.831321  0.251255  1
  V  V10  1  0.833040  0.167130  0.750006  1
  V  V11  1  0.667214  0.667307  0.500131  1
  V  V12  1  0.000210  0.162807  0.127855  1
  V  V13  1  0.342285  0.505328  0.375507  1
  V  V14  1  0.659358  0.495143  0.875908  1
  V  V15  1  0.505557  0.342426  0.624676  1
  V  V16  1  0.497069  0.655204  0.124178  1
  V  V17  1  0.995169  0.840563  0.627730  1
  V  V18  1  0.157492  0.003583  0.870992  1
  V  V19  1  0.840577  0.994661  0.372568  1
  Si  Si20  1  0.538034  0.793519  0.315258  1
  Si  Si21  1  0.461469  0.206626  0.815284  1
  Si  Si22  1  0.793540  0.538553  0.684499  1
  Si  Si23  1  0.207734  0.460705  0.185728  1
  Si  Si24  1  0.708497  0.039545  0.563811  1
  Si  Si25  1  0.959218  0.289485  0.935330  1
  Si  Si26  1  0.039332  0.708121  0.436649  1
  Si  Si27  1  0.703421  0.370801  0.070659  1
  Si  Si28  1  0.128178  0.203714  0.320988  1
  Si  Si29  1  0.870787  0.794798  0.821152  1
  Si  Si30  1  0.204512  0.128829  0.678624  1
  Si  Si31  1  0.795059  0.872094  0.178966  1
  Si  Si32  1  0.296031  0.628272  0.570751  1
  Si  Si33  1  0.373654  0.702668  0.926790  1
  Si  Si34  1  0.628506  0.295962  0.429716  1
  Ge  Ge35  1  0.292817  0.964075  0.064831  1
