# generated using pymatgen
data_Hf9TiMnRe3
_symmetry_space_group_name_H-M   'P 1'
_cell_length_a   8.59252100
_cell_length_b   8.59252034
_cell_length_c   8.46524300
_cell_angle_alpha   90.00000000
_cell_angle_beta   90.00000000
_cell_angle_gamma   119.99999867
_symmetry_Int_Tables_number   1
_chemical_formula_structural   Hf9TiMnRe3
_chemical_formula_sum   'Hf18 Ti2 Mn2 Re6'
_cell_volume   541.26661152
_cell_formula_units_Z   2
loop_
 _symmetry_equiv_pos_site_id
 _symmetry_equiv_pos_as_xyz
  1  'x, y, z'
loop_
 _atom_site_type_symbol
 _atom_site_label
 _atom_site_symmetry_multiplicity
 _atom_site_fract_x
 _atom_site_fract_y
 _atom_site_fract_z
 _atom_site_occupancy
  Hf  Hf0  1  0.201133  0.798867  0.441928  1
  Hf  Hf1  1  0.201133  0.402266  0.441928  1
  Hf  Hf2  1  0.597734  0.798867  0.441928  1
  Hf  Hf3  1  0.798867  0.201133  0.558072  1
  Hf  Hf4  1  0.798867  0.597734  0.558072  1
  Hf  Hf5  1  0.402266  0.201133  0.558072  1
  Hf  Hf6  1  0.798867  0.201133  0.941928  1
  Hf  Hf7  1  0.798867  0.597734  0.941928  1
  Hf  Hf8  1  0.402266  0.201133  0.941928  1
  Hf  Hf9  1  0.201133  0.798867  0.058072  1
  Hf  Hf10  1  0.201133  0.402266  0.058072  1
  Hf  Hf11  1  0.597734  0.798867  0.058072  1
  Hf  Hf12  1  0.540696  0.459304  0.250000  1
  Hf  Hf13  1  0.540696  0.081393  0.250000  1
  Hf  Hf14  1  0.918607  0.459304  0.250000  1
  Hf  Hf15  1  0.459304  0.540696  0.750000  1
  Hf  Hf16  1  0.459304  0.918607  0.750000  1
  Hf  Hf17  1  0.081393  0.540696  0.750000  1
  Ti  Ti18  1  0.000000  0.000000  0.500000  1
  Ti  Ti19  1  0.000000  0.000000  0.000000  1
  Mn  Mn20  1  0.333333  0.666667  0.250000  1
  Mn  Mn21  1  0.666667  0.333333  0.750000  1
  Re  Re22  1  0.886519  0.113481  0.250000  1
  Re  Re23  1  0.886519  0.773039  0.250000  1
  Re  Re24  1  0.226961  0.113481  0.250000  1
  Re  Re25  1  0.113481  0.886519  0.750000  1
  Re  Re26  1  0.113481  0.226961  0.750000  1
  Re  Re27  1  0.773039  0.886519  0.750000  1
