# generated using pymatgen
data_Ti10ZnCu(Sn2Sb)2
_symmetry_space_group_name_H-M   'P 1'
_cell_length_a   8.21616109
_cell_length_b   8.20113611
_cell_length_c   5.54192405
_cell_angle_alpha   89.95042595
_cell_angle_beta   90.09897379
_cell_angle_gamma   120.06063065
_symmetry_Int_Tables_number   1
_chemical_formula_structural   Ti10ZnCu(Sn2Sb)2
_chemical_formula_sum   'Ti10 Zn1 Cu1 Sn4 Sb2'
_cell_volume   323.19740153
_cell_formula_units_Z   1
loop_
 _symmetry_equiv_pos_site_id
 _symmetry_equiv_pos_as_xyz
  1  'x, y, z'
loop_
 _atom_site_type_symbol
 _atom_site_label
 _atom_site_symmetry_multiplicity
 _atom_site_fract_x
 _atom_site_fract_y
 _atom_site_fract_z
 _atom_site_occupancy
  Ti  Ti0  1  0.271288  0.000000  0.751216  1
  Ti  Ti1  1  0.728712  0.000000  0.248784  1
  Ti  Ti2  1  0.998865  0.267908  0.751872  1
  Ti  Ti3  1  0.001135  0.732092  0.248128  1
  Ti  Ti4  1  0.730957  0.732092  0.751872  1
  Ti  Ti5  1  0.269043  0.267908  0.248128  1
  Ti  Ti6  1  0.335142  0.670285  0.500000  1
  Ti  Ti7  1  0.664858  0.329715  0.500000  1
  Ti  Ti8  1  0.665009  0.330018  0.000000  1
  Ti  Ti9  1  0.334991  0.669982  0.000000  1
  Zn  Zn10  1  0.000000  0.000000  0.500000  1
  Cu  Cu11  1  0.000000  0.000000  0.000000  1
  Sn  Sn12  1  0.998363  0.614932  0.750114  1
  Sn  Sn13  1  0.001637  0.385068  0.249886  1
  Sn  Sn14  1  0.383431  0.385068  0.750114  1
  Sn  Sn15  1  0.616569  0.614932  0.249886  1
  Sb  Sb16  1  0.617588  0.000000  0.749997  1
  Sb  Sb17  1  0.382412  0.000000  0.250003  1
