# generated using pymatgen
data_Tb2Ho3Bi3O14
_symmetry_space_group_name_H-M   'P 1'
_cell_length_a   6.58324451
_cell_length_b   6.60519657
_cell_length_c   7.73992742
_cell_angle_alpha   106.79225076
_cell_angle_beta   89.65575085
_cell_angle_gamma   98.73340676
_symmetry_Int_Tables_number   1
_chemical_formula_structural   Tb2Ho3Bi3O14
_chemical_formula_sum   'Tb2 Ho3 Bi3 O14'
_cell_volume   318.21787140
_cell_formula_units_Z   1
loop_
 _symmetry_equiv_pos_site_id
 _symmetry_equiv_pos_as_xyz
  1  'x, y, z'
loop_
 _atom_site_type_symbol
 _atom_site_label
 _atom_site_symmetry_multiplicity
 _atom_site_fract_x
 _atom_site_fract_y
 _atom_site_fract_z
 _atom_site_occupancy
  Tb  Tb0  1  0.736808  0.460337  0.112657  1
  Tb  Tb1  1  0.741596  0.478551  0.618585  1
  Ho  Ho2  1  0.461298  0.007007  0.253345  1
  Ho  Ho3  1  0.537260  0.998258  0.750559  1
  Ho  Ho4  1  0.272350  0.535634  0.882532  1
  Bi  Bi5  1  0.994484  0.000593  0.501202  1
  Bi  Bi6  1  0.000051  0.996382  0.997409  1
  Bi  Bi7  1  0.280325  0.532044  0.388238  1
  O  O8  1  0.451359  0.653751  0.164946  1
  O  O9  1  0.553152  0.351492  0.834431  1
  O  O10  1  0.303231  0.919564  0.950527  1
  O  O11  1  0.698172  0.076178  0.050605  1
  O  O12  1  0.298732  0.932275  0.517235  1
  O  O13  1  0.697434  0.083852  0.491309  1
  O  O14  1  0.549023  0.360872  0.343589  1
  O  O15  1  0.459563  0.640901  0.659125  1
  O  O16  1  0.928590  0.661156  0.950805  1
  O  O17  1  0.071550  0.326203  0.027163  1
  O  O18  1  0.067942  0.342493  0.629996  1
  O  O19  1  0.905272  0.663977  0.380424  1
  O  O20  1  0.869297  0.900059  0.725674  1
  O  O21  1  0.122510  0.078421  0.269645  1
