# generated using pymatgen
data_Gd5Y5(Pb3C)2
_symmetry_space_group_name_H-M   'P 1'
_cell_length_a   9.19447600
_cell_length_b   9.19447657
_cell_length_c   6.62440800
_cell_angle_alpha   90.00000000
_cell_angle_beta   90.00000000
_cell_angle_gamma   119.78245487
_symmetry_Int_Tables_number   1
_chemical_formula_structural   Gd5Y5(Pb3C)2
_chemical_formula_sum   'Gd5 Y5 Pb6 C2'
_cell_volume   486.04844734
_cell_formula_units_Z   1
loop_
 _symmetry_equiv_pos_site_id
 _symmetry_equiv_pos_as_xyz
  1  'x, y, z'
loop_
 _atom_site_type_symbol
 _atom_site_label
 _atom_site_symmetry_multiplicity
 _atom_site_fract_x
 _atom_site_fract_y
 _atom_site_fract_z
 _atom_site_occupancy
  Gd  Gd0  1  0.211146  0.000687  0.250000  1
  Gd  Gd1  1  0.790853  0.000463  0.750000  1
  Gd  Gd2  1  0.000687  0.211146  0.250000  1
  Gd  Gd3  1  0.000463  0.790853  0.750000  1
  Gd  Gd4  1  0.792084  0.792084  0.250000  1
  Y  Y5  1  0.208401  0.208401  0.750000  1
  Y  Y6  1  0.332752  0.666378  0.999892  1
  Y  Y7  1  0.666378  0.332752  0.999892  1
  Y  Y8  1  0.666378  0.332752  0.500108  1
  Y  Y9  1  0.332752  0.666378  0.500108  1
  Pb  Pb10  1  0.587311  0.999599  0.250000  1
  Pb  Pb11  1  0.411332  0.000912  0.750000  1
  Pb  Pb12  1  0.999599  0.587311  0.250000  1
  Pb  Pb13  1  0.000912  0.411332  0.750000  1
  Pb  Pb14  1  0.414194  0.414194  0.250000  1
  Pb  Pb15  1  0.586400  0.586400  0.750000  1
  C  C16  1  0.999179  0.999179  0.999330  1
  C  C17  1  0.999179  0.999179  0.500670  1
