# generated using pymatgen
data_Ca3Tb3Mn2(VC6)2
_symmetry_space_group_name_H-M   'P 1'
_cell_length_a   8.19014801
_cell_length_b   8.18396935
_cell_length_c   5.03146000
_cell_angle_alpha   90.00000000
_cell_angle_beta   90.00000000
_cell_angle_gamma   120.03021476
_symmetry_Int_Tables_number   1
_chemical_formula_structural   Ca3Tb3Mn2(VC6)2
_chemical_formula_sum   'Ca3 Tb3 Mn2 V2 C12'
_cell_volume   291.97663084
_cell_formula_units_Z   1
loop_
 _symmetry_equiv_pos_site_id
 _symmetry_equiv_pos_as_xyz
  1  'x, y, z'
loop_
 _atom_site_type_symbol
 _atom_site_label
 _atom_site_symmetry_multiplicity
 _atom_site_fract_x
 _atom_site_fract_y
 _atom_site_fract_z
 _atom_site_occupancy
  Ca  Ca0  1  0.609727  0.683683  0.750000  1
  Ca  Ca1  1  0.924714  0.608805  0.250000  1
  Ca  Ca2  1  0.680748  0.073744  0.250000  1
  Tb  Tb3  1  0.314855  0.933682  0.750000  1
  Tb  Tb4  1  0.066400  0.383760  0.750000  1
  Tb  Tb5  1  0.384459  0.317199  0.250000  1
  Mn  Mn6  1  0.666678  0.331545  0.750000  1
  Mn  Mn7  1  0.332612  0.664136  0.250000  1
  V  V8  1  0.998929  0.998802  0.500659  1
  V  V9  1  0.998929  0.998802  0.999341  1
  C  C10  1  0.956383  0.765796  0.750000  1
  C  C11  1  0.196684  0.960968  0.250000  1
  C  C12  1  0.766657  0.814093  0.250000  1
  C  C13  1  0.233613  0.193254  0.750000  1
  C  C14  1  0.817083  0.047856  0.750000  1
  C  C15  1  0.044867  0.230810  0.250000  1
  C  C16  1  0.859724  0.573848  0.750000  1
  C  C17  1  0.283043  0.855176  0.250000  1
  C  C18  1  0.576621  0.716984  0.250000  1
  C  C19  1  0.427475  0.283948  0.750000  1
  C  C20  1  0.142272  0.423132  0.250000  1
  C  C21  1  0.717529  0.139976  0.750000  1
