# generated using pymatgen
data_Ca3La(NdSn)16
_symmetry_space_group_name_H-M   'P 1'
_cell_length_a   8.20247815
_cell_length_b   8.47313714
_cell_length_c   16.16942300
_cell_angle_alpha   90.04776037
_cell_angle_beta   89.63422559
_cell_angle_gamma   89.74489310
_symmetry_Int_Tables_number   1
_chemical_formula_structural   Ca3La(NdSn)16
_chemical_formula_sum   'Ca3 La1 Nd16 Sn16'
_cell_volume   1123.75211932
_cell_formula_units_Z   1
loop_
 _symmetry_equiv_pos_site_id
 _symmetry_equiv_pos_as_xyz
  1  'x, y, z'
loop_
 _atom_site_type_symbol
 _atom_site_label
 _atom_site_symmetry_multiplicity
 _atom_site_fract_x
 _atom_site_fract_y
 _atom_site_fract_z
 _atom_site_occupancy
  Ca  Ca0  1  0.185945  0.496386  0.248435  1
  Ca  Ca1  1  0.684082  0.000399  0.248661  1
  Ca  Ca2  1  0.316763  0.999343  0.751130  1
  La  La3  1  0.000623  0.183952  0.406057  1
  Nd  Nd4  1  0.355843  0.829820  0.121724  1
  Nd  Nd5  1  0.149163  0.331810  0.622211  1
  Nd  Nd6  1  0.491436  0.683018  0.902163  1
  Nd  Nd7  1  0.855506  0.665505  0.119762  1
  Nd  Nd8  1  0.145540  0.332160  0.877951  1
  Nd  Nd9  1  0.491143  0.682179  0.599807  1
  Nd  Nd10  1  0.648464  0.171152  0.625349  1
  Nd  Nd11  1  0.814655  0.503395  0.751130  1
  Nd  Nd12  1  0.853209  0.665558  0.379074  1
  Nd  Nd13  1  0.003672  0.183578  0.094326  1
  Nd  Nd14  1  0.996256  0.819580  0.903167  1
  Nd  Nd15  1  0.645021  0.167551  0.876749  1
  Nd  Nd16  1  0.506964  0.317597  0.094519  1
  Nd  Nd17  1  0.351607  0.829610  0.374815  1
  Nd  Nd18  1  0.998573  0.817032  0.597872  1
  Nd  Nd19  1  0.505919  0.319237  0.403428  1
  Sn  Sn20  1  0.805281  0.466418  0.543490  1
  Sn  Sn21  1  0.680239  0.957975  0.464451  1
  Sn  Sn22  1  0.693329  0.859508  0.750568  1
  Sn  Sn23  1  0.197449  0.540780  0.462201  1
  Sn  Sn24  1  0.306968  0.039421  0.962074  1
  Sn  Sn25  1  0.808316  0.359220  0.248804  1
  Sn  Sn26  1  0.803140  0.463502  0.957800  1
  Sn  Sn27  1  0.554980  0.608928  0.248702  1
  Sn  Sn28  1  0.197856  0.536908  0.038442  1
  Sn  Sn29  1  0.444224  0.390204  0.751393  1
  Sn  Sn30  1  0.187009  0.641432  0.750337  1
  Sn  Sn31  1  0.950336  0.111204  0.749619  1
  Sn  Sn32  1  0.318063  0.035630  0.539107  1
  Sn  Sn33  1  0.692444  0.961133  0.037651  1
  Sn  Sn34  1  0.308571  0.138638  0.248459  1
  Sn  Sn35  1  0.051411  0.890237  0.248572  1
