# generated using pymatgen
data_YEr(Si7Ir3)2
_symmetry_space_group_name_H-M   'P 1'
_cell_length_a   8.05051245
_cell_length_b   8.05051339
_cell_length_c   8.05051250
_cell_angle_alpha   56.47716543
_cell_angle_beta   56.47715979
_cell_angle_gamma   56.47717482
_symmetry_Int_Tables_number   1
_chemical_formula_structural   YEr(Si7Ir3)2
_chemical_formula_sum   'Y1 Er1 Si14 Ir6'
_cell_volume   338.89564237
_cell_formula_units_Z   1
loop_
 _symmetry_equiv_pos_site_id
 _symmetry_equiv_pos_as_xyz
  1  'x, y, z'
loop_
 _atom_site_type_symbol
 _atom_site_label
 _atom_site_symmetry_multiplicity
 _atom_site_fract_x
 _atom_site_fract_y
 _atom_site_fract_z
 _atom_site_occupancy
  Y  Y0  1  0.500000  0.500000  0.500000  1
  Er  Er1  1  0.000000  0.000000  0.000000  1
  Si  Si2  1  0.850381  0.063924  0.672792  1
  Si  Si3  1  0.672792  0.850381  0.063924  1
  Si  Si4  1  0.063924  0.672792  0.850381  1
  Si  Si5  1  0.649502  0.827520  0.435858  1
  Si  Si6  1  0.249903  0.249903  0.249903  1
  Si  Si7  1  0.750097  0.750097  0.750097  1
  Si  Si8  1  0.172480  0.564142  0.350498  1
  Si  Si9  1  0.564142  0.350498  0.172480  1
  Si  Si10  1  0.350498  0.172480  0.564142  1
  Si  Si11  1  0.936076  0.327208  0.149619  1
  Si  Si12  1  0.327208  0.149619  0.936076  1
  Si  Si13  1  0.149619  0.936076  0.327208  1
  Si  Si14  1  0.827520  0.435858  0.649502  1
  Si  Si15  1  0.435858  0.649502  0.827520  1
  Ir  Ir16  1  0.750535  0.070426  0.428693  1
  Ir  Ir17  1  0.428693  0.750535  0.070426  1
  Ir  Ir18  1  0.070426  0.428693  0.750535  1
  Ir  Ir19  1  0.249465  0.929574  0.571307  1
  Ir  Ir20  1  0.571307  0.249465  0.929574  1
  Ir  Ir21  1  0.929574  0.571307  0.249465  1
