# generated using pymatgen
data_Ho16MgCo4Au3
_symmetry_space_group_name_H-M   'P 1'
_cell_length_a   9.37061612
_cell_length_b   9.38348541
_cell_length_c   9.38348400
_cell_angle_alpha   60.00000498
_cell_angle_beta   59.95456399
_cell_angle_gamma   59.95456639
_symmetry_Int_Tables_number   1
_chemical_formula_structural   Ho16MgCo4Au3
_chemical_formula_sum   'Ho16 Mg1 Co4 Au3'
_cell_volume   583.01922315
_cell_formula_units_Z   1
loop_
 _symmetry_equiv_pos_site_id
 _symmetry_equiv_pos_as_xyz
  1  'x, y, z'
loop_
 _atom_site_type_symbol
 _atom_site_label
 _atom_site_symmetry_multiplicity
 _atom_site_fract_x
 _atom_site_fract_y
 _atom_site_fract_z
 _atom_site_occupancy
  Ho  Ho0  1  0.597535  0.595516  0.595516  1
  Ho  Ho1  1  0.597535  0.595516  0.211433  1
  Ho  Ho2  1  0.597535  0.211433  0.595516  1
  Ho  Ho3  1  0.189062  0.603646  0.603646  1
  Ho  Ho4  1  0.056037  0.442095  0.442095  1
  Ho  Ho5  1  0.436634  0.063200  0.063200  1
  Ho  Ho6  1  0.436634  0.063200  0.436968  1
  Ho  Ho7  1  0.056037  0.442095  0.059773  1
  Ho  Ho8  1  0.436634  0.436968  0.063200  1
  Ho  Ho9  1  0.056037  0.059773  0.442095  1
  Ho  Ho10  1  0.185488  0.811752  0.811752  1
  Ho  Ho11  1  0.814121  0.186137  0.186137  1
  Ho  Ho12  1  0.814121  0.186137  0.813606  1
  Ho  Ho13  1  0.185488  0.811752  0.191007  1
  Ho  Ho14  1  0.814121  0.813606  0.186137  1
  Ho  Ho15  1  0.185488  0.191007  0.811752  1
  Mg  Mg16  1  0.559904  0.813365  0.813365  1
  Co  Co17  1  0.383928  0.394631  0.394631  1
  Co  Co18  1  0.383928  0.394631  0.826811  1
  Co  Co19  1  0.383928  0.826811  0.394631  1
  Co  Co20  1  0.825497  0.391501  0.391501  1
  Au  Au21  1  0.834769  0.839660  0.839660  1
  Au  Au22  1  0.834769  0.839660  0.485911  1
  Au  Au23  1  0.834769  0.485911  0.839660  1
