# generated using pymatgen
data_UMnFeP2
_symmetry_space_group_name_H-M   'P 1'
_cell_length_a   5.41860899
_cell_length_b   5.41860947
_cell_length_c   5.41860900
_cell_angle_alpha   138.87216882
_cell_angle_beta   138.87217474
_cell_angle_gamma   59.56982350
_symmetry_Int_Tables_number   1
_chemical_formula_structural   UMnFeP2
_chemical_formula_sum   'U1 Mn1 Fe1 P2'
_cell_volume   68.14421539
_cell_formula_units_Z   1
loop_
 _symmetry_equiv_pos_site_id
 _symmetry_equiv_pos_as_xyz
  1  'x, y, z'
loop_
 _atom_site_type_symbol
 _atom_site_label
 _atom_site_symmetry_multiplicity
 _atom_site_fract_x
 _atom_site_fract_y
 _atom_site_fract_z
 _atom_site_occupancy
  U  U0  1  0.000000  0.000000  0.000000  1
  Mn  Mn1  1  0.750000  0.250000  0.500000  1
  Fe  Fe2  1  0.250000  0.750000  0.500000  1
  P  P3  1  0.627727  0.627727  0.000000  1
  P  P4  1  0.372273  0.372273  0.000000  1
