# generated using pymatgen
data_Pr3NdFe(RhO4)3
_symmetry_space_group_name_H-M   'P 1'
_cell_length_a   5.48216236
_cell_length_b   5.83477099
_cell_length_c   7.87907321
_cell_angle_alpha   90.62997105
_cell_angle_beta   90.40882599
_cell_angle_gamma   90.09966646
_symmetry_Int_Tables_number   1
_chemical_formula_structural   Pr3NdFe(RhO4)3
_chemical_formula_sum   'Pr3 Nd1 Fe1 Rh3 O12'
_cell_volume   252.00712464
_cell_formula_units_Z   1
loop_
 _symmetry_equiv_pos_site_id
 _symmetry_equiv_pos_as_xyz
  1  'x, y, z'
loop_
 _atom_site_type_symbol
 _atom_site_label
 _atom_site_symmetry_multiplicity
 _atom_site_fract_x
 _atom_site_fract_y
 _atom_site_fract_z
 _atom_site_occupancy
  Pr  Pr0  1  0.026573  0.930407  0.751323  1
  Pr  Pr1  1  0.515679  0.570339  0.248783  1
  Pr  Pr2  1  0.484279  0.429793  0.751262  1
  Nd  Nd3  1  0.973083  0.070703  0.248659  1
  Fe  Fe4  1  0.000113  0.499653  0.000469  1
  Rh  Rh5  1  0.000099  0.500172  0.499606  1
  Rh  Rh6  1  0.499811  0.000093  0.499343  1
  Rh  Rh7  1  0.499713  0.000030  0.000586  1
  O  O8  1  0.690149  0.299651  0.441772  1
  O  O9  1  0.191020  0.199404  0.555801  1
  O  O10  1  0.805593  0.794932  0.050859  1
  O  O11  1  0.302198  0.697326  0.952402  1
  O  O12  1  0.311338  0.699141  0.556987  1
  O  O13  1  0.809937  0.802252  0.442210  1
  O  O14  1  0.195720  0.206831  0.951207  1
  O  O15  1  0.699042  0.301537  0.048559  1
  O  O16  1  0.095419  0.467650  0.246498  1
  O  O17  1  0.612793  0.033858  0.750343  1
  O  O18  1  0.383371  0.966872  0.249620  1
  O  O19  1  0.904070  0.529355  0.753711  1
