# generated using pymatgen
data_Sr8Mg7Si16Pt
_symmetry_space_group_name_H-M   'P 1'
_cell_length_a   4.37467300
_cell_length_b   11.35643805
_cell_length_c   14.37610308
_cell_angle_alpha   89.98833283
_cell_angle_beta   90.00000000
_cell_angle_gamma   90.00000000
_symmetry_Int_Tables_number   1
_chemical_formula_structural   Sr8Mg7Si16Pt
_chemical_formula_sum   'Sr8 Mg7 Si16 Pt1'
_cell_volume   714.21489166
_cell_formula_units_Z   1
loop_
 _symmetry_equiv_pos_site_id
 _symmetry_equiv_pos_as_xyz
  1  'x, y, z'
loop_
 _atom_site_type_symbol
 _atom_site_label
 _atom_site_symmetry_multiplicity
 _atom_site_fract_x
 _atom_site_fract_y
 _atom_site_fract_z
 _atom_site_occupancy
  Sr  Sr0  1  0.250000  0.520553  0.203019  1
  Sr  Sr1  1  0.250000  0.740155  0.939028  1
  Sr  Sr2  1  0.750000  0.261193  0.063748  1
  Sr  Sr3  1  0.750000  0.246816  0.560144  1
  Sr  Sr4  1  0.250000  0.755230  0.439291  1
  Sr  Sr5  1  0.250000  0.975592  0.694896  1
  Sr  Sr6  1  0.750000  0.027796  0.304699  1
  Sr  Sr7  1  0.750000  0.474706  0.800115  1
  Mg  Mg8  1  0.750000  0.550230  0.552548  1
  Mg  Mg9  1  0.750000  0.941807  0.060134  1
  Mg  Mg10  1  0.250000  0.058139  0.940475  1
  Mg  Mg11  1  0.250000  0.674711  0.687231  1
  Mg  Mg12  1  0.750000  0.325566  0.315633  1
  Mg  Mg13  1  0.750000  0.178162  0.808287  1
  Mg  Mg14  1  0.250000  0.819893  0.191063  1
  Si  Si15  1  0.750000  0.950101  0.867031  1
  Si  Si16  1  0.250000  0.448099  0.622953  1
  Si  Si17  1  0.750000  0.542126  0.370493  1
  Si  Si18  1  0.250000  0.038796  0.467338  1
  Si  Si19  1  0.250000  0.049520  0.133183  1
  Si  Si20  1  0.250000  0.273598  0.719872  1
  Si  Si21  1  0.750000  0.721651  0.279712  1
  Si  Si22  1  0.750000  0.771132  0.776656  1
  Si  Si23  1  0.250000  0.229316  0.396562  1
  Si  Si24  1  0.750000  0.970123  0.530034  1
  Si  Si25  1  0.750000  0.529933  0.033327  1
  Si  Si26  1  0.250000  0.468612  0.968432  1
  Si  Si27  1  0.250000  0.287827  0.890959  1
  Si  Si28  1  0.750000  0.785005  0.605706  1
  Si  Si29  1  0.750000  0.712405  0.108262  1
  Si  Si30  1  0.250000  0.226930  0.225330  1
  Pt  Pt31  1  0.250000  0.444276  0.443840  1
