# generated using pymatgen
data_Mn8Si13Ge
_symmetry_space_group_name_H-M   'P 1'
_cell_length_a   3.05610966
_cell_length_b   7.91978024
_cell_length_c   11.11332000
_cell_angle_alpha   92.80852928
_cell_angle_beta   97.90307376
_cell_angle_gamma   90.00000303
_symmetry_Int_Tables_number   1
_chemical_formula_structural   Mn8Si13Ge
_chemical_formula_sum   'Mn8 Si13 Ge1'
_cell_volume   266.10267742
_cell_formula_units_Z   1
loop_
 _symmetry_equiv_pos_site_id
 _symmetry_equiv_pos_as_xyz
  1  'x, y, z'
loop_
 _atom_site_type_symbol
 _atom_site_label
 _atom_site_symmetry_multiplicity
 _atom_site_fract_x
 _atom_site_fract_y
 _atom_site_fract_z
 _atom_site_occupancy
  Mn  Mn0  1  0.151155  0.581728  0.302309  1
  Mn  Mn1  1  0.275630  0.475031  0.551261  1
  Mn  Mn2  1  0.399035  0.367459  0.798067  1
  Mn  Mn3  1  0.522972  0.220813  0.045943  1
  Mn  Mn4  1  0.652750  0.111102  0.305500  1
  Mn  Mn5  1  0.770516  0.971121  0.541034  1
  Mn  Mn6  1  0.899177  0.849507  0.798354  1
  Mn  Mn7  1  0.024082  0.719282  0.048163  1
  Si  Si8  1  0.317953  0.795665  0.635907  1
  Si  Si9  1  0.443873  0.658651  0.887745  1
  Si  Si10  1  0.569982  0.531578  0.139966  1
  Si  Si11  1  0.691428  0.390788  0.382856  1
  Si  Si12  1  0.826985  0.240197  0.653969  1
  Si  Si13  1  0.992659  0.003927  0.985316  1
  Si  Si14  1  0.104647  0.288667  0.209293  1
  Si  Si15  1  0.236316  0.177067  0.472631  1
  Si  Si16  1  0.732903  0.679156  0.465808  1
  Si  Si17  1  0.855992  0.558629  0.711986  1
  Si  Si18  1  0.981047  0.417627  0.962094  1
  Si  Si19  1  0.573723  0.910893  0.147447  1
  Si  Si20  1  0.407947  0.079949  0.815895  1
  Ge  Ge21  1  0.177098  0.884556  0.354198  1
