# generated using pymatgen
data_V2Co20NiB6
_symmetry_space_group_name_H-M   'P 1'
_cell_length_a   7.36775922
_cell_length_b   7.36775878
_cell_length_c   7.36775900
_cell_angle_alpha   60.00000348
_cell_angle_beta   60.00000546
_cell_angle_gamma   60.00000166
_symmetry_Int_Tables_number   1
_chemical_formula_structural   V2Co20NiB6
_chemical_formula_sum   'V2 Co20 Ni1 B6'
_cell_volume   282.80772695
_cell_formula_units_Z   1
loop_
 _symmetry_equiv_pos_site_id
 _symmetry_equiv_pos_as_xyz
  1  'x, y, z'
loop_
 _atom_site_type_symbol
 _atom_site_label
 _atom_site_symmetry_multiplicity
 _atom_site_fract_x
 _atom_site_fract_y
 _atom_site_fract_z
 _atom_site_occupancy
  V  V0  1  0.250000  0.250000  0.250000  1
  V  V1  1  0.750000  0.750000  0.750000  1
  Co  Co2  1  0.858452  0.380516  0.380516  1
  Co  Co3  1  0.380516  0.858452  0.380516  1
  Co  Co4  1  0.380516  0.380516  0.858452  1
  Co  Co5  1  0.380516  0.380516  0.380516  1
  Co  Co6  1  0.141548  0.619484  0.619484  1
  Co  Co7  1  0.619484  0.141548  0.619484  1
  Co  Co8  1  0.619484  0.619484  0.141548  1
  Co  Co9  1  0.619484  0.619484  0.619484  1
  Co  Co10  1  0.660774  0.000000  0.000000  1
  Co  Co11  1  0.660774  0.000000  0.339226  1
  Co  Co12  1  0.660774  0.339226  0.000000  1
  Co  Co13  1  0.000000  0.660774  0.339226  1
  Co  Co14  1  0.000000  0.660774  0.000000  1
  Co  Co15  1  0.339226  0.660774  0.000000  1
  Co  Co16  1  0.000000  0.339226  0.660774  1
  Co  Co17  1  0.339226  0.000000  0.660774  1
  Co  Co18  1  0.000000  0.000000  0.660774  1
  Co  Co19  1  0.339226  0.000000  0.000000  1
  Co  Co20  1  0.000000  0.339226  0.000000  1
  Co  Co21  1  0.000000  0.000000  0.339226  1
  Ni  Ni22  1  0.000000  0.000000  0.000000  1
  B  B23  1  0.725025  0.274975  0.274975  1
  B  B24  1  0.725025  0.274975  0.725025  1
  B  B25  1  0.725025  0.725025  0.274975  1
  B  B26  1  0.274975  0.725025  0.725025  1
  B  B27  1  0.274975  0.725025  0.274975  1
  B  B28  1  0.274975  0.274975  0.725025  1
