# generated using pymatgen
data_La2Be3BRh6
_symmetry_space_group_name_H-M   'P 1'
_cell_length_a   5.55591195
_cell_length_b   6.47126790
_cell_length_c   6.47126732
_cell_angle_alpha   61.55353212
_cell_angle_beta   64.44263644
_cell_angle_gamma   64.44264545
_symmetry_Int_Tables_number   1
_chemical_formula_structural   La2Be3BRh6
_chemical_formula_sum   'La2 Be3 B1 Rh6'
_cell_volume   176.91479201
_cell_formula_units_Z   1
loop_
 _symmetry_equiv_pos_site_id
 _symmetry_equiv_pos_as_xyz
  1  'x, y, z'
loop_
 _atom_site_type_symbol
 _atom_site_label
 _atom_site_symmetry_multiplicity
 _atom_site_fract_x
 _atom_site_fract_y
 _atom_site_fract_z
 _atom_site_occupancy
  La  La0  1  0.513795  0.743436  0.743436  1
  La  La1  1  0.487216  0.253561  0.253561  1
  Be  Be2  1  0.187443  0.572015  0.572015  1
  Be  Be3  1  0.825513  0.414535  0.414535  1
  Be  Be4  1  0.145521  0.097607  0.097607  1
  B  B5  1  0.836630  0.918062  0.918062  1
  Rh  Rh6  1  0.503922  0.230273  0.768327  1
  Rh  Rh7  1  0.998445  0.761075  0.237217  1
  Rh  Rh8  1  0.503922  0.768327  0.230273  1
  Rh  Rh9  1  0.998445  0.237217  0.761075  1
  Rh  Rh10  1  0.999574  0.521895  0.982000  1
  Rh  Rh11  1  0.999574  0.982000  0.521895  1
