# generated using pymatgen
data_Ho5TmFe8(Co5P6)2
_symmetry_space_group_name_H-M   'P 1'
_cell_length_a   3.69991600
_cell_length_b   10.50218900
_cell_length_c   12.08659901
_cell_angle_alpha   90.00339700
_cell_angle_beta   90.00000000
_cell_angle_gamma   90.00000000
_symmetry_Int_Tables_number   1
_chemical_formula_structural   Ho5TmFe8(Co5P6)2
_chemical_formula_sum   'Ho5 Tm1 Fe8 Co10 P12'
_cell_volume   469.65160113
_cell_formula_units_Z   1
loop_
 _symmetry_equiv_pos_site_id
 _symmetry_equiv_pos_as_xyz
  1  'x, y, z'
loop_
 _atom_site_type_symbol
 _atom_site_label
 _atom_site_symmetry_multiplicity
 _atom_site_fract_x
 _atom_site_fract_y
 _atom_site_fract_z
 _atom_site_occupancy
  Ho  Ho0  1  0.000000  0.500003  0.523109  1
  Ho  Ho1  1  0.500000  0.999970  0.476641  1
  Ho  Ho2  1  0.500000  0.180853  0.205248  1
  Ho  Ho3  1  0.000000  0.681137  0.794532  1
  Ho  Ho4  1  0.000000  0.318983  0.795046  1
  Tm  Tm5  1  0.500000  0.819002  0.205081  1
  Fe  Fe6  1  0.000000  0.500561  0.987566  1
  Fe  Fe7  1  0.500000  0.999443  0.013349  1
  Fe  Fe8  1  0.500000  0.298079  0.429029  1
  Fe  Fe9  1  0.500000  0.701981  0.428192  1
  Fe  Fe10  1  0.000000  0.201720  0.570967  1
  Fe  Fe11  1  0.000000  0.798230  0.570539  1
  Fe  Fe12  1  0.500000  0.499976  0.155784  1
  Fe  Fe13  1  0.000000  0.999843  0.844387  1
  Co  Co14  1  0.500000  0.880543  0.711211  1
  Co  Co15  1  0.500000  0.119460  0.711659  1
  Co  Co16  1  0.000000  0.619950  0.288144  1
  Co  Co17  1  0.000000  0.380535  0.288612  1
  Co  Co18  1  0.500000  0.331957  0.994143  1
  Co  Co19  1  0.500000  0.668304  0.994476  1
  Co  Co20  1  0.000000  0.167762  0.006296  1
  Co  Co21  1  0.000000  0.832025  0.006413  1
  Co  Co22  1  0.500000  0.500185  0.699538  1
  Co  Co23  1  0.000000  0.999380  0.300166  1
  P  P24  1  0.500000  0.307805  0.614806  1
  P  P25  1  0.500000  0.692349  0.614191  1
  P  P26  1  0.000000  0.192067  0.385433  1
  P  P27  1  0.000000  0.807856  0.384369  1
  P  P28  1  0.500000  0.500255  0.883148  1
  P  P29  1  0.000000  0.999362  0.117378  1
  P  P30  1  0.500000  0.847960  0.893821  1
  P  P31  1  0.500000  0.151932  0.894163  1
  P  P32  1  0.000000  0.652646  0.106426  1
  P  P33  1  0.000000  0.347917  0.106183  1
  P  P34  1  0.500000  0.499933  0.343038  1
  P  P35  1  0.000000  0.000035  0.656920  1
