# generated using pymatgen
data_Zr3Sc(Zn14Cu3)2
_symmetry_space_group_name_H-M   'P 1'
_cell_length_a   8.73257000
_cell_length_b   8.73256846
_cell_length_c   8.65769300
_cell_angle_alpha   90.00000000
_cell_angle_beta   90.00000000
_cell_angle_gamma   119.99977856
_symmetry_Int_Tables_number   1
_chemical_formula_structural   Zr3Sc(Zn14Cu3)2
_chemical_formula_sum   'Zr3 Sc1 Zn28 Cu6'
_cell_volume   571.76538195
_cell_formula_units_Z   1
loop_
 _symmetry_equiv_pos_site_id
 _symmetry_equiv_pos_as_xyz
  1  'x, y, z'
loop_
 _atom_site_type_symbol
 _atom_site_label
 _atom_site_symmetry_multiplicity
 _atom_site_fract_x
 _atom_site_fract_y
 _atom_site_fract_z
 _atom_site_occupancy
  Zr  Zr0  1  0.999923  0.000077  0.750000  1
  Zr  Zr1  1  0.000002  0.999998  0.250000  1
  Zr  Zr2  1  0.666725  0.333275  0.250000  1
  Sc  Sc3  1  0.333494  0.666506  0.750000  1
  Zn  Zn4  1  0.666657  0.333343  0.593818  1
  Zn  Zn5  1  0.333325  0.666675  0.406253  1
  Zn  Zn6  1  0.333325  0.666675  0.093747  1
  Zn  Zn7  1  0.666657  0.333343  0.906182  1
  Zn  Zn8  1  0.667905  0.031642  0.750000  1
  Zn  Zn9  1  0.363749  0.332042  0.750000  1
  Zn  Zn10  1  0.968364  0.636300  0.750000  1
  Zn  Zn11  1  0.363700  0.031636  0.750000  1
  Zn  Zn12  1  0.968358  0.332095  0.750000  1
  Zn  Zn13  1  0.667958  0.636251  0.750000  1
  Zn  Zn14  1  0.332131  0.968264  0.250000  1
  Zn  Zn15  1  0.636137  0.667903  0.250000  1
  Zn  Zn16  1  0.031733  0.363880  0.250000  1
  Zn  Zn17  1  0.636120  0.968267  0.250000  1
  Zn  Zn18  1  0.031736  0.667869  0.250000  1
  Zn  Zn19  1  0.332097  0.363863  0.250000  1
  Zn  Zn20  1  0.836338  0.672704  0.477766  1
  Zn  Zn21  1  0.836350  0.163650  0.477790  1
  Zn  Zn22  1  0.327296  0.163662  0.477766  1
  Zn  Zn23  1  0.163251  0.326542  0.521573  1
  Zn  Zn24  1  0.163243  0.836757  0.521571  1
  Zn  Zn25  1  0.673458  0.836749  0.521573  1
  Zn  Zn26  1  0.163251  0.326542  0.978427  1
  Zn  Zn27  1  0.163243  0.836757  0.978429  1
  Zn  Zn28  1  0.673458  0.836749  0.978427  1
  Zn  Zn29  1  0.836338  0.672704  0.022234  1
  Zn  Zn30  1  0.836350  0.163650  0.022210  1
  Zn  Zn31  1  0.327296  0.163662  0.022234  1
  Cu  Cu32  1  0.500245  0.000479  0.500224  1
  Cu  Cu33  1  0.500248  0.499752  0.500115  1
  Cu  Cu34  1  0.999521  0.499755  0.500224  1
  Cu  Cu35  1  0.500245  0.000479  0.999776  1
  Cu  Cu36  1  0.500248  0.499752  0.999885  1
  Cu  Cu37  1  0.999521  0.499755  0.999776  1
