# generated using pymatgen
data_TbErTh2(GaRh)4
_symmetry_space_group_name_H-M   'P 1'
_cell_length_a   4.34737400
_cell_length_b   6.91906632
_cell_length_c   7.91947305
_cell_angle_alpha   89.48063137
_cell_angle_beta   90.00000000
_cell_angle_gamma   90.00000000
_symmetry_Int_Tables_number   1
_chemical_formula_structural   TbErTh2(GaRh)4
_chemical_formula_sum   'Tb1 Er1 Th2 Ga4 Rh4'
_cell_volume   238.20613330
_cell_formula_units_Z   1
loop_
 _symmetry_equiv_pos_site_id
 _symmetry_equiv_pos_as_xyz
  1  'x, y, z'
loop_
 _atom_site_type_symbol
 _atom_site_label
 _atom_site_symmetry_multiplicity
 _atom_site_fract_x
 _atom_site_fract_y
 _atom_site_fract_z
 _atom_site_occupancy
  Tb  Tb0  1  0.750000  0.034038  0.693821  1
  Er  Er1  1  0.750000  0.534168  0.807019  1
  Th  Th2  1  0.250000  0.967226  0.320386  1
  Th  Th3  1  0.250000  0.468999  0.179308  1
  Ga  Ga4  1  0.250000  0.353486  0.574370  1
  Ga  Ga5  1  0.250000  0.852085  0.924964  1
  Ga  Ga6  1  0.750000  0.644345  0.441284  1
  Ga  Ga7  1  0.750000  0.146231  0.058983  1
  Rh  Rh8  1  0.250000  0.242314  0.892261  1
  Rh  Rh9  1  0.250000  0.738385  0.609855  1
  Rh  Rh10  1  0.750000  0.758755  0.117070  1
  Rh  Rh11  1  0.750000  0.259968  0.380680  1
