# generated using pymatgen
data_Dy5V3Si2(P5Ir8)2
_symmetry_space_group_name_H-M   'P 1'
_cell_length_a   12.74660755
_cell_length_b   12.75831262
_cell_length_c   3.94784000
_cell_angle_alpha   90.00000000
_cell_angle_beta   90.00000000
_cell_angle_gamma   120.20828287
_symmetry_Int_Tables_number   1
_chemical_formula_structural   Dy5V3Si2(P5Ir8)2
_chemical_formula_sum   'Dy5 V3 Si2 P10 Ir16'
_cell_volume   554.83353437
_cell_formula_units_Z   1
loop_
 _symmetry_equiv_pos_site_id
 _symmetry_equiv_pos_as_xyz
  1  'x, y, z'
loop_
 _atom_site_type_symbol
 _atom_site_label
 _atom_site_symmetry_multiplicity
 _atom_site_fract_x
 _atom_site_fract_y
 _atom_site_fract_z
 _atom_site_occupancy
  Dy  Dy0  1  0.332512  0.666317  0.500000  1
  Dy  Dy1  1  0.667623  0.334463  0.500000  1
  Dy  Dy2  1  0.000745  0.811965  0.000000  1
  Dy  Dy3  1  0.188996  0.188737  0.000000  1
  Dy  Dy4  1  0.808880  0.999020  0.000000  1
  V  V5  1  0.999298  0.441363  0.500000  1
  V  V6  1  0.551218  0.551596  0.500000  1
  V  V7  1  0.450166  0.004492  0.500000  1
  Si  Si8  1  0.000596  0.634852  0.500000  1
  Si  Si9  1  0.517045  0.683881  0.000000  1
  P  P10  1  0.364943  0.366331  0.500000  1
  P  P11  1  0.632482  0.997383  0.500000  1
  P  P12  1  0.315139  0.832737  0.000000  1
  P  P13  1  0.166150  0.481422  0.000000  1
  P  P14  1  0.483041  0.168777  0.000000  1
  P  P15  1  0.686590  0.518950  0.000000  1
  P  P16  1  0.834038  0.316569  0.000000  1
  P  P17  1  0.998271  0.175798  0.500000  1
  P  P18  1  0.821363  0.821850  0.500000  1
  P  P19  1  0.178234  0.999881  0.500000  1
  Ir  Ir20  1  0.511034  0.873281  0.000000  1
  Ir  Ir21  1  0.130341  0.639968  0.000000  1
  Ir  Ir22  1  0.355670  0.485119  0.000000  1
  Ir  Ir23  1  0.492690  0.359645  0.000000  1
  Ir  Ir24  1  0.871157  0.511044  0.000000  1
  Ir  Ir25  1  0.641650  0.135653  0.000000  1
  Ir  Ir26  1  0.998429  0.280435  0.000000  1
  Ir  Ir27  1  0.720543  0.719327  0.000000  1
  Ir  Ir28  1  0.283755  0.001856  0.000000  1
  Ir  Ir29  1  0.624659  0.804501  0.500000  1
  Ir  Ir30  1  0.200069  0.823433  0.500000  1
  Ir  Ir31  1  0.176958  0.372793  0.500000  1
  Ir  Ir32  1  0.374932  0.180748  0.500000  1
  Ir  Ir33  1  0.801447  0.623093  0.500000  1
  Ir  Ir34  1  0.818960  0.192871  0.500000  1
  Ir  Ir35  1  0.000376  0.999851  0.500000  1
