# generated using pymatgen
data_Ti8MnFe3Os4
_symmetry_space_group_name_H-M   'P 1'
_cell_length_a   6.07400300
_cell_length_b   4.29653100
_cell_length_c   8.60077600
_cell_angle_alpha   90.00000000
_cell_angle_beta   90.00021978
_cell_angle_gamma   90.00000000
_symmetry_Int_Tables_number   1
_chemical_formula_structural   Ti8MnFe3Os4
_chemical_formula_sum   'Ti8 Mn1 Fe3 Os4'
_cell_volume   224.45567416
_cell_formula_units_Z   1
loop_
 _symmetry_equiv_pos_site_id
 _symmetry_equiv_pos_as_xyz
  1  'x, y, z'
loop_
 _atom_site_type_symbol
 _atom_site_label
 _atom_site_symmetry_multiplicity
 _atom_site_fract_x
 _atom_site_fract_y
 _atom_site_fract_z
 _atom_site_occupancy
  Ti  Ti0  1  0.001025  0.749999  0.123893  1
  Ti  Ti1  1  0.498995  0.749999  0.123900  1
  Ti  Ti2  1  0.000047  0.250000  0.375032  1
  Ti  Ti3  1  0.499981  0.250000  0.375037  1
  Ti  Ti4  1  0.499062  0.749999  0.626103  1
  Ti  Ti5  1  0.000911  0.749999  0.626108  1
  Ti  Ti6  1  0.498134  0.250000  0.874960  1
  Ti  Ti7  1  0.001851  0.250000  0.874966  1
  Mn  Mn8  1  0.249984  0.749999  0.874994  1
  Fe  Fe9  1  0.750013  0.250000  0.125894  1
  Fe  Fe10  1  0.250012  0.749999  0.375004  1
  Fe  Fe11  1  0.749987  0.250000  0.624108  1
  Os  Os12  1  0.250010  0.250000  0.126274  1
  Os  Os13  1  0.750007  0.749999  0.375011  1
  Os  Os14  1  0.249992  0.250000  0.623721  1
  Os  Os15  1  0.749991  0.749999  0.874995  1
