# generated using pymatgen
data_LiZr2PaPd12
_symmetry_space_group_name_H-M   'P 1'
_cell_length_a   5.72747200
_cell_length_b   5.72747178
_cell_length_c   9.28840400
_cell_angle_alpha   90.00000000
_cell_angle_beta   90.00000000
_cell_angle_gamma   120.00000126
_symmetry_Int_Tables_number   1
_chemical_formula_structural   LiZr2PaPd12
_chemical_formula_sum   'Li1 Zr2 Pa1 Pd12'
_cell_volume   263.87464129
_cell_formula_units_Z   1
loop_
 _symmetry_equiv_pos_site_id
 _symmetry_equiv_pos_as_xyz
  1  'x, y, z'
loop_
 _atom_site_type_symbol
 _atom_site_label
 _atom_site_symmetry_multiplicity
 _atom_site_fract_x
 _atom_site_fract_y
 _atom_site_fract_z
 _atom_site_occupancy
  Li  Li0  1  0.333333  0.666667  0.248487  1
  Zr  Zr1  1  0.000000  0.000000  0.003002  1
  Zr  Zr2  1  0.666667  0.333333  0.756691  1
  Pa  Pa3  1  0.000000  0.000000  0.488917  1
  Pd  Pd4  1  0.500013  0.499987  0.500489  1
  Pd  Pd5  1  0.500013  0.000024  0.500489  1
  Pd  Pd6  1  0.999976  0.499987  0.500489  1
  Pd  Pd7  1  0.499006  0.500994  0.001053  1
  Pd  Pd8  1  0.499006  0.998012  0.001053  1
  Pd  Pd9  1  0.001988  0.500994  0.001053  1
  Pd  Pd10  1  0.829879  0.170121  0.249260  1
  Pd  Pd11  1  0.829879  0.659757  0.249260  1
  Pd  Pd12  1  0.340243  0.170121  0.249260  1
  Pd  Pd13  1  0.168610  0.831390  0.750166  1
  Pd  Pd14  1  0.168610  0.337221  0.750166  1
  Pd  Pd15  1  0.662779  0.831390  0.750166  1
