# generated using pymatgen
data_TbTh3Ga12Tc
_symmetry_space_group_name_H-M   'P 1'
_cell_length_a   7.68053853
_cell_length_b   7.60399006
_cell_length_c   7.60398922
_cell_angle_alpha   109.26639596
_cell_angle_beta   109.67527928
_cell_angle_gamma   109.67527348
_symmetry_Int_Tables_number   1
_chemical_formula_structural   TbTh3Ga12Tc
_chemical_formula_sum   'Tb1 Th3 Ga12 Tc1'
_cell_volume   340.99885530
_cell_formula_units_Z   1
loop_
 _symmetry_equiv_pos_site_id
 _symmetry_equiv_pos_as_xyz
  1  'x, y, z'
loop_
 _atom_site_type_symbol
 _atom_site_label
 _atom_site_symmetry_multiplicity
 _atom_site_fract_x
 _atom_site_fract_y
 _atom_site_fract_z
 _atom_site_occupancy
  Tb  Tb0  1  0.500000  0.000000  0.000000  1
  Th  Th1  1  0.000000  0.000000  0.500000  1
  Th  Th2  1  0.500000  0.500000  0.500000  1
  Th  Th3  1  0.000000  0.500000  0.000000  1
  Ga  Ga4  1  0.293057  0.000000  0.290231  1
  Ga  Ga5  1  0.500000  0.247577  0.752423  1
  Ga  Ga6  1  0.002825  0.709769  0.709769  1
  Ga  Ga7  1  0.706943  0.000000  0.709769  1
  Ga  Ga8  1  0.747577  0.495153  0.247577  1
  Ga  Ga9  1  0.252423  0.752423  0.504847  1
  Ga  Ga10  1  0.747577  0.247577  0.495153  1
  Ga  Ga11  1  0.706943  0.709769  0.000000  1
  Ga  Ga12  1  0.252423  0.504847  0.752423  1
  Ga  Ga13  1  0.500000  0.752423  0.247577  1
  Ga  Ga14  1  0.293057  0.290231  0.000000  1
  Ga  Ga15  1  0.997175  0.290231  0.290231  1
  Tc  Tc16  1  0.000000  0.000000  0.000000  1
