# generated using pymatgen
data_Ce3Dy(MgIr)4
_symmetry_space_group_name_H-M   'P 1'
_cell_length_a   7.11400000
_cell_length_b   4.07226900
_cell_length_c   8.74173670
_cell_angle_alpha   90.00000000
_cell_angle_beta   90.37355946
_cell_angle_gamma   90.00000000
_symmetry_Int_Tables_number   1
_chemical_formula_structural   Ce3Dy(MgIr)4
_chemical_formula_sum   'Ce3 Dy1 Mg4 Ir4'
_cell_volume   253.24379329
_cell_formula_units_Z   1
loop_
 _symmetry_equiv_pos_site_id
 _symmetry_equiv_pos_as_xyz
  1  'x, y, z'
loop_
 _atom_site_type_symbol
 _atom_site_label
 _atom_site_symmetry_multiplicity
 _atom_site_fract_x
 _atom_site_fract_y
 _atom_site_fract_z
 _atom_site_occupancy
  Ce  Ce0  1  0.462831  0.250000  0.312926  1
  Ce  Ce1  1  0.036524  0.750000  0.823048  1
  Ce  Ce2  1  0.535037  0.750000  0.681509  1
  Dy  Dy3  1  0.958513  0.250000  0.179949  1
  Mg  Mg4  1  0.864322  0.250000  0.554898  1
  Mg  Mg5  1  0.365921  0.250000  0.946053  1
  Mg  Mg6  1  0.131480  0.750000  0.440999  1
  Mg  Mg7  1  0.639375  0.750000  0.055774  1
  Ir  Ir8  1  0.758618  0.250000  0.861479  1
  Ir  Ir9  1  0.256366  0.250000  0.638980  1
  Ir  Ir10  1  0.251352  0.750000  0.136365  1
  Ir  Ir11  1  0.739658  0.750000  0.368023  1
