# generated using pymatgen
data_La7Nd(CdPd)2
_symmetry_space_group_name_H-M   'P 1'
_cell_length_a   10.19281771
_cell_length_b   10.19281763
_cell_length_c   10.19390400
_cell_angle_alpha   59.99648074
_cell_angle_beta   59.99648099
_cell_angle_gamma   60.00705169
_symmetry_Int_Tables_number   1
_chemical_formula_structural   La7Nd(CdPd)2
_chemical_formula_sum   'La14 Nd2 Cd4 Pd4'
_cell_volume   748.88319844
_cell_formula_units_Z   2
loop_
 _symmetry_equiv_pos_site_id
 _symmetry_equiv_pos_as_xyz
  1  'x, y, z'
loop_
 _atom_site_type_symbol
 _atom_site_label
 _atom_site_symmetry_multiplicity
 _atom_site_fract_x
 _atom_site_fract_y
 _atom_site_fract_z
 _atom_site_occupancy
  La  La0  1  0.351315  0.351315  0.350717  1
  La  La1  1  0.351315  0.351315  0.946653  1
  La  La2  1  0.350717  0.946653  0.351315  1
  La  La3  1  0.946653  0.350717  0.351315  1
  La  La4  1  0.807035  0.192965  0.192965  1
  La  La5  1  0.192965  0.807035  0.807035  1
  La  La6  1  0.192965  0.807035  0.192965  1
  La  La7  1  0.807035  0.192965  0.807035  1
  La  La8  1  0.192799  0.192799  0.807201  1
  La  La9  1  0.807201  0.807201  0.192799  1
  La  La10  1  0.934440  0.565560  0.565560  1
  La  La11  1  0.565560  0.934440  0.934440  1
  La  La12  1  0.565560  0.934440  0.565560  1
  La  La13  1  0.934440  0.565560  0.934440  1
  Nd  Nd14  1  0.564551  0.564551  0.935449  1
  Nd  Nd15  1  0.935449  0.935449  0.564551  1
  Cd  Cd16  1  0.580016  0.580016  0.580479  1
  Cd  Cd17  1  0.580016  0.580016  0.259489  1
  Cd  Cd18  1  0.580479  0.259489  0.580016  1
  Cd  Cd19  1  0.259489  0.580479  0.580016  1
  Pd  Pd20  1  0.142960  0.142960  0.143538  1
  Pd  Pd21  1  0.142960  0.142960  0.570541  1
  Pd  Pd22  1  0.143538  0.570541  0.142960  1
  Pd  Pd23  1  0.570541  0.143538  0.142960  1
