# generated using pymatgen
data_Nb8InTcS16
_symmetry_space_group_name_H-M   'P 1'
_cell_length_a   6.65488200
_cell_length_b   6.65488261
_cell_length_c   13.63407100
_cell_angle_alpha   90.00000000
_cell_angle_beta   90.00000000
_cell_angle_gamma   120.00000690
_symmetry_Int_Tables_number   1
_chemical_formula_structural   Nb8InTcS16
_chemical_formula_sum   'Nb8 In1 Tc1 S16'
_cell_volume   522.92199717
_cell_formula_units_Z   1
loop_
 _symmetry_equiv_pos_site_id
 _symmetry_equiv_pos_as_xyz
  1  'x, y, z'
loop_
 _atom_site_type_symbol
 _atom_site_label
 _atom_site_symmetry_multiplicity
 _atom_site_fract_x
 _atom_site_fract_y
 _atom_site_fract_z
 _atom_site_occupancy
  Nb  Nb0  1  0.000000  0.000000  0.277841  1
  Nb  Nb1  1  0.000000  0.000000  0.722159  1
  Nb  Nb2  1  0.504115  0.008232  0.279478  1
  Nb  Nb3  1  0.495885  0.991768  0.720522  1
  Nb  Nb4  1  0.991768  0.495885  0.279478  1
  Nb  Nb5  1  0.008232  0.504115  0.720522  1
  Nb  Nb6  1  0.504115  0.495885  0.279478  1
  Nb  Nb7  1  0.495885  0.504115  0.720522  1
  In  In8  1  0.000000  0.000000  0.000000  1
  Tc  Tc9  1  0.000000  0.000000  0.500000  1
  S  S10  1  0.333333  0.666667  0.604069  1
  S  S11  1  0.666667  0.333333  0.395931  1
  S  S12  1  0.666667  0.333333  0.162288  1
  S  S13  1  0.333333  0.666667  0.837712  1
  S  S14  1  0.167058  0.334115  0.163874  1
  S  S15  1  0.832942  0.665885  0.836126  1
  S  S16  1  0.665885  0.832942  0.163874  1
  S  S17  1  0.834910  0.669820  0.606269  1
  S  S18  1  0.334115  0.167058  0.836126  1
  S  S19  1  0.165090  0.330180  0.393731  1
  S  S20  1  0.167058  0.832942  0.163874  1
  S  S21  1  0.330180  0.165090  0.606269  1
  S  S22  1  0.832942  0.167058  0.836126  1
  S  S23  1  0.669820  0.834910  0.393731  1
  S  S24  1  0.834910  0.165090  0.606269  1
  S  S25  1  0.165090  0.834910  0.393731  1
