# generated using pymatgen
data_GaH8
_symmetry_space_group_name_H-M   'P 1'
_cell_length_a   2.82865346
_cell_length_b   2.67495238
_cell_length_c   16.33704668
_cell_angle_alpha   91.86844683
_cell_angle_beta   87.01330809
_cell_angle_gamma   105.65551272
_symmetry_Int_Tables_number   1
_chemical_formula_structural   GaH8
_chemical_formula_sum   'Ga1 H8'
_cell_volume   118.84478994
_cell_formula_units_Z   1
loop_
 _symmetry_equiv_pos_site_id
 _symmetry_equiv_pos_as_xyz
  1  'x, y, z'
loop_
 _atom_site_type_symbol
 _atom_site_label
 _atom_site_symmetry_multiplicity
 _atom_site_fract_x
 _atom_site_fract_y
 _atom_site_fract_z
 _atom_site_occupancy
  Ga  Ga0  1  0.254873  0.938825  0.928127  1
  H  H1  1  0.355885  0.430338  0.310914  1
  H  H2  1  0.942867  0.960075  0.483352  1
  H  H3  1  0.933270  0.478840  0.147338  1
  H  H4  1  0.079349  0.804853  0.457319  1
  H  H5  1  0.583499  0.488705  0.334822  1
  H  H6  1  0.151599  0.748325  0.638491  1
  H  H7  1  0.037860  0.839930  0.676372  1
  H  H8  1  0.083980  0.372421  0.174998  1
