# generated using pymatgen
data_Y12Er4MgCd3Ni4
_symmetry_space_group_name_H-M   'P 1'
_cell_length_a   9.57884720
_cell_length_b   9.57884680
_cell_length_c   9.57884625
_cell_angle_alpha   60.02115768
_cell_angle_beta   60.02115834
_cell_angle_gamma   60.02116087
_symmetry_Int_Tables_number   1
_chemical_formula_structural   Y12Er4MgCd3Ni4
_chemical_formula_sum   'Y12 Er4 Mg1 Cd3 Ni4'
_cell_volume   621.77455013
_cell_formula_units_Z   1
loop_
 _symmetry_equiv_pos_site_id
 _symmetry_equiv_pos_as_xyz
  1  'x, y, z'
loop_
 _atom_site_type_symbol
 _atom_site_label
 _atom_site_symmetry_multiplicity
 _atom_site_fract_x
 _atom_site_fract_y
 _atom_site_fract_z
 _atom_site_occupancy
  Y  Y0  1  0.059508  0.441580  0.441580  1
  Y  Y1  1  0.438292  0.062355  0.062355  1
  Y  Y2  1  0.441580  0.059508  0.441580  1
  Y  Y3  1  0.062355  0.438292  0.062355  1
  Y  Y4  1  0.441580  0.441580  0.059508  1
  Y  Y5  1  0.062355  0.062355  0.438292  1
  Y  Y6  1  0.186906  0.814019  0.814019  1
  Y  Y7  1  0.811965  0.187493  0.187493  1
  Y  Y8  1  0.814019  0.186906  0.814019  1
  Y  Y9  1  0.187493  0.811965  0.187493  1
  Y  Y10  1  0.814019  0.814019  0.186906  1
  Y  Y11  1  0.187493  0.187493  0.811965  1
  Er  Er12  1  0.596086  0.596086  0.596086  1
  Er  Er13  1  0.597683  0.597683  0.207344  1
  Er  Er14  1  0.597683  0.207344  0.597683  1
  Er  Er15  1  0.207344  0.597683  0.597683  1
  Mg  Mg16  1  0.825575  0.825575  0.825575  1
  Cd  Cd17  1  0.830669  0.830669  0.506559  1
  Cd  Cd18  1  0.830669  0.506559  0.830669  1
  Cd  Cd19  1  0.506559  0.830669  0.830669  1
  Ni  Ni20  1  0.393629  0.393629  0.393629  1
  Ni  Ni21  1  0.393630  0.393630  0.819280  1
  Ni  Ni22  1  0.393630  0.819280  0.393630  1
  Ni  Ni23  1  0.819280  0.393630  0.393630  1
