# generated using pymatgen
data_Pr5Nb3(Ni4P3)4
_symmetry_space_group_name_H-M   'P 1'
_cell_length_a   12.40603900
_cell_length_b   12.40603894
_cell_length_c   3.84119800
_cell_angle_alpha   90.00000000
_cell_angle_beta   90.00000000
_cell_angle_gamma   120.00000816
_symmetry_Int_Tables_number   1
_chemical_formula_structural   Pr5Nb3(Ni4P3)4
_chemical_formula_sum   'Pr5 Nb3 Ni16 P12'
_cell_volume   511.99246815
_cell_formula_units_Z   1
loop_
 _symmetry_equiv_pos_site_id
 _symmetry_equiv_pos_as_xyz
  1  'x, y, z'
loop_
 _atom_site_type_symbol
 _atom_site_label
 _atom_site_symmetry_multiplicity
 _atom_site_fract_x
 _atom_site_fract_y
 _atom_site_fract_z
 _atom_site_occupancy
  Pr  Pr0  1  0.188535  0.188535  0.500000  1
  Pr  Pr1  1  0.811465  0.000000  0.500000  1
  Pr  Pr2  1  0.000000  0.811465  0.500000  1
  Pr  Pr3  1  0.333333  0.666667  0.000000  1
  Pr  Pr4  1  0.666667  0.333333  0.000000  1
  Nb  Nb5  1  0.564530  0.564530  0.000000  1
  Nb  Nb6  1  0.435470  0.000000  0.000000  1
  Nb  Nb7  1  0.000000  0.435470  0.000000  1
  Ni  Ni8  1  0.722795  0.722795  0.500000  1
  Ni  Ni9  1  0.277205  0.000000  0.500000  1
  Ni  Ni10  1  0.000000  0.277205  0.500000  1
  Ni  Ni11  1  0.185802  0.378720  0.000000  1
  Ni  Ni12  1  0.621280  0.807082  0.000000  1
  Ni  Ni13  1  0.192918  0.814198  0.000000  1
  Ni  Ni14  1  0.807082  0.621280  0.000000  1
  Ni  Ni15  1  0.814198  0.192918  0.000000  1
  Ni  Ni16  1  0.378720  0.185802  0.000000  1
  Ni  Ni17  1  0.364315  0.485965  0.500000  1
  Ni  Ni18  1  0.514035  0.878352  0.500000  1
  Ni  Ni19  1  0.121648  0.635685  0.500000  1
  Ni  Ni20  1  0.878352  0.514035  0.500000  1
  Ni  Ni21  1  0.635685  0.121648  0.500000  1
  Ni  Ni22  1  0.485965  0.364315  0.500000  1
  Ni  Ni23  1  0.000000  0.000000  0.000000  1
  P  P24  1  0.818472  0.818472  0.000000  1
  P  P25  1  0.181528  0.000000  0.000000  1
  P  P26  1  0.000000  0.181528  0.000000  1
  P  P27  1  0.165938  0.473351  0.500000  1
  P  P28  1  0.526649  0.692588  0.500000  1
  P  P29  1  0.307412  0.834062  0.500000  1
  P  P30  1  0.692588  0.526649  0.500000  1
  P  P31  1  0.834062  0.307412  0.500000  1
  P  P32  1  0.473351  0.165938  0.500000  1
  P  P33  1  0.367797  0.367797  0.000000  1
  P  P34  1  0.632203  0.000000  0.000000  1
  P  P35  1  0.000000  0.632203  0.000000  1
