# generated using pymatgen
data_Ac6Zn(SiSe7)2
_symmetry_space_group_name_H-M   'P 1'
_cell_length_a   11.04369900
_cell_length_b   11.04369898
_cell_length_c   6.19432000
_cell_angle_alpha   90.00000000
_cell_angle_beta   90.00000000
_cell_angle_gamma   120.00000904
_symmetry_Int_Tables_number   1
_chemical_formula_structural   Ac6Zn(SiSe7)2
_chemical_formula_sum   'Ac6 Zn1 Si2 Se14'
_cell_volume   654.26449247
_cell_formula_units_Z   1
loop_
 _symmetry_equiv_pos_site_id
 _symmetry_equiv_pos_as_xyz
  1  'x, y, z'
loop_
 _atom_site_type_symbol
 _atom_site_label
 _atom_site_symmetry_multiplicity
 _atom_site_fract_x
 _atom_site_fract_y
 _atom_site_fract_z
 _atom_site_occupancy
  Ac  Ac0  1  0.310915  0.100562  0.750099  1
  Ac  Ac1  1  0.789646  0.689085  0.750099  1
  Ac  Ac2  1  0.899438  0.210354  0.750099  1
  Ac  Ac3  1  0.023165  0.565290  0.246695  1
  Ac  Ac4  1  0.542125  0.976835  0.246695  1
  Ac  Ac5  1  0.434710  0.457875  0.246695  1
  Zn  Zn6  1  0.666667  0.333333  0.507341  1
  Si  Si7  1  0.000000  0.000000  0.164357  1
  Si  Si8  1  0.333333  0.666667  0.658340  1
  Se  Se9  1  0.000000  0.000000  0.529861  1
  Se  Se10  1  0.333333  0.666667  0.024592  1
  Se  Se11  1  0.423163  0.174755  0.275902  1
  Se  Se12  1  0.751592  0.576837  0.275902  1
  Se  Se13  1  0.825245  0.248408  0.275902  1
  Se  Se14  1  0.911972  0.495281  0.751516  1
  Se  Se15  1  0.583307  0.088028  0.751516  1
  Se  Se16  1  0.504719  0.416693  0.751516  1
  Se  Se17  1  0.143398  0.219768  0.023342  1
  Se  Se18  1  0.076369  0.856602  0.023342  1
  Se  Se19  1  0.780232  0.923631  0.023342  1
  Se  Se20  1  0.190549  0.446482  0.518957  1
  Se  Se21  1  0.255934  0.809451  0.518957  1
  Se  Se22  1  0.553518  0.744066  0.518957  1
