# generated using pymatgen
data_TbNdTm2(Ir2O7)2
_symmetry_space_group_name_H-M   'P 1'
_cell_length_a   7.29059739
_cell_length_b   7.23308644
_cell_length_c   7.21884800
_cell_angle_alpha   60.06509661
_cell_angle_beta   60.32501906
_cell_angle_gamma   60.38578828
_symmetry_Int_Tables_number   1
_chemical_formula_structural   TbNdTm2(Ir2O7)2
_chemical_formula_sum   'Tb1 Nd1 Tm2 Ir4 O14'
_cell_volume   270.74916374
_cell_formula_units_Z   1
loop_
 _symmetry_equiv_pos_site_id
 _symmetry_equiv_pos_as_xyz
  1  'x, y, z'
loop_
 _atom_site_type_symbol
 _atom_site_label
 _atom_site_symmetry_multiplicity
 _atom_site_fract_x
 _atom_site_fract_y
 _atom_site_fract_z
 _atom_site_occupancy
  Tb  Tb0  1  0.125000  0.625000  0.125000  1
  Nd  Nd1  1  0.625000  0.125000  0.125000  1
  Tm  Tm2  1  0.125000  0.125000  0.625000  1
  Tm  Tm3  1  0.125000  0.125000  0.125000  1
  Ir  Ir4  1  0.125000  0.625000  0.625000  1
  Ir  Ir5  1  0.625000  0.125000  0.625000  1
  Ir  Ir6  1  0.625000  0.625000  0.125000  1
  Ir  Ir7  1  0.625000  0.625000  0.625000  1
  O  O8  1  0.719962  0.704300  0.287869  1
  O  O9  1  0.287697  0.288053  0.712124  1
  O  O10  1  0.724002  0.287246  0.700556  1
  O  O11  1  0.287440  0.715668  0.288481  1
  O  O12  1  0.287440  0.715668  0.708410  1
  O  O13  1  0.724002  0.287246  0.288196  1
  O  O14  1  0.530038  0.545700  0.962131  1
  O  O15  1  0.962303  0.961947  0.537876  1
  O  O16  1  0.525998  0.962754  0.549444  1
  O  O17  1  0.962560  0.534332  0.961519  1
  O  O18  1  0.962560  0.534332  0.541590  1
  O  O19  1  0.525998  0.962754  0.961804  1
  O  O20  1  0.238680  0.249212  0.256054  1
  O  O21  1  0.011320  0.000788  0.993946  1
