# generated using pymatgen
data_La8ZnGa2Co
_symmetry_space_group_name_H-M   'P 1'
_cell_length_a   10.60511466
_cell_length_b   10.60511516
_cell_length_c   7.17638500
_cell_angle_alpha   90.00000000
_cell_angle_beta   90.00000000
_cell_angle_gamma   120.42073954
_symmetry_Int_Tables_number   1
_chemical_formula_structural   La8ZnGa2Co
_chemical_formula_sum   'La16 Zn2 Ga4 Co2'
_cell_volume   696.00154682
_cell_formula_units_Z   2
loop_
 _symmetry_equiv_pos_site_id
 _symmetry_equiv_pos_as_xyz
  1  'x, y, z'
loop_
 _atom_site_type_symbol
 _atom_site_label
 _atom_site_symmetry_multiplicity
 _atom_site_fract_x
 _atom_site_fract_y
 _atom_site_fract_z
 _atom_site_occupancy
  La  La0  1  0.001466  0.998534  0.284356  1
  La  La1  1  0.998534  0.001466  0.784356  1
  La  La2  1  0.171764  0.828236  0.982803  1
  La  La3  1  0.828236  0.171764  0.482803  1
  La  La4  1  0.169308  0.341756  0.993745  1
  La  La5  1  0.658244  0.830692  0.993745  1
  La  La6  1  0.341756  0.169308  0.493745  1
  La  La7  1  0.830692  0.658244  0.493745  1
  La  La8  1  0.332715  0.667285  0.682567  1
  La  La9  1  0.667285  0.332715  0.182567  1
  La  La10  1  0.462087  0.537913  0.285806  1
  La  La11  1  0.537913  0.462087  0.785806  1
  La  La12  1  0.457057  0.918718  0.286987  1
  La  La13  1  0.081282  0.542943  0.286987  1
  La  La14  1  0.918718  0.457057  0.786987  1
  La  La15  1  0.542943  0.081282  0.786987  1
  Zn  Zn16  1  0.165437  0.834563  0.542654  1
  Zn  Zn17  1  0.834563  0.165437  0.042654  1
  Ga  Ga18  1  0.164629  0.328557  0.538948  1
  Ga  Ga19  1  0.671443  0.835371  0.538948  1
  Ga  Ga20  1  0.328557  0.164629  0.038948  1
  Ga  Ga21  1  0.835371  0.671443  0.038948  1
  Co  Co22  1  0.334727  0.665273  0.055517  1
  Co  Co23  1  0.665273  0.334727  0.555517  1
