# generated using pymatgen
data_Zr8Co7Si14Pt
_symmetry_space_group_name_H-M   'P 1'
_cell_length_a   9.54914453
_cell_length_b   9.56396583
_cell_length_c   9.54294050
_cell_angle_alpha   94.21729497
_cell_angle_beta   94.13455382
_cell_angle_gamma   148.71217702
_symmetry_Int_Tables_number   1
_chemical_formula_structural   Zr8Co7Si14Pt
_chemical_formula_sum   'Zr8 Co7 Si14 Pt1'
_cell_volume   435.80495590
_cell_formula_units_Z   1
loop_
 _symmetry_equiv_pos_site_id
 _symmetry_equiv_pos_as_xyz
  1  'x, y, z'
loop_
 _atom_site_type_symbol
 _atom_site_label
 _atom_site_symmetry_multiplicity
 _atom_site_fract_x
 _atom_site_fract_y
 _atom_site_fract_z
 _atom_site_occupancy
  Zr  Zr0  1  0.137801  0.137826  0.275482  1
  Zr  Zr1  1  0.862784  0.862812  0.725730  1
  Zr  Zr2  1  0.861371  0.134923  0.001263  1
  Zr  Zr3  1  0.139893  0.866333  0.001268  1
  Zr  Zr4  1  0.498056  0.303550  0.804338  1
  Zr  Zr5  1  0.500812  0.695849  0.197185  1
  Zr  Zr6  1  0.696315  0.501276  0.197140  1
  Zr  Zr7  1  0.306299  0.500802  0.804293  1
  Co  Co8  1  0.105604  0.605577  0.211158  1
  Co  Co9  1  0.104985  0.897682  0.501291  1
  Co  Co10  1  0.396290  0.603613  0.501293  1
  Co  Co11  1  0.599296  0.398251  0.496450  1
  Co  Co12  1  0.897131  0.098229  0.496450  1
  Co  Co13  1  0.896700  0.396710  0.793423  1
  Co  Co14  1  0.601215  0.101231  0.202399  1
  Si  Si15  1  0.521356  0.117517  0.583366  1
  Si  Si16  1  0.501270  0.908981  0.409181  1
  Si  Si17  1  0.907849  0.500010  0.409149  1
  Si  Si18  1  0.062174  0.465922  0.583342  1
  Si  Si19  1  0.748978  0.748996  0.000680  1
  Si  Si20  1  0.251690  0.251673  0.000652  1
  Si  Si21  1  0.289635  0.289738  0.578967  1
  Si  Si22  1  0.710307  0.710402  0.421110  1
  Si  Si23  1  0.731159  0.312867  0.007410  1
  Si  Si24  1  0.276259  0.694559  0.007414  1
  Si  Si25  1  0.998259  0.299541  0.301285  1
  Si  Si26  1  0.981078  0.687810  0.696318  1
  Si  Si27  1  0.714983  0.008208  0.696192  1
  Si  Si28  1  0.303162  0.001840  0.301167  1
  Pt  Pt29  1  0.397289  0.897273  0.794604  1
