# generated using pymatgen
data_PrNd3Th6(Si3C)2
_symmetry_space_group_name_H-M   'P 1'
_cell_length_a   8.83589000
_cell_length_b   8.83589069
_cell_length_c   6.42338200
_cell_angle_alpha   90.00000000
_cell_angle_beta   90.00000000
_cell_angle_gamma   119.99999742
_symmetry_Int_Tables_number   1
_chemical_formula_structural   PrNd3Th6(Si3C)2
_chemical_formula_sum   'Pr1 Nd3 Th6 Si6 C2'
_cell_volume   434.30519913
_cell_formula_units_Z   1
loop_
 _symmetry_equiv_pos_site_id
 _symmetry_equiv_pos_as_xyz
  1  'x, y, z'
loop_
 _atom_site_type_symbol
 _atom_site_label
 _atom_site_symmetry_multiplicity
 _atom_site_fract_x
 _atom_site_fract_y
 _atom_site_fract_z
 _atom_site_occupancy
  Pr  Pr0  1  0.666667  0.333333  0.500000  1
  Nd  Nd1  1  0.666667  0.333333  0.000000  1
  Nd  Nd2  1  0.333333  0.666667  0.000000  1
  Nd  Nd3  1  0.333333  0.666667  0.500000  1
  Th  Th4  1  0.768568  0.768724  0.750271  1
  Th  Th5  1  0.231276  0.999844  0.750271  1
  Th  Th6  1  0.000156  0.231432  0.750271  1
  Th  Th7  1  0.231276  0.231432  0.249729  1
  Th  Th8  1  0.768568  0.999844  0.249729  1
  Th  Th9  1  0.000156  0.768724  0.249729  1
  Si  Si10  1  0.396506  0.397816  0.749166  1
  Si  Si11  1  0.602184  0.998689  0.749166  1
  Si  Si12  1  0.001311  0.603494  0.749166  1
  Si  Si13  1  0.602184  0.603494  0.250834  1
  Si  Si14  1  0.396506  0.998689  0.250834  1
  Si  Si15  1  0.001311  0.397816  0.250834  1
  C  C16  1  0.000000  0.000000  0.000000  1
  C  C17  1  0.000000  0.000000  0.500000  1
