# generated using pymatgen
data_Y3TmLu2ReBi2
_symmetry_space_group_name_H-M   'P 1'
_cell_length_a   8.20515809
_cell_length_b   8.20515700
_cell_length_c   4.32913500
_cell_angle_alpha   90.00000000
_cell_angle_beta   90.00000000
_cell_angle_gamma   119.98291737
_symmetry_Int_Tables_number   1
_chemical_formula_structural   Y3TmLu2ReBi2
_chemical_formula_sum   'Y3 Tm1 Lu2 Re1 Bi2'
_cell_volume   252.45288678
_cell_formula_units_Z   1
loop_
 _symmetry_equiv_pos_site_id
 _symmetry_equiv_pos_as_xyz
  1  'x, y, z'
loop_
 _atom_site_type_symbol
 _atom_site_label
 _atom_site_symmetry_multiplicity
 _atom_site_fract_x
 _atom_site_fract_y
 _atom_site_fract_z
 _atom_site_occupancy
  Y  Y0  1  0.610645  0.000465  0.000000  1
  Y  Y1  1  0.000465  0.610645  0.000000  1
  Y  Y2  1  0.388869  0.388869  0.000000  1
  Tm  Tm3  1  0.770807  0.770807  0.500000  1
  Lu  Lu4  1  0.228620  0.999971  0.500000  1
  Lu  Lu5  1  0.999971  0.228620  0.500000  1
  Re  Re6  1  0.001176  0.001176  0.000000  1
  Bi  Bi7  1  0.332824  0.666624  0.500000  1
  Bi  Bi8  1  0.666624  0.332824  0.500000  1
