# generated using pymatgen
data_Rb4Ti2MnZnTe8
_symmetry_space_group_name_H-M   'P 1'
_cell_length_a   15.24282158
_cell_length_b   13.65278561
_cell_length_c   8.14352461
_cell_angle_alpha   84.74344789
_cell_angle_beta   63.11544455
_cell_angle_gamma   32.14111094
_symmetry_Int_Tables_number   1
_chemical_formula_structural   Rb4Ti2MnZnTe8
_chemical_formula_sum   'Rb4 Ti2 Mn1 Zn1 Te8'
_cell_volume   634.82099699
_cell_formula_units_Z   1
loop_
 _symmetry_equiv_pos_site_id
 _symmetry_equiv_pos_as_xyz
  1  'x, y, z'
loop_
 _atom_site_type_symbol
 _atom_site_label
 _atom_site_symmetry_multiplicity
 _atom_site_fract_x
 _atom_site_fract_y
 _atom_site_fract_z
 _atom_site_occupancy
  Rb  Rb0  1  0.817545  0.817545  0.182455  1
  Rb  Rb1  1  0.182455  0.182455  0.817545  1
  Rb  Rb2  1  0.432250  0.432250  0.067750  1
  Rb  Rb3  1  0.067750  0.067750  0.432250  1
  Ti  Ti4  1  0.250000  0.250000  0.250000  1
  Ti  Ti5  1  0.000000  0.000000  0.000000  1
  Mn  Mn6  1  0.500000  0.500000  0.500000  1
  Zn  Zn7  1  0.750000  0.750000  0.750000  1
  Te  Te8  1  0.398636  0.714816  0.803291  1
  Te  Te9  1  0.083256  0.803291  0.714816  1
  Te  Te10  1  0.803291  0.083256  0.398636  1
  Te  Te11  1  0.714816  0.398636  0.083256  1
  Te  Te12  1  0.851124  0.535737  0.447505  1
  Te  Te13  1  0.165635  0.447505  0.535737  1
  Te  Te14  1  0.447505  0.165635  0.851124  1
  Te  Te15  1  0.535737  0.851124  0.165635  1
