# generated using pymatgen
data_Sr3(H6Rh)2
_symmetry_space_group_name_H-M   'P 1'
_cell_length_a   5.20728200
_cell_length_b   5.20728194
_cell_length_c   8.50755400
_cell_angle_alpha   90.00000000
_cell_angle_beta   90.00000000
_cell_angle_gamma   119.99998770
_symmetry_Int_Tables_number   1
_chemical_formula_structural   Sr3(H6Rh)2
_chemical_formula_sum   'Sr3 H12 Rh2'
_cell_volume   199.78256722
_cell_formula_units_Z   1
loop_
 _symmetry_equiv_pos_site_id
 _symmetry_equiv_pos_as_xyz
  1  'x, y, z'
loop_
 _atom_site_type_symbol
 _atom_site_label
 _atom_site_symmetry_multiplicity
 _atom_site_fract_x
 _atom_site_fract_y
 _atom_site_fract_z
 _atom_site_occupancy
  Sr  Sr0  1  0.000000  0.000000  0.000000  1
  Sr  Sr1  1  0.666667  0.333333  0.359786  1
  Sr  Sr2  1  0.333333  0.666667  0.640214  1
  H  H3  1  0.179288  0.820712  0.356828  1
  H  H4  1  0.641423  0.820712  0.356828  1
  H  H5  1  0.179288  0.358577  0.356828  1
  H  H6  1  0.820712  0.179288  0.643172  1
  H  H7  1  0.358577  0.179288  0.643172  1
  H  H8  1  0.820712  0.641423  0.643172  1
  H  H9  1  0.519736  0.039473  0.873105  1
  H  H10  1  0.519736  0.480264  0.873105  1
  H  H11  1  0.960527  0.480264  0.873105  1
  H  H12  1  0.480264  0.960527  0.126895  1
  H  H13  1  0.480264  0.519736  0.126895  1
  H  H14  1  0.039473  0.519736  0.126895  1
  Rh  Rh15  1  0.666667  0.333333  0.755193  1
  Rh  Rh16  1  0.333333  0.666667  0.244807  1
