# generated using pymatgen
data_SmGd3(ZnPt)4
_symmetry_space_group_name_H-M   'P 1'
_cell_length_a   4.06412100
_cell_length_b   7.10948916
_cell_length_c   8.56464300
_cell_angle_alpha   90.33587925
_cell_angle_beta   90.00000000
_cell_angle_gamma   90.00000000
_symmetry_Int_Tables_number   1
_chemical_formula_structural   SmGd3(ZnPt)4
_chemical_formula_sum   'Sm1 Gd3 Zn4 Pt4'
_cell_volume   247.46103702
_cell_formula_units_Z   1
loop_
 _symmetry_equiv_pos_site_id
 _symmetry_equiv_pos_as_xyz
  1  'x, y, z'
loop_
 _atom_site_type_symbol
 _atom_site_label
 _atom_site_symmetry_multiplicity
 _atom_site_fract_x
 _atom_site_fract_y
 _atom_site_fract_z
 _atom_site_occupancy
  Sm  Sm0  1  0.250000  0.045511  0.314764  1
  Gd  Gd1  1  0.250000  0.544655  0.184735  1
  Gd  Gd2  1  0.750000  0.954609  0.686069  1
  Gd  Gd3  1  0.750000  0.455189  0.814740  1
  Zn  Zn4  1  0.250000  0.135586  0.935675  1
  Zn  Zn5  1  0.250000  0.634891  0.563618  1
  Zn  Zn6  1  0.750000  0.863689  0.063711  1
  Zn  Zn7  1  0.750000  0.366302  0.437202  1
  Pt  Pt8  1  0.250000  0.251904  0.624709  1
  Pt  Pt9  1  0.250000  0.751603  0.876553  1
  Pt  Pt10  1  0.750000  0.746642  0.376719  1
  Pt  Pt11  1  0.750000  0.249421  0.121505  1
