# generated using pymatgen
data_Dy4Sc2Si2Tc
_symmetry_space_group_name_H-M   'P 1'
_cell_length_a   7.62885700
_cell_length_b   7.57999109
_cell_length_c   4.35034500
_cell_angle_alpha   90.00000000
_cell_angle_beta   90.00000000
_cell_angle_gamma   120.21348081
_symmetry_Int_Tables_number   1
_chemical_formula_structural   Dy4Sc2Si2Tc
_chemical_formula_sum   'Dy4 Sc2 Si2 Tc1'
_cell_volume   217.39233745
_cell_formula_units_Z   1
loop_
 _symmetry_equiv_pos_site_id
 _symmetry_equiv_pos_as_xyz
  1  'x, y, z'
loop_
 _atom_site_type_symbol
 _atom_site_label
 _atom_site_symmetry_multiplicity
 _atom_site_fract_x
 _atom_site_fract_y
 _atom_site_fract_z
 _atom_site_occupancy
  Dy  Dy0  1  0.595196  0.000000  0.500000  1
  Dy  Dy1  1  0.413352  0.418375  0.500000  1
  Dy  Dy2  1  0.994977  0.581625  0.500000  1
  Dy  Dy3  1  0.246949  0.000000  0.000000  1
  Sc  Sc4  1  0.996383  0.244315  0.000000  1
  Sc  Sc5  1  0.752068  0.755685  0.000000  1
  Si  Si6  1  0.675897  0.339970  0.000000  1
  Si  Si7  1  0.335927  0.660030  0.000000  1
  Tc  Tc8  1  0.989251  0.000000  0.500000  1
