# generated using pymatgen
data_Nd5Y(CBr5)2
_symmetry_space_group_name_H-M   'P 1'
_cell_length_a   7.58059706
_cell_length_b   9.16183988
_cell_length_c   9.25324803
_cell_angle_alpha   107.37204696
_cell_angle_beta   96.43956463
_cell_angle_gamma   104.77582759
_symmetry_Int_Tables_number   1
_chemical_formula_structural   Nd5Y(CBr5)2
_chemical_formula_sum   'Nd5 Y1 C2 Br10'
_cell_volume   580.58396744
_cell_formula_units_Z   1
loop_
 _symmetry_equiv_pos_site_id
 _symmetry_equiv_pos_as_xyz
  1  'x, y, z'
loop_
 _atom_site_type_symbol
 _atom_site_label
 _atom_site_symmetry_multiplicity
 _atom_site_fract_x
 _atom_site_fract_y
 _atom_site_fract_z
 _atom_site_occupancy
  Nd  Nd0  1  0.887382  0.956510  0.231681  1
  Nd  Nd1  1  0.115379  0.045173  0.769291  1
  Nd  Nd2  1  0.031708  0.722642  0.918310  1
  Nd  Nd3  1  0.970220  0.277648  0.082961  1
  Nd  Nd4  1  0.615357  0.855596  0.806464  1
  Y  Y5  1  0.379346  0.141318  0.189466  1
  C  C6  1  0.910954  0.968946  0.956601  1
  C  C7  1  0.094249  0.032271  0.044661  1
  Br  Br8  1  0.754352  0.918307  0.539759  1
  Br  Br9  1  0.254173  0.085675  0.454757  1
  Br  Br10  1  0.457152  0.823311  0.091570  1
  Br  Br11  1  0.540026  0.185103  0.919609  1
  Br  Br12  1  0.793486  0.259595  0.349020  1
  Br  Br13  1  0.189989  0.736192  0.644152  1
  Br  Br14  1  0.910726  0.628865  0.176916  1
  Br  Br15  1  0.090014  0.371896  0.824351  1
  Br  Br16  1  0.659351  0.541450  0.725853  1
  Br  Br17  1  0.346135  0.449502  0.274580  1
