# generated using pymatgen
data_Tb9Y3Co5Sn
_symmetry_space_group_name_H-M   'P 1'
_cell_length_a   8.31036053
_cell_length_b   8.29665364
_cell_length_c   8.29735192
_cell_angle_alpha   107.07542418
_cell_angle_beta   110.58019007
_cell_angle_gamma   110.71763237
_symmetry_Int_Tables_number   1
_chemical_formula_structural   Tb9Y3Co5Sn
_chemical_formula_sum   'Tb9 Y3 Co5 Sn1'
_cell_volume   440.18769433
_cell_formula_units_Z   1
loop_
 _symmetry_equiv_pos_site_id
 _symmetry_equiv_pos_as_xyz
  1  'x, y, z'
loop_
 _atom_site_type_symbol
 _atom_site_label
 _atom_site_symmetry_multiplicity
 _atom_site_fract_x
 _atom_site_fract_y
 _atom_site_fract_z
 _atom_site_occupancy
  Tb  Tb0  1  0.519773  0.705211  0.814538  1
  Tb  Tb1  1  0.306133  0.619917  0.313445  1
  Tb  Tb2  1  0.306147  0.992721  0.686280  1
  Tb  Tb3  1  0.694339  0.380293  0.687028  1
  Tb  Tb4  1  0.694367  0.007354  0.314015  1
  Tb  Tb5  1  0.193031  0.206604  0.399092  1
  Tb  Tb6  1  0.807417  0.793737  0.601972  1
  Tb  Tb7  1  0.193048  0.793999  0.986436  1
  Tb  Tb8  1  0.807388  0.205416  0.013689  1
  Y  Y9  1  0.480527  0.294377  0.186165  1
  Y  Y10  1  0.105984  0.293418  0.812546  1
  Y  Y11  1  0.894057  0.706273  0.187799  1
  Co  Co12  1  0.499000  0.612308  0.110829  1
  Co  Co13  1  0.499024  0.388065  0.886634  1
  Co  Co14  1  0.377980  0.999816  0.378175  1
  Co  Co15  1  0.622252  0.000895  0.621389  1
  Co  Co16  1  0.000251  0.999786  0.000488  1
  Sn  Sn17  1  0.999285  0.499808  0.499480  1
