# generated using pymatgen
data_YCo2P3Ir2W
_symmetry_space_group_name_H-M   'P 1'
_cell_length_a   3.87096300
_cell_length_b   10.58721400
_cell_length_c   12.25659900
_cell_angle_alpha   90.00000000
_cell_angle_beta   90.00000000
_cell_angle_gamma   90.00000000
_symmetry_Int_Tables_number   1
_chemical_formula_structural   YCo2P3Ir2W
_chemical_formula_sum   'Y4 Co8 P12 Ir8 W4'
_cell_volume   502.30868735
_cell_formula_units_Z   4
loop_
 _symmetry_equiv_pos_site_id
 _symmetry_equiv_pos_as_xyz
  1  'x, y, z'
loop_
 _atom_site_type_symbol
 _atom_site_label
 _atom_site_symmetry_multiplicity
 _atom_site_fract_x
 _atom_site_fract_y
 _atom_site_fract_z
 _atom_site_occupancy
  Y  Y0  1  0.250000  0.917413  0.210335  1
  Y  Y1  1  0.750000  0.082587  0.789665  1
  Y  Y2  1  0.750000  0.417413  0.289665  1
  Y  Y3  1  0.250000  0.582587  0.710335  1
  Co  Co4  1  0.250000  0.614247  0.194733  1
  Co  Co5  1  0.750000  0.385753  0.805267  1
  Co  Co6  1  0.750000  0.114247  0.305267  1
  Co  Co7  1  0.250000  0.885753  0.694733  1
  Co  Co8  1  0.250000  0.036085  0.435824  1
  Co  Co9  1  0.750000  0.963915  0.564176  1
  Co  Co10  1  0.750000  0.536085  0.064176  1
  Co  Co11  1  0.250000  0.463915  0.935824  1
  P  P12  1  0.250000  0.070818  0.611582  1
  P  P13  1  0.750000  0.929182  0.388418  1
  P  P14  1  0.750000  0.570818  0.888418  1
  P  P15  1  0.250000  0.429182  0.111582  1
  P  P16  1  0.250000  0.226777  0.369140  1
  P  P17  1  0.750000  0.773223  0.630860  1
  P  P18  1  0.750000  0.726777  0.130860  1
  P  P19  1  0.250000  0.273223  0.869140  1
  P  P20  1  0.250000  0.900729  0.882661  1
  P  P21  1  0.750000  0.099271  0.117339  1
  P  P22  1  0.750000  0.400729  0.617339  1
  P  P23  1  0.250000  0.599271  0.382661  1
  Ir  Ir24  1  0.250000  0.094905  0.979035  1
  Ir  Ir25  1  0.750000  0.905095  0.020965  1
  Ir  Ir26  1  0.750000  0.594905  0.520965  1
  Ir  Ir27  1  0.250000  0.405095  0.479035  1
  Ir  Ir28  1  0.250000  0.273948  0.680479  1
  Ir  Ir29  1  0.750000  0.726052  0.319521  1
  Ir  Ir30  1  0.750000  0.773948  0.819521  1
  Ir  Ir31  1  0.250000  0.226052  0.180479  1
  W  W32  1  0.250000  0.791537  0.485774  1
  W  W33  1  0.750000  0.208463  0.514226  1
  W  W34  1  0.750000  0.291537  0.014226  1
  W  W35  1  0.250000  0.708463  0.985774  1
