# generated using pymatgen
data_La10AgPb6I
_symmetry_space_group_name_H-M   'P 1'
_cell_length_a   9.89500200
_cell_length_b   9.89500105
_cell_length_c   7.00764800
_cell_angle_alpha   90.00000000
_cell_angle_beta   90.00000000
_cell_angle_gamma   120.00000319
_symmetry_Int_Tables_number   1
_chemical_formula_structural   La10AgPb6I
_chemical_formula_sum   'La10 Ag1 Pb6 I1'
_cell_volume   594.20270867
_cell_formula_units_Z   1
loop_
 _symmetry_equiv_pos_site_id
 _symmetry_equiv_pos_as_xyz
  1  'x, y, z'
loop_
 _atom_site_type_symbol
 _atom_site_label
 _atom_site_symmetry_multiplicity
 _atom_site_fract_x
 _atom_site_fract_y
 _atom_site_fract_z
 _atom_site_occupancy
  La  La0  1  0.726284  0.000000  0.747847  1
  La  La1  1  0.000000  0.273716  0.252153  1
  La  La2  1  0.726284  0.726284  0.252153  1
  La  La3  1  0.333333  0.666667  0.500000  1
  La  La4  1  0.333333  0.666667  0.000000  1
  La  La5  1  0.666667  0.333333  0.500000  1
  La  La6  1  0.666667  0.333333  0.000000  1
  La  La7  1  0.273716  0.000000  0.252153  1
  La  La8  1  0.273716  0.273716  0.747847  1
  La  La9  1  0.000000  0.726284  0.747847  1
  Ag  Ag10  1  0.000000  0.000000  0.500000  1
  Pb  Pb11  1  0.381904  0.000000  0.749276  1
  Pb  Pb12  1  0.618096  0.000000  0.250724  1
  Pb  Pb13  1  0.000000  0.618096  0.250724  1
  Pb  Pb14  1  0.618096  0.618096  0.749276  1
  Pb  Pb15  1  0.000000  0.381904  0.749276  1
  Pb  Pb16  1  0.381904  0.381904  0.250724  1
  I  I17  1  0.000000  0.000000  0.000000  1
