# generated using pymatgen
data_Tb12Co2TcNi2Sn
_symmetry_space_group_name_H-M   'P 1'
_cell_length_a   8.35512873
_cell_length_b   8.35512903
_cell_length_c   8.35512863
_cell_angle_alpha   111.18041746
_cell_angle_beta   109.87960954
_cell_angle_gamma   107.37648937
_symmetry_Int_Tables_number   1
_chemical_formula_structural   Tb12Co2TcNi2Sn
_chemical_formula_sum   'Tb12 Co2 Tc1 Ni2 Sn1'
_cell_volume   448.48274478
_cell_formula_units_Z   1
loop_
 _symmetry_equiv_pos_site_id
 _symmetry_equiv_pos_as_xyz
  1  'x, y, z'
loop_
 _atom_site_type_symbol
 _atom_site_label
 _atom_site_symmetry_multiplicity
 _atom_site_fract_x
 _atom_site_fract_y
 _atom_site_fract_z
 _atom_site_occupancy
  Tb  Tb0  1  0.407485  0.217614  0.189872  1
  Tb  Tb1  1  0.592515  0.782386  0.810128  1
  Tb  Tb2  1  0.027742  0.217614  0.810128  1
  Tb  Tb3  1  0.972258  0.782386  0.189872  1
  Tb  Tb4  1  0.181130  0.289312  0.470441  1
  Tb  Tb5  1  0.818870  0.710688  0.529559  1
  Tb  Tb6  1  0.181130  0.710688  0.891817  1
  Tb  Tb7  1  0.818870  0.289312  0.108183  1
  Tb  Tb8  1  0.315508  0.623315  0.307808  1
  Tb  Tb9  1  0.684492  0.376685  0.692192  1
  Tb  Tb10  1  0.315508  0.007701  0.692192  1
  Tb  Tb11  1  0.684492  0.992299  0.307808  1
  Co  Co12  1  0.113858  0.613858  0.500000  1
  Co  Co13  1  0.886142  0.386142  0.500000  1
  Tc  Tc14  1  0.000000  0.000000  0.000000  1
  Ni  Ni15  1  0.363839  0.000000  0.363839  1
  Ni  Ni16  1  0.636161  0.000000  0.636161  1
  Sn  Sn17  1  0.500000  0.500000  0.000000  1
