# generated using pymatgen
data_Ta3Be2IrRu4
_symmetry_space_group_name_H-M   'P 1'
_cell_length_a   9.44139400
_cell_length_b   9.44139400
_cell_length_c   3.12869600
_cell_angle_alpha   90.00000000
_cell_angle_beta   90.00000000
_cell_angle_gamma   90.00000000
_symmetry_Int_Tables_number   1
_chemical_formula_structural   Ta3Be2IrRu4
_chemical_formula_sum   'Ta6 Be4 Ir2 Ru8'
_cell_volume   278.89171322
_cell_formula_units_Z   2
loop_
 _symmetry_equiv_pos_site_id
 _symmetry_equiv_pos_as_xyz
  1  'x, y, z'
loop_
 _atom_site_type_symbol
 _atom_site_label
 _atom_site_symmetry_multiplicity
 _atom_site_fract_x
 _atom_site_fract_y
 _atom_site_fract_z
 _atom_site_occupancy
  Ta  Ta0  1  0.822188  0.677812  0.000000  1
  Ta  Ta1  1  0.177812  0.322188  0.000000  1
  Ta  Ta2  1  0.322188  0.822188  0.000000  1
  Ta  Ta3  1  0.677812  0.177812  0.000000  1
  Ta  Ta4  1  0.500000  0.500000  0.000000  1
  Ta  Ta5  1  0.000000  0.000000  0.000000  1
  Be  Be6  1  0.622371  0.877629  0.000000  1
  Be  Be7  1  0.377629  0.122371  0.000000  1
  Be  Be8  1  0.122371  0.622371  0.000000  1
  Be  Be9  1  0.877629  0.377629  0.000000  1
  Ir  Ir10  1  0.500000  0.000000  0.500000  1
  Ir  Ir11  1  0.000000  0.500000  0.500000  1
  Ru  Ru12  1  0.571375  0.712905  0.500000  1
  Ru  Ru13  1  0.428625  0.287095  0.500000  1
  Ru  Ru14  1  0.071375  0.787095  0.500000  1
  Ru  Ru15  1  0.928625  0.212905  0.500000  1
  Ru  Ru16  1  0.287095  0.571375  0.500000  1
  Ru  Ru17  1  0.712905  0.428625  0.500000  1
  Ru  Ru18  1  0.212905  0.071375  0.500000  1
  Ru  Ru19  1  0.787095  0.928625  0.500000  1
