# generated using pymatgen
data_Ho7Er(WC2)4
_symmetry_space_group_name_H-M   'P 1'
_cell_length_a   5.72516131
_cell_length_b   5.72515992
_cell_length_c   9.83218463
_cell_angle_alpha   89.95266420
_cell_angle_beta   90.04733509
_cell_angle_gamma   89.98202549
_symmetry_Int_Tables_number   1
_chemical_formula_structural   Ho7Er(WC2)4
_chemical_formula_sum   'Ho7 Er1 W4 C8'
_cell_volume   322.27384270
_cell_formula_units_Z   1
loop_
 _symmetry_equiv_pos_site_id
 _symmetry_equiv_pos_as_xyz
  1  'x, y, z'
loop_
 _atom_site_type_symbol
 _atom_site_label
 _atom_site_symmetry_multiplicity
 _atom_site_fract_x
 _atom_site_fract_y
 _atom_site_fract_z
 _atom_site_occupancy
  Ho  Ho0  1  0.200466  0.199724  0.341979  1
  Ho  Ho1  1  0.800536  0.799254  0.658179  1
  Ho  Ho2  1  0.299815  0.700185  0.842039  1
  Ho  Ho3  1  0.800276  0.799534  0.341979  1
  Ho  Ho4  1  0.200746  0.199464  0.658179  1
  Ho  Ho5  1  0.699417  0.300583  0.157772  1
  Ho  Ho6  1  0.699950  0.300050  0.841692  1
  Er  Er7  1  0.299136  0.700864  0.157937  1
  W  W8  1  0.177634  0.179083  0.999875  1
  W  W9  1  0.820917  0.822366  0.999875  1
  W  W10  1  0.322413  0.677587  0.500060  1
  W  W11  1  0.678808  0.321192  0.500180  1
  C  C12  1  0.999903  0.000097  0.154624  1
  C  C13  1  0.499836  0.500164  0.344974  1
  C  C14  1  0.500344  0.499656  0.654800  1
  C  C15  1  0.498901  0.000389  0.999781  1
  C  C16  1  0.999611  0.501099  0.999781  1
  C  C17  1  0.999694  0.000306  0.845184  1
  C  C18  1  0.500933  0.999333  0.500556  1
  C  C19  1  0.000667  0.499067  0.500556  1
