# generated using pymatgen
data_Y16Ho4Ir5Rh7
_symmetry_space_group_name_H-M   'P 1'
_cell_length_a   10.92745651
_cell_length_b   10.92745651
_cell_length_c   6.38692203
_cell_angle_alpha   89.99223153
_cell_angle_beta   89.99223153
_cell_angle_gamma   90.03409158
_symmetry_Int_Tables_number   1
_chemical_formula_structural   Y16Ho4Ir5Rh7
_chemical_formula_sum   'Y16 Ho4 Ir5 Rh7'
_cell_volume   762.65777637
_cell_formula_units_Z   1
loop_
 _symmetry_equiv_pos_site_id
 _symmetry_equiv_pos_as_xyz
  1  'x, y, z'
loop_
 _atom_site_type_symbol
 _atom_site_label
 _atom_site_symmetry_multiplicity
 _atom_site_fract_x
 _atom_site_fract_y
 _atom_site_fract_z
 _atom_site_occupancy
  Y  Y0  1  0.290376  0.088405  0.377629  1
  Y  Y1  1  0.290203  0.910066  0.878894  1
  Y  Y2  1  0.709107  0.089654  0.878288  1
  Y  Y3  1  0.709013  0.910302  0.377846  1
  Y  Y4  1  0.587561  0.789563  0.879049  1
  Y  Y5  1  0.587473  0.210411  0.378973  1
  Y  Y6  1  0.411210  0.789843  0.378801  1
  Y  Y7  1  0.412422  0.210378  0.878915  1
  Y  Y8  1  0.210437  0.412439  0.620951  1
  Y  Y9  1  0.210157  0.588790  0.121199  1
  Y  Y10  1  0.789589  0.412527  0.121027  1
  Y  Y11  1  0.789622  0.587578  0.621085  1
  Y  Y12  1  0.911595  0.709624  0.122371  1
  Y  Y13  1  0.910346  0.290893  0.621712  1
  Y  Y14  1  0.089934  0.709797  0.621106  1
  Y  Y15  1  0.089698  0.290987  0.122154  1
  Ho  Ho16  1  0.000299  0.999675  0.499834  1
  Ho  Ho17  1  0.000325  0.999701  0.000166  1
  Ho  Ho18  1  0.499958  0.499881  0.000005  1
  Ho  Ho19  1  0.500119  0.500042  0.499995  1
  Ir  Ir20  1  0.152063  0.847937  0.250000  1
  Ir  Ir21  1  0.653375  0.346625  0.750000  1
  Ir  Ir22  1  0.653393  0.653294  0.249954  1
  Ir  Ir23  1  0.346706  0.346607  0.250046  1
  Ir  Ir24  1  0.347198  0.652802  0.750000  1
  Rh  Rh25  1  0.847812  0.152188  0.250000  1
  Rh  Rh26  1  0.847413  0.847811  0.749914  1
  Rh  Rh27  1  0.152189  0.152587  0.750086  1
  Rh  Rh28  1  0.500390  0.000154  0.122568  1
  Rh  Rh29  1  0.500294  0.000125  0.622904  1
  Rh  Rh30  1  0.999875  0.499706  0.877096  1
  Rh  Rh31  1  0.999846  0.499610  0.377432  1
