# generated using pymatgen
data_Pr2Al20FeRh3
_symmetry_space_group_name_H-M   'P 1'
_cell_length_a   6.86049519
_cell_length_b   6.86347491
_cell_length_c   9.17331871
_cell_angle_alpha   89.93679733
_cell_angle_beta   90.13159467
_cell_angle_gamma   97.41460921
_symmetry_Int_Tables_number   1
_chemical_formula_structural   Pr2Al20FeRh3
_chemical_formula_sum   'Pr2 Al20 Fe1 Rh3'
_cell_volume   428.32950912
_cell_formula_units_Z   1
loop_
 _symmetry_equiv_pos_site_id
 _symmetry_equiv_pos_as_xyz
  1  'x, y, z'
loop_
 _atom_site_type_symbol
 _atom_site_label
 _atom_site_symmetry_multiplicity
 _atom_site_fract_x
 _atom_site_fract_y
 _atom_site_fract_z
 _atom_site_occupancy
  Pr  Pr0  1  0.874803  0.127530  0.751278  1
  Pr  Pr1  1  0.125197  0.872470  0.248722  1
  Al  Al2  1  0.622294  0.378912  0.549750  1
  Al  Al3  1  0.377706  0.621088  0.450250  1
  Al  Al4  1  0.372266  0.619089  0.046953  1
  Al  Al5  1  0.627734  0.380911  0.953047  1
  Al  Al6  1  0.224631  0.225740  0.498997  1
  Al  Al7  1  0.775369  0.774260  0.501003  1
  Al  Al8  1  0.779202  0.770649  0.001935  1
  Al  Al9  1  0.220798  0.229351  0.998065  1
  Al  Al10  1  0.845285  0.163460  0.101714  1
  Al  Al11  1  0.154715  0.836540  0.898286  1
  Al  Al12  1  0.157928  0.842148  0.604840  1
  Al  Al13  1  0.842072  0.157852  0.395160  1
  Al  Al14  1  0.861672  0.589605  0.754793  1
  Al  Al15  1  0.138328  0.410395  0.245207  1
  Al  Al16  1  0.407012  0.141495  0.751293  1
  Al  Al17  1  0.592988  0.858505  0.248707  1
  Al  Al18  1  0.224165  0.482215  0.755958  1
  Al  Al19  1  0.775835  0.517785  0.244042  1
  Al  Al20  1  0.519112  0.772662  0.750734  1
  Al  Al21  1  0.480888  0.227338  0.249266  1
  Fe  Fe22  1  0.000000  0.500000  0.000000  1
  Rh  Rh23  1  0.000000  0.500000  0.500000  1
  Rh  Rh24  1  0.500000  0.000000  0.000000  1
  Rh  Rh25  1  0.500000  0.000000  0.500000  1
