# generated using pymatgen
data_Y8MoW3C8
_symmetry_space_group_name_H-M   'P 1'
_cell_length_a   5.75218829
_cell_length_b   5.75218760
_cell_length_c   9.93254300
_cell_angle_alpha   90.00000000
_cell_angle_beta   90.00000000
_cell_angle_gamma   90.01213212
_symmetry_Int_Tables_number   1
_chemical_formula_structural   Y8MoW3C8
_chemical_formula_sum   'Y8 Mo1 W3 C8'
_cell_volume   328.64465971
_cell_formula_units_Z   1
loop_
 _symmetry_equiv_pos_site_id
 _symmetry_equiv_pos_as_xyz
  1  'x, y, z'
loop_
 _atom_site_type_symbol
 _atom_site_label
 _atom_site_symmetry_multiplicity
 _atom_site_fract_x
 _atom_site_fract_y
 _atom_site_fract_z
 _atom_site_occupancy
  Y  Y0  1  0.299901  0.700099  0.157334  1
  Y  Y1  1  0.699842  0.300158  0.842327  1
  Y  Y2  1  0.800164  0.798616  0.342657  1
  Y  Y3  1  0.201384  0.199836  0.657343  1
  Y  Y4  1  0.699842  0.300158  0.157673  1
  Y  Y5  1  0.299901  0.700099  0.842666  1
  Y  Y6  1  0.201384  0.199836  0.342657  1
  Y  Y7  1  0.800164  0.798616  0.657343  1
  Mo  Mo8  1  0.677094  0.322906  0.500000  1
  W  W9  1  0.323629  0.676371  0.500000  1
  W  W10  1  0.822175  0.822649  0.000000  1
  W  W11  1  0.177351  0.177825  0.000000  1
  C  C12  1  0.999807  0.000193  0.846871  1
  C  C13  1  0.498474  0.501526  0.653487  1
  C  C14  1  0.498474  0.501526  0.346513  1
  C  C15  1  0.500018  0.000240  0.000000  1
  C  C16  1  0.499556  0.998730  0.500000  1
  C  C17  1  0.999760  0.499982  0.000000  1
  C  C18  1  0.001270  0.500444  0.500000  1
  C  C19  1  0.999807  0.000193  0.153129  1
