# generated using pymatgen
data_Tb2U2In2Ir3Rh
_symmetry_space_group_name_H-M   'P 1'
_cell_length_a   7.78893764
_cell_length_b   7.61480437
_cell_length_c   3.60355000
_cell_angle_alpha   90.00000000
_cell_angle_beta   90.00000000
_cell_angle_gamma   90.18926640
_symmetry_Int_Tables_number   1
_chemical_formula_structural   Tb2U2In2Ir3Rh
_chemical_formula_sum   'Tb2 U2 In2 Ir3 Rh1'
_cell_volume   213.72983977
_cell_formula_units_Z   1
loop_
 _symmetry_equiv_pos_site_id
 _symmetry_equiv_pos_as_xyz
  1  'x, y, z'
loop_
 _atom_site_type_symbol
 _atom_site_label
 _atom_site_symmetry_multiplicity
 _atom_site_fract_x
 _atom_site_fract_y
 _atom_site_fract_z
 _atom_site_occupancy
  Tb  Tb0  1  0.171584  0.328816  0.500000  1
  Tb  Tb1  1  0.671509  0.170215  0.500000  1
  U  U2  1  0.326062  0.836897  0.500000  1
  U  U3  1  0.821465  0.661256  0.500000  1
  In  In4  1  0.490469  0.492038  0.000000  1
  In  In5  1  0.990606  0.005690  0.000000  1
  Ir  Ir6  1  0.371254  0.096002  0.000000  1
  Ir  Ir7  1  0.638723  0.839041  0.000000  1
  Ir  Ir8  1  0.874624  0.406409  0.000000  1
  Rh  Rh9  1  0.143705  0.663634  0.000000  1
