# generated using pymatgen
data_Ti6Re5TcGe6
_symmetry_space_group_name_H-M   'P 1'
_cell_length_a   7.69528618
_cell_length_b   7.67916293
_cell_length_c   7.69886332
_cell_angle_alpha   126.30143038
_cell_angle_beta   129.46698080
_cell_angle_gamma   76.87213076
_symmetry_Int_Tables_number   1
_chemical_formula_structural   Ti6Re5TcGe6
_chemical_formula_sum   'Ti6 Re5 Tc1 Ge6'
_cell_volume   274.79328612
_cell_formula_units_Z   1
loop_
 _symmetry_equiv_pos_site_id
 _symmetry_equiv_pos_as_xyz
  1  'x, y, z'
loop_
 _atom_site_type_symbol
 _atom_site_label
 _atom_site_symmetry_multiplicity
 _atom_site_fract_x
 _atom_site_fract_y
 _atom_site_fract_z
 _atom_site_occupancy
  Ti  Ti0  1  0.549103  0.091949  0.043486  1
  Ti  Ti1  1  0.450201  0.496494  0.547304  1
  Ti  Ti2  1  0.949329  0.496555  0.046465  1
  Ti  Ti3  1  0.048677  0.092126  0.543058  1
  Ti  Ti4  1  0.751464  0.900620  0.650577  1
  Ti  Ti5  1  0.249829  0.900622  0.149013  1
  Re  Re6  1  0.500528  0.231717  0.731159  1
  Re  Re7  1  0.000559  0.231977  0.231430  1
  Re  Re8  1  0.133226  0.762298  0.629243  1
  Re  Re9  1  0.866986  0.496920  0.629689  1
  Re  Re10  1  0.633308  0.762559  0.129057  1
  Tc  Tc11  1  0.367373  0.497098  0.129895  1
  Ge  Ge12  1  0.747500  0.497165  0.247424  1
  Ge  Ge13  1  0.249657  0.497089  0.749675  1
  Ge  Ge14  1  0.333531  0.828771  0.495029  1
  Ge  Ge15  1  0.667141  0.163599  0.496697  1
  Ge  Ge16  1  0.833899  0.829532  0.995816  1
  Ge  Ge17  1  0.167690  0.164912  0.996985  1
