# generated using pymatgen
data_NdSmB4(IrOs)2
_symmetry_space_group_name_H-M   'P 1'
_cell_length_a   6.90564250
_cell_length_b   6.05923279
_cell_length_c   5.61549255
_cell_angle_alpha   72.41452256
_cell_angle_beta   56.76475838
_cell_angle_gamma   50.82070256
_symmetry_Int_Tables_number   1
_chemical_formula_structural   NdSmB4(IrOs)2
_chemical_formula_sum   'Nd1 Sm1 B4 Ir2 Os2'
_cell_volume   151.99473955
_cell_formula_units_Z   1
loop_
 _symmetry_equiv_pos_site_id
 _symmetry_equiv_pos_as_xyz
  1  'x, y, z'
loop_
 _atom_site_type_symbol
 _atom_site_label
 _atom_site_symmetry_multiplicity
 _atom_site_fract_x
 _atom_site_fract_y
 _atom_site_fract_z
 _atom_site_occupancy
  Nd  Nd0  1  0.500000  0.500000  0.500000  1
  Sm  Sm1  1  0.750000  0.750000  0.750000  1
  B  B2  1  0.176635  0.823365  0.176635  1
  B  B3  1  0.061818  0.438182  0.061818  1
  B  B4  1  0.823365  0.176635  0.823365  1
  B  B5  1  0.438182  0.061818  0.438182  1
  Ir  Ir6  1  0.384084  0.384084  0.115916  1
  Ir  Ir7  1  0.115916  0.115916  0.384084  1
  Os  Os8  1  0.864519  0.864519  0.135481  1
  Os  Os9  1  0.135481  0.135481  0.864519  1
