# generated using pymatgen
data_AcSm(AlCu)5
_symmetry_space_group_name_H-M   'P 1'
_cell_length_a   4.17455600
_cell_length_b   5.42176900
_cell_length_c   9.21042900
_cell_angle_alpha   90.00000000
_cell_angle_beta   90.00000000
_cell_angle_gamma   90.00000000
_symmetry_Int_Tables_number   1
_chemical_formula_structural   AcSm(AlCu)5
_chemical_formula_sum   'Ac1 Sm1 Al5 Cu5'
_cell_volume   208.46404499
_cell_formula_units_Z   1
loop_
 _symmetry_equiv_pos_site_id
 _symmetry_equiv_pos_as_xyz
  1  'x, y, z'
loop_
 _atom_site_type_symbol
 _atom_site_label
 _atom_site_symmetry_multiplicity
 _atom_site_fract_x
 _atom_site_fract_y
 _atom_site_fract_z
 _atom_site_occupancy
  Ac  Ac0  1  0.000000  0.500000  0.000000  1
  Sm  Sm1  1  0.000000  0.000000  0.500000  1
  Al  Al2  1  0.500000  0.000000  0.000000  1
  Al  Al3  1  0.500000  0.751309  0.264790  1
  Al  Al4  1  0.500000  0.248691  0.735210  1
  Al  Al5  1  0.500000  0.248691  0.264790  1
  Al  Al6  1  0.500000  0.751309  0.735210  1
  Cu  Cu7  1  0.000000  0.500000  0.343897  1
  Cu  Cu8  1  0.000000  0.000000  0.826153  1
  Cu  Cu9  1  0.000000  0.000000  0.173847  1
  Cu  Cu10  1  0.000000  0.500000  0.656103  1
  Cu  Cu11  1  0.500000  0.500000  0.500000  1
