# generated using pymatgen
data_Tb4Mg(Ga2Pd)10
_symmetry_space_group_name_H-M   'P 1'
_cell_length_a   4.16898780
_cell_length_b   11.20322629
_cell_length_c   13.63797753
_cell_angle_alpha   81.33310603
_cell_angle_beta   81.20817052
_cell_angle_gamma   79.27694414
_symmetry_Int_Tables_number   1
_chemical_formula_structural   Tb4Mg(Ga2Pd)10
_chemical_formula_sum   'Tb4 Mg1 Ga20 Pd10'
_cell_volume   613.57869065
_cell_formula_units_Z   1
loop_
 _symmetry_equiv_pos_site_id
 _symmetry_equiv_pos_as_xyz
  1  'x, y, z'
loop_
 _atom_site_type_symbol
 _atom_site_label
 _atom_site_symmetry_multiplicity
 _atom_site_fract_x
 _atom_site_fract_y
 _atom_site_fract_z
 _atom_site_occupancy
  Tb  Tb0  1  0.875577  0.913177  0.335666  1
  Tb  Tb1  1  0.124423  0.086823  0.664334  1
  Tb  Tb2  1  0.228608  0.364726  0.178056  1
  Tb  Tb3  1  0.771392  0.635274  0.821944  1
  Mg  Mg4  1  0.500000  0.500000  0.500000  1
  Ga  Ga5  1  0.994395  0.925740  0.085470  1
  Ga  Ga6  1  0.005605  0.074260  0.914530  1
  Ga  Ga7  1  0.933849  0.328627  0.803676  1
  Ga  Ga8  1  0.066151  0.671373  0.196324  1
  Ga  Ga9  1  0.889270  0.672960  0.548499  1
  Ga  Ga10  1  0.110730  0.327040  0.451501  1
  Ga  Ga11  1  0.797786  0.396111  0.008318  1
  Ga  Ga12  1  0.202214  0.603889  0.991682  1
  Ga  Ga13  1  0.743243  0.215236  0.298279  1
  Ga  Ga14  1  0.256757  0.784764  0.701721  1
  Ga  Ga15  1  0.697182  0.102023  0.503611  1
  Ga  Ga16  1  0.302818  0.897977  0.496389  1
  Ga  Ga17  1  0.615790  0.473238  0.295184  1
  Ga  Ga18  1  0.384210  0.526762  0.704816  1
  Ga  Ga19  1  0.603284  0.795250  0.998182  1
  Ga  Ga20  1  0.396716  0.204750  0.001818  1
  Ga  Ga21  1  0.457288  0.718338  0.367085  1
  Ga  Ga22  1  0.542712  0.281662  0.632915  1
  Ga  Ga23  1  0.366834  0.060800  0.205531  1
  Ga  Ga24  1  0.633166  0.939200  0.794469  1
  Pd  Pd25  1  0.973892  0.433687  0.618530  1
  Pd  Pd26  1  0.026108  0.566313  0.381470  1
  Pd  Pd27  1  0.864659  0.157635  0.113048  1
  Pd  Pd28  1  0.135341  0.842365  0.886952  1
  Pd  Pd29  1  0.757396  0.875845  0.609364  1
  Pd  Pd30  1  0.242604  0.124155  0.390636  1
  Pd  Pd31  1  0.653624  0.582552  0.110199  1
  Pd  Pd32  1  0.346376  0.417448  0.889801  1
  Pd  Pd33  1  0.496245  0.825805  0.181705  1
  Pd  Pd34  1  0.503755  0.174195  0.818295  1
