# generated using pymatgen
data_Rb3YbInBr6
_symmetry_space_group_name_H-M   'P 1'
_cell_length_a   9.47585977
_cell_length_b   9.47586141
_cell_length_c   9.47586249
_cell_angle_alpha   90.61754222
_cell_angle_beta   90.61754345
_cell_angle_gamma   90.61754497
_symmetry_Int_Tables_number   1
_chemical_formula_structural   Rb3YbInBr6
_chemical_formula_sum   'Rb6 Yb2 In2 Br12'
_cell_volume   850.70668112
_cell_formula_units_Z   2
loop_
 _symmetry_equiv_pos_site_id
 _symmetry_equiv_pos_as_xyz
  1  'x, y, z'
loop_
 _atom_site_type_symbol
 _atom_site_label
 _atom_site_symmetry_multiplicity
 _atom_site_fract_x
 _atom_site_fract_y
 _atom_site_fract_z
 _atom_site_occupancy
  Rb  Rb0  1  0.870867  0.629133  0.250000  1
  Rb  Rb1  1  0.629133  0.250000  0.870867  1
  Rb  Rb2  1  0.250000  0.870867  0.629133  1
  Rb  Rb3  1  0.129133  0.370867  0.750000  1
  Rb  Rb4  1  0.370867  0.750000  0.129133  1
  Rb  Rb5  1  0.750000  0.129133  0.370867  1
  Yb  Yb6  1  0.000000  0.000000  0.000000  1
  Yb  Yb7  1  0.500000  0.500000  0.500000  1
  In  In8  1  0.250000  0.250000  0.250000  1
  In  In9  1  0.750000  0.750000  0.750000  1
  Br  Br10  1  0.207711  0.552452  0.424997  1
  Br  Br11  1  0.052452  0.707711  0.924997  1
  Br  Br12  1  0.924997  0.052452  0.707711  1
  Br  Br13  1  0.792289  0.447548  0.575003  1
  Br  Br14  1  0.707711  0.924997  0.052452  1
  Br  Br15  1  0.447548  0.575003  0.792289  1
  Br  Br16  1  0.575003  0.792289  0.447548  1
  Br  Br17  1  0.552452  0.424997  0.207711  1
  Br  Br18  1  0.075003  0.947548  0.292289  1
  Br  Br19  1  0.947548  0.292289  0.075003  1
  Br  Br20  1  0.292289  0.075003  0.947548  1
  Br  Br21  1  0.424997  0.207711  0.552452  1
