# generated using pymatgen
data_Ho5ErSi4(GeRh6)2
_symmetry_space_group_name_H-M   'P 1'
_cell_length_a   5.57140100
_cell_length_b   5.57140092
_cell_length_c   15.18190100
_cell_angle_alpha   90.00000000
_cell_angle_beta   90.00000000
_cell_angle_gamma   119.99999452
_symmetry_Int_Tables_number   1
_chemical_formula_structural   Ho5ErSi4(GeRh6)2
_chemical_formula_sum   'Ho5 Er1 Si4 Ge2 Rh12'
_cell_volume   408.11789723
_cell_formula_units_Z   1
loop_
 _symmetry_equiv_pos_site_id
 _symmetry_equiv_pos_as_xyz
  1  'x, y, z'
loop_
 _atom_site_type_symbol
 _atom_site_label
 _atom_site_symmetry_multiplicity
 _atom_site_fract_x
 _atom_site_fract_y
 _atom_site_fract_z
 _atom_site_occupancy
  Ho  Ho0  1  0.333333  0.666667  0.537643  1
  Ho  Ho1  1  0.666667  0.333333  0.462372  1
  Ho  Ho2  1  0.666667  0.333333  0.037581  1
  Ho  Ho3  1  0.333333  0.666667  0.750029  1
  Ho  Ho4  1  0.666667  0.333333  0.249985  1
  Er  Er5  1  0.333333  0.666667  0.962434  1
  Si  Si6  1  0.000000  0.000000  0.249955  1
  Si  Si7  1  0.000000  0.000000  0.750020  1
  Si  Si8  1  0.333333  0.666667  0.249973  1
  Si  Si9  1  0.666667  0.333333  0.750003  1
  Ge  Ge10  1  0.000000  0.000000  0.000002  1
  Ge  Ge11  1  0.000000  0.000000  0.500003  1
  Rh  Rh12  1  0.167724  0.335447  0.132219  1
  Rh  Rh13  1  0.832349  0.664700  0.867762  1
  Rh  Rh14  1  0.664553  0.832276  0.132219  1
  Rh  Rh15  1  0.832340  0.664680  0.632315  1
  Rh  Rh16  1  0.335300  0.167651  0.867762  1
  Rh  Rh17  1  0.167676  0.335350  0.367704  1
  Rh  Rh18  1  0.167724  0.832276  0.132219  1
  Rh  Rh19  1  0.335320  0.167660  0.632315  1
  Rh  Rh20  1  0.832349  0.167651  0.867762  1
  Rh  Rh21  1  0.664650  0.832324  0.367704  1
  Rh  Rh22  1  0.832340  0.167660  0.632315  1
  Rh  Rh23  1  0.167676  0.832324  0.367704  1
