# generated using pymatgen
data_Tb8Ho2Ir5Au
_symmetry_space_group_name_H-M   'P 1'
_cell_length_a   11.07989233
_cell_length_b   11.01070300
_cell_length_c   6.34069802
_cell_angle_alpha   90.00000000
_cell_angle_beta   89.87589954
_cell_angle_gamma   90.00000000
_symmetry_Int_Tables_number   1
_chemical_formula_structural   Tb8Ho2Ir5Au
_chemical_formula_sum   'Tb16 Ho4 Ir10 Au2'
_cell_volume   773.54688137
_cell_formula_units_Z   2
loop_
 _symmetry_equiv_pos_site_id
 _symmetry_equiv_pos_as_xyz
  1  'x, y, z'
loop_
 _atom_site_type_symbol
 _atom_site_label
 _atom_site_symmetry_multiplicity
 _atom_site_fract_x
 _atom_site_fract_y
 _atom_site_fract_z
 _atom_site_occupancy
  Tb  Tb0  1  0.291841  0.088514  0.372167  1
  Tb  Tb1  1  0.291841  0.911486  0.872167  1
  Tb  Tb2  1  0.698308  0.092255  0.865637  1
  Tb  Tb3  1  0.698308  0.907745  0.365637  1
  Tb  Tb4  1  0.578070  0.789138  0.877203  1
  Tb  Tb5  1  0.578070  0.210862  0.377203  1
  Tb  Tb6  1  0.408266  0.790421  0.376983  1
  Tb  Tb7  1  0.408266  0.209579  0.876983  1
  Tb  Tb8  1  0.210193  0.411220  0.621214  1
  Tb  Tb9  1  0.210193  0.588780  0.121214  1
  Tb  Tb10  1  0.788797  0.419555  0.123093  1
  Tb  Tb11  1  0.788797  0.580445  0.623093  1
  Tb  Tb12  1  0.917379  0.705630  0.139084  1
  Tb  Tb13  1  0.917379  0.294370  0.639084  1
  Tb  Tb14  1  0.096186  0.702897  0.623995  1
  Tb  Tb15  1  0.096186  0.297103  0.123995  1
  Ho  Ho16  1  0.009583  0.997399  0.499803  1
  Ho  Ho17  1  0.009583  0.002601  0.999803  1
  Ho  Ho18  1  0.499693  0.498888  0.000674  1
  Ho  Ho19  1  0.499693  0.501112  0.500674  1
  Ir  Ir20  1  0.153321  0.153362  0.750275  1
  Ir  Ir21  1  0.153321  0.846638  0.250275  1
  Ir  Ir22  1  0.655112  0.346669  0.748370  1
  Ir  Ir23  1  0.655112  0.653331  0.248370  1
  Ir  Ir24  1  0.347864  0.346708  0.251482  1
  Ir  Ir25  1  0.347864  0.653292  0.751482  1
  Ir  Ir26  1  0.499863  0.999681  0.120756  1
  Ir  Ir27  1  0.499863  0.000319  0.620756  1
  Ir  Ir28  1  0.999629  0.501038  0.879078  1
  Ir  Ir29  1  0.999629  0.498962  0.379078  1
  Au  Au30  1  0.845894  0.154438  0.250187  1
  Au  Au31  1  0.845894  0.845562  0.750187  1
