# generated using pymatgen
data_La3Cr(Ga3Pd)8
_symmetry_space_group_name_H-M   'P 1'
_cell_length_a   8.55379105
_cell_length_b   8.55379213
_cell_length_c   8.55379096
_cell_angle_alpha   89.90704650
_cell_angle_beta   89.90704807
_cell_angle_gamma   89.90705368
_symmetry_Int_Tables_number   1
_chemical_formula_structural   La3Cr(Ga3Pd)8
_chemical_formula_sum   'La3 Cr1 Ga24 Pd8'
_cell_volume   625.85575357
_cell_formula_units_Z   1
loop_
 _symmetry_equiv_pos_site_id
 _symmetry_equiv_pos_as_xyz
  1  'x, y, z'
loop_
 _atom_site_type_symbol
 _atom_site_label
 _atom_site_symmetry_multiplicity
 _atom_site_fract_x
 _atom_site_fract_y
 _atom_site_fract_z
 _atom_site_occupancy
  La  La0  1  0.000000  0.500000  0.000000  1
  La  La1  1  0.500000  0.000000  0.000000  1
  La  La2  1  0.000000  0.000000  0.500000  1
  Cr  Cr3  1  0.500000  0.500000  0.500000  1
  Ga  Ga4  1  0.987777  0.643018  0.643018  1
  Ga  Ga5  1  0.643018  0.643018  0.987777  1
  Ga  Ga6  1  0.643018  0.987777  0.643018  1
  Ga  Ga7  1  0.012223  0.356982  0.356982  1
  Ga  Ga8  1  0.356982  0.356982  0.012223  1
  Ga  Ga9  1  0.356982  0.012223  0.356982  1
  Ga  Ga10  1  0.732701  0.500000  0.267299  1
  Ga  Ga11  1  0.267299  0.500000  0.732701  1
  Ga  Ga12  1  0.500000  0.267299  0.732701  1
  Ga  Ga13  1  0.500000  0.732701  0.267299  1
  Ga  Ga14  1  0.267299  0.732701  0.500000  1
  Ga  Ga15  1  0.732701  0.267299  0.500000  1
  Ga  Ga16  1  0.838929  0.143767  0.838929  1
  Ga  Ga17  1  0.143767  0.838929  0.838929  1
  Ga  Ga18  1  0.838929  0.838929  0.143767  1
  Ga  Ga19  1  0.161071  0.856233  0.161071  1
  Ga  Ga20  1  0.856233  0.161071  0.161071  1
  Ga  Ga21  1  0.161071  0.161071  0.856233  1
  Ga  Ga22  1  0.723822  0.487564  0.723822  1
  Ga  Ga23  1  0.487564  0.723822  0.723822  1
  Ga  Ga24  1  0.723822  0.723822  0.487564  1
  Ga  Ga25  1  0.276178  0.512436  0.276178  1
  Ga  Ga26  1  0.512436  0.276178  0.276178  1
  Ga  Ga27  1  0.276178  0.276178  0.512436  1
  Pd  Pd28  1  0.837836  0.837836  0.837836  1
  Pd  Pd29  1  0.162164  0.162164  0.162164  1
  Pd  Pd30  1  0.663224  0.336776  0.000000  1
  Pd  Pd31  1  0.000000  0.336776  0.663224  1
  Pd  Pd32  1  0.336776  0.000000  0.663224  1
  Pd  Pd33  1  0.336776  0.663224  0.000000  1
  Pd  Pd34  1  0.000000  0.663224  0.336776  1
  Pd  Pd35  1  0.663224  0.000000  0.336776  1
