# generated using pymatgen
data_LaTb(PrIr)3
_symmetry_space_group_name_H-M   'P 1'
_cell_length_a   11.28275400
_cell_length_b   11.31282100
_cell_length_c   6.57805000
_cell_angle_alpha   90.00000000
_cell_angle_beta   90.00000000
_cell_angle_gamma   90.00000000
_symmetry_Int_Tables_number   1
_chemical_formula_structural   LaTb(PrIr)3
_chemical_formula_sum   'La4 Tb4 Pr12 Ir12'
_cell_volume   839.62083108
_cell_formula_units_Z   4
loop_
 _symmetry_equiv_pos_site_id
 _symmetry_equiv_pos_as_xyz
  1  'x, y, z'
loop_
 _atom_site_type_symbol
 _atom_site_label
 _atom_site_symmetry_multiplicity
 _atom_site_fract_x
 _atom_site_fract_y
 _atom_site_fract_z
 _atom_site_occupancy
  La  La0  1  0.289796  0.089345  0.384344  1
  La  La1  1  0.289796  0.910655  0.884344  1
  La  La2  1  0.710204  0.089345  0.884344  1
  La  La3  1  0.710204  0.910655  0.384344  1
  Tb  Tb4  1  0.000000  0.000000  0.499725  1
  Tb  Tb5  1  0.000000  0.000000  0.999725  1
  Tb  Tb6  1  0.500000  0.500000  0.000808  1
  Tb  Tb7  1  0.500000  0.500000  0.500808  1
  Pr  Pr8  1  0.588385  0.787874  0.881993  1
  Pr  Pr9  1  0.588385  0.212126  0.381993  1
  Pr  Pr10  1  0.411615  0.787874  0.381993  1
  Pr  Pr11  1  0.411615  0.212126  0.881993  1
  Pr  Pr12  1  0.210490  0.412579  0.617618  1
  Pr  Pr13  1  0.210490  0.587421  0.117618  1
  Pr  Pr14  1  0.789510  0.412579  0.117618  1
  Pr  Pr15  1  0.789510  0.587421  0.617618  1
  Pr  Pr16  1  0.911898  0.710111  0.116499  1
  Pr  Pr17  1  0.911898  0.289889  0.616499  1
  Pr  Pr18  1  0.088102  0.710111  0.616499  1
  Pr  Pr19  1  0.088102  0.289889  0.116499  1
  Ir  Ir20  1  0.850385  0.148150  0.248223  1
  Ir  Ir21  1  0.850385  0.851850  0.748223  1
  Ir  Ir22  1  0.149615  0.148150  0.748223  1
  Ir  Ir23  1  0.149615  0.851850  0.248223  1
  Ir  Ir24  1  0.648455  0.351412  0.750406  1
  Ir  Ir25  1  0.648455  0.648588  0.250406  1
  Ir  Ir26  1  0.351545  0.351412  0.250406  1
  Ir  Ir27  1  0.351545  0.648588  0.750406  1
  Ir  Ir28  1  0.500000  0.000000  0.118530  1
  Ir  Ir29  1  0.500000  0.000000  0.618530  1
  Ir  Ir30  1  0.000000  0.500000  0.882773  1
  Ir  Ir31  1  0.000000  0.500000  0.382773  1
