# generated using pymatgen
data_Sc3Fe3CoMoP4
_symmetry_space_group_name_H-M   'P 1'
_cell_length_a   3.70463500
_cell_length_b   6.18397432
_cell_length_c   6.96278059
_cell_angle_alpha   89.89707165
_cell_angle_beta   90.00000000
_cell_angle_gamma   90.00000000
_symmetry_Int_Tables_number   1
_chemical_formula_structural   Sc3Fe3CoMoP4
_chemical_formula_sum   'Sc3 Fe3 Co1 Mo1 P4'
_cell_volume   159.51264322
_cell_formula_units_Z   1
loop_
 _symmetry_equiv_pos_site_id
 _symmetry_equiv_pos_as_xyz
  1  'x, y, z'
loop_
 _atom_site_type_symbol
 _atom_site_label
 _atom_site_symmetry_multiplicity
 _atom_site_fract_x
 _atom_site_fract_y
 _atom_site_fract_z
 _atom_site_occupancy
  Sc  Sc0  1  0.250000  0.516605  0.688131  1
  Sc  Sc1  1  0.750000  0.985285  0.180753  1
  Sc  Sc2  1  0.750000  0.477920  0.313625  1
  Fe  Fe3  1  0.250000  0.146224  0.445854  1
  Fe  Fe4  1  0.750000  0.850380  0.561562  1
  Fe  Fe5  1  0.750000  0.357688  0.932115  1
  Co  Co6  1  0.250000  0.651068  0.061309  1
  Mo  Mo7  1  0.250000  0.018788  0.825136  1
  P  P8  1  0.250000  0.277588  0.104341  1
  P  P9  1  0.250000  0.783784  0.384483  1
  P  P10  1  0.750000  0.728066  0.878061  1
  P  P11  1  0.750000  0.206605  0.624630  1
