# generated using pymatgen
data_PuU3(B6W)2
_symmetry_space_group_name_H-M   'P 1'
_cell_length_a   3.68031600
_cell_length_b   9.31707853
_cell_length_c   11.40265718
_cell_angle_alpha   89.94245061
_cell_angle_beta   90.00000000
_cell_angle_gamma   90.00000000
_symmetry_Int_Tables_number   1
_chemical_formula_structural   PuU3(B6W)2
_chemical_formula_sum   'Pu2 U6 B24 W4'
_cell_volume   390.99455962
_cell_formula_units_Z   2
loop_
 _symmetry_equiv_pos_site_id
 _symmetry_equiv_pos_as_xyz
  1  'x, y, z'
loop_
 _atom_site_type_symbol
 _atom_site_label
 _atom_site_symmetry_multiplicity
 _atom_site_fract_x
 _atom_site_fract_y
 _atom_site_fract_z
 _atom_site_occupancy
  Pu  Pu0  1  0.000000  0.335559  0.407370  1
  Pu  Pu1  1  0.000000  0.664441  0.592630  1
  U  U2  1  0.000000  0.834923  0.092314  1
  U  U3  1  0.000000  0.165077  0.907686  1
  U  U4  1  0.000000  0.956214  0.394926  1
  U  U5  1  0.000000  0.043786  0.605074  1
  U  U6  1  0.000000  0.456047  0.105527  1
  U  U7  1  0.000000  0.543953  0.894473  1
  B  B8  1  0.500000  0.551283  0.432224  1
  B  B9  1  0.500000  0.448717  0.567776  1
  B  B10  1  0.500000  0.049724  0.066523  1
  B  B11  1  0.500000  0.950276  0.933477  1
  B  B12  1  0.500000  0.744204  0.424087  1
  B  B13  1  0.500000  0.255796  0.575913  1
  B  B14  1  0.500000  0.243527  0.075417  1
  B  B15  1  0.500000  0.756473  0.924583  1
  B  B16  1  0.500000  0.804089  0.272531  1
  B  B17  1  0.500000  0.195911  0.727469  1
  B  B18  1  0.500000  0.303435  0.225942  1
  B  B19  1  0.500000  0.696565  0.774058  1
  B  B20  1  0.500000  0.644868  0.186870  1
  B  B21  1  0.500000  0.355132  0.813130  1
  B  B22  1  0.500000  0.143729  0.312235  1
  B  B23  1  0.500000  0.856271  0.687765  1
  B  B24  1  0.500000  0.985811  0.218499  1
  B  B25  1  0.500000  0.014189  0.781501  1
  B  B26  1  0.500000  0.486453  0.280373  1
  B  B27  1  0.500000  0.513547  0.719627  1
  B  B28  1  0.500000  0.642452  0.039345  1
  B  B29  1  0.500000  0.357548  0.960655  1
  B  B30  1  0.500000  0.140360  0.460775  1
  B  B31  1  0.500000  0.859640  0.539225  1
  W  W32  1  0.000000  0.646961  0.318187  1
  W  W33  1  0.000000  0.353039  0.681813  1
  W  W34  1  0.000000  0.143234  0.177928  1
  W  W35  1  0.000000  0.856766  0.822072  1
