# generated using pymatgen
data_HfZrSeBr12
_symmetry_space_group_name_H-M   'P 1'
_cell_length_a   9.66647312
_cell_length_b   9.66647205
_cell_length_c   7.30869171
_cell_angle_alpha   71.43894866
_cell_angle_beta   71.43894053
_cell_angle_gamma   80.28761701
_symmetry_Int_Tables_number   1
_chemical_formula_structural   HfZrSeBr12
_chemical_formula_sum   'Hf1 Zr1 Se1 Br12'
_cell_volume   612.00439323
_cell_formula_units_Z   1
loop_
 _symmetry_equiv_pos_site_id
 _symmetry_equiv_pos_as_xyz
  1  'x, y, z'
loop_
 _atom_site_type_symbol
 _atom_site_label
 _atom_site_symmetry_multiplicity
 _atom_site_fract_x
 _atom_site_fract_y
 _atom_site_fract_z
 _atom_site_occupancy
  Hf  Hf0  1  0.996406  0.996406  0.004545  1
  Zr  Zr1  1  0.271068  0.271068  0.736182  1
  Se  Se2  1  0.721793  0.721793  0.269640  1
  Br  Br3  1  0.973020  0.259348  0.745527  1
  Br  Br4  1  0.259348  0.973020  0.745527  1
  Br  Br5  1  0.041627  0.745947  0.251341  1
  Br  Br6  1  0.745947  0.041627  0.251341  1
  Br  Br7  1  0.206122  0.517305  0.800353  1
  Br  Br8  1  0.517305  0.206122  0.800353  1
  Br  Br9  1  0.778637  0.487698  0.212237  1
  Br  Br10  1  0.487698  0.778637  0.212237  1
  Br  Br11  1  0.133241  0.133241  0.152963  1
  Br  Br12  1  0.875243  0.875243  0.831525  1
  Br  Br13  1  0.649644  0.649644  0.627593  1
  Br  Br14  1  0.342903  0.342903  0.358639  1
