# generated using pymatgen
data_Li2SmGdSi4
_symmetry_space_group_name_H-M   'P 1'
_cell_length_a   3.84787100
_cell_length_b   7.69764514
_cell_length_c   10.36038800
_cell_angle_alpha   89.78511181
_cell_angle_beta   90.00000000
_cell_angle_gamma   90.00000000
_symmetry_Int_Tables_number   1
_chemical_formula_structural   Li2SmGdSi4
_chemical_formula_sum   'Li4 Sm2 Gd2 Si8'
_cell_volume   306.86782547
_cell_formula_units_Z   2
loop_
 _symmetry_equiv_pos_site_id
 _symmetry_equiv_pos_as_xyz
  1  'x, y, z'
loop_
 _atom_site_type_symbol
 _atom_site_label
 _atom_site_symmetry_multiplicity
 _atom_site_fract_x
 _atom_site_fract_y
 _atom_site_fract_z
 _atom_site_occupancy
  Li  Li0  1  0.250000  0.994310  0.389732  1
  Li  Li1  1  0.750000  0.005690  0.610268  1
  Li  Li2  1  0.250000  0.490666  0.108013  1
  Li  Li3  1  0.750000  0.509334  0.891987  1
  Sm  Sm4  1  0.250000  0.638593  0.635257  1
  Sm  Sm5  1  0.750000  0.361407  0.364743  1
  Gd  Gd6  1  0.250000  0.136829  0.865142  1
  Gd  Gd7  1  0.750000  0.863171  0.134858  1
  Si  Si8  1  0.750000  0.267332  0.067439  1
  Si  Si9  1  0.250000  0.732668  0.932561  1
  Si  Si10  1  0.750000  0.771974  0.428029  1
  Si  Si11  1  0.250000  0.228026  0.571971  1
  Si  Si12  1  0.750000  0.841482  0.822800  1
  Si  Si13  1  0.250000  0.158518  0.177200  1
  Si  Si14  1  0.750000  0.338805  0.680378  1
  Si  Si15  1  0.250000  0.661195  0.319622  1
