# generated using pymatgen
data_K3RbTiSe4
_symmetry_space_group_name_H-M   'P 1'
_cell_length_a   8.44319800
_cell_length_b   10.05005100
_cell_length_c   15.35950300
_cell_angle_alpha   90.00000000
_cell_angle_beta   90.00000000
_cell_angle_gamma   90.00000000
_symmetry_Int_Tables_number   1
_chemical_formula_structural   K3RbTiSe4
_chemical_formula_sum   'K12 Rb4 Ti4 Se16'
_cell_volume   1303.32403021
_cell_formula_units_Z   4
loop_
 _symmetry_equiv_pos_site_id
 _symmetry_equiv_pos_as_xyz
  1  'x, y, z'
loop_
 _atom_site_type_symbol
 _atom_site_label
 _atom_site_symmetry_multiplicity
 _atom_site_fract_x
 _atom_site_fract_y
 _atom_site_fract_z
 _atom_site_occupancy
  K  K0  1  0.973392  0.750000  0.431741  1
  K  K1  1  0.473392  0.250000  0.068259  1
  K  K2  1  0.026608  0.250000  0.568259  1
  K  K3  1  0.526608  0.750000  0.931741  1
  K  K4  1  0.835305  0.053902  0.273412  1
  K  K5  1  0.335305  0.946098  0.226588  1
  K  K6  1  0.164695  0.553902  0.726588  1
  K  K7  1  0.664695  0.446098  0.773412  1
  K  K8  1  0.164695  0.946098  0.726588  1
  K  K9  1  0.664695  0.053902  0.773412  1
  K  K10  1  0.835305  0.446098  0.273412  1
  K  K11  1  0.335305  0.553902  0.226588  1
  Rb  Rb12  1  0.000000  0.000000  0.000000  1
  Rb  Rb13  1  0.500000  0.000000  0.500000  1
  Rb  Rb14  1  0.000000  0.500000  0.000000  1
  Rb  Rb15  1  0.500000  0.500000  0.500000  1
  Ti  Ti16  1  0.766018  0.750000  0.670661  1
  Ti  Ti17  1  0.233982  0.250000  0.329339  1
  Ti  Ti18  1  0.733982  0.750000  0.170661  1
  Ti  Ti19  1  0.266018  0.250000  0.829339  1
  Se  Se20  1  0.980295  0.250000  0.821345  1
  Se  Se21  1  0.519705  0.250000  0.321345  1
  Se  Se22  1  0.480295  0.750000  0.678655  1
  Se  Se23  1  0.019705  0.750000  0.178655  1
  Se  Se24  1  0.644173  0.553391  0.096713  1
  Se  Se25  1  0.144173  0.446609  0.403287  1
  Se  Se26  1  0.355827  0.053391  0.903287  1
  Se  Se27  1  0.855827  0.946609  0.596713  1
  Se  Se28  1  0.355827  0.446609  0.903287  1
  Se  Se29  1  0.855827  0.553391  0.596713  1
  Se  Se30  1  0.644173  0.946609  0.096713  1
  Se  Se31  1  0.144173  0.053391  0.403287  1
  Se  Se32  1  0.625223  0.750000  0.317174  1
  Se  Se33  1  0.125223  0.250000  0.182826  1
  Se  Se34  1  0.374777  0.250000  0.682826  1
  Se  Se35  1  0.874777  0.750000  0.817174  1
