# generated using pymatgen
data_HoEr9(In2Ir)4
_symmetry_space_group_name_H-M   'P 1'
_cell_length_a   3.57676400
_cell_length_b   8.02353432
_cell_length_c   18.24496373
_cell_angle_alpha   90.03235515
_cell_angle_beta   90.00000000
_cell_angle_gamma   90.00000000
_symmetry_Int_Tables_number   1
_chemical_formula_structural   HoEr9(In2Ir)4
_chemical_formula_sum   'Ho1 Er9 In8 Ir4'
_cell_volume   523.59915303
_cell_formula_units_Z   1
loop_
 _symmetry_equiv_pos_site_id
 _symmetry_equiv_pos_as_xyz
  1  'x, y, z'
loop_
 _atom_site_type_symbol
 _atom_site_label
 _atom_site_symmetry_multiplicity
 _atom_site_fract_x
 _atom_site_fract_y
 _atom_site_fract_z
 _atom_site_occupancy
  Ho  Ho0  1  0.000000  0.500000  0.500000  1
  Er  Er1  1  0.000000  0.000000  0.000000  1
  Er  Er2  1  0.000000  0.749539  0.278266  1
  Er  Er3  1  0.000000  0.250461  0.721734  1
  Er  Er4  1  0.000000  0.750569  0.778468  1
  Er  Er5  1  0.000000  0.249431  0.221532  1
  Er  Er6  1  0.000000  0.619768  0.087774  1
  Er  Er7  1  0.000000  0.380232  0.912226  1
  Er  Er8  1  0.000000  0.879915  0.587841  1
  Er  Er9  1  0.000000  0.120085  0.412159  1
  In  In10  1  0.500000  0.704716  0.933230  1
  In  In11  1  0.500000  0.295284  0.066770  1
  In  In12  1  0.500000  0.796194  0.433160  1
  In  In13  1  0.500000  0.203806  0.566840  1
  In  In14  1  0.500000  0.566319  0.648997  1
  In  In15  1  0.500000  0.433681  0.351003  1
  In  In16  1  0.500000  0.933948  0.148689  1
  In  In17  1  0.500000  0.066052  0.851311  1
  Ir  Ir18  1  0.500000  0.527029  0.196577  1
  Ir  Ir19  1  0.500000  0.472971  0.803423  1
  Ir  Ir20  1  0.500000  0.973065  0.696557  1
  Ir  Ir21  1  0.500000  0.026935  0.303443  1
