# generated using pymatgen
data_Tm8Zr9Si16W3
_symmetry_space_group_name_H-M   'P 1'
_cell_length_a   6.93979736
_cell_length_b   7.16522788
_cell_length_c   13.71841000
_cell_angle_alpha   90.00000000
_cell_angle_beta   90.00000000
_cell_angle_gamma   90.06554808
_symmetry_Int_Tables_number   1
_chemical_formula_structural   Tm8Zr9Si16W3
_chemical_formula_sum   'Tm8 Zr9 Si16 W3'
_cell_volume   682.15063896
_cell_formula_units_Z   1
loop_
 _symmetry_equiv_pos_site_id
 _symmetry_equiv_pos_as_xyz
  1  'x, y, z'
loop_
 _atom_site_type_symbol
 _atom_site_label
 _atom_site_symmetry_multiplicity
 _atom_site_fract_x
 _atom_site_fract_y
 _atom_site_fract_z
 _atom_site_occupancy
  Tm  Tm0  1  0.010858  0.177927  0.099100  1
  Tm  Tm1  1  0.988537  0.821863  0.903762  1
  Tm  Tm2  1  0.486297  0.675299  0.904755  1
  Tm  Tm3  1  0.988537  0.821863  0.596238  1
  Tm  Tm4  1  0.511761  0.323007  0.099846  1
  Tm  Tm5  1  0.010858  0.177927  0.400900  1
  Tm  Tm6  1  0.511761  0.323007  0.400154  1
  Tm  Tm7  1  0.486297  0.675299  0.595245  1
  Zr  Zr8  1  0.653952  0.002322  0.750000  1
  Zr  Zr9  1  0.325564  0.177214  0.623797  1
  Zr  Zr10  1  0.673995  0.824719  0.372802  1
  Zr  Zr11  1  0.175261  0.674516  0.373870  1
  Zr  Zr12  1  0.673995  0.824719  0.127198  1
  Zr  Zr13  1  0.828166  0.327363  0.624611  1
  Zr  Zr14  1  0.325564  0.177214  0.876203  1
  Zr  Zr15  1  0.828166  0.327363  0.875389  1
  Zr  Zr16  1  0.175261  0.674516  0.126130  1
  Si  Si17  1  0.031699  0.117515  0.750000  1
  Si  Si18  1  0.976024  0.888118  0.250000  1
  Si  Si19  1  0.475685  0.608924  0.250000  1
  Si  Si20  1  0.522262  0.391911  0.750000  1
  Si  Si21  1  0.277283  0.860276  0.750000  1
  Si  Si22  1  0.713333  0.135940  0.250000  1
  Si  Si23  1  0.211822  0.362806  0.250000  1
  Si  Si24  1  0.789097  0.630651  0.750000  1
  Si  Si25  1  0.156349  0.469177  0.542199  1
  Si  Si26  1  0.841804  0.531090  0.456037  1
  Si  Si27  1  0.344117  0.971380  0.454442  1
  Si  Si28  1  0.841804  0.531090  0.043963  1
  Si  Si29  1  0.658836  0.031835  0.538167  1
  Si  Si30  1  0.156349  0.469177  0.957801  1
  Si  Si31  1  0.658836  0.031835  0.961833  1
  Si  Si32  1  0.344117  0.971380  0.045558  1
  W  W33  1  0.152244  0.493072  0.750000  1
  W  W34  1  0.847293  0.505665  0.250000  1
  W  W35  1  0.346209  0.992021  0.250000  1
