# generated using pymatgen
data_EuCrSb12RuPt2
_symmetry_space_group_name_H-M   'P 1'
_cell_length_a   8.21779729
_cell_length_b   8.17506857
_cell_length_c   8.20140254
_cell_angle_alpha   109.35969346
_cell_angle_beta   109.53339465
_cell_angle_gamma   109.39050315
_symmetry_Int_Tables_number   1
_chemical_formula_structural   EuCrSb12RuPt2
_chemical_formula_sum   'Eu1 Cr1 Sb12 Ru1 Pt2'
_cell_volume   424.82240092
_cell_formula_units_Z   1
loop_
 _symmetry_equiv_pos_site_id
 _symmetry_equiv_pos_as_xyz
  1  'x, y, z'
loop_
 _atom_site_type_symbol
 _atom_site_label
 _atom_site_symmetry_multiplicity
 _atom_site_fract_x
 _atom_site_fract_y
 _atom_site_fract_z
 _atom_site_occupancy
  Eu  Eu0  1  0.000000  0.000000  0.000000  1
  Cr  Cr1  1  0.000000  0.500000  0.000000  1
  Sb  Sb2  1  0.663465  0.850284  0.502658  1
  Sb  Sb3  1  0.336535  0.149716  0.497342  1
  Sb  Sb4  1  0.848558  0.187130  0.346001  1
  Sb  Sb5  1  0.829508  0.663166  0.158031  1
  Sb  Sb6  1  0.851220  0.504050  0.670692  1
  Sb  Sb7  1  0.170492  0.336834  0.841969  1
  Sb  Sb8  1  0.151442  0.812870  0.653999  1
  Sb  Sb9  1  0.502413  0.653527  0.847899  1
  Sb  Sb10  1  0.497587  0.346473  0.152101  1
  Sb  Sb11  1  0.148780  0.495950  0.329308  1
  Sb  Sb12  1  0.329003  0.832045  0.180553  1
  Sb  Sb13  1  0.670997  0.167955  0.819447  1
  Ru  Ru14  1  0.000000  0.000000  0.500000  1
  Pt  Pt15  1  0.500000  0.500000  0.500000  1
  Pt  Pt16  1  0.500000  0.000000  0.000000  1
