# generated using pymatgen
data_Y2Ho6Si12PdRh3
_symmetry_space_group_name_H-M   'P 1'
_cell_length_a   8.17380500
_cell_length_b   8.17380458
_cell_length_c   7.88450500
_cell_angle_alpha   90.00000000
_cell_angle_beta   90.00000000
_cell_angle_gamma   120.00000575
_symmetry_Int_Tables_number   1
_chemical_formula_structural   Y2Ho6Si12PdRh3
_chemical_formula_sum   'Y2 Ho6 Si12 Pd1 Rh3'
_cell_volume   456.19819474
_cell_formula_units_Z   1
loop_
 _symmetry_equiv_pos_site_id
 _symmetry_equiv_pos_as_xyz
  1  'x, y, z'
loop_
 _atom_site_type_symbol
 _atom_site_label
 _atom_site_symmetry_multiplicity
 _atom_site_fract_x
 _atom_site_fract_y
 _atom_site_fract_z
 _atom_site_occupancy
  Y  Y0  1  0.000000  0.000000  0.250221  1
  Y  Y1  1  0.000000  0.000000  0.751076  1
  Ho  Ho2  1  0.510572  0.489428  0.247351  1
  Ho  Ho3  1  0.510572  0.021144  0.247351  1
  Ho  Ho4  1  0.978856  0.489428  0.247351  1
  Ho  Ho5  1  0.492101  0.507899  0.752057  1
  Ho  Ho6  1  0.492101  0.984202  0.752057  1
  Ho  Ho7  1  0.015798  0.507899  0.752057  1
  Si  Si8  1  0.164666  0.835334  0.501005  1
  Si  Si9  1  0.164666  0.329330  0.501005  1
  Si  Si10  1  0.670670  0.835334  0.501005  1
  Si  Si11  1  0.832068  0.167932  0.499534  1
  Si  Si12  1  0.832068  0.664137  0.499534  1
  Si  Si13  1  0.335863  0.167932  0.499534  1
  Si  Si14  1  0.833180  0.166820  0.999456  1
  Si  Si15  1  0.833180  0.666361  0.999456  1
  Si  Si16  1  0.333639  0.166820  0.999456  1
  Si  Si17  1  0.167191  0.832809  0.001019  1
  Si  Si18  1  0.167191  0.334379  0.001019  1
  Si  Si19  1  0.665621  0.832809  0.001019  1
  Pd  Pd20  1  0.333333  0.666667  0.463976  1
  Rh  Rh21  1  0.666667  0.333333  0.537202  1
  Rh  Rh22  1  0.666667  0.333333  0.964005  1
  Rh  Rh23  1  0.333333  0.666667  0.032253  1
