# generated using pymatgen
data_Zr6Zn12Cu11Te
_symmetry_space_group_name_H-M   'P 1'
_cell_length_a   8.66449376
_cell_length_b   8.64160536
_cell_length_c   8.62960200
_cell_angle_alpha   60.04593776
_cell_angle_beta   60.13312231
_cell_angle_gamma   60.08624956
_symmetry_Int_Tables_number   1
_chemical_formula_structural   Zr6Zn12Cu11Te
_chemical_formula_sum   'Zr6 Zn12 Cu11 Te1'
_cell_volume   457.80689032
_cell_formula_units_Z   1
loop_
 _symmetry_equiv_pos_site_id
 _symmetry_equiv_pos_as_xyz
  1  'x, y, z'
loop_
 _atom_site_type_symbol
 _atom_site_label
 _atom_site_symmetry_multiplicity
 _atom_site_fract_x
 _atom_site_fract_y
 _atom_site_fract_z
 _atom_site_occupancy
  Zr  Zr0  1  0.731223  0.268226  0.279422  1
  Zr  Zr1  1  0.263822  0.730422  0.730675  1
  Zr  Zr2  1  0.263822  0.730422  0.275081  1
  Zr  Zr3  1  0.731223  0.268226  0.721130  1
  Zr  Zr4  1  0.275476  0.273559  0.725483  1
  Zr  Zr5  1  0.736839  0.723971  0.269595  1
  Zn  Zn6  1  0.878650  0.369240  0.876055  1
  Zn  Zn7  1  0.627182  0.123778  0.124520  1
  Zn  Zn8  1  0.374401  0.875354  0.875122  1
  Zn  Zn9  1  0.330173  0.336146  0.335317  1
  Zn  Zn10  1  0.666003  0.666635  0.661015  1
  Zn  Zn11  1  0.330173  0.336146  0.998366  1
  Zn  Zn12  1  0.329964  0.998697  0.335671  1
  Zn  Zn13  1  0.666003  0.666635  0.006346  1
  Zn  Zn14  1  0.671628  0.995878  0.666247  1
  Zn  Zn15  1  0.007715  0.330957  0.330664  1
  Zn  Zn16  1  0.996171  0.671934  0.665947  1
  Zn  Zn17  1  0.002755  0.991344  0.002951  1
  Cu  Cu18  1  0.121561  0.122973  0.120748  1
  Cu  Cu19  1  0.876334  0.878007  0.877726  1
  Cu  Cu20  1  0.121561  0.122973  0.634718  1
  Cu  Cu21  1  0.124540  0.627905  0.123778  1
  Cu  Cu22  1  0.876334  0.878007  0.367933  1
  Cu  Cu23  1  0.498876  0.001737  0.999941  1
  Cu  Cu24  1  0.999107  0.500429  0.501393  1
  Cu  Cu25  1  0.999107  0.500429  0.999072  1
  Cu  Cu26  1  0.498876  0.001737  0.499447  1
  Cu  Cu27  1  0.999719  0.002019  0.499130  1
  Cu  Cu28  1  0.502640  0.499304  0.999027  1
  Te  Te29  1  0.498118  0.506916  0.497483  1
