# generated using pymatgen
data_Fe10SiB4P
_symmetry_space_group_name_H-M   'P 1'
_cell_length_a   6.43366381
_cell_length_b   6.43366356
_cell_length_c   6.43366427
_cell_angle_alpha   129.45257695
_cell_angle_beta   129.45257189
_cell_angle_gamma   74.28344342
_symmetry_Int_Tables_number   1
_chemical_formula_structural   Fe10SiB4P
_chemical_formula_sum   'Fe10 Si1 B4 P1'
_cell_volume   154.77898104
_cell_formula_units_Z   1
loop_
 _symmetry_equiv_pos_site_id
 _symmetry_equiv_pos_as_xyz
  1  'x, y, z'
loop_
 _atom_site_type_symbol
 _atom_site_label
 _atom_site_symmetry_multiplicity
 _atom_site_fract_x
 _atom_site_fract_y
 _atom_site_fract_z
 _atom_site_occupancy
  Fe  Fe0  1  0.495280  0.495280  0.000000  1
  Fe  Fe1  1  0.311781  0.471032  0.508870  1
  Fe  Fe2  1  0.802910  0.311781  0.840749  1
  Fe  Fe3  1  0.697090  0.537838  0.508870  1
  Fe  Fe4  1  0.028968  0.188219  0.491130  1
  Fe  Fe5  1  0.537838  0.028968  0.840749  1
  Fe  Fe6  1  0.188219  0.697090  0.159251  1
  Fe  Fe7  1  0.471032  0.962162  0.159251  1
  Fe  Fe8  1  0.004720  0.004720  0.000000  1
  Fe  Fe9  1  0.962162  0.802910  0.491130  1
  Si  Si10  1  0.250000  0.250000  0.000000  1
  B  B11  1  0.880831  0.380831  0.261663  1
  B  B12  1  0.380831  0.119169  0.500000  1
  B  B13  1  0.119169  0.619169  0.738337  1
  B  B14  1  0.619169  0.880831  0.500000  1
  P  P15  1  0.750000  0.750000  0.000000  1
