# generated using pymatgen
data_CeY7(TcB6)4
_symmetry_space_group_name_H-M   'P 1'
_cell_length_a   3.70428200
_cell_length_b   9.18085375
_cell_length_c   11.56633201
_cell_angle_alpha   90.04156310
_cell_angle_beta   90.00000000
_cell_angle_gamma   90.00000000
_symmetry_Int_Tables_number   1
_chemical_formula_structural   CeY7(TcB6)4
_chemical_formula_sum   'Ce1 Y7 Tc4 B24'
_cell_volume   393.35316673
_cell_formula_units_Z   1
loop_
 _symmetry_equiv_pos_site_id
 _symmetry_equiv_pos_as_xyz
  1  'x, y, z'
loop_
 _atom_site_type_symbol
 _atom_site_label
 _atom_site_symmetry_multiplicity
 _atom_site_fract_x
 _atom_site_fract_y
 _atom_site_fract_z
 _atom_site_occupancy
  Ce  Ce0  1  0.000000  0.323726  0.414209  1
  Y  Y1  1  0.000000  0.676847  0.586469  1
  Y  Y2  1  0.000000  0.823825  0.085139  1
  Y  Y3  1  0.000000  0.175736  0.914256  1
  Y  Y4  1  0.000000  0.942169  0.369143  1
  Y  Y5  1  0.000000  0.056792  0.631191  1
  Y  Y6  1  0.000000  0.442956  0.129794  1
  Y  Y7  1  0.000000  0.557511  0.869595  1
  Tc  Tc8  1  0.000000  0.638164  0.320702  1
  Tc  Tc9  1  0.000000  0.361567  0.678870  1
  Tc  Tc10  1  0.000000  0.139319  0.179716  1
  Tc  Tc11  1  0.000000  0.861421  0.820878  1
  B  B12  1  0.500000  0.553819  0.432255  1
  B  B13  1  0.500000  0.445923  0.567846  1
  B  B14  1  0.500000  0.053610  0.067145  1
  B  B15  1  0.500000  0.946629  0.932791  1
  B  B16  1  0.500000  0.748885  0.418220  1
  B  B17  1  0.500000  0.251421  0.582543  1
  B  B18  1  0.500000  0.248531  0.081235  1
  B  B19  1  0.500000  0.751220  0.918320  1
  B  B20  1  0.500000  0.791550  0.265245  1
  B  B21  1  0.500000  0.208583  0.735226  1
  B  B22  1  0.500000  0.290979  0.234268  1
  B  B23  1  0.500000  0.708310  0.765107  1
  B  B24  1  0.500000  0.631392  0.185331  1
  B  B25  1  0.500000  0.369292  0.814392  1
  B  B26  1  0.500000  0.131018  0.313839  1
  B  B27  1  0.500000  0.868934  0.686044  1
  B  B28  1  0.500000  0.982925  0.211320  1
  B  B29  1  0.500000  0.017014  0.788585  1
  B  B30  1  0.500000  0.483801  0.288060  1
  B  B31  1  0.500000  0.517396  0.712127  1
  B  B32  1  0.500000  0.601342  0.027975  1
  B  B33  1  0.500000  0.399067  0.971540  1
  B  B34  1  0.500000  0.100150  0.472104  1
  B  B35  1  0.500000  0.898176  0.528522  1
