# generated using pymatgen
data_Ho7TmHg4
_symmetry_space_group_name_H-M   'P 1'
_cell_length_a   7.01547530
_cell_length_b   5.08266800
_cell_length_c   9.21712439
_cell_angle_alpha   90.00000000
_cell_angle_beta   89.96647639
_cell_angle_gamma   90.00000000
_symmetry_Int_Tables_number   1
_chemical_formula_structural   Ho7TmHg4
_chemical_formula_sum   'Ho7 Tm1 Hg4'
_cell_volume   328.65800664
_cell_formula_units_Z   1
loop_
 _symmetry_equiv_pos_site_id
 _symmetry_equiv_pos_as_xyz
  1  'x, y, z'
loop_
 _atom_site_type_symbol
 _atom_site_label
 _atom_site_symmetry_multiplicity
 _atom_site_fract_x
 _atom_site_fract_y
 _atom_site_fract_z
 _atom_site_occupancy
  Ho  Ho0  1  0.516951  0.250000  0.194610  1
  Ho  Ho1  1  0.016382  0.250000  0.305134  1
  Ho  Ho2  1  0.330434  0.750000  0.425538  1
  Ho  Ho3  1  0.669689  0.250000  0.574469  1
  Ho  Ho4  1  0.983351  0.750000  0.694866  1
  Ho  Ho5  1  0.483657  0.750000  0.805355  1
  Ho  Ho6  1  0.169126  0.250000  0.925725  1
  Tm  Tm7  1  0.830764  0.750000  0.074439  1
  Hg  Hg8  1  0.263028  0.750000  0.101584  1
  Hg  Hg9  1  0.763784  0.750000  0.397874  1
  Hg  Hg10  1  0.236348  0.250000  0.601636  1
  Hg  Hg11  1  0.736489  0.250000  0.898771  1
