# generated using pymatgen
data_Th2UAl3Fe2Co
_symmetry_space_group_name_H-M   'P 1'
_cell_length_a   7.09592100
_cell_length_b   6.80660614
_cell_length_c   4.00975100
_cell_angle_alpha   90.00000000
_cell_angle_beta   90.00000000
_cell_angle_gamma   121.41629967
_symmetry_Int_Tables_number   1
_chemical_formula_structural   Th2UAl3Fe2Co
_chemical_formula_sum   'Th2 U1 Al3 Fe2 Co1'
_cell_volume   165.27635668
_cell_formula_units_Z   1
loop_
 _symmetry_equiv_pos_site_id
 _symmetry_equiv_pos_as_xyz
  1  'x, y, z'
loop_
 _atom_site_type_symbol
 _atom_site_label
 _atom_site_symmetry_multiplicity
 _atom_site_fract_x
 _atom_site_fract_y
 _atom_site_fract_z
 _atom_site_occupancy
  Th  Th0  1  0.992173  0.575656  0.000000  1
  Th  Th1  1  0.416518  0.424344  0.000000  1
  U  U2  1  0.565593  0.000000  0.000000  1
  Al  Al3  1  0.218833  0.000000  0.500000  1
  Al  Al4  1  0.993960  0.225574  0.500000  1
  Al  Al5  1  0.768386  0.774426  0.500000  1
  Fe  Fe6  1  0.405727  0.766334  0.500000  1
  Fe  Fe7  1  0.639394  0.233666  0.500000  1
  Co  Co8  1  0.999418  0.000000  0.000000  1
