# generated using pymatgen
data_Pr2Ga5Ir2Pt
_symmetry_space_group_name_H-M   'P 1'
_cell_length_a   8.70007990
_cell_length_b   8.69006995
_cell_length_c   8.69006876
_cell_angle_alpha   140.50967680
_cell_angle_beta   107.76334718
_cell_angle_gamma   85.57920901
_symmetry_Int_Tables_number   1
_chemical_formula_structural   Pr2Ga5Ir2Pt
_chemical_formula_sum   'Pr4 Ga10 Ir4 Pt2'
_cell_volume   384.05800858
_cell_formula_units_Z   2
loop_
 _symmetry_equiv_pos_site_id
 _symmetry_equiv_pos_as_xyz
  1  'x, y, z'
loop_
 _atom_site_type_symbol
 _atom_site_label
 _atom_site_symmetry_multiplicity
 _atom_site_fract_x
 _atom_site_fract_y
 _atom_site_fract_z
 _atom_site_occupancy
  Pr  Pr0  1  0.864661  0.635926  0.228736  1
  Pr  Pr1  1  0.135339  0.364074  0.771264  1
  Pr  Pr2  1  0.402820  0.133320  0.269501  1
  Pr  Pr3  1  0.597180  0.866680  0.730499  1
  Ga  Ga4  1  0.500000  0.754903  0.254903  1
  Ga  Ga5  1  0.500000  0.245097  0.745097  1
  Ga  Ga6  1  0.206862  0.958220  0.745903  1
  Ga  Ga7  1  0.793138  0.539041  0.751358  1
  Ga  Ga8  1  0.793138  0.041780  0.254097  1
  Ga  Ga9  1  0.206862  0.460959  0.248642  1
  Ga  Ga10  1  0.074117  0.906152  0.167965  1
  Ga  Ga11  1  0.925883  0.093848  0.832035  1
  Ga  Ga12  1  0.745596  0.407828  0.337768  1
  Ga  Ga13  1  0.254404  0.592172  0.662232  1
  Ir  Ir14  1  0.000000  0.751862  0.751862  1
  Ir  Ir15  1  0.000000  0.248138  0.248138  1
  Ir  Ir16  1  0.256725  0.854132  0.402594  1
  Ir  Ir17  1  0.743275  0.145868  0.597406  1
  Pt  Pt18  1  0.455503  0.353887  0.101616  1
  Pt  Pt19  1  0.544497  0.646113  0.898384  1
