# generated using pymatgen
data_Nd6UAl23Ru8
_symmetry_space_group_name_H-M   'P 1'
_cell_length_a   8.95123600
_cell_length_b   8.95123670
_cell_length_c   9.70609500
_cell_angle_alpha   90.00000000
_cell_angle_beta   90.00000000
_cell_angle_gamma   120.00000481
_symmetry_Int_Tables_number   1
_chemical_formula_structural   Nd6UAl23Ru8
_chemical_formula_sum   'Nd6 U1 Al23 Ru8'
_cell_volume   673.50557845
_cell_formula_units_Z   1
loop_
 _symmetry_equiv_pos_site_id
 _symmetry_equiv_pos_as_xyz
  1  'x, y, z'
loop_
 _atom_site_type_symbol
 _atom_site_label
 _atom_site_symmetry_multiplicity
 _atom_site_fract_x
 _atom_site_fract_y
 _atom_site_fract_z
 _atom_site_occupancy
  Nd  Nd0  1  0.187354  0.374706  0.258468  1
  Nd  Nd1  1  0.808264  0.616529  0.747731  1
  Nd  Nd2  1  0.625294  0.812646  0.258468  1
  Nd  Nd3  1  0.383471  0.191736  0.747731  1
  Nd  Nd4  1  0.187354  0.812646  0.258468  1
  Nd  Nd5  1  0.808264  0.191736  0.747731  1
  U  U6  1  0.333333  0.666667  0.014718  1
  Al  Al7  1  0.666667  0.333333  0.988369  1
  Al  Al8  1  0.666667  0.333333  0.511373  1
  Al  Al9  1  0.333333  0.666667  0.483402  1
  Al  Al10  1  0.162414  0.324828  0.575250  1
  Al  Al11  1  0.836092  0.672184  0.426052  1
  Al  Al12  1  0.675172  0.837586  0.575250  1
  Al  Al13  1  0.838593  0.677186  0.078076  1
  Al  Al14  1  0.327816  0.163908  0.426052  1
  Al  Al15  1  0.153983  0.307965  0.918682  1
  Al  Al16  1  0.162414  0.837586  0.575250  1
  Al  Al17  1  0.322814  0.161407  0.078076  1
  Al  Al18  1  0.836092  0.163908  0.426052  1
  Al  Al19  1  0.692035  0.846017  0.918682  1
  Al  Al20  1  0.838593  0.161407  0.078076  1
  Al  Al21  1  0.153983  0.846017  0.918682  1
  Al  Al22  1  0.562283  0.124565  0.251921  1
  Al  Al23  1  0.438358  0.876716  0.743550  1
  Al  Al24  1  0.875435  0.437717  0.251921  1
  Al  Al25  1  0.123284  0.561642  0.743550  1
  Al  Al26  1  0.562283  0.437717  0.251921  1
  Al  Al27  1  0.438358  0.561642  0.743550  1
  Al  Al28  1  0.000000  0.000000  0.248848  1
  Al  Al29  1  0.000000  0.000000  0.746280  1
  Ru  Ru30  1  0.491943  0.983885  0.003640  1
  Ru  Ru31  1  0.016115  0.508057  0.003640  1
  Ru  Ru32  1  0.499754  0.999508  0.500105  1
  Ru  Ru33  1  0.491943  0.508057  0.003640  1
  Ru  Ru34  1  0.000492  0.500246  0.500105  1
  Ru  Ru35  1  0.499754  0.500246  0.500105  1
  Ru  Ru36  1  0.000000  0.000000  0.999906  1
  Ru  Ru37  1  0.000000  0.000000  0.496680  1
