# generated using pymatgen
data_La12Cu2TcRh
_symmetry_space_group_name_H-M   'P 1'
_cell_length_a   6.62824000
_cell_length_b   7.43418655
_cell_length_c   10.17610700
_cell_angle_alpha   90.00000000
_cell_angle_beta   90.00000000
_cell_angle_gamma   89.48565422
_symmetry_Int_Tables_number   1
_chemical_formula_structural   La12Cu2TcRh
_chemical_formula_sum   'La12 Cu2 Tc1 Rh1'
_cell_volume   501.41329530
_cell_formula_units_Z   1
loop_
 _symmetry_equiv_pos_site_id
 _symmetry_equiv_pos_as_xyz
  1  'x, y, z'
loop_
 _atom_site_type_symbol
 _atom_site_label
 _atom_site_symmetry_multiplicity
 _atom_site_fract_x
 _atom_site_fract_y
 _atom_site_fract_z
 _atom_site_occupancy
  La  La0  1  0.335614  0.669534  0.068833  1
  La  La1  1  0.175793  0.179227  0.435612  1
  La  La2  1  0.660610  0.328078  0.562748  1
  La  La3  1  0.831293  0.822435  0.935500  1
  La  La4  1  0.660610  0.328078  0.937252  1
  La  La5  1  0.831293  0.822435  0.564500  1
  La  La6  1  0.335614  0.669534  0.431167  1
  La  La7  1  0.175793  0.179227  0.064388  1
  La  La8  1  0.850635  0.524815  0.250000  1
  La  La9  1  0.628473  0.051106  0.250000  1
  La  La10  1  0.150613  0.472570  0.750000  1
  La  La11  1  0.364060  0.953219  0.750000  1
  Cu  Cu12  1  0.056942  0.884716  0.250000  1
  Cu  Cu13  1  0.936086  0.116761  0.750000  1
  Tc  Tc14  1  0.428723  0.379020  0.250000  1
  Rh  Rh15  1  0.577848  0.619246  0.750000  1
