# generated using pymatgen
data_CeNdCuSi4Pt3
_symmetry_space_group_name_H-M   'P 1'
_cell_length_a   4.21459300
_cell_length_b   4.23715700
_cell_length_c   9.88205400
_cell_angle_alpha   90.00000000
_cell_angle_beta   90.00000000
_cell_angle_gamma   90.00000000
_symmetry_Int_Tables_number   1
_chemical_formula_structural   CeNdCuSi4Pt3
_chemical_formula_sum   'Ce1 Nd1 Cu1 Si4 Pt3'
_cell_volume   176.47265536
_cell_formula_units_Z   1
loop_
 _symmetry_equiv_pos_site_id
 _symmetry_equiv_pos_as_xyz
  1  'x, y, z'
loop_
 _atom_site_type_symbol
 _atom_site_label
 _atom_site_symmetry_multiplicity
 _atom_site_fract_x
 _atom_site_fract_y
 _atom_site_fract_z
 _atom_site_occupancy
  Ce  Ce0  1  0.000000  0.500000  0.249679  1
  Nd  Nd1  1  0.500000  0.000000  0.751972  1
  Cu  Cu2  1  0.000000  0.000000  0.001409  1
  Si  Si3  1  0.000000  0.000000  0.499315  1
  Si  Si4  1  0.500000  0.500000  0.498240  1
  Si  Si5  1  0.000000  0.500000  0.868766  1
  Si  Si6  1  0.500000  0.000000  0.130408  1
  Pt  Pt7  1  0.500000  0.500000  0.002669  1
  Pt  Pt8  1  0.000000  0.500000  0.621441  1
  Pt  Pt9  1  0.500000  0.000000  0.376102  1
