# generated using pymatgen
data_Ta4GeB4Ru10W
_symmetry_space_group_name_H-M   'P 1'
_cell_length_a   9.42747400
_cell_length_b   9.42747400
_cell_length_c   2.96898000
_cell_angle_alpha   90.00000000
_cell_angle_beta   90.00000000
_cell_angle_gamma   90.00000000
_symmetry_Int_Tables_number   1
_chemical_formula_structural   Ta4GeB4Ru10W
_chemical_formula_sum   'Ta4 Ge1 B4 Ru10 W1'
_cell_volume   263.87482527
_cell_formula_units_Z   1
loop_
 _symmetry_equiv_pos_site_id
 _symmetry_equiv_pos_as_xyz
  1  'x, y, z'
loop_
 _atom_site_type_symbol
 _atom_site_label
 _atom_site_symmetry_multiplicity
 _atom_site_fract_x
 _atom_site_fract_y
 _atom_site_fract_z
 _atom_site_occupancy
  Ta  Ta0  1  0.822011  0.676373  0.000000  1
  Ta  Ta1  1  0.177989  0.323627  0.000000  1
  Ta  Ta2  1  0.323627  0.822011  0.000000  1
  Ta  Ta3  1  0.676373  0.177989  0.000000  1
  Ge  Ge4  1  0.500000  0.500000  0.000000  1
  B  B5  1  0.616528  0.871500  0.000000  1
  B  B6  1  0.383472  0.128500  0.000000  1
  B  B7  1  0.128500  0.616528  0.000000  1
  B  B8  1  0.871500  0.383472  0.000000  1
  Ru  Ru9  1  0.568845  0.713474  0.500000  1
  Ru  Ru10  1  0.431155  0.286526  0.500000  1
  Ru  Ru11  1  0.071818  0.780340  0.500000  1
  Ru  Ru12  1  0.928182  0.219660  0.500000  1
  Ru  Ru13  1  0.286526  0.568845  0.500000  1
  Ru  Ru14  1  0.713474  0.431155  0.500000  1
  Ru  Ru15  1  0.219660  0.071818  0.500000  1
  Ru  Ru16  1  0.780340  0.928182  0.500000  1
  Ru  Ru17  1  0.500000  0.000000  0.500000  1
  Ru  Ru18  1  0.000000  0.500000  0.500000  1
  W  W19  1  0.000000  0.000000  0.000000  1
