# generated using pymatgen
data_CaYU6(ReB6)4
_symmetry_space_group_name_H-M   'P 1'
_cell_length_a   3.64131200
_cell_length_b   9.30161274
_cell_length_c   11.40553620
_cell_angle_alpha   89.95422136
_cell_angle_beta   90.00000000
_cell_angle_gamma   90.00000000
_symmetry_Int_Tables_number   1
_chemical_formula_structural   CaYU6(ReB6)4
_chemical_formula_sum   'Ca1 Y1 U6 Re4 B24'
_cell_volume   386.30623275
_cell_formula_units_Z   1
loop_
 _symmetry_equiv_pos_site_id
 _symmetry_equiv_pos_as_xyz
  1  'x, y, z'
loop_
 _atom_site_type_symbol
 _atom_site_label
 _atom_site_symmetry_multiplicity
 _atom_site_fract_x
 _atom_site_fract_y
 _atom_site_fract_z
 _atom_site_occupancy
  Ca  Ca0  1  0.000000  0.337229  0.408191  1
  Y  Y1  1  0.000000  0.663240  0.591869  1
  U  U2  1  0.000000  0.836124  0.092939  1
  U  U3  1  0.000000  0.163759  0.907294  1
  U  U4  1  0.000000  0.957252  0.396348  1
  U  U5  1  0.000000  0.044382  0.603123  1
  U  U6  1  0.000000  0.457167  0.104221  1
  U  U7  1  0.000000  0.542339  0.896702  1
  Re  Re8  1  0.000000  0.649133  0.315426  1
  Re  Re9  1  0.000000  0.352055  0.685249  1
  Re  Re10  1  0.000000  0.142647  0.176561  1
  Re  Re11  1  0.000000  0.856655  0.822375  1
  B  B12  1  0.500000  0.552318  0.430286  1
  B  B13  1  0.500000  0.447570  0.569644  1
  B  B14  1  0.500000  0.049670  0.067282  1
  B  B15  1  0.500000  0.950020  0.932388  1
  B  B16  1  0.500000  0.742938  0.423035  1
  B  B17  1  0.500000  0.257113  0.577433  1
  B  B18  1  0.500000  0.242646  0.076160  1
  B  B19  1  0.500000  0.756935  0.923779  1
  B  B20  1  0.500000  0.804113  0.273512  1
  B  B21  1  0.500000  0.196324  0.726636  1
  B  B22  1  0.500000  0.301399  0.224510  1
  B  B23  1  0.500000  0.697708  0.774960  1
  B  B24  1  0.500000  0.645544  0.187854  1
  B  B25  1  0.500000  0.354724  0.812506  1
  B  B26  1  0.500000  0.143919  0.310815  1
  B  B27  1  0.500000  0.855479  0.688561  1
  B  B28  1  0.500000  0.987420  0.218804  1
  B  B29  1  0.500000  0.012751  0.780894  1
  B  B30  1  0.500000  0.489330  0.280705  1
  B  B31  1  0.500000  0.511480  0.719394  1
  B  B32  1  0.500000  0.643390  0.039405  1
  B  B33  1  0.500000  0.356553  0.960860  1
  B  B34  1  0.500000  0.138631  0.461217  1
  B  B35  1  0.500000  0.860043  0.539064  1
