# generated using pymatgen
data_Pr18Er2Si15Pd
_symmetry_space_group_name_H-M   'P 1'
_cell_length_a   7.88781556
_cell_length_b   7.89237527
_cell_length_c   15.28003282
_cell_angle_alpha   89.95625843
_cell_angle_beta   89.52720859
_cell_angle_gamma   90.09189886
_symmetry_Int_Tables_number   1
_chemical_formula_structural   Pr18Er2Si15Pd
_chemical_formula_sum   'Pr18 Er2 Si15 Pd1'
_cell_volume   951.20316249
_cell_formula_units_Z   1
loop_
 _symmetry_equiv_pos_site_id
 _symmetry_equiv_pos_as_xyz
  1  'x, y, z'
loop_
 _atom_site_type_symbol
 _atom_site_label
 _atom_site_symmetry_multiplicity
 _atom_site_fract_x
 _atom_site_fract_y
 _atom_site_fract_z
 _atom_site_occupancy
  Pr  Pr0  1  0.808482  0.186434  0.751307  1
  Pr  Pr1  1  0.693732  0.688241  0.498174  1
  Pr  Pr2  1  0.373607  0.010325  0.446724  1
  Pr  Pr3  1  0.490754  0.871439  0.699257  1
  Pr  Pr4  1  0.510268  0.124251  0.196174  1
  Pr  Pr5  1  0.876806  0.487042  0.299974  1
  Pr  Pr6  1  0.123259  0.512251  0.802802  1
  Pr  Pr7  1  0.626801  0.987750  0.950238  1
  Pr  Pr8  1  0.002175  0.379274  0.550143  1
  Pr  Pr9  1  0.988785  0.626066  0.053015  1
  Pr  Pr10  1  0.134279  0.984068  0.877901  1
  Pr  Pr11  1  0.518670  0.631282  0.126088  1
  Pr  Pr12  1  0.475740  0.368672  0.628790  1
  Pr  Pr13  1  0.629003  0.518868  0.874991  1
  Pr  Pr14  1  0.371527  0.480600  0.371005  1
  Pr  Pr15  1  0.871389  0.021212  0.375746  1
  Pr  Pr16  1  0.981483  0.127592  0.124014  1
  Pr  Pr17  1  0.021383  0.873700  0.622274  1
  Er  Er18  1  0.309853  0.310361  0.999787  1
  Er  Er19  1  0.188403  0.810447  0.249824  1
  Si  Si20  1  0.330466  0.690904  0.953902  1
  Si  Si21  1  0.662260  0.304031  0.452663  1
  Si  Si22  1  0.693679  0.332506  0.047746  1
  Si  Si23  1  0.305985  0.668840  0.545378  1
  Si  Si24  1  0.809674  0.830062  0.204683  1
  Si  Si25  1  0.170180  0.191413  0.294956  1
  Si  Si26  1  0.836308  0.803911  0.797826  1
  Si  Si27  1  0.286815  0.923716  0.062741  1
  Si  Si28  1  0.573614  0.788398  0.308588  1
  Si  Si29  1  0.425690  0.212135  0.818697  1
  Si  Si30  1  0.786354  0.578940  0.690175  1
  Si  Si31  1  0.213353  0.424422  0.187067  1
  Si  Si32  1  0.705477  0.075847  0.559441  1
  Si  Si33  1  0.926901  0.289680  0.942311  1
  Si  Si34  1  0.081547  0.715722  0.436233  1
  Pd  Pd35  1  0.195299  0.169599  0.699365  1
