# generated using pymatgen
data_Nd9Pa(IrRh3)2
_symmetry_space_group_name_H-M   'P 1'
_cell_length_a   7.59244300
_cell_length_b   7.65408006
_cell_length_c   14.92505152
_cell_angle_alpha   90.30520665
_cell_angle_beta   90.00000000
_cell_angle_gamma   90.00000000
_symmetry_Int_Tables_number   1
_chemical_formula_structural   Nd9Pa(IrRh3)2
_chemical_formula_sum   'Nd18 Pa2 Ir4 Rh12'
_cell_volume   867.32969949
_cell_formula_units_Z   2
loop_
 _symmetry_equiv_pos_site_id
 _symmetry_equiv_pos_as_xyz
  1  'x, y, z'
loop_
 _atom_site_type_symbol
 _atom_site_label
 _atom_site_symmetry_multiplicity
 _atom_site_fract_x
 _atom_site_fract_y
 _atom_site_fract_z
 _atom_site_occupancy
  Nd  Nd0  1  0.338758  0.835227  0.120351  1
  Nd  Nd1  1  0.838758  0.664773  0.379649  1
  Nd  Nd2  1  0.337781  0.834184  0.378907  1
  Nd  Nd3  1  0.837781  0.665816  0.121093  1
  Nd  Nd4  1  0.659675  0.164522  0.879165  1
  Nd  Nd5  1  0.159675  0.335478  0.620835  1
  Nd  Nd6  1  0.514878  0.682417  0.592137  1
  Nd  Nd7  1  0.014878  0.817583  0.907863  1
  Nd  Nd8  1  0.487785  0.316524  0.094227  1
  Nd  Nd9  1  0.987785  0.183476  0.405773  1
  Nd  Nd10  1  0.489311  0.320242  0.408964  1
  Nd  Nd11  1  0.989311  0.179758  0.091036  1
  Nd  Nd12  1  0.507442  0.680621  0.909263  1
  Nd  Nd13  1  0.007442  0.819379  0.590737  1
  Nd  Nd14  1  0.818599  0.514998  0.748777  1
  Nd  Nd15  1  0.318599  0.985002  0.751223  1
  Nd  Nd16  1  0.176262  0.489752  0.248687  1
  Nd  Nd17  1  0.676262  0.010248  0.251313  1
  Pa  Pa18  1  0.659566  0.158408  0.624089  1
  Pa  Pa19  1  0.159566  0.341592  0.875911  1
  Ir  Ir20  1  0.690678  0.972485  0.471987  1
  Ir  Ir21  1  0.190678  0.527515  0.028013  1
  Ir  Ir22  1  0.302201  0.059884  0.956102  1
  Ir  Ir23  1  0.802201  0.440116  0.543898  1
  Rh  Rh24  1  0.341229  0.035422  0.548250  1
  Rh  Rh25  1  0.841229  0.464578  0.951750  1
  Rh  Rh26  1  0.670763  0.967303  0.042040  1
  Rh  Rh27  1  0.170763  0.532697  0.457960  1
  Rh  Rh28  1  0.461930  0.368802  0.746419  1
  Rh  Rh29  1  0.961930  0.131198  0.753581  1
  Rh  Rh30  1  0.541504  0.602580  0.251221  1
  Rh  Rh31  1  0.041504  0.897420  0.248779  1
  Rh  Rh32  1  0.700175  0.881944  0.739657  1
  Rh  Rh33  1  0.200175  0.618056  0.760343  1
  Rh  Rh34  1  0.301464  0.143252  0.250988  1
  Rh  Rh35  1  0.801464  0.356748  0.249012  1
