# generated using pymatgen
data_LiHo3(Co4P3)2
_symmetry_space_group_name_H-M   'P 1'
_cell_length_a   3.70579400
_cell_length_b   10.54936100
_cell_length_c   12.15647500
_cell_angle_alpha   90.00000000
_cell_angle_beta   90.00000000
_cell_angle_gamma   90.00000000
_symmetry_Int_Tables_number   1
_chemical_formula_structural   LiHo3(Co4P3)2
_chemical_formula_sum   'Li2 Ho6 Co16 P12'
_cell_volume   475.24230026
_cell_formula_units_Z   2
loop_
 _symmetry_equiv_pos_site_id
 _symmetry_equiv_pos_as_xyz
  1  'x, y, z'
loop_
 _atom_site_type_symbol
 _atom_site_label
 _atom_site_symmetry_multiplicity
 _atom_site_fract_x
 _atom_site_fract_y
 _atom_site_fract_z
 _atom_site_occupancy
  Li  Li0  1  0.500000  0.500000  0.153673  1
  Li  Li1  1  0.000000  0.000000  0.846327  1
  Ho  Ho2  1  0.000000  0.500000  0.523475  1
  Ho  Ho3  1  0.500000  0.000000  0.476525  1
  Ho  Ho4  1  0.500000  0.819670  0.205968  1
  Ho  Ho5  1  0.500000  0.180330  0.205968  1
  Ho  Ho6  1  0.000000  0.680330  0.794032  1
  Ho  Ho7  1  0.000000  0.319670  0.794032  1
  Co  Co8  1  0.500000  0.500000  0.703722  1
  Co  Co9  1  0.000000  0.000000  0.296278  1
  Co  Co10  1  0.000000  0.500000  0.986856  1
  Co  Co11  1  0.500000  0.000000  0.013144  1
  Co  Co12  1  0.500000  0.332920  0.996782  1
  Co  Co13  1  0.500000  0.667080  0.996782  1
  Co  Co14  1  0.000000  0.167080  0.003218  1
  Co  Co15  1  0.000000  0.832920  0.003218  1
  Co  Co16  1  0.500000  0.296550  0.431222  1
  Co  Co17  1  0.500000  0.703450  0.431222  1
  Co  Co18  1  0.000000  0.203450  0.568778  1
  Co  Co19  1  0.000000  0.796550  0.568778  1
  Co  Co20  1  0.500000  0.878370  0.706312  1
  Co  Co21  1  0.500000  0.121630  0.706312  1
  Co  Co22  1  0.000000  0.621630  0.293688  1
  Co  Co23  1  0.000000  0.378370  0.293688  1
  P  P24  1  0.500000  0.500000  0.884383  1
  P  P25  1  0.000000  0.000000  0.115617  1
  P  P26  1  0.500000  0.500000  0.346823  1
  P  P27  1  0.000000  0.000000  0.653177  1
  P  P28  1  0.500000  0.310053  0.615988  1
  P  P29  1  0.500000  0.689947  0.615988  1
  P  P30  1  0.000000  0.189947  0.384012  1
  P  P31  1  0.000000  0.810053  0.384012  1
  P  P32  1  0.500000  0.843332  0.893268  1
  P  P33  1  0.500000  0.156668  0.893268  1
  P  P34  1  0.000000  0.656668  0.106732  1
  P  P35  1  0.000000  0.343332  0.106732  1
