# generated using pymatgen
data_Ho2ErIn3BiIr2
_symmetry_space_group_name_H-M   'P 1'
_cell_length_a   7.73362504
_cell_length_b   7.73767261
_cell_length_c   4.04766800
_cell_angle_alpha   90.00000000
_cell_angle_beta   90.00000000
_cell_angle_gamma   119.97132583
_symmetry_Int_Tables_number   1
_chemical_formula_structural   Ho2ErIn3BiIr2
_chemical_formula_sum   'Ho2 Er1 In3 Bi1 Ir2'
_cell_volume   209.82362681
_cell_formula_units_Z   1
loop_
 _symmetry_equiv_pos_site_id
 _symmetry_equiv_pos_as_xyz
  1  'x, y, z'
loop_
 _atom_site_type_symbol
 _atom_site_label
 _atom_site_symmetry_multiplicity
 _atom_site_fract_x
 _atom_site_fract_y
 _atom_site_fract_z
 _atom_site_occupancy
  Ho  Ho0  1  0.385910  0.968239  0.000000  1
  Ho  Ho1  1  0.031782  0.417391  0.000000  1
  Er  Er2  1  0.582347  0.615150  0.000000  1
  In  In3  1  0.020341  0.763133  0.500000  1
  In  In4  1  0.236835  0.257058  0.500000  1
  In  In5  1  0.742822  0.979488  0.500000  1
  Bi  Bi6  1  0.666490  0.333596  0.500000  1
  Ir  Ir7  1  0.999610  0.999498  0.000000  1
  Ir  Ir8  1  0.333863  0.666446  0.500000  1
