# generated using pymatgen
data_Er5MnCrO12
_symmetry_space_group_name_H-M   'P 1'
_cell_length_a   6.70983656
_cell_length_b   6.70983773
_cell_length_c   7.17024001
_cell_angle_alpha   74.44553093
_cell_angle_beta   74.44553596
_cell_angle_gamma   50.96953061
_symmetry_Int_Tables_number   1
_chemical_formula_structural   Er5MnCrO12
_chemical_formula_sum   'Er5 Mn1 Cr1 O12'
_cell_volume   239.44873500
_cell_formula_units_Z   1
loop_
 _symmetry_equiv_pos_site_id
 _symmetry_equiv_pos_as_xyz
  1  'x, y, z'
loop_
 _atom_site_type_symbol
 _atom_site_label
 _atom_site_symmetry_multiplicity
 _atom_site_fract_x
 _atom_site_fract_y
 _atom_site_fract_z
 _atom_site_occupancy
  Er  Er0  1  0.310264  0.298398  0.358581  1
  Er  Er1  1  0.701602  0.689736  0.641419  1
  Er  Er2  1  0.310678  0.307354  0.831109  1
  Er  Er3  1  0.692646  0.689322  0.168891  1
  Er  Er4  1  0.001295  0.998705  0.500000  1
  Mn  Mn5  1  0.746271  0.253729  0.000000  1
  Cr  Cr6  1  0.231237  0.768763  0.000000  1
  O  O7  1  0.903025  0.426727  0.918918  1
  O  O8  1  0.418577  0.894231  0.920826  1
  O  O9  1  0.105769  0.581423  0.079174  1
  O  O10  1  0.573273  0.096975  0.081082  1
  O  O11  1  0.099691  0.598118  0.573226  1
  O  O12  1  0.597220  0.094031  0.577606  1
  O  O13  1  0.905969  0.402780  0.422394  1
  O  O14  1  0.401882  0.900309  0.426774  1
  O  O15  1  0.999979  0.000693  0.821872  1
  O  O16  1  0.999307  0.000021  0.178128  1
  O  O17  1  0.500674  0.499358  0.816497  1
  O  O18  1  0.500642  0.499326  0.183503  1
