# generated using pymatgen
data_Tb5NdAl24(RuRh)4
_symmetry_space_group_name_H-M   'P 1'
_cell_length_a   8.85654475
_cell_length_b   8.80752023
_cell_length_c   9.58276400
_cell_angle_alpha   90.00000000
_cell_angle_beta   90.00000000
_cell_angle_gamma   119.81706189
_symmetry_Int_Tables_number   1
_chemical_formula_structural   Tb5NdAl24(RuRh)4
_chemical_formula_sum   'Tb5 Nd1 Al24 Ru4 Rh4'
_cell_volume   648.54038978
_cell_formula_units_Z   1
loop_
 _symmetry_equiv_pos_site_id
 _symmetry_equiv_pos_as_xyz
  1  'x, y, z'
loop_
 _atom_site_type_symbol
 _atom_site_label
 _atom_site_symmetry_multiplicity
 _atom_site_fract_x
 _atom_site_fract_y
 _atom_site_fract_z
 _atom_site_occupancy
  Tb  Tb0  1  0.811220  0.195692  0.250000  1
  Tb  Tb1  1  0.811220  0.615528  0.250000  1
  Tb  Tb2  1  0.617524  0.808763  0.750000  1
  Tb  Tb3  1  0.189332  0.804532  0.750000  1
  Tb  Tb4  1  0.189332  0.384800  0.750000  1
  Nd  Nd5  1  0.380285  0.190142  0.250000  1
  Al  Al6  1  0.439574  0.875357  0.250000  1
  Al  Al7  1  0.124202  0.562101  0.250000  1
  Al  Al8  1  0.439574  0.564216  0.250000  1
  Al  Al9  1  0.561110  0.123080  0.750000  1
  Al  Al10  1  0.875972  0.437985  0.750000  1
  Al  Al11  1  0.561110  0.438030  0.750000  1
  Al  Al12  1  0.161450  0.834208  0.423772  1
  Al  Al13  1  0.161450  0.327244  0.423772  1
  Al  Al14  1  0.674945  0.837473  0.423698  1
  Al  Al15  1  0.837757  0.164175  0.577567  1
  Al  Al16  1  0.837757  0.673581  0.577567  1
  Al  Al17  1  0.325038  0.162519  0.578475  1
  Al  Al18  1  0.837757  0.164175  0.922433  1
  Al  Al19  1  0.837757  0.673581  0.922433  1
  Al  Al20  1  0.325038  0.162519  0.921525  1
  Al  Al21  1  0.161450  0.834208  0.076228  1
  Al  Al22  1  0.161450  0.327244  0.076228  1
  Al  Al23  1  0.674945  0.837473  0.076302  1
  Al  Al24  1  0.331469  0.665735  0.523533  1
  Al  Al25  1  0.670017  0.335009  0.478556  1
  Al  Al26  1  0.670017  0.335009  0.021444  1
  Al  Al27  1  0.331469  0.665735  0.976467  1
  Al  Al28  1  0.999066  0.999532  0.250000  1
  Al  Al29  1  0.997771  0.998886  0.750000  1
  Ru  Ru30  1  0.999706  0.999853  0.500147  1
  Ru  Ru31  1  0.999706  0.999853  0.999853  1
  Ru  Ru32  1  0.000402  0.500201  0.500587  1
  Ru  Ru33  1  0.000402  0.500201  0.999413  1
  Rh  Rh34  1  0.500681  0.999584  0.500806  1
  Rh  Rh35  1  0.500681  0.501098  0.500806  1
  Rh  Rh36  1  0.500681  0.999584  0.999194  1
  Rh  Rh37  1  0.500681  0.501098  0.999194  1
