# generated using pymatgen
data_K6Li4ZrSnSb6
_symmetry_space_group_name_H-M   'P 1'
_cell_length_a   10.90598915
_cell_length_b   10.90598937
_cell_length_c   16.31609500
_cell_angle_alpha   90.00000000
_cell_angle_beta   90.00000000
_cell_angle_gamma   143.03329615
_symmetry_Int_Tables_number   1
_chemical_formula_structural   K6Li4ZrSnSb6
_chemical_formula_sum   'K12 Li8 Zr2 Sn2 Sb12'
_cell_volume   1167.00914328
_cell_formula_units_Z   2
loop_
 _symmetry_equiv_pos_site_id
 _symmetry_equiv_pos_as_xyz
  1  'x, y, z'
loop_
 _atom_site_type_symbol
 _atom_site_label
 _atom_site_symmetry_multiplicity
 _atom_site_fract_x
 _atom_site_fract_y
 _atom_site_fract_z
 _atom_site_occupancy
  K  K0  1  0.092602  0.429961  0.671798  1
  K  K1  1  0.724316  0.728745  0.675417  1
  K  K2  1  0.228745  0.224316  0.824583  1
  K  K3  1  0.775684  0.771255  0.175417  1
  K  K4  1  0.929961  0.592602  0.828202  1
  K  K5  1  0.570039  0.907398  0.328202  1
  K  K6  1  0.407398  0.070039  0.171798  1
  K  K7  1  0.054676  0.397815  0.169939  1
  K  K8  1  0.897815  0.554676  0.330061  1
  K  K9  1  0.445324  0.102185  0.669939  1
  K  K10  1  0.602185  0.945325  0.830061  1
  K  K11  1  0.271255  0.275684  0.324583  1
  Li  Li12  1  0.916057  0.083943  0.000000  1
  Li  Li13  1  0.583943  0.416057  0.500000  1
  Li  Li14  1  0.086314  0.913686  0.000000  1
  Li  Li15  1  0.413686  0.586314  0.500000  1
  Li  Li16  1  0.751832  0.248168  0.000000  1
  Li  Li17  1  0.748168  0.251832  0.500000  1
  Li  Li18  1  0.247884  0.752116  0.000000  1
  Li  Li19  1  0.252116  0.747884  0.500000  1
  Zr  Zr20  1  0.084602  0.915398  0.500000  1
  Zr  Zr21  1  0.415398  0.584602  0.000000  1
  Sn  Sn22  1  0.913193  0.086807  0.500000  1
  Sn  Sn23  1  0.586807  0.413193  0.000000  1
  Sb  Sb24  1  0.907187  0.578637  0.101655  1
  Sb  Sb25  1  0.421363  0.092813  0.898345  1
  Sb  Sb26  1  0.592813  0.921363  0.601655  1
  Sb  Sb27  1  0.930068  0.603358  0.598392  1
  Sb  Sb28  1  0.103358  0.430068  0.901608  1
  Sb  Sb29  1  0.569932  0.896642  0.098392  1
  Sb  Sb30  1  0.396642  0.069932  0.401608  1
  Sb  Sb31  1  0.239068  0.235893  0.598402  1
  Sb  Sb32  1  0.735893  0.739068  0.901598  1
  Sb  Sb33  1  0.260932  0.264107  0.098402  1
  Sb  Sb34  1  0.078637  0.407187  0.398345  1
  Sb  Sb35  1  0.764107  0.760932  0.401598  1
