# generated using pymatgen
data_Ba5Pr3(Mg4Au3)4
_symmetry_space_group_name_H-M   'P 1'
_cell_length_a   15.33354200
_cell_length_b   15.33354208
_cell_length_c   4.51910400
_cell_angle_alpha   90.00000000
_cell_angle_beta   90.00000000
_cell_angle_gamma   119.99999982
_symmetry_Int_Tables_number   1
_chemical_formula_structural   Ba5Pr3(Mg4Au3)4
_chemical_formula_sum   'Ba5 Pr3 Mg16 Au12'
_cell_volume   920.16973548
_cell_formula_units_Z   1
loop_
 _symmetry_equiv_pos_site_id
 _symmetry_equiv_pos_as_xyz
  1  'x, y, z'
loop_
 _atom_site_type_symbol
 _atom_site_label
 _atom_site_symmetry_multiplicity
 _atom_site_fract_x
 _atom_site_fract_y
 _atom_site_fract_z
 _atom_site_occupancy
  Ba  Ba0  1  0.333333  0.666667  0.000000  1
  Ba  Ba1  1  0.666667  0.333333  0.000000  1
  Ba  Ba2  1  0.815784  0.000000  0.500000  1
  Ba  Ba3  1  0.000000  0.815784  0.500000  1
  Ba  Ba4  1  0.184216  0.184216  0.500000  1
  Pr  Pr5  1  0.451034  0.000000  0.000000  1
  Pr  Pr6  1  0.000000  0.451034  0.000000  1
  Pr  Pr7  1  0.548966  0.548966  0.000000  1
  Mg  Mg8  1  0.180283  0.376516  0.000000  1
  Mg  Mg9  1  0.623484  0.803768  0.000000  1
  Mg  Mg10  1  0.376516  0.180283  0.000000  1
  Mg  Mg11  1  0.196232  0.819717  0.000000  1
  Mg  Mg12  1  0.803768  0.623484  0.000000  1
  Mg  Mg13  1  0.819717  0.196232  0.000000  1
  Mg  Mg14  1  0.281631  0.000000  0.500000  1
  Mg  Mg15  1  0.000000  0.281631  0.500000  1
  Mg  Mg16  1  0.718369  0.718369  0.500000  1
  Mg  Mg17  1  0.347515  0.472479  0.500000  1
  Mg  Mg18  1  0.527521  0.875036  0.500000  1
  Mg  Mg19  1  0.472479  0.347515  0.500000  1
  Mg  Mg20  1  0.124964  0.652485  0.500000  1
  Mg  Mg21  1  0.875036  0.527521  0.500000  1
  Mg  Mg22  1  0.652485  0.124964  0.500000  1
  Mg  Mg23  1  0.000000  0.000000  0.000000  1
  Au  Au24  1  0.162006  0.478924  0.500000  1
  Au  Au25  1  0.521076  0.683082  0.500000  1
  Au  Au26  1  0.478924  0.162006  0.500000  1
  Au  Au27  1  0.316918  0.837994  0.500000  1
  Au  Au28  1  0.683082  0.521076  0.500000  1
  Au  Au29  1  0.837994  0.316918  0.500000  1
  Au  Au30  1  0.180280  0.000000  0.000000  1
  Au  Au31  1  0.000000  0.180280  0.000000  1
  Au  Au32  1  0.819720  0.819720  0.000000  1
  Au  Au33  1  0.644250  0.000000  0.000000  1
  Au  Au34  1  0.000000  0.644250  0.000000  1
  Au  Au35  1  0.355750  0.355750  0.000000  1
