# generated using pymatgen
data_SmErFe2(Co3B)2
_symmetry_space_group_name_H-M   'P 1'
_cell_length_a   5.07463213
_cell_length_b   5.07492392
_cell_length_c   6.79418500
_cell_angle_alpha   90.00000000
_cell_angle_beta   90.00000000
_cell_angle_gamma   120.02265915
_symmetry_Int_Tables_number   1
_chemical_formula_structural   SmErFe2(Co3B)2
_chemical_formula_sum   'Sm1 Er1 Fe2 Co6 B2'
_cell_volume   151.49660258
_cell_formula_units_Z   1
loop_
 _symmetry_equiv_pos_site_id
 _symmetry_equiv_pos_as_xyz
  1  'x, y, z'
loop_
 _atom_site_type_symbol
 _atom_site_label
 _atom_site_symmetry_multiplicity
 _atom_site_fract_x
 _atom_site_fract_y
 _atom_site_fract_z
 _atom_site_occupancy
  Sm  Sm0  1  0.999973  0.000000  0.000000  1
  Er  Er1  1  0.999990  0.999998  0.500000  1
  Fe  Fe2  1  0.333313  0.666712  0.000000  1
  Fe  Fe3  1  0.666631  0.333291  0.000000  1
  Co  Co4  1  0.499987  0.999990  0.290010  1
  Co  Co5  1  0.499983  0.500009  0.289966  1
  Co  Co6  1  0.999995  0.500001  0.290001  1
  Co  Co7  1  0.499987  0.999990  0.709990  1
  Co  Co8  1  0.499983  0.500009  0.710033  1
  Co  Co9  1  0.999995  0.500001  0.709998  1
  B  B10  1  0.333262  0.666673  0.500000  1
  B  B11  1  0.666702  0.333327  0.500000  1
