# generated using pymatgen
data_Pr5NdZn4IrPd12
_symmetry_space_group_name_H-M   'P 1'
_cell_length_a   8.40536339
_cell_length_b   8.40536415
_cell_length_c   8.40536401
_cell_angle_alpha   109.46616426
_cell_angle_beta   109.47374129
_cell_angle_gamma   109.47375449
_symmetry_Int_Tables_number   1
_chemical_formula_structural   Pr5NdZn4IrPd12
_chemical_formula_sum   'Pr5 Nd1 Zn4 Ir1 Pd12'
_cell_volume   457.13836526
_cell_formula_units_Z   1
loop_
 _symmetry_equiv_pos_site_id
 _symmetry_equiv_pos_as_xyz
  1  'x, y, z'
loop_
 _atom_site_type_symbol
 _atom_site_label
 _atom_site_symmetry_multiplicity
 _atom_site_fract_x
 _atom_site_fract_y
 _atom_site_fract_z
 _atom_site_occupancy
  Pr  Pr0  1  0.702690  0.702625  0.999935  1
  Pr  Pr1  1  0.297310  0.999935  0.297245  1
  Pr  Pr2  1  0.000000  0.297594  0.297594  1
  Pr  Pr3  1  0.297310  0.297245  0.999935  1
  Pr  Pr4  1  0.702690  0.999935  0.702625  1
  Nd  Nd5  1  0.000000  0.702343  0.702343  1
  Zn  Zn6  1  0.000000  0.999922  0.500089  1
  Zn  Zn7  1  0.000000  0.500089  0.999922  1
  Zn  Zn8  1  0.499833  0.999922  0.999922  1
  Zn  Zn9  1  0.500167  0.500089  0.500089  1
  Ir  Ir10  1  0.000000  0.999414  0.999414  1
  Pd  Pd11  1  0.331571  0.331581  0.663152  1
  Pd  Pd12  1  0.668429  0.000010  0.331581  1
  Pd  Pd13  1  0.000000  0.668420  0.331941  1
  Pd  Pd14  1  0.668429  0.331581  0.000010  1
  Pd  Pd15  1  0.331571  0.663152  0.331581  1
  Pd  Pd16  1  0.000000  0.331941  0.668420  1
  Pd  Pd17  1  0.331366  0.668459  0.999826  1
  Pd  Pd18  1  0.331366  0.999826  0.668459  1
  Pd  Pd19  1  0.663521  0.331941  0.331941  1
  Pd  Pd20  1  0.668634  0.668459  0.337093  1
  Pd  Pd21  1  0.668634  0.337093  0.668459  1
  Pd  Pd22  1  0.336479  0.668420  0.668420  1
