# generated using pymatgen
data_YEr3Ni2C5
_symmetry_space_group_name_H-M   'P 1'
_cell_length_a   3.60977400
_cell_length_b   3.68560700
_cell_length_c   11.55738100
_cell_angle_alpha   90.00000000
_cell_angle_beta   90.00000000
_cell_angle_gamma   90.00000000
_symmetry_Int_Tables_number   1
_chemical_formula_structural   YEr3Ni2C5
_chemical_formula_sum   'Y1 Er3 Ni2 C5'
_cell_volume   153.76180449
_cell_formula_units_Z   1
loop_
 _symmetry_equiv_pos_site_id
 _symmetry_equiv_pos_as_xyz
  1  'x, y, z'
loop_
 _atom_site_type_symbol
 _atom_site_label
 _atom_site_symmetry_multiplicity
 _atom_site_fract_x
 _atom_site_fract_y
 _atom_site_fract_z
 _atom_site_occupancy
  Y  Y0  1  0.000000  0.999440  0.000000  1
  Er  Er1  1  0.500000  0.502144  0.203958  1
  Er  Er2  1  0.500000  0.502144  0.796042  1
  Er  Er3  1  0.500000  0.208209  0.500000  1
  Ni  Ni4  1  0.000000  0.699111  0.384845  1
  Ni  Ni5  1  0.000000  0.699111  0.615155  1
  C  C6  1  0.000000  0.999528  0.230589  1
  C  C7  1  0.000000  0.999528  0.769411  1
  C  C8  1  0.000000  0.198654  0.333237  1
  C  C9  1  0.000000  0.198654  0.666763  1
  C  C10  1  0.500000  0.494975  0.000000  1
