# generated using pymatgen
data_Nd4Ga4Pd2RuPt
_symmetry_space_group_name_H-M   'P 1'
_cell_length_a   4.50638000
_cell_length_b   7.13098132
_cell_length_c   7.84394500
_cell_angle_alpha   89.81895376
_cell_angle_beta   90.00000000
_cell_angle_gamma   90.00000000
_symmetry_Int_Tables_number   1
_chemical_formula_structural   Nd4Ga4Pd2RuPt
_chemical_formula_sum   'Nd4 Ga4 Pd2 Ru1 Pt1'
_cell_volume   252.06322109
_cell_formula_units_Z   1
loop_
 _symmetry_equiv_pos_site_id
 _symmetry_equiv_pos_as_xyz
  1  'x, y, z'
loop_
 _atom_site_type_symbol
 _atom_site_label
 _atom_site_symmetry_multiplicity
 _atom_site_fract_x
 _atom_site_fract_y
 _atom_site_fract_z
 _atom_site_occupancy
  Nd  Nd0  1  0.250000  0.031400  0.686115  1
  Nd  Nd1  1  0.250000  0.523901  0.811007  1
  Nd  Nd2  1  0.750000  0.981476  0.307601  1
  Nd  Nd3  1  0.750000  0.473716  0.196416  1
  Ga  Ga4  1  0.250000  0.165866  0.075694  1
  Ga  Ga5  1  0.250000  0.653335  0.429786  1
  Ga  Ga6  1  0.750000  0.841008  0.928585  1
  Ga  Ga7  1  0.750000  0.332794  0.568171  1
  Pd  Pd8  1  0.250000  0.785472  0.105053  1
  Pd  Pd9  1  0.750000  0.715431  0.605103  1
  Ru  Ru10  1  0.250000  0.275586  0.393973  1
  Pt  Pt11  1  0.750000  0.220013  0.892498  1
