# generated using pymatgen
data_Tb4DyHo2FeI12
_symmetry_space_group_name_H-M   'P 1'
_cell_length_a   9.71783045
_cell_length_b   9.77399394
_cell_length_c   9.78954288
_cell_angle_alpha   107.00224553
_cell_angle_beta   107.09876029
_cell_angle_gamma   106.85659795
_symmetry_Int_Tables_number   1
_chemical_formula_structural   Tb4DyHo2FeI12
_chemical_formula_sum   'Tb4 Dy1 Ho2 Fe1 I12'
_cell_volume   774.66737385
_cell_formula_units_Z   1
loop_
 _symmetry_equiv_pos_site_id
 _symmetry_equiv_pos_as_xyz
  1  'x, y, z'
loop_
 _atom_site_type_symbol
 _atom_site_label
 _atom_site_symmetry_multiplicity
 _atom_site_fract_x
 _atom_site_fract_y
 _atom_site_fract_z
 _atom_site_occupancy
  Tb  Tb0  1  0.281035  0.021757  0.090485  1
  Tb  Tb1  1  0.906671  0.706959  0.977533  1
  Tb  Tb2  1  0.978114  0.906802  0.706923  1
  Tb  Tb3  1  0.719230  0.978736  0.910534  1
  Dy  Dy4  1  0.499955  0.500281  0.500156  1
  Ho  Ho5  1  0.092346  0.289831  0.022549  1
  Ho  Ho6  1  0.022102  0.093375  0.290006  1
  Fe  Fe7  1  0.000020  0.999596  0.999791  1
  I  I8  1  0.462627  0.385974  0.161570  1
  I  I9  1  0.159844  0.462889  0.385538  1
  I  I10  1  0.385870  0.161538  0.463102  1
  I  I11  1  0.535434  0.614185  0.837978  1
  I  I12  1  0.839276  0.535363  0.612930  1
  I  I13  1  0.612482  0.838861  0.537065  1
  I  I14  1  0.775372  0.319932  0.928089  1
  I  I15  1  0.928537  0.776811  0.321562  1
  I  I16  1  0.320901  0.929130  0.777110  1
  I  I17  1  0.226466  0.679493  0.072402  1
  I  I18  1  0.072392  0.226827  0.680004  1
  I  I19  1  0.681324  0.071664  0.224672  1
