# generated using pymatgen
data_Nd2ThCr(Co4P3)2
_symmetry_space_group_name_H-M   'P 1'
_cell_length_a   3.78699800
_cell_length_b   10.72479800
_cell_length_c   12.44124100
_cell_angle_alpha   90.00000000
_cell_angle_beta   90.00000000
_cell_angle_gamma   90.00000000
_symmetry_Int_Tables_number   1
_chemical_formula_structural   Nd2ThCr(Co4P3)2
_chemical_formula_sum   'Nd4 Th2 Cr2 Co16 P12'
_cell_volume   505.29837284
_cell_formula_units_Z   2
loop_
 _symmetry_equiv_pos_site_id
 _symmetry_equiv_pos_as_xyz
  1  'x, y, z'
loop_
 _atom_site_type_symbol
 _atom_site_label
 _atom_site_symmetry_multiplicity
 _atom_site_fract_x
 _atom_site_fract_y
 _atom_site_fract_z
 _atom_site_occupancy
  Nd  Nd0  1  0.500000  0.816558  0.204623  1
  Nd  Nd1  1  0.500000  0.183442  0.204623  1
  Nd  Nd2  1  0.000000  0.683442  0.795377  1
  Nd  Nd3  1  0.000000  0.316558  0.795377  1
  Th  Th4  1  0.000000  0.500000  0.524727  1
  Th  Th5  1  0.500000  0.000000  0.475273  1
  Cr  Cr6  1  0.500000  0.500000  0.153216  1
  Cr  Cr7  1  0.000000  0.000000  0.846784  1
  Co  Co8  1  0.500000  0.500000  0.699653  1
  Co  Co9  1  0.000000  0.000000  0.300347  1
  Co  Co10  1  0.000000  0.500000  0.987646  1
  Co  Co11  1  0.500000  0.000000  0.012354  1
  Co  Co12  1  0.500000  0.333138  0.994277  1
  Co  Co13  1  0.500000  0.666862  0.994277  1
  Co  Co14  1  0.000000  0.166862  0.005723  1
  Co  Co15  1  0.000000  0.833138  0.005723  1
  Co  Co16  1  0.500000  0.298087  0.431219  1
  Co  Co17  1  0.500000  0.701913  0.431219  1
  Co  Co18  1  0.000000  0.201913  0.568781  1
  Co  Co19  1  0.000000  0.798087  0.568781  1
  Co  Co20  1  0.500000  0.882848  0.711543  1
  Co  Co21  1  0.500000  0.117152  0.711543  1
  Co  Co22  1  0.000000  0.617152  0.288457  1
  Co  Co23  1  0.000000  0.382848  0.288457  1
  P  P24  1  0.500000  0.500000  0.885385  1
  P  P25  1  0.000000  0.000000  0.114615  1
  P  P26  1  0.500000  0.500000  0.340227  1
  P  P27  1  0.000000  0.000000  0.659773  1
  P  P28  1  0.500000  0.304337  0.614928  1
  P  P29  1  0.500000  0.695663  0.614928  1
  P  P30  1  0.000000  0.195663  0.385072  1
  P  P31  1  0.000000  0.804337  0.385072  1
  P  P32  1  0.500000  0.848377  0.895641  1
  P  P33  1  0.500000  0.151623  0.895641  1
  P  P34  1  0.000000  0.651623  0.104359  1
  P  P35  1  0.000000  0.348377  0.104359  1
