# generated using pymatgen
data_Hf(Zr2Se5)2
_symmetry_space_group_name_H-M   'P 1'
_cell_length_a   3.80898600
_cell_length_b   3.80898631
_cell_length_c   34.71771600
_cell_angle_alpha   90.00000000
_cell_angle_beta   90.00000000
_cell_angle_gamma   119.99999728
_symmetry_Int_Tables_number   1
_chemical_formula_structural   Hf(Zr2Se5)2
_chemical_formula_sum   'Hf1 Zr4 Se10'
_cell_volume   436.21498274
_cell_formula_units_Z   1
loop_
 _symmetry_equiv_pos_site_id
 _symmetry_equiv_pos_as_xyz
  1  'x, y, z'
loop_
 _atom_site_type_symbol
 _atom_site_label
 _atom_site_symmetry_multiplicity
 _atom_site_fract_x
 _atom_site_fract_y
 _atom_site_fract_z
 _atom_site_occupancy
  Hf  Hf0  1  0.000000  0.000000  0.000000  1
  Zr  Zr1  1  0.000000  0.000000  0.799058  1
  Zr  Zr2  1  0.000000  0.000000  0.600069  1
  Zr  Zr3  1  0.000000  0.000000  0.399931  1
  Zr  Zr4  1  0.000000  0.000000  0.200942  1
  Se  Se5  1  0.666667  0.333333  0.753362  1
  Se  Se6  1  0.666667  0.333333  0.554391  1
  Se  Se7  1  0.666667  0.333333  0.354261  1
  Se  Se8  1  0.666667  0.333333  0.155248  1
  Se  Se9  1  0.666667  0.333333  0.955052  1
  Se  Se10  1  0.333333  0.666667  0.645739  1
  Se  Se11  1  0.333333  0.666667  0.445609  1
  Se  Se12  1  0.333333  0.666667  0.246638  1
  Se  Se13  1  0.333333  0.666667  0.044948  1
  Se  Se14  1  0.333333  0.666667  0.844752  1
