# generated using pymatgen
data_Ho10Er2Co4SnPd
_symmetry_space_group_name_H-M   'P 1'
_cell_length_a   8.26421952
_cell_length_b   8.26421980
_cell_length_c   8.25759146
_cell_angle_alpha   111.04833170
_cell_angle_beta   110.57443162
_cell_angle_gamma   106.85739430
_symmetry_Int_Tables_number   1
_chemical_formula_structural   Ho10Er2Co4SnPd
_chemical_formula_sum   'Ho10 Er2 Co4 Sn1 Pd1'
_cell_volume   433.27225097
_cell_formula_units_Z   1
loop_
 _symmetry_equiv_pos_site_id
 _symmetry_equiv_pos_as_xyz
  1  'x, y, z'
loop_
 _atom_site_type_symbol
 _atom_site_label
 _atom_site_symmetry_multiplicity
 _atom_site_fract_x
 _atom_site_fract_y
 _atom_site_fract_z
 _atom_site_occupancy
  Ho  Ho0  1  0.313704  0.618272  0.304088  1
  Ho  Ho1  1  0.686296  0.381729  0.695912  1
  Ho  Ho2  1  0.314183  0.009617  0.695912  1
  Ho  Ho3  1  0.685817  0.990383  0.304088  1
  Ho  Ho4  1  0.415500  0.214402  0.200196  1
  Ho  Ho5  1  0.584500  0.785598  0.799804  1
  Ho  Ho6  1  0.014206  0.215304  0.799804  1
  Ho  Ho7  1  0.985794  0.784696  0.200196  1
  Ho  Ho8  1  0.186418  0.292305  0.478723  1
  Ho  Ho9  1  0.813582  0.707695  0.521277  1
  Er  Er10  1  0.186615  0.707921  0.894536  1
  Er  Er11  1  0.813385  0.292079  0.105464  1
  Co  Co12  1  0.112188  0.612188  0.500000  1
  Co  Co13  1  0.887813  0.387813  0.500000  1
  Co  Co14  1  0.377514  0.999756  0.377270  1
  Co  Co15  1  0.622486  0.000244  0.622730  1
  Sn  Sn16  1  0.500000  0.500000  0.000000  1
  Pd  Pd17  1  0.000000  0.000000  0.000000  1
