# generated using pymatgen
data_TbTa7(NbN6)2
_symmetry_space_group_name_H-M   'P 1'
_cell_length_a   5.28685550
_cell_length_b   5.29017912
_cell_length_c   10.52619500
_cell_angle_alpha   89.95037421
_cell_angle_beta   90.02482849
_cell_angle_gamma   120.02081456
_symmetry_Int_Tables_number   1
_chemical_formula_structural   TbTa7(NbN6)2
_chemical_formula_sum   'Tb1 Ta7 Nb2 N12'
_cell_volume   254.90512610
_cell_formula_units_Z   1
loop_
 _symmetry_equiv_pos_site_id
 _symmetry_equiv_pos_as_xyz
  1  'x, y, z'
loop_
 _atom_site_type_symbol
 _atom_site_label
 _atom_site_symmetry_multiplicity
 _atom_site_fract_x
 _atom_site_fract_y
 _atom_site_fract_z
 _atom_site_occupancy
  Tb  Tb0  1  0.332423  0.666212  0.500000  1
  Ta  Ta1  1  0.664228  0.332114  0.000000  1
  Ta  Ta2  1  0.664300  0.332149  0.500000  1
  Ta  Ta3  1  0.333699  0.666849  0.000000  1
  Ta  Ta4  1  0.675784  0.998162  0.754926  1
  Ta  Ta5  1  0.675784  0.677622  0.245074  1
  Ta  Ta6  1  0.002333  0.324654  0.245117  1
  Ta  Ta7  1  0.002333  0.677679  0.754883  1
  Nb  Nb8  1  0.324053  0.326049  0.755826  1
  Nb  Nb9  1  0.324053  0.998004  0.244174  1
  N  N10  1  0.351470  0.335279  0.368712  1
  N  N11  1  0.672663  0.019669  0.369422  1
  N  N12  1  0.975789  0.642848  0.368811  1
  N  N13  1  0.996051  0.342358  0.882374  1
  N  N14  1  0.663369  0.000297  0.116880  1
  N  N15  1  0.663369  0.663070  0.883120  1
  N  N16  1  0.341164  0.996347  0.882579  1
  N  N17  1  0.672663  0.652994  0.630578  1
  N  N18  1  0.975789  0.332940  0.631189  1
  N  N19  1  0.996051  0.653692  0.117626  1
  N  N20  1  0.351470  0.016190  0.631288  1
  N  N21  1  0.341164  0.344817  0.117421  1
