# generated using pymatgen
data_Ca3Dy(Si4Tc3)2
_symmetry_space_group_name_H-M   'P 1'
_cell_length_a   6.81568331
_cell_length_b   6.70344109
_cell_length_c   6.79219691
_cell_angle_alpha   70.52205880
_cell_angle_beta   90.01341840
_cell_angle_gamma   89.85790205
_symmetry_Int_Tables_number   1
_chemical_formula_structural   Ca3Dy(Si4Tc3)2
_chemical_formula_sum   'Ca3 Dy1 Si8 Tc6'
_cell_volume   292.56446962
_cell_formula_units_Z   1
loop_
 _symmetry_equiv_pos_site_id
 _symmetry_equiv_pos_as_xyz
  1  'x, y, z'
loop_
 _atom_site_type_symbol
 _atom_site_label
 _atom_site_symmetry_multiplicity
 _atom_site_fract_x
 _atom_site_fract_y
 _atom_site_fract_z
 _atom_site_occupancy
  Ca  Ca0  1  0.664623  0.444273  0.184187  1
  Ca  Ca1  1  0.166714  0.056800  0.812861  1
  Ca  Ca2  1  0.334638  0.555581  0.815214  1
  Dy  Dy3  1  0.833211  0.941959  0.192119  1
  Si  Si4  1  0.450544  0.119206  0.102351  1
  Si  Si5  1  0.952756  0.381392  0.895337  1
  Si  Si6  1  0.547624  0.880813  0.896724  1
  Si  Si7  1  0.047289  0.619855  0.101892  1
  Si  Si8  1  0.861457  0.135208  0.508396  1
  Si  Si9  1  0.361074  0.368143  0.491640  1
  Si  Si10  1  0.141347  0.866649  0.494385  1
  Si  Si11  1  0.637127  0.629352  0.510130  1
  Tc  Tc12  1  0.502943  0.000361  0.496623  1
  Tc  Tc13  1  0.999260  0.501912  0.498203  1
  Tc  Tc14  1  0.155553  0.243041  0.243858  1
  Tc  Tc15  1  0.659297  0.253192  0.758166  1
  Tc  Tc16  1  0.842762  0.757809  0.755028  1
  Tc  Tc17  1  0.341782  0.744453  0.242886  1
