# generated using pymatgen
data_Er4HfZrMoO12
_symmetry_space_group_name_H-M   'P 1'
_cell_length_a   6.27671112
_cell_length_b   6.35679166
_cell_length_c   6.50974088
_cell_angle_alpha   100.32229318
_cell_angle_beta   98.45144542
_cell_angle_gamma   99.38048854
_symmetry_Int_Tables_number   1
_chemical_formula_structural   Er4HfZrMoO12
_chemical_formula_sum   'Er4 Hf1 Zr1 Mo1 O12'
_cell_volume   247.92869563
_cell_formula_units_Z   1
loop_
 _symmetry_equiv_pos_site_id
 _symmetry_equiv_pos_as_xyz
  1  'x, y, z'
loop_
 _atom_site_type_symbol
 _atom_site_label
 _atom_site_symmetry_multiplicity
 _atom_site_fract_x
 _atom_site_fract_y
 _atom_site_fract_z
 _atom_site_occupancy
  Er  Er0  1  0.387534  0.699011  0.864589  1
  Er  Er1  1  0.700161  0.866021  0.391872  1
  Er  Er2  1  0.612618  0.299706  0.134486  1
  Er  Er3  1  0.301447  0.135455  0.609384  1
  Hf  Hf4  1  0.848757  0.395922  0.672169  1
  Zr  Zr5  1  0.150891  0.604355  0.325519  1
  Mo  Mo6  1  0.999036  0.998996  0.998617  1
  O  O7  1  0.024540  0.679528  0.893449  1
  O  O8  1  0.688725  0.931302  0.057271  1
  O  O9  1  0.924176  0.088745  0.692879  1
  O  O10  1  0.973380  0.317098  0.105544  1
  O  O11  1  0.310667  0.068231  0.942495  1
  O  O12  1  0.074855  0.915302  0.307915  1
  O  O13  1  0.590237  0.187727  0.434642  1
  O  O14  1  0.171286  0.431727  0.577220  1
  O  O15  1  0.418342  0.582502  0.177019  1
  O  O16  1  0.412814  0.813745  0.566825  1
  O  O17  1  0.825092  0.567565  0.427134  1
  O  O18  1  0.585443  0.417063  0.820971  1
