# generated using pymatgen
data_CsCe(SO4)2
_symmetry_space_group_name_H-M   'P 1'
_cell_length_a   5.60602000
_cell_length_b   5.60602023
_cell_length_c   9.16358700
_cell_angle_alpha   90.00000000
_cell_angle_beta   90.00000000
_cell_angle_gamma   119.99999864
_symmetry_Int_Tables_number   1
_chemical_formula_structural   CsCe(SO4)2
_chemical_formula_sum   'Cs1 Ce1 S2 O8'
_cell_volume   249.40516809
_cell_formula_units_Z   1
loop_
 _symmetry_equiv_pos_site_id
 _symmetry_equiv_pos_as_xyz
  1  'x, y, z'
loop_
 _atom_site_type_symbol
 _atom_site_label
 _atom_site_symmetry_multiplicity
 _atom_site_fract_x
 _atom_site_fract_y
 _atom_site_fract_z
 _atom_site_occupancy
  Cs  Cs0  1  0.000000  0.000000  0.500000  1
  Ce  Ce1  1  0.000000  0.000000  0.000000  1
  S  S2  1  0.333333  0.666667  0.217549  1
  S  S3  1  0.666667  0.333333  0.782451  1
  O  O4  1  0.154656  0.381035  0.159285  1
  O  O5  1  0.618965  0.773620  0.159285  1
  O  O6  1  0.381035  0.154656  0.840715  1
  O  O7  1  0.226380  0.845344  0.159285  1
  O  O8  1  0.773620  0.618965  0.840715  1
  O  O9  1  0.845344  0.226380  0.840715  1
  O  O10  1  0.333333  0.666667  0.376894  1
  O  O11  1  0.666667  0.333333  0.623106  1
