# generated using pymatgen
data_Ce2HoCd(InRu)2
_symmetry_space_group_name_H-M   'P 1'
_cell_length_a   8.40974971
_cell_length_b   8.40974822
_cell_length_c   4.96719283
_cell_angle_alpha   83.42372835
_cell_angle_beta   83.42372853
_cell_angle_gamma   33.36365553
_symmetry_Int_Tables_number   1
_chemical_formula_structural   Ce2HoCd(InRu)2
_chemical_formula_sum   'Ce2 Ho1 Cd1 In2 Ru2'
_cell_volume   191.81158284
_cell_formula_units_Z   1
loop_
 _symmetry_equiv_pos_site_id
 _symmetry_equiv_pos_as_xyz
  1  'x, y, z'
loop_
 _atom_site_type_symbol
 _atom_site_label
 _atom_site_symmetry_multiplicity
 _atom_site_fract_x
 _atom_site_fract_y
 _atom_site_fract_z
 _atom_site_occupancy
  Ce  Ce0  1  0.827522  0.827522  0.574868  1
  Ce  Ce1  1  0.172478  0.172478  0.425132  1
  Ho  Ho2  1  0.000000  0.000000  0.000000  1
  Cd  Cd3  1  0.500000  0.500000  0.500000  1
  In  In4  1  0.372398  0.372398  0.042491  1
  In  In5  1  0.627602  0.627602  0.957509  1
  Ru  Ru6  1  0.791058  0.791058  0.124160  1
  Ru  Ru7  1  0.208942  0.208942  0.875840  1
