# generated using pymatgen
data_ZrSc(FeSi)2
_symmetry_space_group_name_H-M   'P 1'
_cell_length_a   4.06348100
_cell_length_b   6.50150200
_cell_length_c   6.72993200
_cell_angle_alpha   90.00000000
_cell_angle_beta   90.00000000
_cell_angle_gamma   90.00000000
_symmetry_Int_Tables_number   1
_chemical_formula_structural   ZrSc(FeSi)2
_chemical_formula_sum   'Zr2 Sc2 Fe4 Si4'
_cell_volume   177.79625541
_cell_formula_units_Z   2
loop_
 _symmetry_equiv_pos_site_id
 _symmetry_equiv_pos_as_xyz
  1  'x, y, z'
loop_
 _atom_site_type_symbol
 _atom_site_label
 _atom_site_symmetry_multiplicity
 _atom_site_fract_x
 _atom_site_fract_y
 _atom_site_fract_z
 _atom_site_occupancy
  Zr  Zr0  1  0.750000  0.518045  0.808282  1
  Zr  Zr1  1  0.250000  0.981955  0.308282  1
  Sc  Sc2  1  0.750000  0.015989  0.692953  1
  Sc  Sc3  1  0.250000  0.484011  0.192953  1
  Fe  Fe4  1  0.250000  0.652974  0.560827  1
  Fe  Fe5  1  0.250000  0.155220  0.938937  1
  Fe  Fe6  1  0.750000  0.847026  0.060827  1
  Fe  Fe7  1  0.750000  0.344780  0.438937  1
  Si  Si8  1  0.250000  0.799214  0.890924  1
  Si  Si9  1  0.250000  0.296301  0.608077  1
  Si  Si10  1  0.750000  0.203699  0.108077  1
  Si  Si11  1  0.750000  0.700786  0.390924  1
