# generated using pymatgen
data_Dy2Tm3Bi2Rh
_symmetry_space_group_name_H-M   'P 1'
_cell_length_a   7.94157900
_cell_length_b   8.97588100
_cell_length_c   12.41012900
_cell_angle_alpha   90.00000000
_cell_angle_beta   90.00000000
_cell_angle_gamma   90.00000000
_symmetry_Int_Tables_number   1
_chemical_formula_structural   Dy2Tm3Bi2Rh
_chemical_formula_sum   'Dy8 Tm12 Bi8 Rh4'
_cell_volume   884.62710604
_cell_formula_units_Z   4
loop_
 _symmetry_equiv_pos_site_id
 _symmetry_equiv_pos_as_xyz
  1  'x, y, z'
loop_
 _atom_site_type_symbol
 _atom_site_label
 _atom_site_symmetry_multiplicity
 _atom_site_fract_x
 _atom_site_fract_y
 _atom_site_fract_z
 _atom_site_occupancy
  Dy  Dy0  1  0.376103  0.750000  0.692471  1
  Dy  Dy1  1  0.623897  0.250000  0.307529  1
  Dy  Dy2  1  0.876103  0.250000  0.807529  1
  Dy  Dy3  1  0.123897  0.750000  0.192471  1
  Dy  Dy4  1  0.950148  0.750000  0.501323  1
  Dy  Dy5  1  0.049852  0.250000  0.498677  1
  Dy  Dy6  1  0.450148  0.250000  0.998677  1
  Dy  Dy7  1  0.549852  0.750000  0.001323  1
  Tm  Tm8  1  0.841847  0.750000  0.793662  1
  Tm  Tm9  1  0.158153  0.250000  0.206338  1
  Tm  Tm10  1  0.341847  0.250000  0.706338  1
  Tm  Tm11  1  0.658153  0.750000  0.293662  1
  Tm  Tm12  1  0.675181  0.042477  0.566034  1
  Tm  Tm13  1  0.324819  0.957523  0.433966  1
  Tm  Tm14  1  0.175181  0.957523  0.933966  1
  Tm  Tm15  1  0.324819  0.542477  0.433966  1
  Tm  Tm16  1  0.824819  0.042477  0.066034  1
  Tm  Tm17  1  0.675181  0.457523  0.566034  1
  Tm  Tm18  1  0.824819  0.457523  0.066034  1
  Tm  Tm19  1  0.175181  0.542477  0.933966  1
  Bi  Bi20  1  0.567795  0.491307  0.826103  1
  Bi  Bi21  1  0.432205  0.508693  0.173897  1
  Bi  Bi22  1  0.067795  0.508693  0.673897  1
  Bi  Bi23  1  0.432205  0.991307  0.173897  1
  Bi  Bi24  1  0.932205  0.491307  0.326103  1
  Bi  Bi25  1  0.567795  0.008693  0.826103  1
  Bi  Bi26  1  0.932205  0.008693  0.326103  1
  Bi  Bi27  1  0.067795  0.991307  0.673897  1
  Rh  Rh28  1  0.571337  0.750000  0.508488  1
  Rh  Rh29  1  0.428663  0.250000  0.491512  1
  Rh  Rh30  1  0.071337  0.250000  0.991512  1
  Rh  Rh31  1  0.928663  0.750000  0.008488  1
