# generated using pymatgen
data_Nb2Tc4SnW
_symmetry_space_group_name_H-M   'P 1'
_cell_length_a   4.50194401
_cell_length_b   6.40352000
_cell_length_c   13.57521501
_cell_angle_alpha   90.00019971
_cell_angle_beta   89.99950720
_cell_angle_gamma   90.00046173
_symmetry_Int_Tables_number   1
_chemical_formula_structural   Nb2Tc4SnW
_chemical_formula_sum   'Nb6 Tc12 Sn3 W3'
_cell_volume   391.35021465
_cell_formula_units_Z   3
loop_
 _symmetry_equiv_pos_site_id
 _symmetry_equiv_pos_as_xyz
  1  'x, y, z'
loop_
 _atom_site_type_symbol
 _atom_site_label
 _atom_site_symmetry_multiplicity
 _atom_site_fract_x
 _atom_site_fract_y
 _atom_site_fract_z
 _atom_site_occupancy
  Nb  Nb0  1  0.000002  0.000000  0.999623  1
  Nb  Nb1  1  0.499991  0.500004  0.166661  1
  Nb  Nb2  1  0.999989  0.000000  0.333717  1
  Nb  Nb3  1  0.499996  0.500001  0.501837  1
  Nb  Nb4  1  0.000012  0.000001  0.666672  1
  Nb  Nb5  1  0.500012  0.500003  0.831505  1
  Tc  Tc6  1  0.499998  0.253206  0.006147  1
  Tc  Tc7  1  0.500001  0.746792  0.006147  1
  Tc  Tc8  1  0.000002  0.250800  0.166672  1
  Tc  Tc9  1  0.999981  0.749196  0.166672  1
  Tc  Tc10  1  0.499987  0.253203  0.327200  1
  Tc  Tc11  1  0.499991  0.746797  0.327201  1
  Tc  Tc12  1  0.999992  0.256026  0.491347  1
  Tc  Tc13  1  0.000001  0.743971  0.491346  1
  Tc  Tc14  1  0.500033  0.250266  0.666648  1
  Tc  Tc15  1  0.499992  0.749735  0.666649  1
  Tc  Tc16  1  0.000006  0.256037  0.842003  1
  Tc  Tc17  1  0.000014  0.743962  0.842002  1
  Sn  Sn18  1  0.499996  0.999998  0.499807  1
  Sn  Sn19  1  0.000011  0.500001  0.666664  1
  Sn  Sn20  1  0.500010  0.999998  0.833519  1
  W  W21  1  0.000003  0.499996  0.000007  1
  W  W22  1  0.499990  0.000002  0.166655  1
  W  W23  1  0.999987  0.499997  0.333300  1
