# generated using pymatgen
data_Na4OsO5
_symmetry_space_group_name_H-M   'P 1'
_cell_length_a   5.71020758
_cell_length_b   5.72310296
_cell_length_c   8.56679434
_cell_angle_alpha   109.14236814
_cell_angle_beta   101.58158307
_cell_angle_gamma   101.91654632
_symmetry_Int_Tables_number   1
_chemical_formula_structural   Na4OsO5
_chemical_formula_sum   'Na8 Os2 O10'
_cell_volume   247.62799625
_cell_formula_units_Z   2
loop_
 _symmetry_equiv_pos_site_id
 _symmetry_equiv_pos_as_xyz
  1  'x, y, z'
loop_
 _atom_site_type_symbol
 _atom_site_label
 _atom_site_symmetry_multiplicity
 _atom_site_fract_x
 _atom_site_fract_y
 _atom_site_fract_z
 _atom_site_occupancy
  Na  Na0  1  0.208962  0.415375  0.902523  1
  Na  Na1  1  0.413628  0.800501  0.295172  1
  Na  Na2  1  0.700883  0.397125  0.399744  1
  Na  Na3  1  0.299117  0.602875  0.600256  1
  Na  Na4  1  0.791038  0.584625  0.097477  1
  Na  Na5  1  0.000000  0.000000  0.500000  1
  Na  Na6  1  0.500000  0.000000  0.000000  1
  Na  Na7  1  0.586372  0.199499  0.704828  1
  Os  Os8  1  0.897557  0.801745  0.797787  1
  Os  Os9  1  0.102443  0.198255  0.202213  1
  O  O10  1  0.602856  0.628472  0.843509  1
  O  O11  1  0.397144  0.371528  0.156491  1
  O  O12  1  0.691467  0.819676  0.598271  1
  O  O13  1  0.308533  0.180324  0.401729  1
  O  O14  1  0.805403  0.020362  0.242433  1
  O  O15  1  0.194597  0.979638  0.757567  1
  O  O16  1  0.886666  0.152988  0.963384  1
  O  O17  1  0.113334  0.847012  0.036616  1
  O  O18  1  0.057314  0.524579  0.315520  1
  O  O19  1  0.942686  0.475421  0.684480  1
