# generated using pymatgen
data_Hf8Ta2Si6CN
_symmetry_space_group_name_H-M   'P 1'
_cell_length_a   7.78559000
_cell_length_b   7.78558937
_cell_length_c   5.49850400
_cell_angle_alpha   90.00000000
_cell_angle_beta   90.00000000
_cell_angle_gamma   120.00000266
_symmetry_Int_Tables_number   1
_chemical_formula_structural   Hf8Ta2Si6CN
_chemical_formula_sum   'Hf8 Ta2 Si6 C1 N1'
_cell_volume   288.64111219
_cell_formula_units_Z   1
loop_
 _symmetry_equiv_pos_site_id
 _symmetry_equiv_pos_as_xyz
  1  'x, y, z'
loop_
 _atom_site_type_symbol
 _atom_site_label
 _atom_site_symmetry_multiplicity
 _atom_site_fract_x
 _atom_site_fract_y
 _atom_site_fract_z
 _atom_site_occupancy
  Hf  Hf0  1  0.235433  0.000000  0.749119  1
  Hf  Hf1  1  0.764567  0.000000  0.250881  1
  Hf  Hf2  1  0.000000  0.235433  0.749119  1
  Hf  Hf3  1  0.000000  0.764567  0.250881  1
  Hf  Hf4  1  0.764567  0.764567  0.749119  1
  Hf  Hf5  1  0.235433  0.235433  0.250881  1
  Hf  Hf6  1  0.333333  0.666667  0.500000  1
  Hf  Hf7  1  0.666667  0.333333  0.500000  1
  Ta  Ta8  1  0.666667  0.333333  0.000000  1
  Ta  Ta9  1  0.333333  0.666667  0.000000  1
  Si  Si10  1  0.593087  0.000000  0.761174  1
  Si  Si11  1  0.406913  0.000000  0.238826  1
  Si  Si12  1  0.000000  0.593087  0.761174  1
  Si  Si13  1  0.000000  0.406913  0.238826  1
  Si  Si14  1  0.406913  0.406913  0.761174  1
  Si  Si15  1  0.593087  0.593087  0.238826  1
  C  C16  1  0.000000  0.000000  0.000000  1
  N  N17  1  0.000000  0.000000  0.500000  1
