# generated using pymatgen
data_Dy9HoOs4
_symmetry_space_group_name_H-M   'P 1'
_cell_length_a   6.38613990
_cell_length_b   7.34784993
_cell_length_c   8.43328698
_cell_angle_alpha   96.84606987
_cell_angle_beta   112.24866882
_cell_angle_gamma   89.99999647
_symmetry_Int_Tables_number   1
_chemical_formula_structural   Dy9HoOs4
_chemical_formula_sum   'Dy9 Ho1 Os4'
_cell_volume   363.21443000
_cell_formula_units_Z   1
loop_
 _symmetry_equiv_pos_site_id
 _symmetry_equiv_pos_as_xyz
  1  'x, y, z'
loop_
 _atom_site_type_symbol
 _atom_site_label
 _atom_site_symmetry_multiplicity
 _atom_site_fract_x
 _atom_site_fract_y
 _atom_site_fract_z
 _atom_site_occupancy
  Dy  Dy0  1  0.976012  0.916909  0.182647  1
  Dy  Dy1  1  0.793366  0.583091  0.817353  1
  Dy  Dy2  1  0.023695  0.083543  0.817245  1
  Dy  Dy3  1  0.206449  0.416457  0.182755  1
  Dy  Dy4  1  0.642409  0.816474  0.435416  1
  Dy  Dy5  1  0.206992  0.683526  0.564584  1
  Dy  Dy6  1  0.358099  0.183594  0.564842  1
  Dy  Dy7  1  0.793256  0.316406  0.435158  1
  Dy  Dy8  1  0.422339  0.750000  0.000000  1
  Ho  Ho9  1  0.576821  0.250000  0.000000  1
  Os  Os10  1  0.823674  0.576589  0.218226  1
  Os  Os11  1  0.605450  0.923411  0.781774  1
  Os  Os12  1  0.176432  0.422901  0.781425  1
  Os  Os13  1  0.395006  0.077099  0.218575  1
