# generated using pymatgen
data_TmLu5Zn23Ge
_symmetry_space_group_name_H-M   'P 1'
_cell_length_a   8.98664501
_cell_length_b   8.98664445
_cell_length_c   8.98670000
_cell_angle_alpha   59.99979551
_cell_angle_beta   59.99979759
_cell_angle_gamma   60.00039913
_symmetry_Int_Tables_number   1
_chemical_formula_structural   TmLu5Zn23Ge
_chemical_formula_sum   'Tm1 Lu5 Zn23 Ge1'
_cell_volume   513.19257774
_cell_formula_units_Z   1
loop_
 _symmetry_equiv_pos_site_id
 _symmetry_equiv_pos_as_xyz
  1  'x, y, z'
loop_
 _atom_site_type_symbol
 _atom_site_label
 _atom_site_symmetry_multiplicity
 _atom_site_fract_x
 _atom_site_fract_y
 _atom_site_fract_z
 _atom_site_occupancy
  Tm  Tm0  1  0.283667  0.283667  0.716333  1
  Lu  Lu1  1  0.716204  0.283862  0.283796  1
  Lu  Lu2  1  0.716204  0.283862  0.716138  1
  Lu  Lu3  1  0.716210  0.716210  0.283790  1
  Lu  Lu4  1  0.283862  0.716204  0.716138  1
  Lu  Lu5  1  0.283862  0.716204  0.283796  1
  Zn  Zn6  1  0.623119  0.125611  0.125635  1
  Zn  Zn7  1  0.125611  0.623119  0.125635  1
  Zn  Zn8  1  0.125555  0.125555  0.623049  1
  Zn  Zn9  1  0.125555  0.125555  0.125842  1
  Zn  Zn10  1  0.376951  0.874158  0.874445  1
  Zn  Zn11  1  0.874158  0.376951  0.874445  1
  Zn  Zn12  1  0.874365  0.874365  0.376881  1
  Zn  Zn13  1  0.874365  0.874365  0.874389  1
  Zn  Zn14  1  0.500051  0.999965  0.000035  1
  Zn  Zn15  1  0.500051  0.999965  0.499949  1
  Zn  Zn16  1  0.500024  0.500024  0.999976  1
  Zn  Zn17  1  0.999965  0.500051  0.499949  1
  Zn  Zn18  1  0.999965  0.500051  0.000035  1
  Zn  Zn19  1  0.000024  0.000024  0.499976  1
  Zn  Zn20  1  0.999995  0.999995  0.000005  1
  Zn  Zn21  1  0.005507  0.331495  0.331498  1
  Zn  Zn22  1  0.331495  0.005507  0.331498  1
  Zn  Zn23  1  0.331490  0.331490  0.005640  1
  Zn  Zn24  1  0.331490  0.331490  0.331379  1
  Zn  Zn25  1  0.994360  0.668621  0.668510  1
  Zn  Zn26  1  0.668621  0.994360  0.668510  1
  Zn  Zn27  1  0.668502  0.668502  0.994493  1
  Zn  Zn28  1  0.668502  0.668502  0.668505  1
  Ge  Ge29  1  0.500272  0.500272  0.499728  1
