# generated using pymatgen
data_BaLa2TlOs6O19
_symmetry_space_group_name_H-M   'P 1'
_cell_length_a   8.14996091
_cell_length_b   8.00009819
_cell_length_c   7.95673379
_cell_angle_alpha   108.32594509
_cell_angle_beta   109.55306814
_cell_angle_gamma   109.64303911
_symmetry_Int_Tables_number   1
_chemical_formula_structural   BaLa2TlOs6O19
_chemical_formula_sum   'Ba1 La2 Tl1 Os6 O19'
_cell_volume   403.64394052
_cell_formula_units_Z   1
loop_
 _symmetry_equiv_pos_site_id
 _symmetry_equiv_pos_as_xyz
  1  'x, y, z'
loop_
 _atom_site_type_symbol
 _atom_site_label
 _atom_site_symmetry_multiplicity
 _atom_site_fract_x
 _atom_site_fract_y
 _atom_site_fract_z
 _atom_site_occupancy
  Ba  Ba0  1  0.004738  0.001606  0.327740  1
  La  La1  1  0.705870  0.695311  0.699592  1
  La  La2  1  0.297285  0.999613  0.992410  1
  Tl  Tl3  1  0.992355  0.317679  0.992890  1
  Os  Os4  1  0.365529  0.502740  0.862261  1
  Os  Os5  1  0.866188  0.364179  0.505560  1
  Os  Os6  1  0.501158  0.138554  0.639693  1
  Os  Os7  1  0.133759  0.636030  0.495110  1
  Os  Os8  1  0.498582  0.864341  0.363306  1
  Os  Os9  1  0.634537  0.496156  0.136704  1
  O  O10  1  0.346391  0.015488  0.332703  1
  O  O11  1  0.336750  0.332432  0.003004  1
  O  O12  1  0.003781  0.668409  0.669497  1
  O  O13  1  0.664410  0.665265  0.992652  1
  O  O14  1  0.999034  0.336020  0.335174  1
  O  O15  1  0.650044  0.983656  0.667328  1
  O  O16  1  0.000670  0.952952  0.965982  1
  O  O17  1  0.372232  0.304709  0.646963  1
  O  O18  1  0.074473  0.353356  0.705651  1
  O  O19  1  0.723459  0.363097  0.661660  1
  O  O20  1  0.362059  0.652805  0.708299  1
  O  O21  1  0.272932  0.937719  0.638591  1
  O  O22  1  0.636669  0.354808  0.298723  1
  O  O23  1  0.286733  0.653100  0.354630  1
  O  O24  1  0.710854  0.069884  0.361747  1
  O  O25  1  0.924555  0.632002  0.281495  1
  O  O26  1  0.647736  0.712355  0.363826  1
  O  O27  1  0.626365  0.273477  0.934355  1
  O  O28  1  0.360852  0.722256  0.062452  1
