# generated using pymatgen
data_Sc6FeCo
_symmetry_space_group_name_H-M   'P 1'
_cell_length_a   5.82406300
_cell_length_b   8.48342000
_cell_length_c   13.14757800
_cell_angle_alpha   90.00000000
_cell_angle_beta   90.00000000
_cell_angle_gamma   90.00000000
_symmetry_Int_Tables_number   1
_chemical_formula_structural   Sc6FeCo
_chemical_formula_sum   'Sc24 Fe4 Co4'
_cell_volume   649.59517273
_cell_formula_units_Z   4
loop_
 _symmetry_equiv_pos_site_id
 _symmetry_equiv_pos_as_xyz
  1  'x, y, z'
loop_
 _atom_site_type_symbol
 _atom_site_label
 _atom_site_symmetry_multiplicity
 _atom_site_fract_x
 _atom_site_fract_y
 _atom_site_fract_z
 _atom_site_occupancy
  Sc  Sc0  1  0.548025  0.750000  0.353119  1
  Sc  Sc1  1  0.048025  0.250000  0.146881  1
  Sc  Sc2  1  0.451975  0.250000  0.646881  1
  Sc  Sc3  1  0.951975  0.750000  0.853119  1
  Sc  Sc4  1  0.783982  0.750000  0.108768  1
  Sc  Sc5  1  0.283982  0.250000  0.391232  1
  Sc  Sc6  1  0.216018  0.250000  0.891232  1
  Sc  Sc7  1  0.716018  0.750000  0.608768  1
  Sc  Sc8  1  0.408509  0.932200  0.787887  1
  Sc  Sc9  1  0.908509  0.067800  0.712113  1
  Sc  Sc10  1  0.591491  0.432200  0.212113  1
  Sc  Sc11  1  0.091491  0.567800  0.287887  1
  Sc  Sc12  1  0.591491  0.067800  0.212113  1
  Sc  Sc13  1  0.091491  0.932200  0.287887  1
  Sc  Sc14  1  0.408509  0.567800  0.787887  1
  Sc  Sc15  1  0.908509  0.432200  0.712113  1
  Sc  Sc16  1  0.243647  0.937588  0.535441  1
  Sc  Sc17  1  0.743647  0.062412  0.964559  1
  Sc  Sc18  1  0.756353  0.437588  0.464559  1
  Sc  Sc19  1  0.256353  0.562412  0.035441  1
  Sc  Sc20  1  0.756353  0.062412  0.464559  1
  Sc  Sc21  1  0.256353  0.937588  0.035441  1
  Sc  Sc22  1  0.243647  0.562412  0.535441  1
  Sc  Sc23  1  0.743647  0.437588  0.964559  1
  Fe  Fe24  1  0.940651  0.750000  0.440695  1
  Fe  Fe25  1  0.440651  0.250000  0.059305  1
  Fe  Fe26  1  0.059349  0.250000  0.559305  1
  Fe  Fe27  1  0.559349  0.750000  0.940695  1
  Co  Co28  1  0.373513  0.750000  0.180427  1
  Co  Co29  1  0.873513  0.250000  0.319573  1
  Co  Co30  1  0.626487  0.250000  0.819573  1
  Co  Co31  1  0.126487  0.750000  0.680427  1
