# generated using pymatgen
data_LiYb2OsN4
_symmetry_space_group_name_H-M   'P 1'
_cell_length_a   5.67267400
_cell_length_b   5.84935480
_cell_length_c   6.50901991
_cell_angle_alpha   73.52216473
_cell_angle_beta   90.00000000
_cell_angle_gamma   90.00000000
_symmetry_Int_Tables_number   1
_chemical_formula_structural   LiYb2OsN4
_chemical_formula_sum   'Li2 Yb4 Os2 N8'
_cell_volume   207.10857721
_cell_formula_units_Z   2
loop_
 _symmetry_equiv_pos_site_id
 _symmetry_equiv_pos_as_xyz
  1  'x, y, z'
loop_
 _atom_site_type_symbol
 _atom_site_label
 _atom_site_symmetry_multiplicity
 _atom_site_fract_x
 _atom_site_fract_y
 _atom_site_fract_z
 _atom_site_occupancy
  Li  Li0  1  0.750000  0.285043  0.310394  1
  Li  Li1  1  0.250000  0.714957  0.689606  1
  Yb  Yb2  1  0.250000  0.283792  0.055004  1
  Yb  Yb3  1  0.750000  0.716208  0.944996  1
  Yb  Yb4  1  0.750000  0.755577  0.433803  1
  Yb  Yb5  1  0.250000  0.244423  0.566197  1
  Os  Os6  1  0.250000  0.745595  0.191309  1
  Os  Os7  1  0.750000  0.254405  0.808691  1
  N  N8  1  0.502405  0.469493  0.754407  1
  N  N9  1  0.002405  0.530507  0.245593  1
  N  N10  1  0.497595  0.530507  0.245593  1
  N  N11  1  0.997595  0.469493  0.754407  1
  N  N12  1  0.750000  0.073113  0.621813  1
  N  N13  1  0.250000  0.926887  0.378187  1
  N  N14  1  0.750000  0.080340  0.088038  1
  N  N15  1  0.250000  0.919660  0.911962  1
