# generated using pymatgen
data_Hf8Co11Si16Ni
_symmetry_space_group_name_H-M   'P 1'
_cell_length_a   5.18709948
_cell_length_b   6.75476491
_cell_length_c   13.70012156
_cell_angle_alpha   89.88576255
_cell_angle_beta   89.92705533
_cell_angle_gamma   89.95357327
_symmetry_Int_Tables_number   1
_chemical_formula_structural   Hf8Co11Si16Ni
_chemical_formula_sum   'Hf8 Co11 Si16 Ni1'
_cell_volume   480.01839412
_cell_formula_units_Z   1
loop_
 _symmetry_equiv_pos_site_id
 _symmetry_equiv_pos_as_xyz
  1  'x, y, z'
loop_
 _atom_site_type_symbol
 _atom_site_label
 _atom_site_symmetry_multiplicity
 _atom_site_fract_x
 _atom_site_fract_y
 _atom_site_fract_z
 _atom_site_occupancy
  Hf  Hf0  1  0.231239  0.400729  0.146797  1
  Hf  Hf1  1  0.729860  0.102298  0.146686  1
  Hf  Hf2  1  0.270870  0.100607  0.645997  1
  Hf  Hf3  1  0.770350  0.398085  0.646414  1
  Hf  Hf4  1  0.229840  0.601333  0.353471  1
  Hf  Hf5  1  0.731054  0.898913  0.353693  1
  Hf  Hf6  1  0.268928  0.895724  0.852370  1
  Hf  Hf7  1  0.768959  0.600598  0.852878  1
  Co  Co8  1  0.505568  0.224026  0.480809  1
  Co  Co9  1  0.776392  0.000434  0.749478  1
  Co  Co10  1  0.492902  0.225274  0.981607  1
  Co  Co11  1  0.723251  0.500559  0.249925  1
  Co  Co12  1  0.495248  0.775989  0.518982  1
  Co  Co13  1  0.005741  0.277195  0.481216  1
  Co  Co14  1  0.004538  0.731049  0.019257  1
  Co  Co15  1  0.224191  0.999768  0.251042  1
  Co  Co16  1  0.277290  0.498688  0.750250  1
  Co  Co17  1  0.504647  0.774544  0.019255  1
  Co  Co18  1  0.994973  0.722824  0.518794  1
  Si  Si19  1  0.220976  0.019516  0.070584  1
  Si  Si20  1  0.715758  0.520663  0.432129  1
  Si  Si21  1  0.784226  0.020468  0.567646  1
  Si  Si22  1  0.480434  0.754953  0.187323  1
  Si  Si23  1  0.021025  0.252655  0.811426  1
  Si  Si24  1  0.519480  0.244772  0.813332  1
  Si  Si25  1  0.216779  0.979362  0.432449  1
  Si  Si26  1  0.282715  0.522866  0.933206  1
  Si  Si27  1  0.979652  0.747041  0.187150  1
  Si  Si28  1  0.717842  0.482511  0.068378  1
  Si  Si29  1  0.284994  0.479352  0.567966  1
  Si  Si30  1  0.480466  0.246268  0.312902  1
  Si  Si31  1  0.020210  0.745367  0.686976  1
  Si  Si32  1  0.776792  0.976587  0.930110  1
  Si  Si33  1  0.520547  0.753395  0.686896  1
  Si  Si34  1  0.980071  0.254321  0.313076  1
  Ni  Ni35  1  0.992190  0.271268  0.979531  1
