# generated using pymatgen
data_Sm2HgRhAu
_symmetry_space_group_name_H-M   'P 1'
_cell_length_a   7.82852609
_cell_length_b   7.82852515
_cell_length_c   3.85680900
_cell_angle_alpha   90.00000000
_cell_angle_beta   90.00000000
_cell_angle_gamma   89.57342108
_symmetry_Int_Tables_number   1
_chemical_formula_structural   Sm2HgRhAu
_chemical_formula_sum   'Sm4 Hg2 Rh2 Au2'
_cell_volume   236.36112539
_cell_formula_units_Z   2
loop_
 _symmetry_equiv_pos_site_id
 _symmetry_equiv_pos_as_xyz
  1  'x, y, z'
loop_
 _atom_site_type_symbol
 _atom_site_label
 _atom_site_symmetry_multiplicity
 _atom_site_fract_x
 _atom_site_fract_y
 _atom_site_fract_z
 _atom_site_occupancy
  Sm  Sm0  1  0.660274  0.160274  0.500000  1
  Sm  Sm1  1  0.339726  0.839726  0.500000  1
  Sm  Sm2  1  0.185816  0.314184  0.500000  1
  Sm  Sm3  1  0.814184  0.685816  0.500000  1
  Hg  Hg4  1  0.000000  0.000000  0.000000  1
  Hg  Hg5  1  0.500000  0.500000  0.000000  1
  Rh  Rh6  1  0.631143  0.868857  0.000000  1
  Rh  Rh7  1  0.368857  0.131143  0.000000  1
  Au  Au8  1  0.128553  0.628553  0.000000  1
  Au  Au9  1  0.871447  0.371447  0.000000  1
