# generated using pymatgen
data_Tm4CoOs5Ru2
_symmetry_space_group_name_H-M   'P 1'
_cell_length_a   5.23308279
_cell_length_b   5.19057998
_cell_length_c   8.82874500
_cell_angle_alpha   90.00000000
_cell_angle_beta   90.00000000
_cell_angle_gamma   119.73491708
_symmetry_Int_Tables_number   1
_chemical_formula_structural   Tm4CoOs5Ru2
_chemical_formula_sum   'Tm4 Co1 Os5 Ru2'
_cell_volume   208.23655874
_cell_formula_units_Z   1
loop_
 _symmetry_equiv_pos_site_id
 _symmetry_equiv_pos_as_xyz
  1  'x, y, z'
loop_
 _atom_site_type_symbol
 _atom_site_label
 _atom_site_symmetry_multiplicity
 _atom_site_fract_x
 _atom_site_fract_y
 _atom_site_fract_z
 _atom_site_occupancy
  Tm  Tm0  1  0.665498  0.332786  0.564104  1
  Tm  Tm1  1  0.332127  0.666085  0.431848  1
  Tm  Tm2  1  0.332127  0.666085  0.068152  1
  Tm  Tm3  1  0.665498  0.332786  0.935896  1
  Co  Co4  1  0.342244  0.171123  0.250000  1
  Os  Os5  1  0.171623  0.342123  0.750000  1
  Os  Os6  1  0.171657  0.829484  0.750000  1
  Os  Os7  1  0.661061  0.830545  0.750000  1
  Os  Os8  1  0.832343  0.657568  0.250000  1
  Os  Os9  1  0.832368  0.174699  0.250000  1
  Ru  Ru10  1  0.996727  0.998356  0.497022  1
  Ru  Ru11  1  0.996727  0.998356  0.002978  1
