# generated using pymatgen
data_HoSc(Ni2P)4
_symmetry_space_group_name_H-M   'P 1'
_cell_length_a   7.01006050
_cell_length_b   7.01006050
_cell_length_c   3.58910600
_cell_angle_alpha   90.00000000
_cell_angle_beta   90.00000000
_cell_angle_gamma   90.18864134
_symmetry_Int_Tables_number   1
_chemical_formula_structural   HoSc(Ni2P)4
_chemical_formula_sum   'Ho1 Sc1 Ni8 P4'
_cell_volume   176.37111608
_cell_formula_units_Z   1
loop_
 _symmetry_equiv_pos_site_id
 _symmetry_equiv_pos_as_xyz
  1  'x, y, z'
loop_
 _atom_site_type_symbol
 _atom_site_label
 _atom_site_symmetry_multiplicity
 _atom_site_fract_x
 _atom_site_fract_y
 _atom_site_fract_z
 _atom_site_occupancy
  Ho  Ho0  1  0.000000  0.000000  0.500000  1
  Sc  Sc1  1  0.500000  0.500000  0.000000  1
  Ni  Ni2  1  0.583300  0.166070  0.500000  1
  Ni  Ni3  1  0.416700  0.833930  0.500000  1
  Ni  Ni4  1  0.085306  0.336346  0.000000  1
  Ni  Ni5  1  0.914694  0.663654  0.000000  1
  Ni  Ni6  1  0.166070  0.583300  0.500000  1
  Ni  Ni7  1  0.833930  0.416700  0.500000  1
  Ni  Ni8  1  0.336346  0.085306  0.000000  1
  Ni  Ni9  1  0.663654  0.914694  0.000000  1
  P  P10  1  0.715134  0.715134  0.500000  1
  P  P11  1  0.284866  0.284866  0.500000  1
  P  P12  1  0.226210  0.773790  0.000000  1
  P  P13  1  0.773790  0.226210  0.000000  1
