# generated using pymatgen
data_Pr8ErTm11Si16
_symmetry_space_group_name_H-M   'P 1'
_cell_length_a   7.45900806
_cell_length_b   7.75370904
_cell_length_c   14.70836107
_cell_angle_alpha   89.99448921
_cell_angle_beta   90.00978211
_cell_angle_gamma   90.01017668
_symmetry_Int_Tables_number   1
_chemical_formula_structural   Pr8ErTm11Si16
_chemical_formula_sum   'Pr8 Er1 Tm11 Si16'
_cell_volume   850.65771204
_cell_formula_units_Z   1
loop_
 _symmetry_equiv_pos_site_id
 _symmetry_equiv_pos_as_xyz
  1  'x, y, z'
loop_
 _atom_site_type_symbol
 _atom_site_label
 _atom_site_symmetry_multiplicity
 _atom_site_fract_x
 _atom_site_fract_y
 _atom_site_fract_z
 _atom_site_occupancy
  Pr  Pr0  1  0.019504  0.177055  0.402253  1
  Pr  Pr1  1  0.519558  0.322957  0.402240  1
  Pr  Pr2  1  0.480469  0.677041  0.902298  1
  Pr  Pr3  1  0.480479  0.677085  0.597705  1
  Pr  Pr4  1  0.980421  0.822941  0.597702  1
  Pr  Pr5  1  0.980446  0.822949  0.902295  1
  Pr  Pr6  1  0.519525  0.322960  0.097718  1
  Pr  Pr7  1  0.019534  0.177039  0.097716  1
  Er  Er8  1  0.323635  0.177882  0.623578  1
  Tm  Tm9  1  0.676447  0.821950  0.376439  1
  Tm  Tm10  1  0.655073  0.990476  0.750024  1
  Tm  Tm11  1  0.176447  0.678060  0.376454  1
  Tm  Tm12  1  0.823552  0.321969  0.876469  1
  Tm  Tm13  1  0.823563  0.322012  0.623536  1
  Tm  Tm14  1  0.844977  0.490505  0.249999  1
  Tm  Tm15  1  0.344992  0.009512  0.249997  1
  Tm  Tm16  1  0.323562  0.178046  0.876502  1
  Tm  Tm17  1  0.176439  0.678041  0.123537  1
  Tm  Tm18  1  0.676437  0.821966  0.123543  1
  Tm  Tm19  1  0.154980  0.509595  0.750033  1
  Si  Si20  1  0.275515  0.879876  0.750063  1
  Si  Si21  1  0.470900  0.615847  0.249990  1
  Si  Si22  1  0.028914  0.115802  0.750081  1
  Si  Si23  1  0.529266  0.384307  0.750075  1
  Si  Si24  1  0.147232  0.467990  0.539625  1
  Si  Si25  1  0.970891  0.884168  0.249995  1
  Si  Si26  1  0.724431  0.119998  0.249996  1
  Si  Si27  1  0.852605  0.532169  0.039693  1
  Si  Si28  1  0.352595  0.967835  0.039682  1
  Si  Si29  1  0.147406  0.467844  0.960309  1
  Si  Si30  1  0.647565  0.032069  0.539629  1
  Si  Si31  1  0.352659  0.967699  0.460207  1
  Si  Si32  1  0.852614  0.532188  0.460306  1
  Si  Si33  1  0.775535  0.619973  0.750003  1
  Si  Si34  1  0.224443  0.380021  0.249994  1
  Si  Si35  1  0.647390  0.032171  0.960313  1
