# generated using pymatgen
data_Ca5Si8Ni17
_symmetry_space_group_name_H-M   'P 1'
_cell_length_a   13.12516492
_cell_length_b   13.12516474
_cell_length_c   3.94579100
_cell_angle_alpha   90.00000000
_cell_angle_beta   90.00000000
_cell_angle_gamma   140.80629001
_symmetry_Int_Tables_number   1
_chemical_formula_structural   Ca5Si8Ni17
_chemical_formula_sum   'Ca5 Si8 Ni17'
_cell_volume   429.55854133
_cell_formula_units_Z   1
loop_
 _symmetry_equiv_pos_site_id
 _symmetry_equiv_pos_as_xyz
  1  'x, y, z'
loop_
 _atom_site_type_symbol
 _atom_site_label
 _atom_site_symmetry_multiplicity
 _atom_site_fract_x
 _atom_site_fract_y
 _atom_site_fract_z
 _atom_site_occupancy
  Ca  Ca0  1  0.822298  0.609202  0.000000  1
  Ca  Ca1  1  0.609202  0.822298  0.000000  1
  Ca  Ca2  1  0.174524  0.787042  0.500000  1
  Ca  Ca3  1  0.787042  0.174524  0.500000  1
  Ca  Ca4  1  0.223285  0.223285  0.500000  1
  Si  Si5  1  0.158294  0.990677  0.000000  1
  Si  Si6  1  0.990677  0.158294  0.000000  1
  Si  Si7  1  0.472542  0.955627  0.000000  1
  Si  Si8  1  0.955627  0.472542  0.000000  1
  Si  Si9  1  0.587119  0.310807  0.500000  1
  Si  Si10  1  0.310807  0.587119  0.500000  1
  Si  Si11  1  0.493568  0.493568  0.000000  1
  Si  Si12  1  0.760106  0.760106  0.500000  1
  Ni  Ni13  1  0.375537  0.044276  0.000000  1
  Ni  Ni14  1  0.044276  0.375537  0.000000  1
  Ni  Ni15  1  0.670548  0.276387  0.000000  1
  Ni  Ni16  1  0.276387  0.670548  0.000000  1
  Ni  Ni17  1  0.453241  0.285959  0.000000  1
  Ni  Ni18  1  0.285959  0.453241  0.000000  1
  Ni  Ni19  1  0.011522  0.884635  0.500000  1
  Ni  Ni20  1  0.884635  0.011522  0.500000  1
  Ni  Ni21  1  0.309505  0.088692  0.500000  1
  Ni  Ni22  1  0.088692  0.309505  0.500000  1
  Ni  Ni23  1  0.514091  0.084516  0.500000  1
  Ni  Ni24  1  0.084516  0.514091  0.500000  1
  Ni  Ni25  1  0.843712  0.443684  0.500000  1
  Ni  Ni26  1  0.443684  0.843712  0.500000  1
  Ni  Ni27  1  0.578428  0.479685  0.500000  1
  Ni  Ni28  1  0.479685  0.578428  0.500000  1
  Ni  Ni29  1  0.926734  0.926734  0.000000  1
