# generated using pymatgen
data_Ac4Si7Pd
_symmetry_space_group_name_H-M   'P 1'
_cell_length_a   8.42207200
_cell_length_b   8.42207174
_cell_length_c   9.18340100
_cell_angle_alpha   90.00000000
_cell_angle_beta   90.00000000
_cell_angle_gamma   120.00000104
_symmetry_Int_Tables_number   1
_chemical_formula_structural   Ac4Si7Pd
_chemical_formula_sum   'Ac8 Si14 Pd2'
_cell_volume   564.12073336
_cell_formula_units_Z   2
loop_
 _symmetry_equiv_pos_site_id
 _symmetry_equiv_pos_as_xyz
  1  'x, y, z'
loop_
 _atom_site_type_symbol
 _atom_site_label
 _atom_site_symmetry_multiplicity
 _atom_site_fract_x
 _atom_site_fract_y
 _atom_site_fract_z
 _atom_site_occupancy
  Ac  Ac0  1  0.500573  0.001146  0.248098  1
  Ac  Ac1  1  0.499427  0.998854  0.751902  1
  Ac  Ac2  1  0.998854  0.499427  0.248098  1
  Ac  Ac3  1  0.001146  0.500573  0.751902  1
  Ac  Ac4  1  0.500573  0.499427  0.248098  1
  Ac  Ac5  1  0.499427  0.500573  0.751902  1
  Ac  Ac6  1  0.000000  0.000000  0.250826  1
  Ac  Ac7  1  0.000000  0.000000  0.749174  1
  Si  Si8  1  0.166430  0.332858  0.000040  1
  Si  Si9  1  0.833570  0.667142  0.999960  1
  Si  Si10  1  0.667142  0.833570  0.000040  1
  Si  Si11  1  0.835066  0.670134  0.501183  1
  Si  Si12  1  0.332858  0.166430  0.999960  1
  Si  Si13  1  0.164934  0.329866  0.498817  1
  Si  Si14  1  0.166430  0.833570  0.000040  1
  Si  Si15  1  0.329866  0.164934  0.501183  1
  Si  Si16  1  0.833570  0.166430  0.999960  1
  Si  Si17  1  0.670134  0.835066  0.498817  1
  Si  Si18  1  0.835066  0.164934  0.501183  1
  Si  Si19  1  0.164934  0.835066  0.498817  1
  Si  Si20  1  0.333333  0.666667  0.002490  1
  Si  Si21  1  0.666667  0.333333  0.997510  1
  Pd  Pd22  1  0.666667  0.333333  0.501497  1
  Pd  Pd23  1  0.333333  0.666667  0.498503  1
