# generated using pymatgen
data_Tb3Ho(Ni7P4)2
_symmetry_space_group_name_H-M   'P 1'
_cell_length_a   3.70782800
_cell_length_b   9.16750701
_cell_length_c   10.28045401
_cell_angle_alpha   89.99618638
_cell_angle_beta   90.00000000
_cell_angle_gamma   90.00000000
_symmetry_Int_Tables_number   1
_chemical_formula_structural   Tb3Ho(Ni7P4)2
_chemical_formula_sum   'Tb3 Ho1 Ni14 P8'
_cell_volume   349.44845418
_cell_formula_units_Z   1
loop_
 _symmetry_equiv_pos_site_id
 _symmetry_equiv_pos_as_xyz
  1  'x, y, z'
loop_
 _atom_site_type_symbol
 _atom_site_label
 _atom_site_symmetry_multiplicity
 _atom_site_fract_x
 _atom_site_fract_y
 _atom_site_fract_z
 _atom_site_occupancy
  Tb  Tb0  1  0.500000  0.942029  0.895795  1
  Tb  Tb1  1  0.000000  0.435849  0.178126  1
  Tb  Tb2  1  0.500000  0.563789  0.678028  1
  Ho  Ho3  1  0.000000  0.058049  0.395292  1
  Ni  Ni4  1  0.000000  0.056846  0.698750  1
  Ni  Ni5  1  0.500000  0.943460  0.199872  1
  Ni  Ni6  1  0.000000  0.725705  0.509666  1
  Ni  Ni7  1  0.500000  0.274265  0.009779  1
  Ni  Ni8  1  0.000000  0.097190  0.094073  1
  Ni  Ni9  1  0.500000  0.903368  0.593129  1
  Ni  Ni10  1  0.000000  0.745870  0.274140  1
  Ni  Ni11  1  0.500000  0.254254  0.773593  1
  Ni  Ni12  1  0.000000  0.306129  0.602709  1
  Ni  Ni13  1  0.500000  0.693901  0.103423  1
  Ni  Ni14  1  0.000000  0.685834  0.912330  1
  Ni  Ni15  1  0.500000  0.313275  0.411993  1
  Ni  Ni16  1  0.000000  0.417704  0.869930  1
  Ni  Ni17  1  0.500000  0.582412  0.369907  1
  P  P18  1  0.000000  0.180932  0.889404  1
  P  P19  1  0.500000  0.819771  0.389471  1
  P  P20  1  0.000000  0.845311  0.084693  1
  P  P21  1  0.500000  0.154276  0.583776  1
  P  P22  1  0.000000  0.809839  0.713844  1
  P  P23  1  0.500000  0.189754  0.214449  1
  P  P24  1  0.000000  0.479782  0.460839  1
  P  P25  1  0.500000  0.520408  0.961185  1
