# generated using pymatgen
data_Co4NiPdSe8
_symmetry_space_group_name_H-M   'P 1'
_cell_length_a   7.07708218
_cell_length_b   7.07708272
_cell_length_c   7.07708300
_cell_angle_alpha   60.00000338
_cell_angle_beta   60.00000082
_cell_angle_gamma   60.00000041
_symmetry_Int_Tables_number   1
_chemical_formula_structural   Co4NiPdSe8
_chemical_formula_sum   'Co4 Ni1 Pd1 Se8'
_cell_volume   250.63851970
_cell_formula_units_Z   1
loop_
 _symmetry_equiv_pos_site_id
 _symmetry_equiv_pos_as_xyz
  1  'x, y, z'
loop_
 _atom_site_type_symbol
 _atom_site_label
 _atom_site_symmetry_multiplicity
 _atom_site_fract_x
 _atom_site_fract_y
 _atom_site_fract_z
 _atom_site_occupancy
  Co  Co0  1  0.622421  0.125859  0.125859  1
  Co  Co1  1  0.125859  0.622421  0.125859  1
  Co  Co2  1  0.125859  0.125859  0.622421  1
  Co  Co3  1  0.125859  0.125859  0.125859  1
  Ni  Ni4  1  0.500000  0.500000  0.500000  1
  Pd  Pd5  1  0.750000  0.750000  0.750000  1
  Se  Se6  1  0.329165  0.890279  0.890279  1
  Se  Se7  1  0.890279  0.329165  0.890279  1
  Se  Se8  1  0.890279  0.890279  0.329165  1
  Se  Se9  1  0.890279  0.890279  0.890279  1
  Se  Se10  1  0.904299  0.365234  0.365234  1
  Se  Se11  1  0.365234  0.904299  0.365234  1
  Se  Se12  1  0.365234  0.365234  0.904299  1
  Se  Se13  1  0.365234  0.365234  0.365234  1
