# generated using pymatgen
data_Ba3Ni2RhN3
_symmetry_space_group_name_H-M   'P 1'
_cell_length_a   5.49990600
_cell_length_b   9.83738900
_cell_length_c   14.06230300
_cell_angle_alpha   90.00000000
_cell_angle_beta   90.00000000
_cell_angle_gamma   90.00000000
_symmetry_Int_Tables_number   1
_chemical_formula_structural   Ba3Ni2RhN3
_chemical_formula_sum   'Ba12 Ni8 Rh4 N12'
_cell_volume   760.83689304
_cell_formula_units_Z   4
loop_
 _symmetry_equiv_pos_site_id
 _symmetry_equiv_pos_as_xyz
  1  'x, y, z'
loop_
 _atom_site_type_symbol
 _atom_site_label
 _atom_site_symmetry_multiplicity
 _atom_site_fract_x
 _atom_site_fract_y
 _atom_site_fract_z
 _atom_site_occupancy
  Ba  Ba0  1  0.478925  0.504778  0.749003  1
  Ba  Ba1  1  0.978925  0.995222  0.250997  1
  Ba  Ba2  1  0.021075  0.004778  0.750997  1
  Ba  Ba3  1  0.521075  0.495222  0.249003  1
  Ba  Ba4  1  0.970967  0.325467  0.412122  1
  Ba  Ba5  1  0.470967  0.174533  0.587878  1
  Ba  Ba6  1  0.529033  0.825467  0.087878  1
  Ba  Ba7  1  0.029033  0.674533  0.912122  1
  Ba  Ba8  1  0.028169  0.673011  0.588890  1
  Ba  Ba9  1  0.528169  0.826989  0.411110  1
  Ba  Ba10  1  0.471831  0.173011  0.911110  1
  Ba  Ba11  1  0.971831  0.326989  0.088890  1
  Ni  Ni12  1  0.560404  0.856023  0.838529  1
  Ni  Ni13  1  0.060404  0.643977  0.161471  1
  Ni  Ni14  1  0.939596  0.356023  0.661471  1
  Ni  Ni15  1  0.439596  0.143977  0.338529  1
  Ni  Ni16  1  0.995996  0.999405  0.996934  1
  Ni  Ni17  1  0.495996  0.500595  0.003066  1
  Ni  Ni18  1  0.504004  0.499405  0.503066  1
  Ni  Ni19  1  0.004004  0.000595  0.496934  1
  Rh  Rh20  1  0.436640  0.143013  0.163733  1
  Rh  Rh21  1  0.936640  0.356987  0.836267  1
  Rh  Rh22  1  0.063360  0.643013  0.336267  1
  Rh  Rh23  1  0.563360  0.856987  0.663733  1
  N  N24  1  0.337071  0.776416  0.756575  1
  N  N25  1  0.837071  0.723584  0.243425  1
  N  N26  1  0.162929  0.276416  0.743425  1
  N  N27  1  0.662929  0.223584  0.256575  1
  N  N28  1  0.231520  0.073697  0.423832  1
  N  N29  1  0.731520  0.426303  0.576168  1
  N  N30  1  0.268480  0.573697  0.076168  1
  N  N31  1  0.768480  0.926303  0.923832  1
  N  N32  1  0.782586  0.931346  0.572333  1
  N  N33  1  0.282586  0.568654  0.427667  1
  N  N34  1  0.717414  0.431346  0.927667  1
  N  N35  1  0.217414  0.068654  0.072333  1
