# generated using pymatgen
data_LuPdI18
_symmetry_space_group_name_H-M   'P 1'
_cell_length_a   10.29477766
_cell_length_b   10.22342766
_cell_length_c   10.12235364
_cell_angle_alpha   89.76206371
_cell_angle_beta   88.42150822
_cell_angle_gamma   88.82897220
_symmetry_Int_Tables_number   1
_chemical_formula_structural   LuPdI18
_chemical_formula_sum   'Lu1 Pd1 I18'
_cell_volume   1064.72304906
_cell_formula_units_Z   1
loop_
 _symmetry_equiv_pos_site_id
 _symmetry_equiv_pos_as_xyz
  1  'x, y, z'
loop_
 _atom_site_type_symbol
 _atom_site_label
 _atom_site_symmetry_multiplicity
 _atom_site_fract_x
 _atom_site_fract_y
 _atom_site_fract_z
 _atom_site_occupancy
  Lu  Lu0  1  0.000000  0.000000  0.000000  1
  Pd  Pd1  1  0.500000  0.500000  0.500000  1
  I  I2  1  0.774742  0.468156  0.502791  1
  I  I3  1  0.502336  0.775787  0.468824  1
  I  I4  1  0.469360  0.502283  0.763976  1
  I  I5  1  0.225258  0.531844  0.497209  1
  I  I6  1  0.497664  0.224213  0.531176  1
  I  I7  1  0.530640  0.497717  0.236024  1
  I  I8  1  0.887846  0.378176  0.745290  1
  I  I9  1  0.744009  0.887743  0.381068  1
  I  I10  1  0.378624  0.749317  0.882357  1
  I  I11  1  0.112154  0.621824  0.254710  1
  I  I12  1  0.255991  0.112257  0.618932  1
  I  I13  1  0.621376  0.250683  0.117643  1
  I  I14  1  0.015820  0.971218  0.707119  1
  I  I15  1  0.709069  0.015330  0.968689  1
  I  I16  1  0.969490  0.709826  0.013511  1
  I  I17  1  0.984180  0.028782  0.292881  1
  I  I18  1  0.290931  0.984670  0.031311  1
  I  I19  1  0.030510  0.290174  0.986489  1
