# generated using pymatgen
data_Ti3ZnCu2O
_symmetry_space_group_name_H-M   'P 1'
_cell_length_a   8.00529849
_cell_length_b   8.00529750
_cell_length_c   8.00529800
_cell_angle_alpha   59.99999792
_cell_angle_beta   60.00000203
_cell_angle_gamma   60.00000202
_symmetry_Int_Tables_number   1
_chemical_formula_structural   Ti3ZnCu2O
_chemical_formula_sum   'Ti12 Zn4 Cu8 O4'
_cell_volume   362.75843365
_cell_formula_units_Z   4
loop_
 _symmetry_equiv_pos_site_id
 _symmetry_equiv_pos_as_xyz
  1  'x, y, z'
loop_
 _atom_site_type_symbol
 _atom_site_label
 _atom_site_symmetry_multiplicity
 _atom_site_fract_x
 _atom_site_fract_y
 _atom_site_fract_z
 _atom_site_occupancy
  Ti  Ti0  1  0.818413  0.181587  0.818413  1
  Ti  Ti1  1  0.181587  0.818413  0.181587  1
  Ti  Ti2  1  0.431587  0.068413  0.431587  1
  Ti  Ti3  1  0.431587  0.068413  0.068413  1
  Ti  Ti4  1  0.068413  0.431587  0.431587  1
  Ti  Ti5  1  0.068413  0.431587  0.068413  1
  Ti  Ti6  1  0.181587  0.181587  0.818413  1
  Ti  Ti7  1  0.431587  0.431587  0.068413  1
  Ti  Ti8  1  0.181587  0.818413  0.818413  1
  Ti  Ti9  1  0.818413  0.181587  0.181587  1
  Ti  Ti10  1  0.068413  0.068413  0.431587  1
  Ti  Ti11  1  0.818413  0.818413  0.181587  1
  Zn  Zn12  1  0.125000  0.625000  0.625000  1
  Zn  Zn13  1  0.625000  0.625000  0.125000  1
  Zn  Zn14  1  0.625000  0.625000  0.625000  1
  Zn  Zn15  1  0.625000  0.125000  0.625000  1
  Cu  Cu16  1  0.415382  0.753854  0.415382  1
  Cu  Cu17  1  0.834618  0.834618  0.496146  1
  Cu  Cu18  1  0.834618  0.834618  0.834618  1
  Cu  Cu19  1  0.496146  0.834618  0.834618  1
  Cu  Cu20  1  0.415382  0.415382  0.415382  1
  Cu  Cu21  1  0.415382  0.415382  0.753854  1
  Cu  Cu22  1  0.834618  0.496146  0.834618  1
  Cu  Cu23  1  0.753854  0.415382  0.415382  1
  O  O24  1  0.125000  0.125000  0.625000  1
  O  O25  1  0.625000  0.125000  0.125000  1
  O  O26  1  0.125000  0.125000  0.125000  1
  O  O27  1  0.125000  0.625000  0.125000  1
