# generated using pymatgen
data_K2Rb2NpS5
_symmetry_space_group_name_H-M   'P 1'
_cell_length_a   7.57317597
_cell_length_b   11.13933398
_cell_length_c   7.53038300
_cell_angle_alpha   101.27484211
_cell_angle_beta   102.56173620
_cell_angle_gamma   109.20707622
_symmetry_Int_Tables_number   1
_chemical_formula_structural   K2Rb2NpS5
_chemical_formula_sum   'K4 Rb4 Np2 S10'
_cell_volume   560.42484352
_cell_formula_units_Z   2
loop_
 _symmetry_equiv_pos_site_id
 _symmetry_equiv_pos_as_xyz
  1  'x, y, z'
loop_
 _atom_site_type_symbol
 _atom_site_label
 _atom_site_symmetry_multiplicity
 _atom_site_fract_x
 _atom_site_fract_y
 _atom_site_fract_z
 _atom_site_occupancy
  K  K0  1  0.997364  0.498704  0.000739  1
  K  K1  1  0.001952  0.001245  0.500893  1
  K  K2  1  0.398236  0.400628  0.702098  1
  K  K3  1  0.574311  0.095740  0.789624  1
  Rb  Rb4  1  0.436289  0.905563  0.220010  1
  Rb  Rb5  1  0.598764  0.597377  0.295103  1
  Rb  Rb6  1  0.804016  0.302440  0.429321  1
  Rb  Rb7  1  0.193216  0.698264  0.570089  1
  Np  Np8  1  0.189239  0.195395  0.098601  1
  Np  Np9  1  0.811040  0.804974  0.900508  1
  S  S10  1  0.515017  0.308578  0.054517  1
  S  S11  1  0.845400  0.038833  0.110663  1
  S  S12  1  0.981201  0.762671  0.191957  1
  S  S13  1  0.184470  0.401425  0.303763  1
  S  S14  1  0.357661  0.156435  0.395737  1
  S  S15  1  0.643655  0.850838  0.611929  1
  S  S16  1  0.812636  0.596677  0.700609  1
  S  S17  1  0.017595  0.238480  0.806846  1
  S  S18  1  0.155921  0.962000  0.888240  1
  S  S19  1  0.482022  0.683732  0.928750  1
