# generated using pymatgen
data_Tb2ZnCo6GeB2
_symmetry_space_group_name_H-M   'P 1'
_cell_length_a   5.16462602
_cell_length_b   5.16451171
_cell_length_c   6.65629800
_cell_angle_alpha   90.00000000
_cell_angle_beta   90.00000000
_cell_angle_gamma   119.99039981
_symmetry_Int_Tables_number   1
_chemical_formula_structural   Tb2ZnCo6GeB2
_chemical_formula_sum   'Tb2 Zn1 Co6 Ge1 B2'
_cell_volume   153.77068134
_cell_formula_units_Z   1
loop_
 _symmetry_equiv_pos_site_id
 _symmetry_equiv_pos_as_xyz
  1  'x, y, z'
loop_
 _atom_site_type_symbol
 _atom_site_label
 _atom_site_symmetry_multiplicity
 _atom_site_fract_x
 _atom_site_fract_y
 _atom_site_fract_z
 _atom_site_occupancy
  Tb  Tb0  1  0.999974  0.999994  0.000000  1
  Tb  Tb1  1  0.999989  0.999999  0.500000  1
  Zn  Zn2  1  0.333327  0.666673  0.000000  1
  Co  Co3  1  0.501107  0.002241  0.294117  1
  Co  Co4  1  0.501107  0.498881  0.294114  1
  Co  Co5  1  0.997740  0.498875  0.294114  1
  Co  Co6  1  0.501107  0.002241  0.705883  1
  Co  Co7  1  0.501107  0.498881  0.705886  1
  Co  Co8  1  0.997740  0.498875  0.705886  1
  Ge  Ge9  1  0.666634  0.333336  0.000000  1
  B  B10  1  0.333330  0.666681  0.500000  1
  B  B11  1  0.666638  0.333322  0.500000  1
