# generated using pymatgen
data_Hf6AlTc3Os2
_symmetry_space_group_name_H-M   'P 1'
_cell_length_a   4.61978500
_cell_length_b   6.59520100
_cell_length_c   13.85126500
_cell_angle_alpha   90.00000000
_cell_angle_beta   89.99992556
_cell_angle_gamma   90.00000000
_symmetry_Int_Tables_number   1
_chemical_formula_structural   Hf6AlTc3Os2
_chemical_formula_sum   'Hf12 Al2 Tc6 Os4'
_cell_volume   422.02603007
_cell_formula_units_Z   2
loop_
 _symmetry_equiv_pos_site_id
 _symmetry_equiv_pos_as_xyz
  1  'x, y, z'
loop_
 _atom_site_type_symbol
 _atom_site_label
 _atom_site_symmetry_multiplicity
 _atom_site_fract_x
 _atom_site_fract_y
 _atom_site_fract_z
 _atom_site_occupancy
  Hf  Hf0  1  0.499999  0.243248  0.995368  1
  Hf  Hf1  1  0.499999  0.756753  0.995368  1
  Hf  Hf2  1  0.000007  0.256755  0.171298  1
  Hf  Hf3  1  0.000007  0.743246  0.171298  1
  Hf  Hf4  1  0.500000  0.253950  0.338201  1
  Hf  Hf5  1  0.500000  0.746050  0.338201  1
  Hf  Hf6  1  0.999998  0.249270  0.501078  1
  Hf  Hf7  1  0.999998  0.750730  0.501078  1
  Hf  Hf8  1  0.499998  0.250729  0.665588  1
  Hf  Hf9  1  0.499998  0.749271  0.665588  1
  Hf  Hf10  1  0.999998  0.246051  0.828466  1
  Hf  Hf11  1  0.999998  0.753950  0.828466  1
  Al  Al12  1  0.999996  0.500000  0.998658  1
  Al  Al13  1  0.500008  0.000000  0.168008  1
  Tc  Tc14  1  0.000000  0.000000  0.002821  1
  Tc  Tc15  1  0.500012  0.500000  0.163847  1
  Tc  Tc16  1  0.999998  0.000000  0.329148  1
  Tc  Tc17  1  0.499999  0.500000  0.501056  1
  Tc  Tc18  1  0.999999  0.000000  0.665611  1
  Tc  Tc19  1  0.499994  0.500000  0.837515  1
  Os  Os20  1  0.000001  0.500000  0.334534  1
  Os  Os21  1  0.499997  0.000000  0.499677  1
  Os  Os22  1  0.999997  0.500000  0.666989  1
  Os  Os23  1  0.500000  0.000000  0.832136  1
