# generated using pymatgen
data_TbDy6Co2Sn23Rh4
_symmetry_space_group_name_H-M   'P 1'
_cell_length_a   9.80713992
_cell_length_b   9.81032617
_cell_length_c   10.06547426
_cell_angle_alpha   89.99999792
_cell_angle_beta   90.04550560
_cell_angle_gamma   120.01073428
_symmetry_Int_Tables_number   1
_chemical_formula_structural   TbDy6Co2Sn23Rh4
_chemical_formula_sum   'Tb1 Dy6 Co2 Sn23 Rh4'
_cell_volume   838.57811518
_cell_formula_units_Z   1
loop_
 _symmetry_equiv_pos_site_id
 _symmetry_equiv_pos_as_xyz
  1  'x, y, z'
loop_
 _atom_site_type_symbol
 _atom_site_label
 _atom_site_symmetry_multiplicity
 _atom_site_fract_x
 _atom_site_fract_y
 _atom_site_fract_z
 _atom_site_occupancy
  Tb  Tb0  1  0.000000  0.000000  0.000000  1
  Dy  Dy1  1  0.478721  0.521170  0.306980  1
  Dy  Dy2  1  0.521279  0.478830  0.693020  1
  Dy  Dy3  1  0.478721  0.957551  0.306980  1
  Dy  Dy4  1  0.521279  0.042449  0.693020  1
  Dy  Dy5  1  0.043054  0.521527  0.306983  1
  Dy  Dy6  1  0.956946  0.478473  0.693017  1
  Co  Co7  1  0.336619  0.168308  0.198265  1
  Co  Co8  1  0.663381  0.831692  0.801735  1
  Sn  Sn9  1  0.350794  0.004537  0.004693  1
  Sn  Sn10  1  0.649206  0.995463  0.995307  1
  Sn  Sn11  1  0.000000  0.351200  0.000000  1
  Sn  Sn12  1  0.000000  0.648800  0.000000  1
  Sn  Sn13  1  0.649206  0.653742  0.995307  1
  Sn  Sn14  1  0.350794  0.346258  0.004693  1
  Sn  Sn15  1  0.338362  0.669181  0.818821  1
  Sn  Sn16  1  0.661638  0.330819  0.181179  1
  Sn  Sn17  1  0.000000  0.000000  0.500000  1
  Sn  Sn18  1  0.778798  0.221333  0.456053  1
  Sn  Sn19  1  0.221202  0.778667  0.543947  1
  Sn  Sn20  1  0.778798  0.557464  0.456053  1
  Sn  Sn21  1  0.221202  0.442536  0.543947  1
  Sn  Sn22  1  0.438897  0.219448  0.450690  1
  Sn  Sn23  1  0.561103  0.780552  0.549310  1
  Sn  Sn24  1  0.333444  0.666723  0.118622  1
  Sn  Sn25  1  0.666556  0.333277  0.881378  1
  Sn  Sn26  1  0.123541  0.886784  0.276686  1
  Sn  Sn27  1  0.876459  0.113216  0.723314  1
  Sn  Sn28  1  0.123541  0.236757  0.276686  1
  Sn  Sn29  1  0.876459  0.763243  0.723314  1
  Sn  Sn30  1  0.759351  0.879675  0.281568  1
  Sn  Sn31  1  0.240649  0.120325  0.718432  1
  Rh  Rh32  1  0.831203  0.167540  0.197519  1
  Rh  Rh33  1  0.168797  0.832460  0.802481  1
  Rh  Rh34  1  0.831203  0.663663  0.197519  1
  Rh  Rh35  1  0.168797  0.336337  0.802481  1
