# generated using pymatgen
data_Cs13TiV(In3P5)2
_symmetry_space_group_name_H-M   'P 1'
_cell_length_a   9.59813231
_cell_length_b   9.67703745
_cell_length_c   13.81654610
_cell_angle_alpha   84.41011466
_cell_angle_beta   80.19191421
_cell_angle_gamma   65.01073346
_symmetry_Int_Tables_number   1
_chemical_formula_structural   Cs13TiV(In3P5)2
_chemical_formula_sum   'Cs13 Ti1 V1 In6 P10'
_cell_volume   1145.70136951
_cell_formula_units_Z   1
loop_
 _symmetry_equiv_pos_site_id
 _symmetry_equiv_pos_as_xyz
  1  'x, y, z'
loop_
 _atom_site_type_symbol
 _atom_site_label
 _atom_site_symmetry_multiplicity
 _atom_site_fract_x
 _atom_site_fract_y
 _atom_site_fract_z
 _atom_site_occupancy
  Cs  Cs0  1  0.501082  0.872241  0.359554  1
  Cs  Cs1  1  0.498020  0.127187  0.644582  1
  Cs  Cs2  1  0.850046  0.588761  0.877794  1
  Cs  Cs3  1  0.154016  0.411419  0.118161  1
  Cs  Cs4  1  0.086266  0.781429  0.430253  1
  Cs  Cs5  1  0.910200  0.219189  0.575674  1
  Cs  Cs6  1  0.747190  0.678221  0.598131  1
  Cs  Cs7  1  0.249809  0.323886  0.407977  1
  Cs  Cs8  1  0.503151  0.500637  0.996618  1
  Cs  Cs9  1  0.323936  0.922071  0.085307  1
  Cs  Cs10  1  0.676659  0.077753  0.908229  1
  Cs  Cs11  1  0.898755  0.860253  0.159267  1
  Cs  Cs12  1  0.106882  0.136093  0.835413  1
  Ti  Ti13  1  0.377658  0.737122  0.774141  1
  V  V14  1  0.623299  0.263509  0.227201  1
  In  In15  1  0.035121  0.808186  0.708322  1
  In  In16  1  0.961154  0.196996  0.292753  1
  In  In17  1  0.601411  0.446947  0.408072  1
  In  In18  1  0.397546  0.554490  0.592804  1
  In  In19  1  0.723883  0.552183  0.175698  1
  In  In20  1  0.274941  0.445568  0.826180  1
  P  P21  1  0.452286  0.523590  0.251277  1
  P  P22  1  0.552476  0.463684  0.744996  1
  P  P23  1  0.148127  0.744476  0.885682  1
  P  P24  1  0.841136  0.255067  0.119571  1
  P  P25  1  0.703530  0.146579  0.376786  1
  P  P26  1  0.293031  0.856046  0.615995  1
  P  P27  1  0.851659  0.504974  0.350361  1
  P  P28  1  0.149532  0.496394  0.647628  1
  P  P29  1  0.495255  0.862785  0.839727  1
  P  P30  1  0.511942  0.142267  0.165842  1
