# generated using pymatgen
data_Pr4TiVO10
_symmetry_space_group_name_H-M   'P 1'
_cell_length_a   3.91588800
_cell_length_b   10.91984400
_cell_length_c   11.57089400
_cell_angle_alpha   90.00000000
_cell_angle_beta   90.00000000
_cell_angle_gamma   90.00000000
_symmetry_Int_Tables_number   1
_chemical_formula_structural   Pr4TiVO10
_chemical_formula_sum   'Pr8 Ti2 V2 O20'
_cell_volume   494.78168019
_cell_formula_units_Z   2
loop_
 _symmetry_equiv_pos_site_id
 _symmetry_equiv_pos_as_xyz
  1  'x, y, z'
loop_
 _atom_site_type_symbol
 _atom_site_label
 _atom_site_symmetry_multiplicity
 _atom_site_fract_x
 _atom_site_fract_y
 _atom_site_fract_z
 _atom_site_occupancy
  Pr  Pr0  1  0.250000  0.138550  0.943898  1
  Pr  Pr1  1  0.250000  0.638550  0.556102  1
  Pr  Pr2  1  0.750000  0.862238  0.055520  1
  Pr  Pr3  1  0.750000  0.362238  0.444480  1
  Pr  Pr4  1  0.750000  0.392493  0.777364  1
  Pr  Pr5  1  0.750000  0.892493  0.722636  1
  Pr  Pr6  1  0.250000  0.604239  0.219793  1
  Pr  Pr7  1  0.250000  0.104239  0.280207  1
  Ti  Ti8  1  0.750000  0.815103  0.374685  1
  Ti  Ti9  1  0.750000  0.315103  0.125315  1
  V  V10  1  0.250000  0.181996  0.623952  1
  V  V11  1  0.250000  0.681996  0.876048  1
  O  O12  1  0.250000  0.225301  0.465868  1
  O  O13  1  0.250000  0.725301  0.034132  1
  O  O14  1  0.750000  0.777420  0.535066  1
  O  O15  1  0.750000  0.277420  0.964934  1
  O  O16  1  0.250000  0.492018  0.396502  1
  O  O17  1  0.250000  0.992018  0.103498  1
  O  O18  1  0.750000  0.509529  0.603319  1
  O  O19  1  0.750000  0.009529  0.896681  1
  O  O20  1  0.250000  0.263241  0.122205  1
  O  O21  1  0.250000  0.763241  0.377795  1
  O  O22  1  0.750000  0.735758  0.878652  1
  O  O23  1  0.750000  0.235758  0.621348  1
  O  O24  1  0.250000  0.027558  0.663055  1
  O  O25  1  0.250000  0.527558  0.836945  1
  O  O26  1  0.750000  0.974254  0.339154  1
  O  O27  1  0.750000  0.474254  0.160846  1
  O  O28  1  0.250000  0.270161  0.768908  1
  O  O29  1  0.250000  0.770161  0.731092  1
  O  O30  1  0.750000  0.730140  0.229648  1
  O  O31  1  0.750000  0.230140  0.270352  1
