# generated using pymatgen
data_NaU2P3O14
_symmetry_space_group_name_H-M   'P 1'
_cell_length_a   10.46570300
_cell_length_b   10.95257800
_cell_length_c   11.30327900
_cell_angle_alpha   90.00000000
_cell_angle_beta   90.00000000
_cell_angle_gamma   90.00000000
_symmetry_Int_Tables_number   1
_chemical_formula_structural   NaU2P3O14
_chemical_formula_sum   'Na4 U8 P12 O56'
_cell_volume   1295.65450134
_cell_formula_units_Z   4
loop_
 _symmetry_equiv_pos_site_id
 _symmetry_equiv_pos_as_xyz
  1  'x, y, z'
loop_
 _atom_site_type_symbol
 _atom_site_label
 _atom_site_symmetry_multiplicity
 _atom_site_fract_x
 _atom_site_fract_y
 _atom_site_fract_z
 _atom_site_occupancy
  Na  Na0  1  0.421620  0.000000  0.250000  1
  Na  Na1  1  0.078380  0.500000  0.750000  1
  Na  Na2  1  0.921620  0.500000  0.250000  1
  Na  Na3  1  0.578380  0.000000  0.750000  1
  U  U4  1  0.681782  0.796854  0.114859  1
  U  U5  1  0.181782  0.296854  0.385141  1
  U  U6  1  0.818218  0.703146  0.614859  1
  U  U7  1  0.181782  0.703146  0.114859  1
  U  U8  1  0.318218  0.203146  0.885141  1
  U  U9  1  0.318218  0.796854  0.614859  1
  U  U10  1  0.818218  0.296854  0.885141  1
  U  U11  1  0.681782  0.203146  0.385141  1
  P  P12  1  0.572668  0.500000  0.750000  1
  P  P13  1  0.434121  0.680516  0.896758  1
  P  P14  1  0.565879  0.680516  0.396758  1
  P  P15  1  0.065879  0.180516  0.103242  1
  P  P16  1  0.934121  0.819484  0.896758  1
  P  P17  1  0.927332  0.000000  0.250000  1
  P  P18  1  0.065879  0.819484  0.396758  1
  P  P19  1  0.565879  0.319484  0.103242  1
  P  P20  1  0.427332  0.500000  0.250000  1
  P  P21  1  0.072668  0.000000  0.750000  1
  P  P22  1  0.934121  0.180516  0.603242  1
  P  P23  1  0.434121  0.319484  0.603242  1
  O  O24  1  0.430549  0.765132  0.788643  1
  O  O25  1  0.764968  0.652654  0.136926  1
  O  O26  1  0.977629  0.955550  0.851326  1
  O  O27  1  0.095970  0.558963  0.109365  1
  O  O28  1  0.197938  0.158340  0.049951  1
  O  O29  1  0.569451  0.234868  0.211357  1
  O  O30  1  0.735032  0.152654  0.863074  1
  O  O31  1  0.851939  0.892454  0.204740  1
  O  O32  1  0.764968  0.347346  0.363074  1
  O  O33  1  0.697938  0.658340  0.450049  1
  O  O34  1  0.477629  0.544450  0.851326  1
  O  O35  1  0.404030  0.058963  0.890635  1
  O  O36  1  0.534760  0.281290  0.513308  1
  O  O37  1  0.930549  0.734868  0.788643  1
  O  O38  1  0.802062  0.158340  0.549951  1
  O  O39  1  0.022371  0.955550  0.351326  1
  O  O40  1  0.430549  0.234868  0.711357  1
  O  O41  1  0.965240  0.218710  0.013308  1
  O  O42  1  0.351939  0.392454  0.295260  1
  O  O43  1  0.851939  0.107546  0.295260  1
  O  O44  1  0.595970  0.058963  0.390635  1
  O  O45  1  0.477629  0.455550  0.648674  1
  O  O46  1  0.034760  0.781290  0.986692  1
  O  O47  1  0.235032  0.347346  0.863074  1
  O  O48  1  0.095970  0.441037  0.390635  1
  O  O49  1  0.235032  0.652654  0.636926  1
  O  O50  1  0.069451  0.734868  0.288643  1
  O  O51  1  0.965240  0.781290  0.486692  1
  O  O52  1  0.148061  0.892454  0.704740  1
  O  O53  1  0.930549  0.265132  0.711357  1
  O  O54  1  0.302062  0.658340  0.950049  1
  O  O55  1  0.264968  0.152654  0.363074  1
  O  O56  1  0.522371  0.455550  0.148674  1
  O  O57  1  0.904030  0.558963  0.609365  1
  O  O58  1  0.569451  0.765132  0.288643  1
  O  O59  1  0.404030  0.941037  0.609365  1
  O  O60  1  0.302062  0.341660  0.549951  1
  O  O61  1  0.534760  0.718710  0.986692  1
  O  O62  1  0.351939  0.607546  0.204740  1
  O  O63  1  0.648061  0.607546  0.704740  1
  O  O64  1  0.022371  0.044450  0.148674  1
  O  O65  1  0.465240  0.718710  0.486692  1
  O  O66  1  0.802062  0.841660  0.950049  1
  O  O67  1  0.904030  0.441037  0.890635  1
  O  O68  1  0.034760  0.218710  0.513308  1
  O  O69  1  0.465240  0.281290  0.013308  1
  O  O70  1  0.648061  0.392454  0.795260  1
  O  O71  1  0.148061  0.107546  0.795260  1
  O  O72  1  0.069451  0.265132  0.211357  1
  O  O73  1  0.264968  0.847346  0.136926  1
  O  O74  1  0.697938  0.341660  0.049951  1
  O  O75  1  0.522371  0.544450  0.351326  1
  O  O76  1  0.595970  0.941037  0.109365  1
  O  O77  1  0.735032  0.847346  0.636926  1
  O  O78  1  0.977629  0.044450  0.648674  1
  O  O79  1  0.197938  0.841660  0.450049  1
