# generated using pymatgen
data_Ce2Zr6Co16Si7P5
_symmetry_space_group_name_H-M   'P 1'
_cell_length_a   12.31600100
_cell_length_b   12.39875927
_cell_length_c   3.73542900
_cell_angle_alpha   90.00000000
_cell_angle_beta   90.00000000
_cell_angle_gamma   120.08249122
_symmetry_Int_Tables_number   1
_chemical_formula_structural   Ce2Zr6Co16Si7P5
_chemical_formula_sum   'Ce2 Zr6 Co16 Si7 P5'
_cell_volume   493.57989292
_cell_formula_units_Z   1
loop_
 _symmetry_equiv_pos_site_id
 _symmetry_equiv_pos_as_xyz
  1  'x, y, z'
loop_
 _atom_site_type_symbol
 _atom_site_label
 _atom_site_symmetry_multiplicity
 _atom_site_fract_x
 _atom_site_fract_y
 _atom_site_fract_z
 _atom_site_occupancy
  Ce  Ce0  1  0.821221  0.822302  0.500000  1
  Ce  Ce1  1  0.177724  0.003361  0.500000  1
  Zr  Zr2  1  0.436973  0.437238  0.000000  1
  Zr  Zr3  1  0.561289  0.998950  0.000000  1
  Zr  Zr4  1  0.002812  0.560644  0.000000  1
  Zr  Zr5  1  0.666201  0.332998  0.000000  1
  Zr  Zr6  1  0.331345  0.664655  0.000000  1
  Zr  Zr7  1  0.999292  0.188324  0.500000  1
  Co  Co8  1  0.194961  0.375076  0.000000  1
  Co  Co9  1  0.179564  0.802677  0.000000  1
  Co  Co10  1  0.823121  0.626372  0.000000  1
  Co  Co11  1  0.807082  0.178024  0.000000  1
  Co  Co12  1  0.368093  0.193827  0.000000  1
  Co  Co13  1  0.129438  0.483902  0.500000  1
  Co  Co14  1  0.356721  0.872436  0.500000  1
  Co  Co15  1  0.514280  0.638554  0.500000  1
  Co  Co16  1  0.638932  0.517253  0.500000  1
  Co  Co17  1  0.881955  0.357496  0.500000  1
  Co  Co18  1  0.478857  0.119547  0.500000  1
  Co  Co19  1  0.999991  0.000288  0.000000  1
  Co  Co20  1  0.727823  0.004313  0.500000  1
  Co  Co21  1  0.004150  0.721732  0.500000  1
  Co  Co22  1  0.629620  0.822401  0.000000  1
  Co  Co23  1  0.270434  0.279605  0.500000  1
  Si  Si24  1  0.646347  0.645310  0.000000  1
  Si  Si25  1  0.351962  0.999573  0.000000  1
  Si  Si26  1  0.999928  0.350882  0.000000  1
  Si  Si27  1  0.479681  0.302615  0.500000  1
  Si  Si28  1  0.695272  0.178404  0.500000  1
  Si  Si29  1  0.822748  0.516117  0.500000  1
  Si  Si30  1  0.519646  0.822774  0.500000  1
  P  P31  1  0.176973  0.694165  0.500000  1
  P  P32  1  0.822001  0.006405  0.000000  1
  P  P33  1  0.000001  0.813877  0.000000  1
  P  P34  1  0.307109  0.482957  0.500000  1
  P  P35  1  0.176453  0.184948  0.000000  1
