# generated using pymatgen
data_Nb2V2Co2RhSe12
_symmetry_space_group_name_H-M   'P 1'
_cell_length_a   7.13442779
_cell_length_b   7.13442678
_cell_length_c   19.05211274
_cell_angle_alpha   70.93673997
_cell_angle_beta   70.93674300
_cell_angle_gamma   26.94893637
_symmetry_Int_Tables_number   1
_chemical_formula_structural   Nb2V2Co2RhSe12
_chemical_formula_sum   'Nb2 V2 Co2 Rh1 Se12'
_cell_volume   413.96011063
_cell_formula_units_Z   1
loop_
 _symmetry_equiv_pos_site_id
 _symmetry_equiv_pos_as_xyz
  1  'x, y, z'
loop_
 _atom_site_type_symbol
 _atom_site_label
 _atom_site_symmetry_multiplicity
 _atom_site_fract_x
 _atom_site_fract_y
 _atom_site_fract_z
 _atom_site_occupancy
  Nb  Nb0  1  0.619190  0.619190  0.850506  1
  Nb  Nb1  1  0.380810  0.380810  0.149494  1
  V  V2  1  0.741823  0.741823  0.594145  1
  V  V3  1  0.258177  0.258177  0.405855  1
  Co  Co4  1  0.772793  0.772793  0.283724  1
  Co  Co5  1  0.227207  0.227207  0.716276  1
  Rh  Rh6  1  0.000000  0.000000  0.000000  1
  Se  Se7  1  0.856996  0.856996  0.455678  1
  Se  Se8  1  0.035003  0.035003  0.118298  1
  Se  Se9  1  0.805606  0.805606  0.765926  1
  Se  Se10  1  0.395956  0.395956  0.285399  1
  Se  Se11  1  0.185181  0.185181  0.930158  1
  Se  Se12  1  0.604044  0.604044  0.714601  1
  Se  Se13  1  0.143004  0.143004  0.544322  1
  Se  Se14  1  0.814819  0.814819  0.069842  1
  Se  Se15  1  0.365699  0.365699  0.605854  1
  Se  Se16  1  0.964997  0.964997  0.881702  1
  Se  Se17  1  0.194394  0.194394  0.234074  1
  Se  Se18  1  0.634301  0.634301  0.394146  1
