# generated using pymatgen
data_Ti8Al15Pd2Rh5
_symmetry_space_group_name_H-M   'P 1'
_cell_length_a   8.67005041
_cell_length_b   8.66392405
_cell_length_c   8.67005118
_cell_angle_alpha   119.94530962
_cell_angle_beta   119.93960412
_cell_angle_gamma   90.11999088
_symmetry_Int_Tables_number   1
_chemical_formula_structural   Ti8Al15Pd2Rh5
_chemical_formula_sum   'Ti8 Al15 Pd2 Rh5'
_cell_volume   460.83203608
_cell_formula_units_Z   1
loop_
 _symmetry_equiv_pos_site_id
 _symmetry_equiv_pos_as_xyz
  1  'x, y, z'
loop_
 _atom_site_type_symbol
 _atom_site_label
 _atom_site_symmetry_multiplicity
 _atom_site_fract_x
 _atom_site_fract_y
 _atom_site_fract_z
 _atom_site_occupancy
  Ti  Ti0  1  0.789334  0.289535  0.072837  1
  Ti  Ti1  1  0.216698  0.289535  0.500201  1
  Ti  Ti2  1  0.210877  0.710429  0.499552  1
  Ti  Ti3  1  0.214172  0.715070  0.925267  1
  Ti  Ti4  1  0.789803  0.715070  0.500899  1
  Ti  Ti5  1  0.783733  0.284908  0.501175  1
  Ti  Ti6  1  0.383377  0.127707  0.744330  1
  Ti  Ti7  1  0.379008  0.635490  0.256481  1
  Al  Al8  1  0.997744  0.496952  0.499208  1
  Al  Al9  1  0.153374  0.345021  0.191646  1
  Al  Al10  1  0.154349  0.964602  0.810253  1
  Al  Al11  1  0.151347  0.347326  0.805997  1
  Al  Al12  1  0.541328  0.347326  0.195979  1
  Al  Al13  1  0.845002  0.652887  0.807886  1
  Al  Al14  1  0.847642  0.039756  0.192114  1
  Al  Al15  1  0.842704  0.651614  0.186442  1
  Al  Al16  1  0.465172  0.651614  0.808910  1
  Al  Al17  1  0.376626  0.123876  0.260577  1
  Al  Al18  1  0.863300  0.123876  0.747249  1
  Al  Al19  1  0.618868  0.874560  0.255692  1
  Al  Al20  1  0.621880  0.365715  0.743834  1
  Al  Al21  1  0.622679  0.876100  0.740265  1
  Al  Al22  1  0.135833  0.876100  0.253420  1
  Pd  Pd23  1  0.998860  0.998957  0.499205  1
  Pd  Pd24  1  0.499752  0.998957  0.000097  1
  Rh  Rh25  1  0.497715  0.498881  0.001166  1
  Rh  Rh26  1  0.498168  0.499510  0.498099  1
  Rh  Rh27  1  0.001410  0.499510  0.001342  1
  Rh  Rh28  1  0.999953  0.999654  0.999701  1
  Rh  Rh29  1  0.499287  0.999461  0.500174  1
