# generated using pymatgen
data_NaHo(InBr3)2
_symmetry_space_group_name_H-M   'P 1'
_cell_length_a   8.18032100
_cell_length_b   7.64698459
_cell_length_c   13.23090384
_cell_angle_alpha   56.20602334
_cell_angle_beta   90.00000000
_cell_angle_gamma   90.00000000
_symmetry_Int_Tables_number   1
_chemical_formula_structural   NaHo(InBr3)2
_chemical_formula_sum   'Na2 Ho2 In4 Br12'
_cell_volume   687.81800769
_cell_formula_units_Z   2
loop_
 _symmetry_equiv_pos_site_id
 _symmetry_equiv_pos_as_xyz
  1  'x, y, z'
loop_
 _atom_site_type_symbol
 _atom_site_label
 _atom_site_symmetry_multiplicity
 _atom_site_fract_x
 _atom_site_fract_y
 _atom_site_fract_z
 _atom_site_occupancy
  Na  Na0  1  0.500000  0.500000  0.000000  1
  Na  Na1  1  0.000000  0.500000  0.500000  1
  Ho  Ho2  1  0.500000  0.000000  0.500000  1
  Ho  Ho3  1  0.000000  0.000000  0.000000  1
  In  In4  1  0.067263  0.721525  0.756513  1
  In  In5  1  0.932737  0.278475  0.243487  1
  In  In6  1  0.567263  0.278475  0.743487  1
  In  In7  1  0.432737  0.721525  0.256513  1
  Br  Br8  1  0.785246  0.758482  0.562300  1
  Br  Br9  1  0.214754  0.241518  0.437700  1
  Br  Br10  1  0.285246  0.241518  0.937700  1
  Br  Br11  1  0.714754  0.758482  0.062300  1
  Br  Br12  1  0.457596  0.872543  0.742306  1
  Br  Br13  1  0.542404  0.127457  0.257694  1
  Br  Br14  1  0.957596  0.127457  0.757694  1
  Br  Br15  1  0.042404  0.872543  0.242306  1
  Br  Br16  1  0.314752  0.654068  0.546127  1
  Br  Br17  1  0.685248  0.345932  0.453873  1
  Br  Br18  1  0.814752  0.345932  0.953873  1
  Br  Br19  1  0.185248  0.654068  0.046127  1
