# generated using pymatgen
data_Zr12NbSn3(Ir2N)4
_symmetry_space_group_name_H-M   'P 1'
_cell_length_a   8.79053227
_cell_length_b   8.79053273
_cell_length_c   8.79053267
_cell_angle_alpha   59.47871386
_cell_angle_beta   59.47872332
_cell_angle_gamma   59.47871517
_symmetry_Int_Tables_number   1
_chemical_formula_structural   Zr12NbSn3(Ir2N)4
_chemical_formula_sum   'Zr12 Nb1 Sn3 Ir8 N4'
_cell_volume   474.62477881
_cell_formula_units_Z   1
loop_
 _symmetry_equiv_pos_site_id
 _symmetry_equiv_pos_as_xyz
  1  'x, y, z'
loop_
 _atom_site_type_symbol
 _atom_site_label
 _atom_site_symmetry_multiplicity
 _atom_site_fract_x
 _atom_site_fract_y
 _atom_site_fract_z
 _atom_site_occupancy
  Zr  Zr0  1  0.812510  0.812510  0.186054  1
  Zr  Zr1  1  0.185976  0.185976  0.812474  1
  Zr  Zr2  1  0.812510  0.186054  0.812510  1
  Zr  Zr3  1  0.185976  0.812474  0.185976  1
  Zr  Zr4  1  0.186054  0.812510  0.812510  1
  Zr  Zr5  1  0.812474  0.185976  0.185976  1
  Zr  Zr6  1  0.437490  0.437490  0.063946  1
  Zr  Zr7  1  0.064024  0.064024  0.437526  1
  Zr  Zr8  1  0.437490  0.063946  0.437490  1
  Zr  Zr9  1  0.064024  0.437526  0.064024  1
  Zr  Zr10  1  0.063946  0.437490  0.437490  1
  Zr  Zr11  1  0.437526  0.064024  0.064024  1
  Nb  Nb12  1  0.625000  0.625000  0.625000  1
  Sn  Sn13  1  0.125000  0.625000  0.625000  1
  Sn  Sn14  1  0.625000  0.125000  0.625000  1
  Sn  Sn15  1  0.625000  0.625000  0.125000  1
  Ir  Ir16  1  0.768058  0.417598  0.417598  1
  Ir  Ir17  1  0.417598  0.768058  0.417598  1
  Ir  Ir18  1  0.417598  0.417598  0.768058  1
  Ir  Ir19  1  0.407389  0.407389  0.407389  1
  Ir  Ir20  1  0.481942  0.832402  0.832402  1
  Ir  Ir21  1  0.832402  0.481942  0.832402  1
  Ir  Ir22  1  0.832402  0.832402  0.481942  1
  Ir  Ir23  1  0.842611  0.842611  0.842611  1
  N  N24  1  0.625000  0.125000  0.125000  1
  N  N25  1  0.125000  0.625000  0.125000  1
  N  N26  1  0.125000  0.125000  0.625000  1
  N  N27  1  0.125000  0.125000  0.125000  1
