# generated using pymatgen
data_Sr20Si4Bi7Sb
_symmetry_space_group_name_H-M   'P 1'
_cell_length_a   8.62575988
_cell_length_b   10.04198526
_cell_length_c   13.76331027
_cell_angle_alpha   90.01914424
_cell_angle_beta   90.01218923
_cell_angle_gamma   90.07454808
_symmetry_Int_Tables_number   1
_chemical_formula_structural   Sr20Si4Bi7Sb
_chemical_formula_sum   'Sr20 Si4 Bi7 Sb1'
_cell_volume   1192.17344100
_cell_formula_units_Z   1
loop_
 _symmetry_equiv_pos_site_id
 _symmetry_equiv_pos_as_xyz
  1  'x, y, z'
loop_
 _atom_site_type_symbol
 _atom_site_label
 _atom_site_symmetry_multiplicity
 _atom_site_fract_x
 _atom_site_fract_y
 _atom_site_fract_z
 _atom_site_occupancy
  Sr  Sr0  1  0.832474  0.526343  0.083073  1
  Sr  Sr1  1  0.671087  0.973913  0.578207  1
  Sr  Sr2  1  0.170074  0.026531  0.921150  1
  Sr  Sr3  1  0.326705  0.472753  0.420544  1
  Sr  Sr4  1  0.169434  0.473823  0.920059  1
  Sr  Sr5  1  0.330418  0.025486  0.419246  1
  Sr  Sr6  1  0.829574  0.973995  0.080687  1
  Sr  Sr7  1  0.668478  0.526691  0.579620  1
  Sr  Sr8  1  0.171516  0.748194  0.214935  1
  Sr  Sr9  1  0.328093  0.750627  0.712850  1
  Sr  Sr10  1  0.828182  0.249732  0.786038  1
  Sr  Sr11  1  0.673058  0.253288  0.286269  1
  Sr  Sr12  1  0.444247  0.750404  0.000687  1
  Sr  Sr13  1  0.054395  0.747992  0.498705  1
  Sr  Sr14  1  0.556390  0.250440  0.999972  1
  Sr  Sr15  1  0.943763  0.252701  0.498556  1
  Sr  Sr16  1  0.650455  0.746049  0.307208  1
  Sr  Sr17  1  0.851827  0.749603  0.807418  1
  Sr  Sr18  1  0.352062  0.249571  0.692567  1
  Sr  Sr19  1  0.147244  0.251826  0.193971  1
  Si  Si20  1  0.441850  0.749020  0.491541  1
  Si  Si21  1  0.057064  0.749860  0.993734  1
  Si  Si22  1  0.557612  0.250502  0.506551  1
  Si  Si23  1  0.942156  0.250594  0.007867  1
  Bi  Bi24  1  0.554207  0.994397  0.830497  1
  Bi  Bi25  1  0.054108  0.005495  0.668190  1
  Bi  Bi26  1  0.446480  0.494672  0.169444  1
  Bi  Bi27  1  0.053648  0.494553  0.668696  1
  Bi  Bi28  1  0.445914  0.005931  0.169861  1
  Bi  Bi29  1  0.945164  0.994587  0.331110  1
  Bi  Bi30  1  0.553094  0.505522  0.830443  1
  Sb  Sb31  1  0.949230  0.504901  0.330306  1
