# generated using pymatgen
data_Er4Tm16Bi11Os
_symmetry_space_group_name_H-M   'P 1'
_cell_length_a   8.07927640
_cell_length_b   9.44274800
_cell_length_c   11.93793484
_cell_angle_alpha   90.00000000
_cell_angle_beta   90.49769385
_cell_angle_gamma   90.00000000
_symmetry_Int_Tables_number   1
_chemical_formula_structural   Er4Tm16Bi11Os
_chemical_formula_sum   'Er4 Tm16 Bi11 Os1'
_cell_volume   910.71750660
_cell_formula_units_Z   1
loop_
 _symmetry_equiv_pos_site_id
 _symmetry_equiv_pos_as_xyz
  1  'x, y, z'
loop_
 _atom_site_type_symbol
 _atom_site_label
 _atom_site_symmetry_multiplicity
 _atom_site_fract_x
 _atom_site_fract_y
 _atom_site_fract_z
 _atom_site_occupancy
  Er  Er0  1  0.315365  0.250000  0.220865  1
  Er  Er1  1  0.810807  0.250000  0.282526  1
  Er  Er2  1  0.646464  0.750000  0.795771  1
  Er  Er3  1  0.205879  0.750000  0.729786  1
  Tm  Tm4  1  0.356199  0.750000  0.196379  1
  Tm  Tm5  1  0.848778  0.750000  0.284947  1
  Tm  Tm6  1  0.655105  0.250000  0.782266  1
  Tm  Tm7  1  0.145545  0.250000  0.719481  1
  Tm  Tm8  1  0.676578  0.573750  0.053325  1
  Tm  Tm9  1  0.192925  0.934694  0.436145  1
  Tm  Tm10  1  0.314947  0.030543  0.941385  1
  Tm  Tm11  1  0.807686  0.435250  0.558879  1
  Tm  Tm12  1  0.314947  0.469457  0.941385  1
  Tm  Tm13  1  0.807686  0.064750  0.558879  1
  Tm  Tm14  1  0.676578  0.926250  0.053325  1
  Tm  Tm15  1  0.192925  0.565306  0.436145  1
  Tm  Tm16  1  0.478204  0.250000  0.487203  1
  Tm  Tm17  1  0.984007  0.250000  0.008143  1
  Tm  Tm18  1  0.527103  0.750000  0.509057  1
  Tm  Tm19  1  0.050232  0.750000  0.993546  1
  Bi  Bi20  1  0.911918  0.750000  0.547595  1
  Bi  Bi21  1  0.593985  0.250000  0.040320  1
  Bi  Bi22  1  0.095928  0.250000  0.458714  1
  Bi  Bi23  1  0.564945  0.995050  0.325337  1
  Bi  Bi24  1  0.058009  0.500347  0.177113  1
  Bi  Bi25  1  0.434013  0.491302  0.669800  1
  Bi  Bi26  1  0.931377  0.000263  0.825575  1
  Bi  Bi27  1  0.434013  0.008698  0.669800  1
  Bi  Bi28  1  0.931377  0.499737  0.825575  1
  Bi  Bi29  1  0.564945  0.504950  0.325337  1
  Bi  Bi30  1  0.058009  0.999653  0.177113  1
  Os  Os31  1  0.413525  0.750000  0.968282  1
