# generated using pymatgen
data_Ho8Er9Tm3Pt16
_symmetry_space_group_name_H-M   'P 1'
_cell_length_a   7.43102508
_cell_length_b   7.51205408
_cell_length_c   14.65826600
_cell_angle_alpha   90.00000000
_cell_angle_beta   90.00000000
_cell_angle_gamma   90.01631100
_symmetry_Int_Tables_number   1
_chemical_formula_structural   Ho8Er9Tm3Pt16
_chemical_formula_sum   'Ho8 Er9 Tm3 Pt16'
_cell_volume   818.25753499
_cell_formula_units_Z   1
loop_
 _symmetry_equiv_pos_site_id
 _symmetry_equiv_pos_as_xyz
  1  'x, y, z'
loop_
 _atom_site_type_symbol
 _atom_site_label
 _atom_site_symmetry_multiplicity
 _atom_site_fract_x
 _atom_site_fract_y
 _atom_site_fract_z
 _atom_site_occupancy
  Ho  Ho0  1  0.500927  0.679464  0.592980  1
  Ho  Ho1  1  0.001424  0.820954  0.906907  1
  Ho  Ho2  1  0.498919  0.320823  0.093248  1
  Ho  Ho3  1  0.998799  0.179239  0.406770  1
  Ho  Ho4  1  0.498919  0.320823  0.406752  1
  Ho  Ho5  1  0.998799  0.179239  0.093230  1
  Ho  Ho6  1  0.500927  0.679464  0.907020  1
  Ho  Ho7  1  0.001424  0.820954  0.593093  1
  Er  Er8  1  0.655436  0.167675  0.622292  1
  Er  Er9  1  0.155518  0.332020  0.877767  1
  Er  Er10  1  0.344603  0.832047  0.122505  1
  Er  Er11  1  0.844592  0.667916  0.377549  1
  Er  Er12  1  0.344603  0.832047  0.377495  1
  Er  Er13  1  0.844592  0.667916  0.122451  1
  Er  Er14  1  0.655436  0.167675  0.877708  1
  Er  Er15  1  0.155518  0.332020  0.622233  1
  Er  Er16  1  0.818501  0.511038  0.750000  1
  Tm  Tm17  1  0.318474  0.989250  0.750000  1
  Tm  Tm18  1  0.181595  0.489092  0.250000  1
  Tm  Tm19  1  0.681538  0.010886  0.250000  1
  Pt  Pt20  1  0.683793  0.967499  0.457930  1
  Pt  Pt21  1  0.183900  0.532544  0.041915  1
  Pt  Pt22  1  0.316107  0.032617  0.958237  1
  Pt  Pt23  1  0.815932  0.467292  0.541785  1
  Pt  Pt24  1  0.316107  0.032617  0.541763  1
  Pt  Pt25  1  0.815932  0.467292  0.958215  1
  Pt  Pt26  1  0.683793  0.967499  0.042070  1
  Pt  Pt27  1  0.183900  0.532544  0.458085  1
  Pt  Pt28  1  0.452261  0.386442  0.750000  1
  Pt  Pt29  1  0.953072  0.112539  0.750000  1
  Pt  Pt30  1  0.547180  0.612847  0.250000  1
  Pt  Pt31  1  0.047048  0.887037  0.250000  1
  Pt  Pt32  1  0.680404  0.856527  0.750000  1
  Pt  Pt33  1  0.181640  0.644267  0.750000  1
  Pt  Pt34  1  0.319093  0.144046  0.250000  1
  Pt  Pt35  1  0.819297  0.355850  0.250000  1
