# generated using pymatgen
data_KCr3Sb12Os
_symmetry_space_group_name_H-M   'P 1'
_cell_length_a   8.31403156
_cell_length_b   8.25350274
_cell_length_c   8.25350341
_cell_angle_alpha   109.32218716
_cell_angle_beta   109.61984630
_cell_angle_gamma   109.61984209
_symmetry_Int_Tables_number   1
_chemical_formula_structural   KCr3Sb12Os
_chemical_formula_sum   'K1 Cr3 Sb12 Os1'
_cell_volume   435.17761163
_cell_formula_units_Z   1
loop_
 _symmetry_equiv_pos_site_id
 _symmetry_equiv_pos_as_xyz
  1  'x, y, z'
loop_
 _atom_site_type_symbol
 _atom_site_label
 _atom_site_symmetry_multiplicity
 _atom_site_fract_x
 _atom_site_fract_y
 _atom_site_fract_z
 _atom_site_occupancy
  K  K0  1  0.000000  0.000000  0.000000  1
  Cr  Cr1  1  0.000000  0.000000  0.500000  1
  Cr  Cr2  1  0.000000  0.500000  0.000000  1
  Cr  Cr3  1  0.500000  0.500000  0.500000  1
  Sb  Sb4  1  0.346862  0.186410  0.849625  1
  Sb  Sb5  1  0.653138  0.813590  0.150375  1
  Sb  Sb6  1  0.654419  0.500180  0.847433  1
  Sb  Sb7  1  0.345581  0.499820  0.152567  1
  Sb  Sb8  1  0.193014  0.847433  0.347253  1
  Sb  Sb9  1  0.806986  0.152567  0.652747  1
  Sb  Sb10  1  0.502762  0.849625  0.663216  1
  Sb  Sb11  1  0.497238  0.150375  0.336784  1
  Sb  Sb12  1  0.839548  0.336784  0.186410  1
  Sb  Sb13  1  0.160452  0.663216  0.813590  1
  Sb  Sb14  1  0.845762  0.652747  0.500180  1
  Sb  Sb15  1  0.154238  0.347253  0.499820  1
  Os  Os16  1  0.500000  0.000000  0.000000  1
