# generated using pymatgen
data_TmBi5(MoO7)2
_symmetry_space_group_name_H-M   'P 1'
_cell_length_a   6.54382055
_cell_length_b   6.99329060
_cell_length_c   7.64241000
_cell_angle_alpha   106.03232124
_cell_angle_beta   89.53066255
_cell_angle_gamma   102.22881987
_symmetry_Int_Tables_number   1
_chemical_formula_structural   TmBi5(MoO7)2
_chemical_formula_sum   'Tm1 Bi5 Mo2 O14'
_cell_volume   328.03706031
_cell_formula_units_Z   1
loop_
 _symmetry_equiv_pos_site_id
 _symmetry_equiv_pos_as_xyz
  1  'x, y, z'
loop_
 _atom_site_type_symbol
 _atom_site_label
 _atom_site_symmetry_multiplicity
 _atom_site_fract_x
 _atom_site_fract_y
 _atom_site_fract_z
 _atom_site_occupancy
  Tm  Tm0  1  0.546665  0.005374  0.744683  1
  Bi  Bi1  1  0.487087  0.993230  0.255573  1
  Bi  Bi2  1  0.271998  0.501072  0.873690  1
  Bi  Bi3  1  0.744297  0.489754  0.124496  1
  Bi  Bi4  1  0.749199  0.542840  0.634704  1
  Bi  Bi5  1  0.251883  0.457141  0.367648  1
  Mo  Mo6  1  0.007136  0.998945  0.502741  1
  Mo  Mo7  1  0.004940  0.001362  0.997549  1
  O  O8  1  0.470757  0.633645  0.181338  1
  O  O9  1  0.535728  0.341537  0.815561  1
  O  O10  1  0.266320  0.957734  0.925516  1
  O  O11  1  0.709156  0.050763  0.037558  1
  O  O12  1  0.272647  0.957436  0.539250  1
  O  O13  1  0.713762  0.045103  0.481776  1
  O  O14  1  0.534903  0.339822  0.360363  1
  O  O15  1  0.471158  0.665889  0.649099  1
  O  O16  1  0.890672  0.697634  0.960264  1
  O  O17  1  0.099966  0.309939  0.043542  1
  O  O18  1  0.095869  0.307470  0.615910  1
  O  O19  1  0.903269  0.692424  0.388174  1
  O  O20  1  0.885502  0.930768  0.731404  1
  O  O21  1  0.087086  0.080115  0.269160  1
