# generated using pymatgen
data_Hf6Al9Co6Si7Ir
_symmetry_space_group_name_H-M   'P 1'
_cell_length_a   8.34013973
_cell_length_b   8.37111724
_cell_length_c   8.37111700
_cell_angle_alpha   59.99999698
_cell_angle_beta   59.87705375
_cell_angle_gamma   59.87705591
_symmetry_Int_Tables_number   1
_chemical_formula_structural   Hf6Al9Co6Si7Ir
_chemical_formula_sum   'Hf6 Al9 Co6 Si7 Ir1'
_cell_volume   412.49206112
_cell_formula_units_Z   1
loop_
 _symmetry_equiv_pos_site_id
 _symmetry_equiv_pos_as_xyz
  1  'x, y, z'
loop_
 _atom_site_type_symbol
 _atom_site_label
 _atom_site_symmetry_multiplicity
 _atom_site_fract_x
 _atom_site_fract_y
 _atom_site_fract_z
 _atom_site_occupancy
  Hf  Hf0  1  0.693030  0.306804  0.306804  1
  Hf  Hf1  1  0.308703  0.692787  0.692787  1
  Hf  Hf2  1  0.308703  0.692787  0.305722  1
  Hf  Hf3  1  0.693030  0.306804  0.693363  1
  Hf  Hf4  1  0.308703  0.305722  0.692787  1
  Hf  Hf5  1  0.693030  0.693363  0.306804  1
  Al  Al6  1  0.001590  0.666137  0.666137  1
  Al  Al7  1  0.123276  0.123592  0.123592  1
  Al  Al8  1  0.878618  0.878193  0.878193  1
  Al  Al9  1  0.123276  0.123592  0.629540  1
  Al  Al10  1  0.123276  0.629540  0.123592  1
  Al  Al11  1  0.878618  0.878193  0.364997  1
  Al  Al12  1  0.878618  0.364997  0.878193  1
  Al  Al13  1  0.628894  0.123702  0.123702  1
  Al  Al14  1  0.369771  0.876743  0.876743  1
  Co  Co15  1  0.499001  0.001338  0.001338  1
  Co  Co16  1  0.000608  0.495470  0.495470  1
  Co  Co17  1  0.000608  0.495470  0.008452  1
  Co  Co18  1  0.499001  0.001338  0.498324  1
  Co  Co19  1  0.000608  0.008452  0.495470  1
  Co  Co20  1  0.499001  0.498324  0.001338  1
  Si  Si21  1  0.339774  0.341524  0.341524  1
  Si  Si22  1  0.664424  0.660323  0.660323  1
  Si  Si23  1  0.339774  0.341524  0.977178  1
  Si  Si24  1  0.339774  0.977178  0.341524  1
  Si  Si25  1  0.664424  0.660323  0.014930  1
  Si  Si26  1  0.664424  0.014930  0.660323  1
  Si  Si27  1  0.976224  0.341258  0.341258  1
  Ir  Ir28  1  0.001221  0.999593  0.999593  1
