# generated using pymatgen
data_Sr4AgH12Pt
_symmetry_space_group_name_H-M   'P 1'
_cell_length_a   7.50128250
_cell_length_b   7.50128341
_cell_length_c   5.64902517
_cell_angle_alpha   89.97371872
_cell_angle_beta   89.97371641
_cell_angle_gamma   135.60033296
_symmetry_Int_Tables_number   1
_chemical_formula_structural   Sr4AgH12Pt
_chemical_formula_sum   'Sr4 Ag1 H12 Pt1'
_cell_volume   222.39797433
_cell_formula_units_Z   1
loop_
 _symmetry_equiv_pos_site_id
 _symmetry_equiv_pos_as_xyz
  1  'x, y, z'
loop_
 _atom_site_type_symbol
 _atom_site_label
 _atom_site_symmetry_multiplicity
 _atom_site_fract_x
 _atom_site_fract_y
 _atom_site_fract_z
 _atom_site_occupancy
  Sr  Sr0  1  0.651529  0.348471  0.000000  1
  Sr  Sr1  1  0.348471  0.651529  0.000000  1
  Sr  Sr2  1  0.851732  0.148268  0.500000  1
  Sr  Sr3  1  0.148268  0.851732  0.500000  1
  Ag  Ag4  1  0.000000  0.000000  0.000000  1
  H  H5  1  0.873926  0.126074  0.000000  1
  H  H6  1  0.126074  0.873926  0.000000  1
  H  H7  1  0.621169  0.378831  0.500000  1
  H  H8  1  0.378831  0.621169  0.500000  1
  H  H9  1  0.999547  0.500328  0.255207  1
  H  H10  1  0.000453  0.499672  0.744793  1
  H  H11  1  0.499672  0.000453  0.744793  1
  H  H12  1  0.500328  0.999547  0.255207  1
  H  H13  1  0.280441  0.280441  0.287055  1
  H  H14  1  0.719559  0.719559  0.712945  1
  H  H15  1  0.288637  0.288637  0.722022  1
  H  H16  1  0.711363  0.711363  0.277978  1
  Pt  Pt17  1  0.500000  0.500000  0.500000  1
