# generated using pymatgen
data_Tb3Ho3Ti2(Al11Ru4)2
_symmetry_space_group_name_H-M   'P 1'
_cell_length_a   8.87087257
_cell_length_b   8.85902473
_cell_length_c   9.54458856
_cell_angle_alpha   89.96089029
_cell_angle_beta   90.02103225
_cell_angle_gamma   120.18213214
_symmetry_Int_Tables_number   1
_chemical_formula_structural   Tb3Ho3Ti2(Al11Ru4)2
_chemical_formula_sum   'Tb3 Ho3 Ti2 Al22 Ru8'
_cell_volume   648.39553247
_cell_formula_units_Z   1
loop_
 _symmetry_equiv_pos_site_id
 _symmetry_equiv_pos_as_xyz
  1  'x, y, z'
loop_
 _atom_site_type_symbol
 _atom_site_label
 _atom_site_symmetry_multiplicity
 _atom_site_fract_x
 _atom_site_fract_y
 _atom_site_fract_z
 _atom_site_occupancy
  Tb  Tb0  1  0.193529  0.386696  0.251203  1
  Tb  Tb1  1  0.806182  0.612987  0.748615  1
  Tb  Tb2  1  0.613214  0.806090  0.251337  1
  Ho  Ho3  1  0.388187  0.194631  0.748567  1
  Ho  Ho4  1  0.193669  0.805651  0.251411  1
  Ho  Ho5  1  0.806064  0.194351  0.748501  1
  Ti  Ti6  1  0.333155  0.666817  0.995914  1
  Ti  Ti7  1  0.666502  0.333001  0.003646  1
  Al  Al8  1  0.666344  0.333622  0.518038  1
  Al  Al9  1  0.333194  0.666054  0.482388  1
  Al  Al10  1  0.161371  0.323544  0.577681  1
  Al  Al11  1  0.838707  0.676154  0.422814  1
  Al  Al12  1  0.676502  0.839179  0.577691  1
  Al  Al13  1  0.841148  0.681566  0.077631  1
  Al  Al14  1  0.323462  0.160804  0.423054  1
  Al  Al15  1  0.159109  0.318263  0.921969  1
  Al  Al16  1  0.162067  0.839100  0.577410  1
  Al  Al17  1  0.318185  0.158711  0.077157  1
  Al  Al18  1  0.838033  0.161376  0.423128  1
  Al  Al19  1  0.681694  0.841279  0.921874  1
  Al  Al20  1  0.840747  0.159073  0.077190  1
  Al  Al21  1  0.159354  0.841293  0.922405  1
  Al  Al22  1  0.560252  0.120948  0.252507  1
  Al  Al23  1  0.439412  0.879430  0.747399  1
  Al  Al24  1  0.878525  0.439205  0.252619  1
  Al  Al25  1  0.121415  0.560755  0.747507  1
  Al  Al26  1  0.560848  0.438553  0.252556  1
  Al  Al27  1  0.438821  0.560657  0.747463  1
  Al  Al28  1  0.000673  0.999169  0.250642  1
  Al  Al29  1  0.000568  0.001411  0.749673  1
  Ru  Ru30  1  0.499833  0.000253  0.999654  1
  Ru  Ru31  1  0.000013  0.499915  0.000000  1
  Ru  Ru32  1  0.499790  0.000032  0.500033  1
  Ru  Ru33  1  0.500003  0.499717  0.999669  1
  Ru  Ru34  1  0.999904  0.500048  0.500185  1
  Ru  Ru35  1  0.499812  0.499688  0.500127  1
  Ru  Ru36  1  0.999736  0.999930  0.000225  1
  Ru  Ru37  1  0.999976  0.000046  0.500117  1
