# generated using pymatgen
data_Ac2SnPd2
_symmetry_space_group_name_H-M   'P 1'
_cell_length_a   8.06012000
_cell_length_b   8.06012000
_cell_length_c   4.20984600
_cell_angle_alpha   90.00000000
_cell_angle_beta   90.00000000
_cell_angle_gamma   90.00000000
_symmetry_Int_Tables_number   1
_chemical_formula_structural   Ac2SnPd2
_chemical_formula_sum   'Ac4 Sn2 Pd4'
_cell_volume   273.49489519
_cell_formula_units_Z   2
loop_
 _symmetry_equiv_pos_site_id
 _symmetry_equiv_pos_as_xyz
  1  'x, y, z'
loop_
 _atom_site_type_symbol
 _atom_site_label
 _atom_site_symmetry_multiplicity
 _atom_site_fract_x
 _atom_site_fract_y
 _atom_site_fract_z
 _atom_site_occupancy
  Ac  Ac0  1  0.677477  0.177477  0.500000  1
  Ac  Ac1  1  0.177477  0.322523  0.500000  1
  Ac  Ac2  1  0.322523  0.822523  0.500000  1
  Ac  Ac3  1  0.822523  0.677477  0.500000  1
  Sn  Sn4  1  0.500000  0.500000  0.000000  1
  Sn  Sn5  1  0.000000  0.000000  0.000000  1
  Pd  Pd6  1  0.874445  0.374445  0.000000  1
  Pd  Pd7  1  0.374445  0.125555  0.000000  1
  Pd  Pd8  1  0.625555  0.874445  0.000000  1
  Pd  Pd9  1  0.125555  0.625555  0.000000  1
