# generated using pymatgen
data_Sc8Nb11Si16Rh
_symmetry_space_group_name_H-M   'P 1'
_cell_length_a   6.66702777
_cell_length_b   6.93109385
_cell_length_c   13.10609500
_cell_angle_alpha   90.00000000
_cell_angle_beta   90.00000000
_cell_angle_gamma   90.56899942
_symmetry_Int_Tables_number   1
_chemical_formula_structural   Sc8Nb11Si16Rh
_chemical_formula_sum   'Sc8 Nb11 Si16 Rh1'
_cell_volume   605.60010074
_cell_formula_units_Z   1
loop_
 _symmetry_equiv_pos_site_id
 _symmetry_equiv_pos_as_xyz
  1  'x, y, z'
loop_
 _atom_site_type_symbol
 _atom_site_label
 _atom_site_symmetry_multiplicity
 _atom_site_fract_x
 _atom_site_fract_y
 _atom_site_fract_z
 _atom_site_occupancy
  Sc  Sc0  1  0.496534  0.675977  0.592942  1
  Sc  Sc1  1  0.001906  0.827264  0.906783  1
  Sc  Sc2  1  0.498105  0.326365  0.095140  1
  Sc  Sc3  1  0.999809  0.173450  0.403472  1
  Sc  Sc4  1  0.498105  0.326365  0.404860  1
  Sc  Sc5  1  0.999809  0.173450  0.096528  1
  Sc  Sc6  1  0.496534  0.675977  0.907058  1
  Sc  Sc7  1  0.001906  0.827264  0.593217  1
  Nb  Nb8  1  0.669756  0.171017  0.627597  1
  Nb  Nb9  1  0.161996  0.323590  0.872830  1
  Nb  Nb10  1  0.336253  0.825960  0.124597  1
  Nb  Nb11  1  0.836020  0.673766  0.377262  1
  Nb  Nb12  1  0.336253  0.825960  0.375403  1
  Nb  Nb13  1  0.836020  0.673766  0.122738  1
  Nb  Nb14  1  0.669756  0.171017  0.872403  1
  Nb  Nb15  1  0.161996  0.323590  0.627170  1
  Nb  Nb16  1  0.339814  0.998701  0.750000  1
  Nb  Nb17  1  0.162891  0.506095  0.250000  1
  Nb  Nb18  1  0.662142  0.994619  0.250000  1
  Si  Si19  1  0.669553  0.967556  0.460497  1
  Si  Si20  1  0.168567  0.532871  0.037885  1
  Si  Si21  1  0.333622  0.034798  0.959453  1
  Si  Si22  1  0.831464  0.464946  0.541704  1
  Si  Si23  1  0.333622  0.034798  0.540547  1
  Si  Si24  1  0.831464  0.464946  0.958296  1
  Si  Si25  1  0.669553  0.967556  0.039503  1
  Si  Si26  1  0.168567  0.532871  0.462115  1
  Si  Si27  1  0.470455  0.388887  0.750000  1
  Si  Si28  1  0.964011  0.103742  0.750000  1
  Si  Si29  1  0.539194  0.613209  0.250000  1
  Si  Si30  1  0.038176  0.886280  0.250000  1
  Si  Si31  1  0.705938  0.855984  0.750000  1
  Si  Si32  1  0.195851  0.632620  0.750000  1
  Si  Si33  1  0.295156  0.137739  0.250000  1
  Si  Si34  1  0.792933  0.363675  0.250000  1
  Rh  Rh35  1  0.826267  0.523326  0.750000  1
