# generated using pymatgen
data_Dy3Y5Ho2(In2Pt)4
_symmetry_space_group_name_H-M   'P 1'
_cell_length_a   3.63135400
_cell_length_b   8.17245552
_cell_length_c   18.30051769
_cell_angle_alpha   89.94935060
_cell_angle_beta   90.00000000
_cell_angle_gamma   90.00000000
_symmetry_Int_Tables_number   1
_chemical_formula_structural   Dy3Y5Ho2(In2Pt)4
_chemical_formula_sum   'Dy3 Y5 Ho2 In8 Pt4'
_cell_volume   543.10569771
_cell_formula_units_Z   1
loop_
 _symmetry_equiv_pos_site_id
 _symmetry_equiv_pos_as_xyz
  1  'x, y, z'
loop_
 _atom_site_type_symbol
 _atom_site_label
 _atom_site_symmetry_multiplicity
 _atom_site_fract_x
 _atom_site_fract_y
 _atom_site_fract_z
 _atom_site_occupancy
  Dy  Dy0  1  0.000000  0.756253  0.779108  1
  Dy  Dy1  1  0.000000  0.256234  0.720875  1
  Dy  Dy2  1  0.000000  0.743994  0.279147  1
  Y  Y3  1  0.000000  0.117033  0.415033  1
  Y  Y4  1  0.000000  0.882888  0.584825  1
  Y  Y5  1  0.000000  0.382904  0.915359  1
  Y  Y6  1  0.000000  0.999365  0.000217  1
  Y  Y7  1  0.000000  0.500104  0.499940  1
  Ho  Ho8  1  0.000000  0.616631  0.085654  1
  Ho  Ho9  1  0.000000  0.243808  0.220827  1
  In  In10  1  0.500000  0.425031  0.351263  1
  In  In11  1  0.500000  0.574998  0.648663  1
  In  In12  1  0.500000  0.075092  0.851404  1
  In  In13  1  0.500000  0.924925  0.148619  1
  In  In14  1  0.500000  0.292397  0.067186  1
  In  In15  1  0.500000  0.707649  0.932801  1
  In  In16  1  0.500000  0.207914  0.567361  1
  In  In17  1  0.500000  0.792171  0.432598  1
  Pt  Pt18  1  0.500000  0.024566  0.302621  1
  Pt  Pt19  1  0.500000  0.975841  0.697249  1
  Pt  Pt20  1  0.500000  0.475671  0.802828  1
  Pt  Pt21  1  0.500000  0.524526  0.196423  1
