# generated using pymatgen
data_AcTbTe3
_symmetry_space_group_name_H-M   'P 1'
_cell_length_a   4.58684600
_cell_length_b   11.97603500
_cell_length_c   12.41741300
_cell_angle_alpha   90.00000000
_cell_angle_beta   90.00000000
_cell_angle_gamma   90.00000000
_symmetry_Int_Tables_number   1
_chemical_formula_structural   AcTbTe3
_chemical_formula_sum   'Ac4 Tb4 Te12'
_cell_volume   682.11616501
_cell_formula_units_Z   4
loop_
 _symmetry_equiv_pos_site_id
 _symmetry_equiv_pos_as_xyz
  1  'x, y, z'
loop_
 _atom_site_type_symbol
 _atom_site_label
 _atom_site_symmetry_multiplicity
 _atom_site_fract_x
 _atom_site_fract_y
 _atom_site_fract_z
 _atom_site_occupancy
  Ac  Ac0  1  0.750000  0.502124  0.698016  1
  Ac  Ac1  1  0.750000  0.997876  0.198016  1
  Ac  Ac2  1  0.250000  0.497876  0.301984  1
  Ac  Ac3  1  0.250000  0.002124  0.801984  1
  Tb  Tb4  1  0.250000  0.187092  0.487156  1
  Tb  Tb5  1  0.250000  0.312908  0.987156  1
  Tb  Tb6  1  0.750000  0.812908  0.512844  1
  Tb  Tb7  1  0.750000  0.687092  0.012844  1
  Te  Te8  1  0.250000  0.635367  0.541265  1
  Te  Te9  1  0.250000  0.864633  0.041265  1
  Te  Te10  1  0.750000  0.364633  0.458735  1
  Te  Te11  1  0.750000  0.135367  0.958735  1
  Te  Te12  1  0.250000  0.293679  0.729963  1
  Te  Te13  1  0.250000  0.206321  0.229963  1
  Te  Te14  1  0.750000  0.706321  0.270037  1
  Te  Te15  1  0.750000  0.793679  0.770037  1
  Te  Te16  1  0.750000  0.055802  0.608444  1
  Te  Te17  1  0.750000  0.444198  0.108444  1
  Te  Te18  1  0.250000  0.944198  0.391556  1
  Te  Te19  1  0.250000  0.555802  0.891556  1
