# generated using pymatgen
data_Ho4ErLu15(CoSb2)4
_symmetry_space_group_name_H-M   'P 1'
_cell_length_a   7.71494402
_cell_length_b   8.72463900
_cell_length_c   11.99128259
_cell_angle_alpha   90.00000000
_cell_angle_beta   90.05902296
_cell_angle_gamma   90.00000000
_symmetry_Int_Tables_number   1
_chemical_formula_structural   Ho4ErLu15(CoSb2)4
_chemical_formula_sum   'Ho4 Er1 Lu15 Co4 Sb8'
_cell_volume   807.13402014
_cell_formula_units_Z   1
loop_
 _symmetry_equiv_pos_site_id
 _symmetry_equiv_pos_as_xyz
  1  'x, y, z'
loop_
 _atom_site_type_symbol
 _atom_site_label
 _atom_site_symmetry_multiplicity
 _atom_site_fract_x
 _atom_site_fract_y
 _atom_site_fract_z
 _atom_site_occupancy
  Ho  Ho0  1  0.623156  0.750000  0.308045  1
  Ho  Ho1  1  0.122796  0.250000  0.191940  1
  Ho  Ho2  1  0.377177  0.250000  0.691899  1
  Ho  Ho3  1  0.877395  0.750000  0.808156  1
  Er  Er4  1  0.156586  0.750000  0.204485  1
  Lu  Lu5  1  0.656329  0.250000  0.296239  1
  Lu  Lu6  1  0.843569  0.250000  0.796145  1
  Lu  Lu7  1  0.343693  0.750000  0.703785  1
  Lu  Lu8  1  0.448107  0.750000  0.997353  1
  Lu  Lu9  1  0.947403  0.250000  0.502450  1
  Lu  Lu10  1  0.552683  0.250000  0.002285  1
  Lu  Lu11  1  0.052478  0.750000  0.497947  1
  Lu  Lu12  1  0.823973  0.962752  0.065150  1
  Lu  Lu13  1  0.324399  0.037863  0.434706  1
  Lu  Lu14  1  0.175672  0.462145  0.934468  1
  Lu  Lu15  1  0.675686  0.537667  0.565392  1
  Lu  Lu16  1  0.175672  0.037855  0.934468  1
  Lu  Lu17  1  0.675686  0.962333  0.565392  1
  Lu  Lu18  1  0.823973  0.537248  0.065150  1
  Lu  Lu19  1  0.324399  0.462137  0.434706  1
  Co  Co20  1  0.430672  0.750000  0.491226  1
  Co  Co21  1  0.930717  0.250000  0.008726  1
  Co  Co22  1  0.569068  0.250000  0.508740  1
  Co  Co23  1  0.068999  0.750000  0.990801  1
  Sb  Sb24  1  0.931226  0.992223  0.328903  1
  Sb  Sb25  1  0.432578  0.008902  0.171247  1
  Sb  Sb26  1  0.068084  0.491599  0.671464  1
  Sb  Sb27  1  0.567968  0.508408  0.828559  1
  Sb  Sb28  1  0.068084  0.008401  0.671464  1
  Sb  Sb29  1  0.567968  0.991592  0.828559  1
  Sb  Sb30  1  0.931226  0.507777  0.328903  1
  Sb  Sb31  1  0.432578  0.491098  0.171247  1
