# generated using pymatgen
data_LiTb3Ag2HgGe2
_symmetry_space_group_name_H-M   'P 1'
_cell_length_a   7.35399100
_cell_length_b   7.25775097
_cell_length_c   4.23505400
_cell_angle_alpha   90.00000000
_cell_angle_beta   90.00000000
_cell_angle_gamma   119.56802875
_symmetry_Int_Tables_number   1
_chemical_formula_structural   LiTb3Ag2HgGe2
_chemical_formula_sum   'Li1 Tb3 Ag2 Hg1 Ge2'
_cell_volume   196.60236621
_cell_formula_units_Z   1
loop_
 _symmetry_equiv_pos_site_id
 _symmetry_equiv_pos_as_xyz
  1  'x, y, z'
loop_
 _atom_site_type_symbol
 _atom_site_label
 _atom_site_symmetry_multiplicity
 _atom_site_fract_x
 _atom_site_fract_y
 _atom_site_fract_z
 _atom_site_occupancy
  Li  Li0  1  0.000000  0.243441  0.500000  1
  Tb  Tb1  1  0.427978  0.426262  0.000000  1
  Tb  Tb2  1  0.572022  0.998285  0.000000  1
  Tb  Tb3  1  0.000000  0.580817  0.000000  1
  Ag  Ag4  1  0.740115  0.741433  0.500000  1
  Ag  Ag5  1  0.259885  0.001318  0.500000  1
  Hg  Hg6  1  0.000000  0.019351  0.000000  1
  Ge  Ge7  1  0.675820  0.332456  0.500000  1
  Ge  Ge8  1  0.324180  0.656637  0.500000  1
