# generated using pymatgen
data_Ho3MgZn2Si2Au
_symmetry_space_group_name_H-M   'P 1'
_cell_length_a   6.94177736
_cell_length_b   6.94177683
_cell_length_c   4.31636300
_cell_angle_alpha   90.00000000
_cell_angle_beta   90.00000000
_cell_angle_gamma   119.75253969
_symmetry_Int_Tables_number   1
_chemical_formula_structural   Ho3MgZn2Si2Au
_chemical_formula_sum   'Ho3 Mg1 Zn2 Si2 Au1'
_cell_volume   180.57909598
_cell_formula_units_Z   1
loop_
 _symmetry_equiv_pos_site_id
 _symmetry_equiv_pos_as_xyz
  1  'x, y, z'
loop_
 _atom_site_type_symbol
 _atom_site_label
 _atom_site_symmetry_multiplicity
 _atom_site_fract_x
 _atom_site_fract_y
 _atom_site_fract_z
 _atom_site_occupancy
  Ho  Ho0  1  0.572028  0.998553  0.000000  1
  Ho  Ho1  1  0.998553  0.572028  0.000000  1
  Ho  Ho2  1  0.417654  0.417654  0.000000  1
  Mg  Mg3  1  0.766397  0.766397  0.500000  1
  Zn  Zn4  1  0.251751  0.001014  0.500000  1
  Zn  Zn5  1  0.001014  0.251751  0.500000  1
  Si  Si6  1  0.326007  0.663430  0.500000  1
  Si  Si7  1  0.663430  0.326007  0.500000  1
  Au  Au8  1  0.003167  0.003167  0.000000  1
