# generated using pymatgen
data_NdTh2AlGa2Ni3
_symmetry_space_group_name_H-M   'P 1'
_cell_length_a   7.11401127
_cell_length_b   7.04034261
_cell_length_c   4.00130800
_cell_angle_alpha   90.00000000
_cell_angle_beta   90.00000000
_cell_angle_gamma   119.65803828
_symmetry_Int_Tables_number   1
_chemical_formula_structural   NdTh2AlGa2Ni3
_chemical_formula_sum   'Nd1 Th2 Al1 Ga2 Ni3'
_cell_volume   174.15148156
_cell_formula_units_Z   1
loop_
 _symmetry_equiv_pos_site_id
 _symmetry_equiv_pos_as_xyz
  1  'x, y, z'
loop_
 _atom_site_type_symbol
 _atom_site_label
 _atom_site_symmetry_multiplicity
 _atom_site_fract_x
 _atom_site_fract_y
 _atom_site_fract_z
 _atom_site_occupancy
  Nd  Nd0  1  0.000000  0.413547  0.500000  1
  Th  Th1  1  0.578194  0.579871  0.500000  1
  Th  Th2  1  0.421806  0.001678  0.500000  1
  Al  Al3  1  0.000000  0.766866  0.000000  1
  Ga  Ga4  1  0.231807  0.233007  0.000000  1
  Ga  Ga5  1  0.768193  0.001200  0.000000  1
  Ni  Ni6  1  0.343919  0.680532  0.000000  1
  Ni  Ni7  1  0.656081  0.336613  0.000000  1
  Ni  Ni8  1  0.000000  0.986687  0.500000  1
