# generated using pymatgen
data_Pa2Ni11P7W
_symmetry_space_group_name_H-M   'P 1'
_cell_length_a   9.12496752
_cell_length_b   9.11578705
_cell_length_c   3.72798200
_cell_angle_alpha   90.00000000
_cell_angle_beta   90.00000000
_cell_angle_gamma   120.40774370
_symmetry_Int_Tables_number   1
_chemical_formula_structural   Pa2Ni11P7W
_chemical_formula_sum   'Pa2 Ni11 P7 W1'
_cell_volume   267.44276256
_cell_formula_units_Z   1
loop_
 _symmetry_equiv_pos_site_id
 _symmetry_equiv_pos_as_xyz
  1  'x, y, z'
loop_
 _atom_site_type_symbol
 _atom_site_label
 _atom_site_symmetry_multiplicity
 _atom_site_fract_x
 _atom_site_fract_y
 _atom_site_fract_z
 _atom_site_occupancy
  Pa  Pa0  1  0.000278  0.003941  0.000000  1
  Pa  Pa1  1  0.336369  0.669197  0.500000  1
  Ni  Ni2  1  0.293634  0.392233  0.000000  1
  Ni  Ni3  1  0.098945  0.709186  0.000000  1
  Ni  Ni4  1  0.541900  0.431389  0.500000  1
  Ni  Ni5  1  0.390392  0.178060  0.000000  1
  Ni  Ni6  1  0.788439  0.614204  0.000000  1
  Ni  Ni7  1  0.823526  0.208523  0.000000  1
  Ni  Ni8  1  0.235169  0.945876  0.500000  1
  Ni  Ni9  1  0.053119  0.284985  0.500000  1
  Ni  Ni10  1  0.711548  0.764453  0.500000  1
  Ni  Ni11  1  0.573115  0.113624  0.500000  1
  Ni  Ni12  1  0.608094  0.897649  0.000000  1
  P  P13  1  0.662817  0.331063  0.000000  1
  P  P14  1  0.077510  0.447260  0.000000  1
  P  P15  1  0.264476  0.220105  0.500000  1
  P  P16  1  0.777526  0.041407  0.500000  1
  P  P17  1  0.958528  0.743181  0.500000  1
  P  P18  1  0.552832  0.626353  0.000000  1
  P  P19  1  0.375632  0.928811  0.000000  1
  W  W20  1  0.876150  0.448501  0.500000  1
