# generated using pymatgen
data_Zr2ScCo8NiB6
_symmetry_space_group_name_H-M   'P 1'
_cell_length_a   5.69894814
_cell_length_b   5.69894906
_cell_length_c   5.70481691
_cell_angle_alpha   94.92455440
_cell_angle_beta   94.92455684
_cell_angle_gamma   94.80103645
_symmetry_Int_Tables_number   1
_chemical_formula_structural   Zr2ScCo8NiB6
_chemical_formula_sum   'Zr2 Sc1 Co8 Ni1 B6'
_cell_volume   183.14016752
_cell_formula_units_Z   1
loop_
 _symmetry_equiv_pos_site_id
 _symmetry_equiv_pos_as_xyz
  1  'x, y, z'
loop_
 _atom_site_type_symbol
 _atom_site_label
 _atom_site_symmetry_multiplicity
 _atom_site_fract_x
 _atom_site_fract_y
 _atom_site_fract_z
 _atom_site_occupancy
  Zr  Zr0  1  0.669801  0.669801  0.674308  1
  Zr  Zr1  1  0.330199  0.330199  0.325692  1
  Sc  Sc2  1  0.000000  0.000000  0.000000  1
  Co  Co3  1  0.500000  0.000000  0.000000  1
  Co  Co4  1  0.000000  0.500000  0.000000  1
  Co  Co5  1  0.697849  0.197613  0.695714  1
  Co  Co6  1  0.694537  0.694537  0.198629  1
  Co  Co7  1  0.197613  0.697849  0.695714  1
  Co  Co8  1  0.302151  0.802387  0.304286  1
  Co  Co9  1  0.305463  0.305463  0.801371  1
  Co  Co10  1  0.802387  0.302151  0.304286  1
  Ni  Ni11  1  0.000000  0.000000  0.500000  1
  B  B12  1  0.625713  0.374287  0.000000  1
  B  B13  1  0.000258  0.616905  0.378436  1
  B  B14  1  0.383095  0.999742  0.621564  1
  B  B15  1  0.999742  0.383095  0.621564  1
  B  B16  1  0.616905  0.000258  0.378436  1
  B  B17  1  0.374287  0.625713  0.000000  1
