# generated using pymatgen
data_La2HoCoBr3
_symmetry_space_group_name_H-M   'P 1'
_cell_length_a   10.38285609
_cell_length_b   10.38285671
_cell_length_c   10.38285700
_cell_angle_alpha   107.92296138
_cell_angle_beta   107.92296249
_cell_angle_gamma   112.61420160
_symmetry_Int_Tables_number   1
_chemical_formula_structural   La2HoCoBr3
_chemical_formula_sum   'La8 Ho4 Co4 Br12'
_cell_volume   859.68945064
_cell_formula_units_Z   4
loop_
 _symmetry_equiv_pos_site_id
 _symmetry_equiv_pos_as_xyz
  1  'x, y, z'
loop_
 _atom_site_type_symbol
 _atom_site_label
 _atom_site_symmetry_multiplicity
 _atom_site_fract_x
 _atom_site_fract_y
 _atom_site_fract_z
 _atom_site_occupancy
  La  La0  1  0.415650  0.407690  0.259819  1
  La  La1  1  0.147870  0.155832  0.740181  1
  La  La2  1  0.102130  0.342310  0.507960  1
  La  La3  1  0.834350  0.594168  0.492040  1
  La  La4  1  0.592310  0.584350  0.740181  1
  La  La5  1  0.844168  0.852130  0.259819  1
  La  La6  1  0.657690  0.897870  0.492040  1
  La  La7  1  0.405832  0.165650  0.507960  1
  Ho  Ho8  1  0.395533  0.604467  0.000000  1
  Ho  Ho9  1  0.604467  0.395533  0.000000  1
  Ho  Ho10  1  0.645533  0.145533  0.291065  1
  Ho  Ho11  1  0.854467  0.354467  0.708935  1
  Co  Co12  1  0.623067  0.623067  0.246134  1
  Co  Co13  1  0.376933  0.376933  0.753866  1
  Co  Co14  1  0.873067  0.126933  0.500000  1
  Co  Co15  1  0.626933  0.373067  0.500000  1
  Br  Br16  1  0.368258  0.631742  0.500000  1
  Br  Br17  1  0.131742  0.868258  0.500000  1
  Br  Br18  1  0.118258  0.118258  0.236517  1
  Br  Br19  1  0.881742  0.881742  0.763483  1
  Br  Br20  1  0.879765  0.611578  0.996601  1
  Br  Br21  1  0.614978  0.883163  0.003399  1
  Br  Br22  1  0.635022  0.138422  0.768187  1
  Br  Br23  1  0.370235  0.866837  0.231813  1
  Br  Br24  1  0.388422  0.120235  0.003399  1
  Br  Br25  1  0.116837  0.385022  0.996601  1
  Br  Br26  1  0.861578  0.364978  0.231813  1
  Br  Br27  1  0.133163  0.629765  0.768187  1
