# generated using pymatgen
data_GdNp3O12
_symmetry_space_group_name_H-M   'P 1'
_cell_length_a   7.12315432
_cell_length_b   7.17054723
_cell_length_c   7.12081900
_cell_angle_alpha   109.52143164
_cell_angle_beta   109.45558504
_cell_angle_gamma   109.52994536
_symmetry_Int_Tables_number   1
_chemical_formula_structural   GdNp3O12
_chemical_formula_sum   'Gd1 Np3 O12'
_cell_volume   279.66071809
_cell_formula_units_Z   1
loop_
 _symmetry_equiv_pos_site_id
 _symmetry_equiv_pos_as_xyz
  1  'x, y, z'
loop_
 _atom_site_type_symbol
 _atom_site_label
 _atom_site_symmetry_multiplicity
 _atom_site_fract_x
 _atom_site_fract_y
 _atom_site_fract_z
 _atom_site_occupancy
  Gd  Gd0  1  0.499926  0.996483  0.996394  1
  Np  Np1  1  0.500038  0.496483  0.496549  1
  Np  Np2  1  0.000052  0.496698  0.996718  1
  Np  Np3  1  0.999920  0.996624  0.496631  1
  O  O4  1  0.240808  0.427093  0.229057  1
  O  O5  1  0.759334  0.565972  0.764035  1
  O  O6  1  0.194096  0.995327  0.753583  1
  O  O7  1  0.805710  0.997998  0.239746  1
  O  O8  1  0.266582  0.204457  0.513034  1
  O  O9  1  0.733232  0.788595  0.480032  1
  O  O10  1  0.743564  0.247816  0.945056  1
  O  O11  1  0.256535  0.745671  0.048360  1
  O  O12  1  0.005051  0.697558  0.258861  1
  O  O13  1  0.995055  0.295891  0.734569  1
  O  O14  1  0.555783  0.292206  0.303837  1
  O  O15  1  0.444316  0.700852  0.689255  1
