# generated using pymatgen
data_DyTh2(AlPd)3
_symmetry_space_group_name_H-M   'P 1'
_cell_length_a   7.27161512
_cell_length_b   7.27161529
_cell_length_c   4.18518300
_cell_angle_alpha   90.00000000
_cell_angle_beta   90.00000000
_cell_angle_gamma   120.68288974
_symmetry_Int_Tables_number   1
_chemical_formula_structural   DyTh2(AlPd)3
_chemical_formula_sum   'Dy1 Th2 Al3 Pd3'
_cell_volume   190.31676818
_cell_formula_units_Z   1
loop_
 _symmetry_equiv_pos_site_id
 _symmetry_equiv_pos_as_xyz
  1  'x, y, z'
loop_
 _atom_site_type_symbol
 _atom_site_label
 _atom_site_symmetry_multiplicity
 _atom_site_fract_x
 _atom_site_fract_y
 _atom_site_fract_z
 _atom_site_occupancy
  Dy  Dy0  1  0.416622  0.416622  0.500000  1
  Th  Th1  1  0.579254  0.998818  0.500000  1
  Th  Th2  1  0.998818  0.579254  0.500000  1
  Al  Al3  1  0.764783  0.764783  0.000000  1
  Al  Al4  1  0.233123  0.003870  0.000000  1
  Al  Al5  1  0.003870  0.233123  0.000000  1
  Pd  Pd6  1  0.667418  0.334375  0.000000  1
  Pd  Pd7  1  0.334375  0.667418  0.000000  1
  Pd  Pd8  1  0.001736  0.001736  0.500000  1
