# generated using pymatgen
data_Ho10Si16Sn
_symmetry_space_group_name_H-M   'P 1'
_cell_length_a   11.08827631
_cell_length_b   11.02977278
_cell_length_c   11.08827553
_cell_angle_alpha   144.71511787
_cell_angle_beta   136.12911331
_cell_angle_gamma   57.60771698
_symmetry_Int_Tables_number   1
_chemical_formula_structural   Ho10Si16Sn
_chemical_formula_sum   'Ho10 Si16 Sn1'
_cell_volume   538.15242345
_cell_formula_units_Z   1
loop_
 _symmetry_equiv_pos_site_id
 _symmetry_equiv_pos_as_xyz
  1  'x, y, z'
loop_
 _atom_site_type_symbol
 _atom_site_label
 _atom_site_symmetry_multiplicity
 _atom_site_fract_x
 _atom_site_fract_y
 _atom_site_fract_z
 _atom_site_occupancy
  Ho  Ho0  1  0.756484  0.759874  0.517619  1
  Ho  Ho1  1  0.440687  0.971847  0.015580  1
  Ho  Ho2  1  0.848370  0.368766  0.018909  1
  Ho  Ho3  1  0.956266  0.971847  0.531158  1
  Ho  Ho4  1  0.150310  0.164132  0.515972  1
  Ho  Ho5  1  0.349857  0.368766  0.520396  1
  Ho  Ho6  1  0.242254  0.759874  0.003391  1
  Ho  Ho7  1  0.545315  0.558378  0.497101  1
  Ho  Ho8  1  0.061276  0.558378  0.013063  1
  Ho  Ho9  1  0.648160  0.164132  0.013823  1
  Si  Si10  1  0.199197  0.578691  0.379493  1
  Si  Si11  1  0.000211  0.083367  0.083155  1
  Si  Si12  1  0.697582  0.279793  0.582211  1
  Si  Si13  1  0.799770  0.177041  0.377271  1
  Si  Si14  1  0.895424  0.501549  0.606126  1
  Si  Si15  1  0.418336  0.872456  0.454119  1
  Si  Si16  1  0.103962  0.712989  0.609027  1
  Si  Si17  1  0.301381  0.894473  0.593092  1
  Si  Si18  1  0.577904  0.039598  0.461694  1
  Si  Si19  1  0.999405  0.431249  0.431843  1
  Si  Si20  1  0.882363  0.839029  0.956666  1
  Si  Si21  1  0.401346  0.500043  0.098697  1
  Si  Si22  1  0.118298  0.084898  0.966599  1
  Si  Si23  1  0.287822  0.238661  0.950840  1
  Si  Si24  1  0.499352  0.383998  0.884645  1
  Si  Si25  1  0.595736  0.705052  0.109316  1
  Sn  Sn26  1  0.722926  0.692617  0.969690  1
