# generated using pymatgen
data_Ca2TbPr17Ir12
_symmetry_space_group_name_H-M   'P 1'
_cell_length_a   11.34107000
_cell_length_b   11.34107000
_cell_length_c   6.54471700
_cell_angle_alpha   90.00000000
_cell_angle_beta   90.00000000
_cell_angle_gamma   90.00000000
_symmetry_Int_Tables_number   1
_chemical_formula_structural   Ca2TbPr17Ir12
_chemical_formula_sum   'Ca2 Tb1 Pr17 Ir12'
_cell_volume   841.78064151
_cell_formula_units_Z   1
loop_
 _symmetry_equiv_pos_site_id
 _symmetry_equiv_pos_as_xyz
  1  'x, y, z'
loop_
 _atom_site_type_symbol
 _atom_site_label
 _atom_site_symmetry_multiplicity
 _atom_site_fract_x
 _atom_site_fract_y
 _atom_site_fract_z
 _atom_site_occupancy
  Ca  Ca0  1  0.000000  0.000000  0.500000  1
  Ca  Ca1  1  0.000000  0.000000  0.000000  1
  Tb  Tb2  1  0.500000  0.500000  0.000000  1
  Pr  Pr3  1  0.288024  0.087928  0.384981  1
  Pr  Pr4  1  0.288319  0.911426  0.884947  1
  Pr  Pr5  1  0.711681  0.088574  0.884947  1
  Pr  Pr6  1  0.711976  0.912072  0.384981  1
  Pr  Pr7  1  0.588960  0.789989  0.884305  1
  Pr  Pr8  1  0.588860  0.209299  0.383397  1
  Pr  Pr9  1  0.411140  0.790701  0.383397  1
  Pr  Pr10  1  0.411040  0.210011  0.884305  1
  Pr  Pr11  1  0.209299  0.411140  0.616603  1
  Pr  Pr12  1  0.210011  0.588960  0.115695  1
  Pr  Pr13  1  0.789989  0.411040  0.115695  1
  Pr  Pr14  1  0.790701  0.588860  0.616603  1
  Pr  Pr15  1  0.911426  0.711681  0.115053  1
  Pr  Pr16  1  0.912072  0.288024  0.615019  1
  Pr  Pr17  1  0.087928  0.711976  0.615019  1
  Pr  Pr18  1  0.088574  0.288319  0.115053  1
  Pr  Pr19  1  0.500000  0.500000  0.500000  1
  Ir  Ir20  1  0.842630  0.157358  0.250082  1
  Ir  Ir21  1  0.842642  0.842630  0.749918  1
  Ir  Ir22  1  0.157358  0.157370  0.749918  1
  Ir  Ir23  1  0.157370  0.842642  0.250082  1
  Ir  Ir24  1  0.651410  0.348293  0.754328  1
  Ir  Ir25  1  0.651707  0.651410  0.245672  1
  Ir  Ir26  1  0.348293  0.348590  0.245672  1
  Ir  Ir27  1  0.348590  0.651707  0.754328  1
  Ir  Ir28  1  0.500000  0.000000  0.116136  1
  Ir  Ir29  1  0.500000  0.000000  0.615840  1
  Ir  Ir30  1  0.000000  0.500000  0.883864  1
  Ir  Ir31  1  0.000000  0.500000  0.384160  1
