# generated using pymatgen
data_Er6Sc4In8Pt3Rh
_symmetry_space_group_name_H-M   'P 1'
_cell_length_a   3.57411600
_cell_length_b   7.92015679
_cell_length_c   17.79990686
_cell_angle_alpha   89.94818456
_cell_angle_beta   90.00000000
_cell_angle_gamma   90.00000000
_symmetry_Int_Tables_number   1
_chemical_formula_structural   Er6Sc4In8Pt3Rh
_chemical_formula_sum   'Er6 Sc4 In8 Pt3 Rh1'
_cell_volume   503.87170959
_cell_formula_units_Z   1
loop_
 _symmetry_equiv_pos_site_id
 _symmetry_equiv_pos_as_xyz
  1  'x, y, z'
loop_
 _atom_site_type_symbol
 _atom_site_label
 _atom_site_symmetry_multiplicity
 _atom_site_fract_x
 _atom_site_fract_y
 _atom_site_fract_z
 _atom_site_occupancy
  Er  Er0  1  0.000000  0.000776  0.000205  1
  Er  Er1  1  0.000000  0.499767  0.499850  1
  Er  Er2  1  0.000000  0.749702  0.782054  1
  Er  Er3  1  0.000000  0.254414  0.217466  1
  Er  Er4  1  0.000000  0.250242  0.717905  1
  Er  Er5  1  0.000000  0.747579  0.281325  1
  Sc  Sc6  1  0.000000  0.876996  0.586971  1
  Sc  Sc7  1  0.000000  0.122973  0.412418  1
  Sc  Sc8  1  0.000000  0.376473  0.912990  1
  Sc  Sc9  1  0.000000  0.621510  0.089288  1
  In  In10  1  0.500000  0.808388  0.439448  1
  In  In11  1  0.500000  0.191450  0.560536  1
  In  In12  1  0.500000  0.309997  0.062067  1
  In  In13  1  0.500000  0.691114  0.939771  1
  In  In14  1  0.500000  0.921584  0.148733  1
  In  In15  1  0.500000  0.076045  0.851412  1
  In  In16  1  0.500000  0.426376  0.350444  1
  In  In17  1  0.500000  0.576407  0.648369  1
  Pt  Pt18  1  0.500000  0.962773  0.693402  1
  Pt  Pt19  1  0.500000  0.036320  0.306613  1
  Pt  Pt20  1  0.500000  0.462613  0.806627  1
  Rh  Rh21  1  0.500000  0.536502  0.192107  1
