# generated using pymatgen
data_Ta3Nb9B12Os5Ru7
_symmetry_space_group_name_H-M   'P 1'
_cell_length_a   3.11652700
_cell_length_b   9.06877288
_cell_length_c   15.83334947
_cell_angle_alpha   90.05961961
_cell_angle_beta   90.00000000
_cell_angle_gamma   90.00000000
_symmetry_Int_Tables_number   1
_chemical_formula_structural   Ta3Nb9B12Os5Ru7
_chemical_formula_sum   'Ta3 Nb9 B12 Os5 Ru7'
_cell_volume   447.49890971
_cell_formula_units_Z   1
loop_
 _symmetry_equiv_pos_site_id
 _symmetry_equiv_pos_as_xyz
  1  'x, y, z'
loop_
 _atom_site_type_symbol
 _atom_site_label
 _atom_site_symmetry_multiplicity
 _atom_site_fract_x
 _atom_site_fract_y
 _atom_site_fract_z
 _atom_site_occupancy
  Ta  Ta0  1  0.000000  0.800030  0.494421  1
  Ta  Ta1  1  0.000000  0.198888  0.504849  1
  Ta  Ta2  1  0.000000  0.301676  0.004907  1
  Nb  Nb3  1  0.000000  0.700229  0.995797  1
  Nb  Nb4  1  0.000000  0.514856  0.594054  1
  Nb  Nb5  1  0.000000  0.485172  0.405492  1
  Nb  Nb6  1  0.000000  0.013885  0.905758  1
  Nb  Nb7  1  0.000000  0.986165  0.094691  1
  Nb  Nb8  1  0.000000  0.687420  0.202006  1
  Nb  Nb9  1  0.000000  0.312259  0.797841  1
  Nb  Nb10  1  0.000000  0.187882  0.297523  1
  Nb  Nb11  1  0.000000  0.810995  0.702528  1
  B  B12  1  0.500000  0.604891  0.497306  1
  B  B13  1  0.500000  0.394731  0.502065  1
  B  B14  1  0.500000  0.105510  0.002341  1
  B  B15  1  0.500000  0.895965  0.998292  1
  B  B16  1  0.000000  0.607657  0.832488  1
  B  B17  1  0.000000  0.392212  0.167636  1
  B  B18  1  0.000000  0.108303  0.667544  1
  B  B19  1  0.000000  0.891668  0.332066  1
  B  B20  1  0.500000  0.715948  0.597238  1
  B  B21  1  0.500000  0.284831  0.402307  1
  B  B22  1  0.500000  0.214839  0.902485  1
  B  B23  1  0.500000  0.786048  0.098448  1
  Os  Os24  1  0.500000  0.983973  0.593405  1
  Os  Os25  1  0.500000  0.559454  0.735505  1
  Os  Os26  1  0.500000  0.440163  0.264410  1
  Os  Os27  1  0.500000  0.060376  0.764891  1
  Os  Os28  1  0.500000  0.940108  0.235694  1
  Ru  Ru29  1  0.500000  0.721255  0.355821  1
  Ru  Ru30  1  0.500000  0.279133  0.643888  1
  Ru  Ru31  1  0.500000  0.221687  0.143763  1
  Ru  Ru32  1  0.500001  0.778167  0.855864  1
  Ru  Ru33  1  0.500000  0.514457  0.093721  1
  Ru  Ru34  1  0.500000  0.483977  0.906310  1
  Ru  Ru35  1  0.499999  0.015191  0.406642  1
