# generated using pymatgen
data_Dy4Al3(Ga5Ir2)3
_symmetry_space_group_name_H-M   'P 1'
_cell_length_a   7.57885567
_cell_length_b   7.57885557
_cell_length_c   9.51298916
_cell_angle_alpha   89.98926544
_cell_angle_beta   89.98926507
_cell_angle_gamma   119.76614396
_symmetry_Int_Tables_number   1
_chemical_formula_structural   Dy4Al3(Ga5Ir2)3
_chemical_formula_sum   'Dy4 Al3 Ga15 Ir6'
_cell_volume   474.32221489
_cell_formula_units_Z   1
loop_
 _symmetry_equiv_pos_site_id
 _symmetry_equiv_pos_as_xyz
  1  'x, y, z'
loop_
 _atom_site_type_symbol
 _atom_site_label
 _atom_site_symmetry_multiplicity
 _atom_site_fract_x
 _atom_site_fract_y
 _atom_site_fract_z
 _atom_site_occupancy
  Dy  Dy0  1  0.000323  0.669685  0.749927  1
  Dy  Dy1  1  0.000183  0.330895  0.249145  1
  Dy  Dy2  1  0.669685  0.000323  0.749927  1
  Dy  Dy3  1  0.330895  0.000183  0.249145  1
  Al  Al4  1  0.664611  0.664611  0.947710  1
  Al  Al5  1  0.668439  0.668439  0.552554  1
  Al  Al6  1  0.331895  0.331895  0.447738  1
  Ga  Ga7  1  0.126522  0.126522  0.749347  1
  Ga  Ga8  1  0.873646  0.873646  0.249396  1
  Ga  Ga9  1  0.999776  0.335078  0.579644  1
  Ga  Ga10  1  0.000579  0.665216  0.419795  1
  Ga  Ga11  1  0.999920  0.665077  0.080086  1
  Ga  Ga12  1  0.335477  0.001217  0.918346  1
  Ga  Ga13  1  0.001217  0.335477  0.918346  1
  Ga  Ga14  1  0.665077  0.999920  0.080086  1
  Ga  Ga15  1  0.665216  0.000579  0.419795  1
  Ga  Ga16  1  0.335078  0.999776  0.579644  1
  Ga  Ga17  1  0.328940  0.328940  0.065022  1
  Ga  Ga18  1  0.347493  0.549962  0.749797  1
  Ga  Ga19  1  0.656200  0.451289  0.250196  1
  Ga  Ga20  1  0.549962  0.347493  0.749797  1
  Ga  Ga21  1  0.451289  0.656200  0.250196  1
  Ir  Ir22  1  0.669164  0.330390  0.499578  1
  Ir  Ir23  1  0.330390  0.669164  0.499578  1
  Ir  Ir24  1  0.330241  0.672039  0.999208  1
  Ir  Ir25  1  0.672039  0.330241  0.999208  1
  Ir  Ir26  1  0.000098  0.000098  0.499184  1
  Ir  Ir27  1  0.995643  0.995643  0.997606  1
