# generated using pymatgen
data_HoMg2ScIr8
_symmetry_space_group_name_H-M   'P 1'
_cell_length_a   5.24980600
_cell_length_b   5.24980482
_cell_length_c   8.54222800
_cell_angle_alpha   90.00000000
_cell_angle_beta   90.00000000
_cell_angle_gamma   120.00000743
_symmetry_Int_Tables_number   1
_chemical_formula_structural   HoMg2ScIr8
_chemical_formula_sum   'Ho1 Mg2 Sc1 Ir8'
_cell_volume   203.88635906
_cell_formula_units_Z   1
loop_
 _symmetry_equiv_pos_site_id
 _symmetry_equiv_pos_as_xyz
  1  'x, y, z'
loop_
 _atom_site_type_symbol
 _atom_site_label
 _atom_site_symmetry_multiplicity
 _atom_site_fract_x
 _atom_site_fract_y
 _atom_site_fract_z
 _atom_site_occupancy
  Ho  Ho0  1  0.333333  0.666667  0.069282  1
  Mg  Mg1  1  0.666667  0.333333  0.932712  1
  Mg  Mg2  1  0.333333  0.666667  0.438597  1
  Sc  Sc3  1  0.666667  0.333333  0.572230  1
  Ir  Ir4  1  0.000000  0.000000  0.996014  1
  Ir  Ir5  1  0.000000  0.000000  0.496434  1
  Ir  Ir6  1  0.828798  0.657595  0.251548  1
  Ir  Ir7  1  0.170856  0.829144  0.746697  1
  Ir  Ir8  1  0.658288  0.829144  0.746697  1
  Ir  Ir9  1  0.342405  0.171202  0.251548  1
  Ir  Ir10  1  0.828798  0.171202  0.251548  1
  Ir  Ir11  1  0.170856  0.341712  0.746697  1
