# generated using pymatgen
data_La3SOF5
_symmetry_space_group_name_H-M   'P 1'
_cell_length_a   3.94760500
_cell_length_b   9.91226323
_cell_length_c   9.96749791
_cell_angle_alpha   60.42728878
_cell_angle_beta   90.00000000
_cell_angle_gamma   90.00000000
_symmetry_Int_Tables_number   1
_chemical_formula_structural   La3SOF5
_chemical_formula_sum   'La6 S2 O2 F10'
_cell_volume   339.21665197
_cell_formula_units_Z   2
loop_
 _symmetry_equiv_pos_site_id
 _symmetry_equiv_pos_as_xyz
  1  'x, y, z'
loop_
 _atom_site_type_symbol
 _atom_site_label
 _atom_site_symmetry_multiplicity
 _atom_site_fract_x
 _atom_site_fract_y
 _atom_site_fract_z
 _atom_site_occupancy
  La  La0  1  0.000000  0.582464  0.133806  1
  La  La1  1  0.000000  0.132380  0.271468  1
  La  La2  1  0.000000  0.299690  0.584744  1
  La  La3  1  0.500000  0.405058  0.895945  1
  La  La4  1  0.500000  0.877871  0.713805  1
  La  La5  1  0.500000  0.704411  0.403417  1
  S  S6  1  0.000000  0.671212  0.667797  1
  S  S7  1  0.500000  0.327954  0.337426  1
  O  O8  1  0.000000  0.563197  0.387489  1
  O  O9  1  0.000000  0.381729  0.052997  1
  F  F10  1  0.000000  0.840578  0.878082  1
  F  F11  1  0.000000  0.885443  0.275977  1
  F  F12  1  0.000000  0.277836  0.837124  1
  F  F13  1  0.500000  0.146340  0.118939  1
  F  F14  1  0.500000  0.122332  0.713526  1
  F  F15  1  0.500000  0.725657  0.150847  1
  F  F16  1  0.000000  0.047702  0.566187  1
  F  F17  1  0.500000  0.431065  0.624691  1
  F  F18  1  0.500000  0.621650  0.953417  1
  F  F19  1  0.500000  0.955431  0.432319  1
