# generated using pymatgen
data_HgP2PbO8
_symmetry_space_group_name_H-M   'P 1'
_cell_length_a   5.48755731
_cell_length_b   8.51659174
_cell_length_c   8.78972698
_cell_angle_alpha   110.93531225
_cell_angle_beta   108.18929572
_cell_angle_gamma   89.99999517
_symmetry_Int_Tables_number   1
_chemical_formula_structural   HgP2PbO8
_chemical_formula_sum   'Hg2 P4 Pb2 O16'
_cell_volume   361.60865741
_cell_formula_units_Z   2
loop_
 _symmetry_equiv_pos_site_id
 _symmetry_equiv_pos_as_xyz
  1  'x, y, z'
loop_
 _atom_site_type_symbol
 _atom_site_label
 _atom_site_symmetry_multiplicity
 _atom_site_fract_x
 _atom_site_fract_y
 _atom_site_fract_z
 _atom_site_occupancy
  Hg  Hg0  1  0.000000  0.000000  0.500000  1
  Hg  Hg1  1  0.499999  0.500000  0.500000  1
  P  P2  1  0.865333  0.191116  0.216817  1
  P  P3  1  0.351486  0.691116  0.216817  1
  P  P4  1  0.648514  0.308883  0.783182  1
  P  P5  1  0.134667  0.808884  0.783182  1
  Pb  Pb6  1  0.260279  0.250000  0.000000  1
  Pb  Pb7  1  0.739721  0.750000  0.000000  1
  O  O8  1  0.780553  0.020928  0.062211  1
  O  O9  1  0.281658  0.520928  0.062211  1
  O  O10  1  0.102714  0.287905  0.210034  1
  O  O11  1  0.107319  0.787905  0.210034  1
  O  O12  1  0.638042  0.302915  0.204909  1
  O  O13  1  0.566867  0.802915  0.204909  1
  O  O14  1  0.946782  0.187070  0.400094  1
  O  O15  1  0.453311  0.687069  0.400094  1
  O  O16  1  0.546688  0.312930  0.599906  1
  O  O17  1  0.053219  0.812931  0.599906  1
  O  O18  1  0.433133  0.197085  0.795090  1
  O  O19  1  0.361957  0.697084  0.795090  1
  O  O20  1  0.892680  0.212095  0.789967  1
  O  O21  1  0.897287  0.712096  0.789967  1
  O  O22  1  0.718343  0.479073  0.937790  1
  O  O23  1  0.219446  0.979072  0.937790  1
