# generated using pymatgen
data_Tb6YbY3Cd3Ru
_symmetry_space_group_name_H-M   'P 1'
_cell_length_a   9.68541600
_cell_length_b   9.68541574
_cell_length_c   9.85636100
_cell_angle_alpha   90.00000000
_cell_angle_beta   90.00000000
_cell_angle_gamma   120.00000089
_symmetry_Int_Tables_number   1
_chemical_formula_structural   Tb6YbY3Cd3Ru
_chemical_formula_sum   'Tb12 Yb2 Y6 Cd6 Ru2'
_cell_volume   800.72571420
_cell_formula_units_Z   2
loop_
 _symmetry_equiv_pos_site_id
 _symmetry_equiv_pos_as_xyz
  1  'x, y, z'
loop_
 _atom_site_type_symbol
 _atom_site_label
 _atom_site_symmetry_multiplicity
 _atom_site_fract_x
 _atom_site_fract_y
 _atom_site_fract_z
 _atom_site_occupancy
  Tb  Tb0  1  0.210867  0.789133  0.439608  1
  Tb  Tb1  1  0.210867  0.421736  0.439608  1
  Tb  Tb2  1  0.578264  0.789133  0.439608  1
  Tb  Tb3  1  0.789133  0.210867  0.560392  1
  Tb  Tb4  1  0.789133  0.578264  0.560392  1
  Tb  Tb5  1  0.421736  0.210867  0.560392  1
  Tb  Tb6  1  0.789133  0.210867  0.939608  1
  Tb  Tb7  1  0.789133  0.578264  0.939608  1
  Tb  Tb8  1  0.421736  0.210867  0.939608  1
  Tb  Tb9  1  0.210867  0.789133  0.060392  1
  Tb  Tb10  1  0.210867  0.421736  0.060392  1
  Tb  Tb11  1  0.578264  0.789133  0.060392  1
  Yb  Yb12  1  0.000000  0.000000  0.500000  1
  Yb  Yb13  1  0.000000  0.000000  0.000000  1
  Y  Y14  1  0.541936  0.458064  0.250000  1
  Y  Y15  1  0.541936  0.083872  0.250000  1
  Y  Y16  1  0.916128  0.458064  0.250000  1
  Y  Y17  1  0.458064  0.541936  0.750000  1
  Y  Y18  1  0.458064  0.916128  0.750000  1
  Y  Y19  1  0.083872  0.541936  0.750000  1
  Cd  Cd20  1  0.884741  0.115259  0.250000  1
  Cd  Cd21  1  0.884741  0.769482  0.250000  1
  Cd  Cd22  1  0.230518  0.115259  0.250000  1
  Cd  Cd23  1  0.115259  0.884741  0.750000  1
  Cd  Cd24  1  0.115259  0.230518  0.750000  1
  Cd  Cd25  1  0.769482  0.884741  0.750000  1
  Ru  Ru26  1  0.333333  0.666667  0.250000  1
  Ru  Ru27  1  0.666667  0.333333  0.750000  1
