# generated using pymatgen
data_Tb2V3As3P4Rh9
_symmetry_space_group_name_H-M   'P 1'
_cell_length_a   3.91488900
_cell_length_b   9.67561268
_cell_length_c   9.67973829
_cell_angle_alpha   119.96550353
_cell_angle_beta   90.00065053
_cell_angle_gamma   89.99932496
_symmetry_Int_Tables_number   1
_chemical_formula_structural   Tb2V3As3P4Rh9
_chemical_formula_sum   'Tb2 V3 As3 P4 Rh9'
_cell_volume   317.64573983
_cell_formula_units_Z   1
loop_
 _symmetry_equiv_pos_site_id
 _symmetry_equiv_pos_as_xyz
  1  'x, y, z'
loop_
 _atom_site_type_symbol
 _atom_site_label
 _atom_site_symmetry_multiplicity
 _atom_site_fract_x
 _atom_site_fract_y
 _atom_site_fract_z
 _atom_site_occupancy
  Tb  Tb0  1  0.261852  0.666668  0.333413  1
  Tb  Tb1  1  0.761738  0.333290  0.666532  1
  V  V2  1  0.762010  0.093322  0.880409  1
  V  V3  1  0.762007  0.119957  0.213120  1
  V  V4  1  0.762014  0.786851  0.906768  1
  As  As5  1  0.761902  0.883841  0.594035  1
  As  As6  1  0.761910  0.405792  0.289751  1
  As  As7  1  0.761965  0.710152  0.116336  1
  P  P8  1  0.262387  0.000131  0.000196  1
  P  P9  1  0.261763  0.117669  0.413780  1
  P  P10  1  0.261766  0.585917  0.703684  1
  P  P11  1  0.261775  0.296262  0.882183  1
  Rh  Rh12  1  0.261936  0.892268  0.159710  1
  Rh  Rh13  1  0.261900  0.840350  0.732808  1
  Rh  Rh14  1  0.261916  0.267523  0.107767  1
  Rh  Rh15  1  0.761845  0.611389  0.574011  1
  Rh  Rh16  1  0.761859  0.425753  0.037079  1
  Rh  Rh17  1  0.761863  0.962698  0.388554  1
  Rh  Rh18  1  0.261855  0.365157  0.439228  1
  Rh  Rh19  1  0.261879  0.560754  0.925708  1
  Rh  Rh20  1  0.261862  0.074255  0.634926  1
