# generated using pymatgen
data_Lu19ThIr12
_symmetry_space_group_name_H-M   'P 1'
_cell_length_a   10.68645101
_cell_length_b   10.69562770
_cell_length_c   6.28023300
_cell_angle_alpha   89.91127305
_cell_angle_beta   89.99799479
_cell_angle_gamma   90.04875572
_symmetry_Int_Tables_number   1
_chemical_formula_structural   Lu19ThIr12
_chemical_formula_sum   'Lu19 Th1 Ir12'
_cell_volume   717.81884306
_cell_formula_units_Z   1
loop_
 _symmetry_equiv_pos_site_id
 _symmetry_equiv_pos_as_xyz
  1  'x, y, z'
loop_
 _atom_site_type_symbol
 _atom_site_label
 _atom_site_symmetry_multiplicity
 _atom_site_fract_x
 _atom_site_fract_y
 _atom_site_fract_z
 _atom_site_occupancy
  Lu  Lu0  1  0.294743  0.082889  0.379489  1
  Lu  Lu1  1  0.291873  0.912704  0.879006  1
  Lu  Lu2  1  0.707969  0.086940  0.875600  1
  Lu  Lu3  1  0.708012  0.912419  0.377760  1
  Lu  Lu4  1  0.587016  0.792009  0.877962  1
  Lu  Lu5  1  0.586818  0.208004  0.378243  1
  Lu  Lu6  1  0.413250  0.791149  0.377196  1
  Lu  Lu7  1  0.413701  0.208193  0.876409  1
  Lu  Lu8  1  0.209289  0.415687  0.622539  1
  Lu  Lu9  1  0.209150  0.591424  0.121927  1
  Lu  Lu10  1  0.788658  0.414702  0.122497  1
  Lu  Lu11  1  0.790424  0.588356  0.623343  1
  Lu  Lu12  1  0.911806  0.709175  0.122775  1
  Lu  Lu13  1  0.910001  0.292704  0.622733  1
  Lu  Lu14  1  0.087388  0.709509  0.622867  1
  Lu  Lu15  1  0.999431  0.999507  0.499120  1
  Lu  Lu16  1  0.998132  0.995625  0.997479  1
  Lu  Lu17  1  0.499935  0.501238  0.998769  1
  Lu  Lu18  1  0.500699  0.500690  0.499518  1
  Th  Th19  1  0.089369  0.288197  0.124345  1
  Ir  Ir20  1  0.845269  0.153453  0.249936  1
  Ir  Ir21  1  0.846109  0.845781  0.749768  1
  Ir  Ir22  1  0.154200  0.152980  0.748383  1
  Ir  Ir23  1  0.153678  0.846428  0.249989  1
  Ir  Ir24  1  0.653386  0.346518  0.750355  1
  Ir  Ir25  1  0.653928  0.653273  0.249968  1
  Ir  Ir26  1  0.348272  0.345855  0.250908  1
  Ir  Ir27  1  0.347090  0.653964  0.749588  1
  Ir  Ir28  1  0.501045  0.999707  0.122961  1
  Ir  Ir29  1  0.500390  0.999225  0.623906  1
  Ir  Ir30  1  0.999471  0.501357  0.877268  1
  Ir  Ir31  1  0.999499  0.500338  0.377397  1
