# generated using pymatgen
data_Tb6Dy5HoRu4
_symmetry_space_group_name_H-M   'P 1'
_cell_length_a   6.32078169
_cell_length_b   7.29873107
_cell_length_c   9.22266380
_cell_angle_alpha   90.00221602
_cell_angle_beta   90.23726827
_cell_angle_gamma   90.01602299
_symmetry_Int_Tables_number   1
_chemical_formula_structural   Tb6Dy5HoRu4
_chemical_formula_sum   'Tb6 Dy5 Ho1 Ru4'
_cell_volume   425.47180827
_cell_formula_units_Z   1
loop_
 _symmetry_equiv_pos_site_id
 _symmetry_equiv_pos_as_xyz
  1  'x, y, z'
loop_
 _atom_site_type_symbol
 _atom_site_label
 _atom_site_symmetry_multiplicity
 _atom_site_fract_x
 _atom_site_fract_y
 _atom_site_fract_z
 _atom_site_occupancy
  Tb  Tb0  1  0.329562  0.677137  0.064938  1
  Tb  Tb1  1  0.170302  0.177132  0.434903  1
  Tb  Tb2  1  0.865245  0.539806  0.250170  1
  Tb  Tb3  1  0.634771  0.039977  0.249643  1
  Tb  Tb4  1  0.133788  0.460076  0.750003  1
  Tb  Tb5  1  0.366168  0.960207  0.750175  1
  Dy  Dy6  1  0.670231  0.323400  0.565255  1
  Dy  Dy7  1  0.829911  0.823565  0.934832  1
  Dy  Dy8  1  0.670028  0.323172  0.934550  1
  Dy  Dy9  1  0.830037  0.823231  0.565530  1
  Dy  Dy10  1  0.330274  0.676219  0.435203  1
  Ho  Ho11  1  0.169621  0.176144  0.064882  1
  Ru  Ru12  1  0.040428  0.885564  0.249881  1
  Ru  Ru13  1  0.459473  0.385292  0.249903  1
  Ru  Ru14  1  0.958666  0.114575  0.751943  1
  Ru  Ru15  1  0.541496  0.614506  0.748187  1
