# generated using pymatgen
data_Ce4Tc2B6Sb
_symmetry_space_group_name_H-M   'P 1'
_cell_length_a   5.41868962
_cell_length_b   5.41868914
_cell_length_c   8.58082881
_cell_angle_alpha   71.59426945
_cell_angle_beta   71.59426910
_cell_angle_gamma   59.99998347
_symmetry_Int_Tables_number   1
_chemical_formula_structural   Ce4Tc2B6Sb
_chemical_formula_sum   'Ce4 Tc2 B6 Sb1'
_cell_volume   203.17790826
_cell_formula_units_Z   1
loop_
 _symmetry_equiv_pos_site_id
 _symmetry_equiv_pos_as_xyz
  1  'x, y, z'
loop_
 _atom_site_type_symbol
 _atom_site_label
 _atom_site_symmetry_multiplicity
 _atom_site_fract_x
 _atom_site_fract_y
 _atom_site_fract_z
 _atom_site_occupancy
  Ce  Ce0  1  0.252360  0.252360  0.242919  1
  Ce  Ce1  1  0.747640  0.747640  0.757081  1
  Ce  Ce2  1  0.414003  0.414003  0.757991  1
  Ce  Ce3  1  0.585997  0.585997  0.242010  1
  Tc  Tc4  1  0.112592  0.112592  0.662226  1
  Tc  Tc5  1  0.887408  0.887408  0.337774  1
  B  B6  1  0.171435  0.828565  0.500000  1
  B  B7  1  0.828565  0.500000  0.500000  1
  B  B8  1  0.500000  0.171435  0.500000  1
  B  B9  1  0.171435  0.500000  0.500000  1
  B  B10  1  0.500000  0.828565  0.500000  1
  B  B11  1  0.828565  0.171435  0.500000  1
  Sb  Sb12  1  0.000000  0.000000  0.000000  1
