# generated using pymatgen
data_YbP2Ir3
_symmetry_space_group_name_H-M   'P 1'
_cell_length_a   3.98211200
_cell_length_b   11.33146200
_cell_length_c   12.57424200
_cell_angle_alpha   90.00000000
_cell_angle_beta   90.00000000
_cell_angle_gamma   90.00000000
_symmetry_Int_Tables_number   1
_chemical_formula_structural   YbP2Ir3
_chemical_formula_sum   'Yb6 P12 Ir18'
_cell_volume   567.38941806
_cell_formula_units_Z   6
loop_
 _symmetry_equiv_pos_site_id
 _symmetry_equiv_pos_as_xyz
  1  'x, y, z'
loop_
 _atom_site_type_symbol
 _atom_site_label
 _atom_site_symmetry_multiplicity
 _atom_site_fract_x
 _atom_site_fract_y
 _atom_site_fract_z
 _atom_site_occupancy
  Yb  Yb0  1  0.000000  0.500000  0.525291  1
  Yb  Yb1  1  0.500000  0.000000  0.474709  1
  Yb  Yb2  1  0.500000  0.824142  0.206763  1
  Yb  Yb3  1  0.500000  0.175858  0.206763  1
  Yb  Yb4  1  0.000000  0.675858  0.793237  1
  Yb  Yb5  1  0.000000  0.324142  0.793237  1
  P  P6  1  0.500000  0.500000  0.881613  1
  P  P7  1  0.000000  0.000000  0.118387  1
  P  P8  1  0.500000  0.500000  0.354054  1
  P  P9  1  0.000000  0.000000  0.645946  1
  P  P10  1  0.500000  0.313372  0.619337  1
  P  P11  1  0.500000  0.686628  0.619337  1
  P  P12  1  0.000000  0.186628  0.380663  1
  P  P13  1  0.000000  0.813372  0.380663  1
  P  P14  1  0.500000  0.838123  0.890418  1
  P  P15  1  0.500000  0.161877  0.890418  1
  P  P16  1  0.000000  0.661877  0.109582  1
  P  P17  1  0.000000  0.338123  0.109582  1
  Ir  Ir18  1  0.500000  0.500000  0.170353  1
  Ir  Ir19  1  0.000000  0.000000  0.829647  1
  Ir  Ir20  1  0.500000  0.500000  0.700113  1
  Ir  Ir21  1  0.000000  0.000000  0.299887  1
  Ir  Ir22  1  0.000000  0.500000  0.996198  1
  Ir  Ir23  1  0.500000  0.000000  0.003802  1
  Ir  Ir24  1  0.500000  0.333337  0.993812  1
  Ir  Ir25  1  0.500000  0.666663  0.993812  1
  Ir  Ir26  1  0.000000  0.166663  0.006188  1
  Ir  Ir27  1  0.000000  0.833337  0.006188  1
  Ir  Ir28  1  0.500000  0.294522  0.428770  1
  Ir  Ir29  1  0.500000  0.705478  0.428770  1
  Ir  Ir30  1  0.000000  0.205478  0.571230  1
  Ir  Ir31  1  0.000000  0.794522  0.571230  1
  Ir  Ir32  1  0.500000  0.871094  0.712906  1
  Ir  Ir33  1  0.500000  0.128906  0.712906  1
  Ir  Ir34  1  0.000000  0.628906  0.287094  1
  Ir  Ir35  1  0.000000  0.371094  0.287094  1
