# generated using pymatgen
data_TbDy(Lu4Bi3)2
_symmetry_space_group_name_H-M   'P 1'
_cell_length_a   8.17593000
_cell_length_b   9.38703400
_cell_length_c   11.86616700
_cell_angle_alpha   90.00000000
_cell_angle_beta   90.00000000
_cell_angle_gamma   90.00000000
_symmetry_Int_Tables_number   1
_chemical_formula_structural   TbDy(Lu4Bi3)2
_chemical_formula_sum   'Tb2 Dy2 Lu16 Bi12'
_cell_volume   910.70141536
_cell_formula_units_Z   2
loop_
 _symmetry_equiv_pos_site_id
 _symmetry_equiv_pos_as_xyz
  1  'x, y, z'
loop_
 _atom_site_type_symbol
 _atom_site_label
 _atom_site_symmetry_multiplicity
 _atom_site_fract_x
 _atom_site_fract_y
 _atom_site_fract_z
 _atom_site_occupancy
  Tb  Tb0  1  0.686934  0.750000  0.781885  1
  Tb  Tb1  1  0.186934  0.750000  0.718115  1
  Dy  Dy2  1  0.312946  0.250000  0.217993  1
  Dy  Dy3  1  0.812946  0.250000  0.282007  1
  Lu  Lu4  1  0.352485  0.750000  0.218380  1
  Lu  Lu5  1  0.852485  0.750000  0.281620  1
  Lu  Lu6  1  0.647513  0.250000  0.781609  1
  Lu  Lu7  1  0.147513  0.250000  0.718391  1
  Lu  Lu8  1  0.693048  0.567254  0.060176  1
  Lu  Lu9  1  0.193048  0.932746  0.439824  1
  Lu  Lu10  1  0.306977  0.067260  0.939870  1
  Lu  Lu11  1  0.806977  0.432740  0.560130  1
  Lu  Lu12  1  0.306977  0.432740  0.939870  1
  Lu  Lu13  1  0.806977  0.067260  0.560130  1
  Lu  Lu14  1  0.693048  0.932746  0.060176  1
  Lu  Lu15  1  0.193048  0.567254  0.439824  1
  Lu  Lu16  1  0.476381  0.250000  0.489127  1
  Lu  Lu17  1  0.976381  0.250000  0.010873  1
  Lu  Lu18  1  0.523661  0.750000  0.510771  1
  Lu  Lu19  1  0.023661  0.750000  0.989229  1
  Bi  Bi20  1  0.403748  0.750000  0.959939  1
  Bi  Bi21  1  0.903748  0.750000  0.540061  1
  Bi  Bi22  1  0.596157  0.250000  0.040298  1
  Bi  Bi23  1  0.096157  0.250000  0.459702  1
  Bi  Bi24  1  0.565756  0.994097  0.326012  1
  Bi  Bi25  1  0.065756  0.505903  0.173988  1
  Bi  Bi26  1  0.434305  0.493836  0.673911  1
  Bi  Bi27  1  0.934305  0.006164  0.826089  1
  Bi  Bi28  1  0.434305  0.006164  0.673911  1
  Bi  Bi29  1  0.934305  0.493836  0.826089  1
  Bi  Bi30  1  0.565756  0.505903  0.326012  1
  Bi  Bi31  1  0.065756  0.994097  0.173988  1
