# generated using pymatgen
data_EuZr(CuAs)3
_symmetry_space_group_name_H-M   'P 1'
_cell_length_a   4.03192500
_cell_length_b   10.99874800
_cell_length_c   13.04257900
_cell_angle_alpha   90.00000000
_cell_angle_beta   90.00000000
_cell_angle_gamma   90.00000000
_symmetry_Int_Tables_number   1
_chemical_formula_structural   EuZr(CuAs)3
_chemical_formula_sum   'Eu4 Zr4 Cu12 As12'
_cell_volume   578.38786513
_cell_formula_units_Z   4
loop_
 _symmetry_equiv_pos_site_id
 _symmetry_equiv_pos_as_xyz
  1  'x, y, z'
loop_
 _atom_site_type_symbol
 _atom_site_label
 _atom_site_symmetry_multiplicity
 _atom_site_fract_x
 _atom_site_fract_y
 _atom_site_fract_z
 _atom_site_occupancy
  Eu  Eu0  1  0.250000  0.071415  0.207658  1
  Eu  Eu1  1  0.750000  0.928585  0.792342  1
  Eu  Eu2  1  0.750000  0.571415  0.292342  1
  Eu  Eu3  1  0.250000  0.428585  0.707658  1
  Zr  Zr4  1  0.250000  0.158968  0.499866  1
  Zr  Zr5  1  0.750000  0.841032  0.500134  1
  Zr  Zr6  1  0.750000  0.658968  0.000134  1
  Zr  Zr7  1  0.250000  0.341032  0.999866  1
  Cu  Cu8  1  0.250000  0.727851  0.664147  1
  Cu  Cu9  1  0.750000  0.272149  0.335853  1
  Cu  Cu10  1  0.750000  0.227851  0.835853  1
  Cu  Cu11  1  0.250000  0.772149  0.164147  1
  Cu  Cu12  1  0.250000  0.364901  0.219035  1
  Cu  Cu13  1  0.750000  0.635099  0.780965  1
  Cu  Cu14  1  0.750000  0.864901  0.280965  1
  Cu  Cu15  1  0.250000  0.135099  0.719035  1
  Cu  Cu16  1  0.250000  0.604034  0.484529  1
  Cu  Cu17  1  0.750000  0.395966  0.515471  1
  Cu  Cu18  1  0.750000  0.104034  0.015471  1
  Cu  Cu19  1  0.250000  0.895966  0.984529  1
  As  As20  1  0.250000  0.941968  0.617586  1
  As  As21  1  0.750000  0.058032  0.382414  1
  As  As22  1  0.750000  0.441968  0.882414  1
  As  As23  1  0.250000  0.558032  0.117586  1
  As  As24  1  0.250000  0.390131  0.405033  1
  As  As25  1  0.750000  0.609869  0.594967  1
  As  As26  1  0.750000  0.890131  0.094967  1
  As  As27  1  0.250000  0.109869  0.905033  1
  As  As28  1  0.250000  0.769523  0.358948  1
  As  As29  1  0.750000  0.230477  0.641052  1
  As  As30  1  0.750000  0.269523  0.141052  1
  As  As31  1  0.250000  0.730477  0.858948  1
