# generated using pymatgen
data_Nd12CuOs2Pd
_symmetry_space_group_name_H-M   'P 1'
_cell_length_a   6.53117528
_cell_length_b   7.41101789
_cell_length_c   9.88780700
_cell_angle_alpha   90.00000000
_cell_angle_beta   90.00000000
_cell_angle_gamma   90.29810983
_symmetry_Int_Tables_number   1
_chemical_formula_structural   Nd12CuOs2Pd
_chemical_formula_sum   'Nd12 Cu1 Os2 Pd1'
_cell_volume   478.58965116
_cell_formula_units_Z   1
loop_
 _symmetry_equiv_pos_site_id
 _symmetry_equiv_pos_as_xyz
  1  'x, y, z'
loop_
 _atom_site_type_symbol
 _atom_site_label
 _atom_site_symmetry_multiplicity
 _atom_site_fract_x
 _atom_site_fract_y
 _atom_site_fract_z
 _atom_site_occupancy
  Nd  Nd0  1  0.336693  0.673404  0.061191  1
  Nd  Nd1  1  0.170378  0.183830  0.434760  1
  Nd  Nd2  1  0.664191  0.324761  0.562395  1
  Nd  Nd3  1  0.828303  0.818243  0.934790  1
  Nd  Nd4  1  0.664191  0.324761  0.937605  1
  Nd  Nd5  1  0.828303  0.818243  0.565210  1
  Nd  Nd6  1  0.336693  0.673404  0.438809  1
  Nd  Nd7  1  0.170378  0.183830  0.065240  1
  Nd  Nd8  1  0.856293  0.526786  0.250000  1
  Nd  Nd9  1  0.631597  0.041003  0.250000  1
  Nd  Nd10  1  0.140464  0.476991  0.750000  1
  Nd  Nd11  1  0.369191  0.958000  0.750000  1
  Cu  Cu12  1  0.938749  0.115358  0.750000  1
  Os  Os13  1  0.436131  0.383147  0.250000  1
  Os  Os14  1  0.563715  0.615481  0.750000  1
  Pd  Pd15  1  0.064729  0.882757  0.250000  1
