# generated using pymatgen
data_SmNpB6Ru
_symmetry_space_group_name_H-M   'P 1'
_cell_length_a   3.62319400
_cell_length_b   9.36039300
_cell_length_c   11.43572500
_cell_angle_alpha   90.00000000
_cell_angle_beta   90.00000000
_cell_angle_gamma   90.00000000
_symmetry_Int_Tables_number   1
_chemical_formula_structural   SmNpB6Ru
_chemical_formula_sum   'Sm4 Np4 B24 Ru4'
_cell_volume   387.83712143
_cell_formula_units_Z   4
loop_
 _symmetry_equiv_pos_site_id
 _symmetry_equiv_pos_as_xyz
  1  'x, y, z'
loop_
 _atom_site_type_symbol
 _atom_site_label
 _atom_site_symmetry_multiplicity
 _atom_site_fract_x
 _atom_site_fract_y
 _atom_site_fract_z
 _atom_site_occupancy
  Sm  Sm0  1  0.000000  0.338411  0.406787  1
  Sm  Sm1  1  0.000000  0.661589  0.593213  1
  Sm  Sm2  1  0.000000  0.838411  0.093213  1
  Sm  Sm3  1  0.000000  0.161589  0.906787  1
  Np  Np4  1  0.000000  0.959369  0.401229  1
  Np  Np5  1  0.000000  0.040631  0.598771  1
  Np  Np6  1  0.000000  0.459369  0.098771  1
  Np  Np7  1  0.000000  0.540631  0.901229  1
  B  B8  1  0.500000  0.554373  0.429326  1
  B  B9  1  0.500000  0.445627  0.570674  1
  B  B10  1  0.500000  0.054373  0.070674  1
  B  B11  1  0.500000  0.945627  0.929326  1
  B  B12  1  0.500000  0.745259  0.422170  1
  B  B13  1  0.500000  0.254741  0.577830  1
  B  B14  1  0.500000  0.245259  0.077830  1
  B  B15  1  0.500000  0.754741  0.922170  1
  B  B16  1  0.500000  0.804287  0.275029  1
  B  B17  1  0.500000  0.195713  0.724971  1
  B  B18  1  0.500000  0.304287  0.224971  1
  B  B19  1  0.500000  0.695713  0.775029  1
  B  B20  1  0.500000  0.644511  0.188292  1
  B  B21  1  0.500000  0.355489  0.811708  1
  B  B22  1  0.500000  0.144511  0.311708  1
  B  B23  1  0.500000  0.855489  0.688292  1
  B  B24  1  0.500000  0.990564  0.220904  1
  B  B25  1  0.500000  0.009436  0.779096  1
  B  B26  1  0.500000  0.490564  0.279096  1
  B  B27  1  0.500000  0.509436  0.720904  1
  B  B28  1  0.500000  0.640991  0.038961  1
  B  B29  1  0.500000  0.359009  0.961039  1
  B  B30  1  0.500000  0.140991  0.461039  1
  B  B31  1  0.500000  0.859009  0.538961  1
  Ru  Ru32  1  0.000000  0.647203  0.318857  1
  Ru  Ru33  1  0.000000  0.352797  0.681143  1
  Ru  Ru34  1  0.000000  0.147203  0.181143  1
  Ru  Ru35  1  0.000000  0.852797  0.818857  1
