# generated using pymatgen
data_YHo9(CoBi2)2
_symmetry_space_group_name_H-M   'P 1'
_cell_length_a   7.96613229
_cell_length_b   8.85880700
_cell_length_c   12.36507845
_cell_angle_alpha   90.00000000
_cell_angle_beta   89.96905262
_cell_angle_gamma   90.00000000
_symmetry_Int_Tables_number   1
_chemical_formula_structural   YHo9(CoBi2)2
_chemical_formula_sum   'Y2 Ho18 Co4 Bi8'
_cell_volume   872.60875741
_cell_formula_units_Z   2
loop_
 _symmetry_equiv_pos_site_id
 _symmetry_equiv_pos_as_xyz
  1  'x, y, z'
loop_
 _atom_site_type_symbol
 _atom_site_label
 _atom_site_symmetry_multiplicity
 _atom_site_fract_x
 _atom_site_fract_y
 _atom_site_fract_z
 _atom_site_occupancy
  Y  Y0  1  0.345674  0.750000  0.700855  1
  Y  Y1  1  0.654326  0.250000  0.299145  1
  Ho  Ho2  1  0.846108  0.250000  0.800362  1
  Ho  Ho3  1  0.153892  0.750000  0.199638  1
  Ho  Ho4  1  0.885045  0.750000  0.810891  1
  Ho  Ho5  1  0.114955  0.250000  0.189109  1
  Ho  Ho6  1  0.385269  0.250000  0.689249  1
  Ho  Ho7  1  0.614731  0.750000  0.310751  1
  Ho  Ho8  1  0.675718  0.538060  0.562803  1
  Ho  Ho9  1  0.324282  0.461940  0.437197  1
  Ho  Ho10  1  0.175459  0.461699  0.937043  1
  Ho  Ho11  1  0.324282  0.038060  0.437197  1
  Ho  Ho12  1  0.824541  0.538301  0.062957  1
  Ho  Ho13  1  0.675718  0.961940  0.562803  1
  Ho  Ho14  1  0.824541  0.961699  0.062957  1
  Ho  Ho15  1  0.175459  0.038301  0.937043  1
  Ho  Ho16  1  0.052401  0.750000  0.497971  1
  Ho  Ho17  1  0.947599  0.250000  0.502029  1
  Ho  Ho18  1  0.552721  0.250000  0.001779  1
  Ho  Ho19  1  0.447279  0.750000  0.998221  1
  Co  Co20  1  0.066752  0.750000  0.991563  1
  Co  Co21  1  0.933248  0.250000  0.008437  1
  Co  Co22  1  0.566290  0.250000  0.509241  1
  Co  Co23  1  0.433710  0.750000  0.490759  1
  Bi  Bi24  1  0.572070  0.509642  0.826780  1
  Bi  Bi25  1  0.427930  0.490358  0.173220  1
  Bi  Bi26  1  0.071344  0.489939  0.673351  1
  Bi  Bi27  1  0.427930  0.009642  0.173220  1
  Bi  Bi28  1  0.928656  0.510061  0.326649  1
  Bi  Bi29  1  0.572070  0.990358  0.826780  1
  Bi  Bi30  1  0.928656  0.989939  0.326649  1
  Bi  Bi31  1  0.071344  0.010061  0.673351  1
