# generated using pymatgen
data_TmLu3(Sc3Sn4)2
_symmetry_space_group_name_H-M   'P 1'
_cell_length_a   7.65081060
_cell_length_b   7.87910442
_cell_length_c   14.75545265
_cell_angle_alpha   89.98227013
_cell_angle_beta   90.06762221
_cell_angle_gamma   89.97820272
_symmetry_Int_Tables_number   1
_chemical_formula_structural   TmLu3(Sc3Sn4)2
_chemical_formula_sum   'Tm2 Lu6 Sc12 Sn16'
_cell_volume   889.48061678
_cell_formula_units_Z   2
loop_
 _symmetry_equiv_pos_site_id
 _symmetry_equiv_pos_as_xyz
  1  'x, y, z'
loop_
 _atom_site_type_symbol
 _atom_site_label
 _atom_site_symmetry_multiplicity
 _atom_site_fract_x
 _atom_site_fract_y
 _atom_site_fract_z
 _atom_site_occupancy
  Tm  Tm0  1  0.489805  0.321132  0.406583  1
  Tm  Tm1  1  0.510195  0.678868  0.593417  1
  Lu  Lu2  1  0.988932  0.178913  0.092866  1
  Lu  Lu3  1  0.011068  0.821087  0.907134  1
  Lu  Lu4  1  0.511897  0.678678  0.906623  1
  Lu  Lu5  1  0.011642  0.821424  0.593480  1
  Lu  Lu6  1  0.488103  0.321322  0.093377  1
  Lu  Lu7  1  0.988358  0.178576  0.406520  1
  Sc  Sc8  1  0.173515  0.494706  0.750356  1
  Sc  Sc9  1  0.826485  0.505294  0.249644  1
  Sc  Sc10  1  0.326821  0.995326  0.249804  1
  Sc  Sc11  1  0.673179  0.004674  0.750196  1
  Sc  Sc12  1  0.344432  0.159278  0.627210  1
  Sc  Sc13  1  0.655568  0.840722  0.372790  1
  Sc  Sc14  1  0.155616  0.660344  0.372736  1
  Sc  Sc15  1  0.654812  0.839786  0.126850  1
  Sc  Sc16  1  0.844384  0.339656  0.627264  1
  Sc  Sc17  1  0.345188  0.160214  0.873150  1
  Sc  Sc18  1  0.845213  0.340238  0.873008  1
  Sc  Sc19  1  0.154787  0.659762  0.126992  1
  Sn  Sn20  1  0.036151  0.121421  0.750197  1
  Sn  Sn21  1  0.963849  0.878579  0.249803  1
  Sn  Sn22  1  0.463668  0.621978  0.250055  1
  Sn  Sn23  1  0.536332  0.378022  0.749945  1
  Sn  Sn24  1  0.315302  0.846642  0.750708  1
  Sn  Sn25  1  0.684698  0.153358  0.249292  1
  Sn  Sn26  1  0.183853  0.345919  0.249672  1
  Sn  Sn27  1  0.816147  0.654081  0.750328  1
  Sn  Sn28  1  0.187271  0.457171  0.542216  1
  Sn  Sn29  1  0.812729  0.542829  0.457784  1
  Sn  Sn30  1  0.310722  0.957764  0.457740  1
  Sn  Sn31  1  0.810226  0.542216  0.042154  1
  Sn  Sn32  1  0.689278  0.042236  0.542260  1
  Sn  Sn33  1  0.189774  0.457784  0.957846  1
  Sn  Sn34  1  0.689387  0.042442  0.957987  1
  Sn  Sn35  1  0.310613  0.957558  0.042013  1
