# generated using pymatgen
data_CeU7H24
_symmetry_space_group_name_H-M   'P 1'
_cell_length_a   6.66651700
_cell_length_b   6.61423500
_cell_length_c   6.61423500
_cell_angle_alpha   90.00000000
_cell_angle_beta   90.00000000
_cell_angle_gamma   90.00000000
_symmetry_Int_Tables_number   1
_chemical_formula_structural   CeU7H24
_chemical_formula_sum   'Ce1 U7 H24'
_cell_volume   291.64748327
_cell_formula_units_Z   1
loop_
 _symmetry_equiv_pos_site_id
 _symmetry_equiv_pos_as_xyz
  1  'x, y, z'
loop_
 _atom_site_type_symbol
 _atom_site_label
 _atom_site_symmetry_multiplicity
 _atom_site_fract_x
 _atom_site_fract_y
 _atom_site_fract_z
 _atom_site_occupancy
  Ce  Ce0  1  0.250000  0.000000  0.500000  1
  U  U1  1  0.997458  0.000000  0.000000  1
  U  U2  1  0.502542  0.500000  0.500000  1
  U  U3  1  0.750000  0.000000  0.500000  1
  U  U4  1  0.000419  0.500000  0.249939  1
  U  U5  1  0.000419  0.500000  0.750061  1
  U  U6  1  0.499581  0.749939  0.000000  1
  U  U7  1  0.499581  0.250061  0.000000  1
  H  H8  1  0.993126  0.156907  0.300515  1
  H  H9  1  0.506874  0.199485  0.656907  1
  H  H10  1  0.506874  0.800515  0.343093  1
  H  H11  1  0.805046  0.654962  0.500000  1
  H  H12  1  0.193820  0.647147  0.500000  1
  H  H13  1  0.345037  0.500000  0.803625  1
  H  H14  1  0.655155  0.500000  0.804847  1
  H  H15  1  0.306180  0.000000  0.147147  1
  H  H16  1  0.154963  0.303625  0.000000  1
  H  H17  1  0.844845  0.695153  0.000000  1
  H  H18  1  0.306180  0.000000  0.852853  1
  H  H19  1  0.844845  0.304847  0.000000  1
  H  H20  1  0.694954  0.000000  0.154962  1
  H  H21  1  0.694954  0.000000  0.845038  1
  H  H22  1  0.154963  0.696375  0.000000  1
  H  H23  1  0.993126  0.843093  0.699485  1
  H  H24  1  0.993126  0.156907  0.699485  1
  H  H25  1  0.993126  0.843093  0.300515  1
  H  H26  1  0.655155  0.500000  0.195153  1
  H  H27  1  0.345037  0.500000  0.196375  1
  H  H28  1  0.805046  0.345038  0.500000  1
  H  H29  1  0.193820  0.352853  0.500000  1
  H  H30  1  0.506874  0.800515  0.656907  1
  H  H31  1  0.506874  0.199485  0.343093  1
