# generated using pymatgen
data_Mg2AsPd5
_symmetry_space_group_name_H-M   'P 1'
_cell_length_a   4.19724700
_cell_length_b   5.55989900
_cell_length_c   10.70881000
_cell_angle_alpha   90.00000000
_cell_angle_beta   90.00000000
_cell_angle_gamma   90.00000000
_symmetry_Int_Tables_number   1
_chemical_formula_structural   Mg2AsPd5
_chemical_formula_sum   'Mg4 As2 Pd10'
_cell_volume   249.90367509
_cell_formula_units_Z   2
loop_
 _symmetry_equiv_pos_site_id
 _symmetry_equiv_pos_as_xyz
  1  'x, y, z'
loop_
 _atom_site_type_symbol
 _atom_site_label
 _atom_site_symmetry_multiplicity
 _atom_site_fract_x
 _atom_site_fract_y
 _atom_site_fract_z
 _atom_site_occupancy
  Mg  Mg0  1  0.500000  0.149520  0.145109  1
  Mg  Mg1  1  0.500000  0.850480  0.854891  1
  Mg  Mg2  1  0.500000  0.350480  0.645109  1
  Mg  Mg3  1  0.500000  0.649520  0.354891  1
  As  As4  1  0.000000  0.000000  0.500000  1
  As  As5  1  0.000000  0.500000  0.000000  1
  Pd  Pd6  1  0.500000  0.175448  0.396828  1
  Pd  Pd7  1  0.500000  0.824552  0.603172  1
  Pd  Pd8  1  0.500000  0.324552  0.896828  1
  Pd  Pd9  1  0.500000  0.675448  0.103172  1
  Pd  Pd10  1  0.000000  0.407454  0.235470  1
  Pd  Pd11  1  0.000000  0.592546  0.764530  1
  Pd  Pd12  1  0.000000  0.092546  0.735470  1
  Pd  Pd13  1  0.000000  0.907454  0.264530  1
  Pd  Pd14  1  0.000000  0.000000  0.000000  1
  Pd  Pd15  1  0.000000  0.500000  0.500000  1
