# generated using pymatgen
data_Tb10GaBi5Se2
_symmetry_space_group_name_H-M   'P 1'
_cell_length_a   9.23310371
_cell_length_b   9.23310498
_cell_length_c   6.69890100
_cell_angle_alpha   90.00000000
_cell_angle_beta   90.00000000
_cell_angle_gamma   119.88428521
_symmetry_Int_Tables_number   1
_chemical_formula_structural   Tb10GaBi5Se2
_chemical_formula_sum   'Tb10 Ga1 Bi5 Se2'
_cell_volume   495.14784603
_cell_formula_units_Z   1
loop_
 _symmetry_equiv_pos_site_id
 _symmetry_equiv_pos_as_xyz
  1  'x, y, z'
loop_
 _atom_site_type_symbol
 _atom_site_label
 _atom_site_symmetry_multiplicity
 _atom_site_fract_x
 _atom_site_fract_y
 _atom_site_fract_z
 _atom_site_occupancy
  Tb  Tb0  1  0.658755  0.336177  0.496280  1
  Tb  Tb1  1  0.336177  0.658755  0.496280  1
  Tb  Tb2  1  0.336177  0.658755  0.003720  1
  Tb  Tb3  1  0.658755  0.336177  0.003720  1
  Tb  Tb4  1  0.738276  0.738276  0.250000  1
  Tb  Tb5  1  0.258492  0.014847  0.250000  1
  Tb  Tb6  1  0.014847  0.258492  0.250000  1
  Tb  Tb7  1  0.252436  0.252436  0.750000  1
  Tb  Tb8  1  0.747213  0.001157  0.750000  1
  Tb  Tb9  1  0.001157  0.747213  0.750000  1
  Ga  Ga10  1  0.398129  0.398129  0.250000  1
  Bi  Bi11  1  0.607891  0.002074  0.250000  1
  Bi  Bi12  1  0.002074  0.607891  0.250000  1
  Bi  Bi13  1  0.604040  0.604040  0.750000  1
  Bi  Bi14  1  0.393657  0.998051  0.750000  1
  Bi  Bi15  1  0.998051  0.393657  0.750000  1
  Se  Se16  1  0.996937  0.996937  0.499688  1
  Se  Se17  1  0.996937  0.996937  0.000312  1
