# generated using pymatgen
data_Tm10SnBi5Se2
_symmetry_space_group_name_H-M   'P 1'
_cell_length_a   9.09342638
_cell_length_b   9.11348566
_cell_length_c   6.62331500
_cell_angle_alpha   90.00000000
_cell_angle_beta   90.00000000
_cell_angle_gamma   120.07300222
_symmetry_Int_Tables_number   1
_chemical_formula_structural   Tm10SnBi5Se2
_chemical_formula_sum   'Tm10 Sn1 Bi5 Se2'
_cell_volume   475.00498371
_cell_formula_units_Z   1
loop_
 _symmetry_equiv_pos_site_id
 _symmetry_equiv_pos_as_xyz
  1  'x, y, z'
loop_
 _atom_site_type_symbol
 _atom_site_label
 _atom_site_symmetry_multiplicity
 _atom_site_fract_x
 _atom_site_fract_y
 _atom_site_fract_z
 _atom_site_occupancy
  Tm  Tm0  1  0.670847  0.334440  0.001893  1
  Tm  Tm1  1  0.329153  0.663594  0.001893  1
  Tm  Tm2  1  0.329153  0.663594  0.498107  1
  Tm  Tm3  1  0.670847  0.334440  0.498107  1
  Tm  Tm4  1  0.744714  0.744949  0.750000  1
  Tm  Tm5  1  0.255286  0.000235  0.750000  1
  Tm  Tm6  1  0.000000  0.256128  0.750000  1
  Tm  Tm7  1  0.251952  0.257003  0.250000  1
  Tm  Tm8  1  0.748048  0.005052  0.250000  1
  Tm  Tm9  1  0.000000  0.741860  0.250000  1
  Sn  Sn10  1  0.000000  0.395592  0.250000  1
  Bi  Bi11  1  0.394514  0.393699  0.750000  1
  Bi  Bi12  1  0.605486  0.999185  0.750000  1
  Bi  Bi13  1  0.000000  0.604947  0.750000  1
  Bi  Bi14  1  0.606592  0.607114  0.250000  1
  Bi  Bi15  1  0.393408  0.000522  0.250000  1
  Se  Se16  1  0.000000  0.998823  0.999743  1
  Se  Se17  1  0.000000  0.998823  0.500257  1
