# generated using pymatgen
data_Th14Re3TcOs2
_symmetry_space_group_name_H-M   'P 1'
_cell_length_a   10.04150579
_cell_length_b   9.98304007
_cell_length_c   6.35324768
_cell_angle_alpha   90.08506180
_cell_angle_beta   89.89287529
_cell_angle_gamma   119.93510525
_symmetry_Int_Tables_number   1
_chemical_formula_structural   Th14Re3TcOs2
_chemical_formula_sum   'Th14 Re3 Tc1 Os2'
_cell_volume   551.91328991
_cell_formula_units_Z   1
loop_
 _symmetry_equiv_pos_site_id
 _symmetry_equiv_pos_as_xyz
  1  'x, y, z'
loop_
 _atom_site_type_symbol
 _atom_site_label
 _atom_site_symmetry_multiplicity
 _atom_site_fract_x
 _atom_site_fract_y
 _atom_site_fract_z
 _atom_site_occupancy
  Th  Th0  1  0.459320  0.534341  0.297681  1
  Th  Th1  1  0.076272  0.535805  0.296133  1
  Th  Th2  1  0.920520  0.462304  0.797577  1
  Th  Th3  1  0.252362  0.126292  0.509482  1
  Th  Th4  1  0.541678  0.078199  0.798771  1
  Th  Th5  1  0.750985  0.873360  0.008542  1
  Th  Th6  1  0.666713  0.334419  0.280082  1
  Th  Th7  1  0.126691  0.873389  0.005198  1
  Th  Th8  1  0.460058  0.922259  0.298571  1
  Th  Th9  1  0.541697  0.465687  0.797104  1
  Th  Th10  1  0.872013  0.126515  0.506460  1
  Th  Th11  1  0.124876  0.248927  0.006732  1
  Th  Th12  1  0.874994  0.751749  0.507291  1
  Th  Th13  1  0.332177  0.665501  0.782631  1
  Re  Re14  1  0.816884  0.187412  0.051147  1
  Re  Re15  1  0.625886  0.810424  0.551045  1
  Re  Re16  1  0.370357  0.186933  0.047763  1
  Tc  Tc17  1  0.818061  0.634247  0.043086  1
  Os  Os18  1  0.184731  0.372017  0.549988  1
  Os  Os19  1  0.183724  0.810220  0.548718  1
