# generated using pymatgen
data_Sm2DyTa(Co4P3)2
_symmetry_space_group_name_H-M   'P 1'
_cell_length_a   3.73918600
_cell_length_b   10.69741300
_cell_length_c   12.40828600
_cell_angle_alpha   90.00000000
_cell_angle_beta   90.00000000
_cell_angle_gamma   90.00000000
_symmetry_Int_Tables_number   1
_chemical_formula_structural   Sm2DyTa(Co4P3)2
_chemical_formula_sum   'Sm4 Dy2 Ta2 Co16 P12'
_cell_volume   496.32668671
_cell_formula_units_Z   2
loop_
 _symmetry_equiv_pos_site_id
 _symmetry_equiv_pos_as_xyz
  1  'x, y, z'
loop_
 _atom_site_type_symbol
 _atom_site_label
 _atom_site_symmetry_multiplicity
 _atom_site_fract_x
 _atom_site_fract_y
 _atom_site_fract_z
 _atom_site_occupancy
  Sm  Sm0  1  0.000000  0.500000  0.527102  1
  Sm  Sm1  1  0.500000  0.000000  0.473824  1
  Sm  Sm2  1  0.500000  0.820059  0.204782  1
  Sm  Sm3  1  0.500000  0.179941  0.204782  1
  Dy  Dy4  1  0.000000  0.679448  0.795670  1
  Dy  Dy5  1  0.000000  0.320552  0.795670  1
  Ta  Ta6  1  0.500000  0.500000  0.154741  1
  Ta  Ta7  1  0.000000  0.000000  0.844636  1
  Co  Co8  1  0.500000  0.500000  0.704255  1
  Co  Co9  1  0.000000  0.000000  0.297009  1
  Co  Co10  1  0.000000  0.500000  0.985885  1
  Co  Co11  1  0.500000  0.000000  0.011041  1
  Co  Co12  1  0.500000  0.333257  0.991150  1
  Co  Co13  1  0.500000  0.666743  0.991150  1
  Co  Co14  1  0.000000  0.168017  0.005613  1
  Co  Co15  1  0.000000  0.831983  0.005613  1
  Co  Co16  1  0.500000  0.295725  0.433096  1
  Co  Co17  1  0.500000  0.704275  0.433096  1
  Co  Co18  1  0.000000  0.205106  0.569609  1
  Co  Co19  1  0.000000  0.794894  0.569609  1
  Co  Co20  1  0.500000  0.878041  0.707382  1
  Co  Co21  1  0.500000  0.121959  0.707382  1
  Co  Co22  1  0.000000  0.620699  0.294131  1
  Co  Co23  1  0.000000  0.379301  0.294131  1
  P  P24  1  0.500000  0.500000  0.882195  1
  P  P25  1  0.000000  0.000000  0.114554  1
  P  P26  1  0.500000  0.500000  0.353844  1
  P  P27  1  0.000000  0.000000  0.646486  1
  P  P28  1  0.500000  0.309272  0.617274  1
  P  P29  1  0.500000  0.690728  0.617274  1
  P  P30  1  0.000000  0.192050  0.385952  1
  P  P31  1  0.000000  0.807950  0.385952  1
  P  P32  1  0.500000  0.840903  0.892978  1
  P  P33  1  0.500000  0.159097  0.892978  1
  P  P34  1  0.000000  0.657411  0.104577  1
  P  P35  1  0.000000  0.342589  0.104577  1
