# generated using pymatgen
data_Pr5SnBi2Cl
_symmetry_space_group_name_H-M   'P 1'
_cell_length_a   9.59402300
_cell_length_b   9.63322947
_cell_length_c   6.73052100
_cell_angle_alpha   90.00000000
_cell_angle_beta   90.00000000
_cell_angle_gamma   119.86545577
_symmetry_Int_Tables_number   1
_chemical_formula_structural   Pr5SnBi2Cl
_chemical_formula_sum   'Pr10 Sn2 Bi4 Cl2'
_cell_volume   539.43507183
_cell_formula_units_Z   2
loop_
 _symmetry_equiv_pos_site_id
 _symmetry_equiv_pos_as_xyz
  1  'x, y, z'
loop_
 _atom_site_type_symbol
 _atom_site_label
 _atom_site_symmetry_multiplicity
 _atom_site_fract_x
 _atom_site_fract_y
 _atom_site_fract_z
 _atom_site_occupancy
  Pr  Pr0  1  0.667066  0.334133  0.000000  1
  Pr  Pr1  1  0.331548  0.663097  0.500000  1
  Pr  Pr2  1  0.667066  0.334133  0.500000  1
  Pr  Pr3  1  0.331548  0.663097  0.000000  1
  Pr  Pr4  1  0.740003  0.004322  0.750000  1
  Pr  Pr5  1  0.733473  0.733289  0.250000  1
  Pr  Pr6  1  0.004439  0.266106  0.250000  1
  Pr  Pr7  1  0.999815  0.733289  0.750000  1
  Pr  Pr8  1  0.261667  0.266106  0.750000  1
  Pr  Pr9  1  0.264319  0.004322  0.250000  1
  Sn  Sn10  1  0.999651  0.386965  0.750000  1
  Sn  Sn11  1  0.387314  0.386965  0.250000  1
  Bi  Bi12  1  0.613320  0.614004  0.750000  1
  Bi  Bi13  1  0.000684  0.614004  0.250000  1
  Bi  Bi14  1  0.614495  0.000533  0.250000  1
  Bi  Bi15  1  0.386038  0.000533  0.750000  1
  Cl  Cl16  1  0.998777  0.997553  0.500000  1
  Cl  Cl17  1  0.998777  0.997553  0.000000  1
