# generated using pymatgen
data_Tb5Ce4HoRu4
_symmetry_space_group_name_H-M   'P 1'
_cell_length_a   6.40974359
_cell_length_b   7.02580240
_cell_length_c   8.87421561
_cell_angle_alpha   95.21311046
_cell_angle_beta   111.17048188
_cell_angle_gamma   89.99999874
_symmetry_Int_Tables_number   1
_chemical_formula_structural   Tb5Ce4HoRu4
_chemical_formula_sum   'Tb5 Ce4 Ho1 Ru4'
_cell_volume   370.89300275
_cell_formula_units_Z   1
loop_
 _symmetry_equiv_pos_site_id
 _symmetry_equiv_pos_as_xyz
  1  'x, y, z'
loop_
 _atom_site_type_symbol
 _atom_site_label
 _atom_site_symmetry_multiplicity
 _atom_site_fract_x
 _atom_site_fract_y
 _atom_site_fract_z
 _atom_site_occupancy
  Tb  Tb0  1  0.641562  0.815786  0.433084  1
  Tb  Tb1  1  0.208478  0.684214  0.566916  1
  Tb  Tb2  1  0.359082  0.184491  0.567563  1
  Tb  Tb3  1  0.791519  0.315509  0.432437  1
  Tb  Tb4  1  0.419589  0.750000  0.000000  1
  Ce  Ce5  1  0.982052  0.904271  0.188609  1
  Ce  Ce6  1  0.793443  0.595729  0.811391  1
  Ce  Ce7  1  0.017745  0.095696  0.811511  1
  Ce  Ce8  1  0.206233  0.404304  0.188489  1
  Ho  Ho9  1  0.580049  0.250000  0.000000  1
  Ru  Ru10  1  0.849274  0.593607  0.219531  1
  Ru  Ru11  1  0.629743  0.906393  0.780469  1
  Ru  Ru12  1  0.150832  0.405333  0.780435  1
  Ru  Ru13  1  0.370397  0.094667  0.219565  1
