# generated using pymatgen
data_Tm8ReB24MoRu2
_symmetry_space_group_name_H-M   'P 1'
_cell_length_a   3.62356200
_cell_length_b   9.11118657
_cell_length_c   11.48865011
_cell_angle_alpha   89.79202060
_cell_angle_beta   90.00000000
_cell_angle_gamma   90.00000000
_symmetry_Int_Tables_number   1
_chemical_formula_structural   Tm8ReB24MoRu2
_chemical_formula_sum   'Tm8 Re1 B24 Mo1 Ru2'
_cell_volume   379.29470367
_cell_formula_units_Z   1
loop_
 _symmetry_equiv_pos_site_id
 _symmetry_equiv_pos_as_xyz
  1  'x, y, z'
loop_
 _atom_site_type_symbol
 _atom_site_label
 _atom_site_symmetry_multiplicity
 _atom_site_fract_x
 _atom_site_fract_y
 _atom_site_fract_z
 _atom_site_occupancy
  Tm  Tm0  1  0.000000  0.322598  0.415832  1
  Tm  Tm1  1  0.000000  0.675872  0.585400  1
  Tm  Tm2  1  0.000000  0.821435  0.086617  1
  Tm  Tm3  1  0.000000  0.179348  0.912515  1
  Tm  Tm4  1  0.000000  0.944933  0.371407  1
  Tm  Tm5  1  0.000000  0.057090  0.629175  1
  Tm  Tm6  1  0.000000  0.441852  0.128181  1
  Tm  Tm7  1  0.000000  0.557409  0.870525  1
  Re  Re8  1  0.000000  0.361201  0.680530  1
  B  B9  1  0.500000  0.551042  0.435298  1
  B  B10  1  0.500000  0.446920  0.567209  1
  B  B11  1  0.500000  0.053573  0.066498  1
  B  B12  1  0.500000  0.946426  0.933503  1
  B  B13  1  0.500000  0.751365  0.421656  1
  B  B14  1  0.500000  0.250707  0.580800  1
  B  B15  1  0.500000  0.248827  0.080632  1
  B  B16  1  0.500000  0.751007  0.919236  1
  B  B17  1  0.500000  0.795288  0.263657  1
  B  B18  1  0.500000  0.207311  0.735068  1
  B  B19  1  0.500000  0.290774  0.234153  1
  B  B20  1  0.500000  0.708862  0.765646  1
  B  B21  1  0.500000  0.631273  0.182226  1
  B  B22  1  0.500000  0.368814  0.815740  1
  B  B23  1  0.500000  0.130799  0.314289  1
  B  B24  1  0.500000  0.869244  0.685529  1
  B  B25  1  0.500000  0.982841  0.211782  1
  B  B26  1  0.500000  0.017597  0.788269  1
  B  B27  1  0.500000  0.477683  0.287103  1
  B  B28  1  0.500000  0.518542  0.712591  1
  B  B29  1  0.500000  0.602744  0.027642  1
  B  B30  1  0.500000  0.397134  0.971360  1
  B  B31  1  0.500000  0.103263  0.471340  1
  B  B32  1  0.500000  0.897544  0.529341  1
  Mo  Mo33  1  0.000000  0.638548  0.319975  1
  Ru  Ru34  1  0.000000  0.137910  0.177947  1
  Ru  Ru35  1  0.000000  0.862223  0.821329  1
