# generated using pymatgen
data_GdNpO5
_symmetry_space_group_name_H-M   'P 1'
_cell_length_a   5.70829990
_cell_length_b   5.70829960
_cell_length_c   8.14840609
_cell_angle_alpha   69.21802003
_cell_angle_beta   69.21801945
_cell_angle_gamma   70.52340166
_symmetry_Int_Tables_number   1
_chemical_formula_structural   GdNpO5
_chemical_formula_sum   'Gd2 Np2 O10'
_cell_volume   225.45122277
_cell_formula_units_Z   2
loop_
 _symmetry_equiv_pos_site_id
 _symmetry_equiv_pos_as_xyz
  1  'x, y, z'
loop_
 _atom_site_type_symbol
 _atom_site_label
 _atom_site_symmetry_multiplicity
 _atom_site_fract_x
 _atom_site_fract_y
 _atom_site_fract_z
 _atom_site_occupancy
  Gd  Gd0  1  0.957013  0.042987  0.250000  1
  Gd  Gd1  1  0.042987  0.957013  0.750000  1
  Np  Np2  1  0.500000  0.500000  0.000000  1
  Np  Np3  1  0.500000  0.500000  0.500000  1
  O  O4  1  0.391454  0.608546  0.750000  1
  O  O5  1  0.291967  0.254068  0.617566  1
  O  O6  1  0.708033  0.745932  0.382434  1
  O  O7  1  0.254068  0.291967  0.117566  1
  O  O8  1  0.608546  0.391454  0.250000  1
  O  O9  1  0.745932  0.708033  0.882434  1
  O  O10  1  0.212688  0.811449  0.034563  1
  O  O11  1  0.811449  0.212688  0.534563  1
  O  O12  1  0.787312  0.188551  0.965437  1
  O  O13  1  0.188551  0.787312  0.465437  1
