# generated using pymatgen
data_Hf8Ta11Si16Os
_symmetry_space_group_name_H-M   'P 1'
_cell_length_a   6.61714571
_cell_length_b   6.81778811
_cell_length_c   13.04342900
_cell_angle_alpha   90.00000000
_cell_angle_beta   90.00000000
_cell_angle_gamma   90.56763387
_symmetry_Int_Tables_number   1
_chemical_formula_structural   Hf8Ta11Si16Os
_chemical_formula_sum   'Hf8 Ta11 Si16 Os1'
_cell_volume   588.41625614
_cell_formula_units_Z   1
loop_
 _symmetry_equiv_pos_site_id
 _symmetry_equiv_pos_as_xyz
  1  'x, y, z'
loop_
 _atom_site_type_symbol
 _atom_site_label
 _atom_site_symmetry_multiplicity
 _atom_site_fract_x
 _atom_site_fract_y
 _atom_site_fract_z
 _atom_site_occupancy
  Hf  Hf0  1  0.489284  0.674041  0.590170  1
  Hf  Hf1  1  0.997378  0.829509  0.911114  1
  Hf  Hf2  1  0.504928  0.328864  0.091899  1
  Hf  Hf3  1  0.006320  0.173701  0.405441  1
  Hf  Hf4  1  0.504928  0.328864  0.408101  1
  Hf  Hf5  1  0.006320  0.173701  0.094559  1
  Hf  Hf6  1  0.489284  0.674041  0.909830  1
  Hf  Hf7  1  0.997378  0.829509  0.588886  1
  Ta  Ta8  1  0.668179  0.166667  0.626688  1
  Ta  Ta9  1  0.163090  0.327001  0.874062  1
  Ta  Ta10  1  0.335799  0.828510  0.123618  1
  Ta  Ta11  1  0.836807  0.670012  0.378580  1
  Ta  Ta12  1  0.335799  0.828510  0.376382  1
  Ta  Ta13  1  0.836807  0.670012  0.121420  1
  Ta  Ta14  1  0.668179  0.166667  0.873312  1
  Ta  Ta15  1  0.163090  0.327001  0.625938  1
  Ta  Ta16  1  0.340531  0.997116  0.750000  1
  Ta  Ta17  1  0.163430  0.502942  0.250000  1
  Ta  Ta18  1  0.662886  0.996990  0.250000  1
  Si  Si19  1  0.672224  0.965404  0.461167  1
  Si  Si20  1  0.170354  0.534667  0.037442  1
  Si  Si21  1  0.331043  0.037890  0.961199  1
  Si  Si22  1  0.828038  0.464697  0.543450  1
  Si  Si23  1  0.331043  0.037890  0.538801  1
  Si  Si24  1  0.828038  0.464697  0.956550  1
  Si  Si25  1  0.672224  0.965404  0.038833  1
  Si  Si26  1  0.170354  0.534667  0.462558  1
  Si  Si27  1  0.469246  0.392236  0.750000  1
  Si  Si28  1  0.964904  0.102303  0.750000  1
  Si  Si29  1  0.539444  0.612253  0.250000  1
  Si  Si30  1  0.036770  0.887327  0.250000  1
  Si  Si31  1  0.703712  0.848876  0.750000  1
  Si  Si32  1  0.191410  0.638207  0.750000  1
  Si  Si33  1  0.298624  0.141965  0.250000  1
  Si  Si34  1  0.795335  0.360290  0.250000  1
  Os  Os35  1  0.826818  0.517567  0.750000  1
