# generated using pymatgen
data_CeY5(SiPd5)2
_symmetry_space_group_name_H-M   'P 1'
_cell_length_a   8.26647882
_cell_length_b   8.26647844
_cell_length_c   8.26647780
_cell_angle_alpha   127.83274028
_cell_angle_beta   125.60100748
_cell_angle_gamma   78.72631796
_symmetry_Int_Tables_number   1
_chemical_formula_structural   CeY5(SiPd5)2
_chemical_formula_sum   'Ce1 Y5 Si2 Pd10'
_cell_volume   351.09259965
_cell_formula_units_Z   1
loop_
 _symmetry_equiv_pos_site_id
 _symmetry_equiv_pos_as_xyz
  1  'x, y, z'
loop_
 _atom_site_type_symbol
 _atom_site_label
 _atom_site_symmetry_multiplicity
 _atom_site_fract_x
 _atom_site_fract_y
 _atom_site_fract_z
 _atom_site_occupancy
  Ce  Ce0  1  0.615708  0.750000  0.865708  1
  Y  Y1  1  0.224305  0.448080  0.776225  1
  Y  Y2  1  0.775428  0.549891  0.225537  1
  Y  Y3  1  0.828145  0.051920  0.776225  1
  Y  Y4  1  0.175646  0.950109  0.225537  1
  Y  Y5  1  0.389069  0.250000  0.139069  1
  Si  Si6  1  0.783891  0.250000  0.533891  1
  Si  Si7  1  0.215607  0.750000  0.465607  1
  Pd  Pd8  1  0.167432  0.401070  0.357458  1
  Pd  Pd9  1  0.830028  0.186307  0.229117  1
  Pd  Pd10  1  0.456388  0.098930  0.766363  1
  Pd  Pd11  1  0.542810  0.313693  0.643721  1
  Pd  Pd12  1  0.999443  0.500691  0.000134  1
  Pd  Pd13  1  0.999443  0.999309  0.498752  1
  Pd  Pd14  1  0.456388  0.690025  0.357458  1
  Pd  Pd15  1  0.542810  0.899089  0.229117  1
  Pd  Pd16  1  0.167432  0.809975  0.766363  1
  Pd  Pd17  1  0.830028  0.600911  0.643721  1
