# generated using pymatgen
data_CeCuAgPt3
_symmetry_space_group_name_H-M   'P 1'
_cell_length_a   5.20990367
_cell_length_b   5.20990466
_cell_length_c   5.20990426
_cell_angle_alpha   62.82617473
_cell_angle_beta   62.82615254
_cell_angle_gamma   62.82617180
_symmetry_Int_Tables_number   1
_chemical_formula_structural   CeCuAgPt3
_chemical_formula_sum   'Ce1 Cu1 Ag1 Pt3'
_cell_volume   106.27633180
_cell_formula_units_Z   1
loop_
 _symmetry_equiv_pos_site_id
 _symmetry_equiv_pos_as_xyz
  1  'x, y, z'
loop_
 _atom_site_type_symbol
 _atom_site_label
 _atom_site_symmetry_multiplicity
 _atom_site_fract_x
 _atom_site_fract_y
 _atom_site_fract_z
 _atom_site_occupancy
  Ce  Ce0  1  0.001586  0.001586  0.001586  1
  Cu  Cu1  1  0.623536  0.623536  0.623536  1
  Ag  Ag2  1  0.251619  0.251619  0.251619  1
  Pt  Pt3  1  0.623625  0.623625  0.126009  1
  Pt  Pt4  1  0.623625  0.126009  0.623625  1
  Pt  Pt5  1  0.126009  0.623625  0.623625  1
