# generated using pymatgen
data_Y3ErLu2Al13Ga5
_symmetry_space_group_name_H-M   'P 1'
_cell_length_a   14.42013361
_cell_length_b   14.41709687
_cell_length_c   14.42013522
_cell_angle_alpha   24.65410337
_cell_angle_beta   24.67625936
_cell_angle_gamma   24.65411138
_symmetry_Int_Tables_number   1
_chemical_formula_structural   Y3ErLu2Al13Ga5
_chemical_formula_sum   'Y3 Er1 Lu2 Al13 Ga5'
_cell_volume   458.98892703
_cell_formula_units_Z   1
loop_
 _symmetry_equiv_pos_site_id
 _symmetry_equiv_pos_as_xyz
  1  'x, y, z'
loop_
 _atom_site_type_symbol
 _atom_site_label
 _atom_site_symmetry_multiplicity
 _atom_site_fract_x
 _atom_site_fract_y
 _atom_site_fract_z
 _atom_site_occupancy
  Y  Y0  1  0.108575  0.106302  0.108575  1
  Y  Y1  1  0.891128  0.890954  0.891128  1
  Y  Y2  1  0.389760  0.392740  0.389760  1
  Er  Er3  1  0.607332  0.606857  0.607332  1
  Lu  Lu4  1  0.001828  0.000558  0.001828  1
  Lu  Lu5  1  0.502551  0.501632  0.502551  1
  Al  Al6  1  0.864740  0.434664  0.864740  1
  Al  Al7  1  0.577802  0.129587  0.129819  1
  Al  Al8  1  0.079162  0.627306  0.630900  1
  Al  Al9  1  0.129819  0.129587  0.577802  1
  Al  Al10  1  0.630900  0.627306  0.079162  1
  Al  Al11  1  0.130026  0.577233  0.130026  1
  Al  Al12  1  0.630277  0.077213  0.630277  1
  Al  Al13  1  0.501315  0.498734  0.998020  1
  Al  Al14  1  0.999173  0.998411  0.501642  1
  Al  Al15  1  0.500460  0.996633  0.500460  1
  Al  Al16  1  0.999610  0.500342  0.999610  1
  Al  Al17  1  0.998020  0.498734  0.501315  1
  Al  Al18  1  0.501642  0.998411  0.999173  1
  Ga  Ga19  1  0.928619  0.367860  0.368001  1
  Ga  Ga20  1  0.424521  0.871508  0.866631  1
  Ga  Ga21  1  0.368001  0.367860  0.928619  1
  Ga  Ga22  1  0.866631  0.871508  0.424521  1
  Ga  Ga23  1  0.368112  0.928065  0.368112  1
