# generated using pymatgen
data_GaFeF6
_symmetry_space_group_name_H-M   'P 1'
_cell_length_a   5.39354657
_cell_length_b   5.39354670
_cell_length_c   5.39354581
_cell_angle_alpha   58.15346100
_cell_angle_beta   58.15345598
_cell_angle_gamma   58.15345768
_symmetry_Int_Tables_number   1
_chemical_formula_structural   GaFeF6
_chemical_formula_sum   'Ga1 Fe1 F6'
_cell_volume   106.24967606
_cell_formula_units_Z   1
loop_
 _symmetry_equiv_pos_site_id
 _symmetry_equiv_pos_as_xyz
  1  'x, y, z'
loop_
 _atom_site_type_symbol
 _atom_site_label
 _atom_site_symmetry_multiplicity
 _atom_site_fract_x
 _atom_site_fract_y
 _atom_site_fract_z
 _atom_site_occupancy
  Ga  Ga0  1  0.500000  0.500000  0.500000  1
  Fe  Fe1  1  0.000000  0.000000  0.000000  1
  F  F2  1  0.163958  0.341810  0.746955  1
  F  F3  1  0.341810  0.746955  0.163958  1
  F  F4  1  0.746955  0.163958  0.341810  1
  F  F5  1  0.836042  0.658190  0.253045  1
  F  F6  1  0.658190  0.253045  0.836042  1
  F  F7  1  0.253045  0.836042  0.658190  1
