# generated using pymatgen
data_Yb5ErAl24Os5Rh3
_symmetry_space_group_name_H-M   'P 1'
_cell_length_a   8.84916105
_cell_length_b   8.84550222
_cell_length_c   9.59386540
_cell_angle_alpha   89.80131303
_cell_angle_beta   89.90936161
_cell_angle_gamma   120.07517553
_symmetry_Int_Tables_number   1
_chemical_formula_structural   Yb5ErAl24Os5Rh3
_chemical_formula_sum   'Yb5 Er1 Al24 Os5 Rh3'
_cell_volume   649.85064795
_cell_formula_units_Z   1
loop_
 _symmetry_equiv_pos_site_id
 _symmetry_equiv_pos_as_xyz
  1  'x, y, z'
loop_
 _atom_site_type_symbol
 _atom_site_label
 _atom_site_symmetry_multiplicity
 _atom_site_fract_x
 _atom_site_fract_y
 _atom_site_fract_z
 _atom_site_occupancy
  Yb  Yb0  1  0.191662  0.385704  0.251676  1
  Yb  Yb1  1  0.809254  0.614231  0.748621  1
  Yb  Yb2  1  0.610386  0.808323  0.250492  1
  Yb  Yb3  1  0.390174  0.191448  0.749539  1
  Yb  Yb4  1  0.196316  0.806513  0.251036  1
  Er  Er5  1  0.803218  0.189921  0.748229  1
  Al  Al6  1  0.334203  0.667864  0.000401  1
  Al  Al7  1  0.666326  0.334303  0.993323  1
  Al  Al8  1  0.666904  0.334083  0.507429  1
  Al  Al9  1  0.332830  0.666589  0.498270  1
  Al  Al10  1  0.160472  0.323319  0.578050  1
  Al  Al11  1  0.839604  0.676213  0.423808  1
  Al  Al12  1  0.676151  0.838615  0.577514  1
  Al  Al13  1  0.836986  0.676227  0.077501  1
  Al  Al14  1  0.324882  0.160390  0.424606  1
  Al  Al15  1  0.161849  0.323132  0.920796  1
  Al  Al16  1  0.162903  0.838313  0.573414  1
  Al  Al17  1  0.324430  0.160511  0.075891  1
  Al  Al18  1  0.836963  0.162440  0.424300  1
  Al  Al19  1  0.676764  0.839843  0.921913  1
  Al  Al20  1  0.835225  0.159902  0.075880  1
  Al  Al21  1  0.165325  0.841472  0.926017  1
  Al  Al22  1  0.560361  0.124286  0.249322  1
  Al  Al23  1  0.438221  0.876284  0.750357  1
  Al  Al24  1  0.876173  0.439193  0.250177  1
  Al  Al25  1  0.121293  0.560040  0.750293  1
  Al  Al26  1  0.561857  0.437186  0.250117  1
  Al  Al27  1  0.438927  0.561254  0.750554  1
  Al  Al28  1  0.998826  0.998044  0.249958  1
  Al  Al29  1  0.000694  0.001973  0.750114  1
  Os  Os30  1  0.501901  0.001779  0.998259  1
  Os  Os31  1  0.501749  0.000664  0.501010  1
  Os  Os32  1  0.999666  0.499344  0.500563  1
  Os  Os33  1  0.999857  0.000214  0.000079  1
  Os  Os34  1  0.999737  0.000424  0.500028  1
  Rh  Rh35  1  0.999313  0.498846  0.999517  1
  Rh  Rh36  1  0.499186  0.500833  0.000938  1
  Rh  Rh37  1  0.499416  0.500282  0.500009  1
