# generated using pymatgen
data_EuDy2Ho(SeO4)6
_symmetry_space_group_name_H-M   'P 1'
_cell_length_a   10.02224880
_cell_length_b   10.02224872
_cell_length_c   10.02224908
_cell_angle_alpha   58.02389797
_cell_angle_beta   58.02389455
_cell_angle_gamma   58.02390226
_symmetry_Int_Tables_number   1
_chemical_formula_structural   EuDy2Ho(SeO4)6
_chemical_formula_sum   'Eu1 Dy2 Ho1 Se6 O24'
_cell_volume   679.57392106
_cell_formula_units_Z   1
loop_
 _symmetry_equiv_pos_site_id
 _symmetry_equiv_pos_as_xyz
  1  'x, y, z'
loop_
 _atom_site_type_symbol
 _atom_site_label
 _atom_site_symmetry_multiplicity
 _atom_site_fract_x
 _atom_site_fract_y
 _atom_site_fract_z
 _atom_site_occupancy
  Eu  Eu0  1  0.642461  0.642461  0.642461  1
  Dy  Dy1  1  0.356228  0.356228  0.356228  1
  Dy  Dy2  1  0.143306  0.143306  0.143306  1
  Ho  Ho3  1  0.855446  0.855446  0.855446  1
  Se  Se4  1  0.748626  0.039040  0.464111  1
  Se  Se5  1  0.968959  0.538038  0.242029  1
  Se  Se6  1  0.538038  0.242029  0.968960  1
  Se  Se7  1  0.464110  0.748626  0.039041  1
  Se  Se8  1  0.039041  0.464110  0.748626  1
  Se  Se9  1  0.242029  0.968959  0.538038  1
  O  O10  1  0.912995  0.073513  0.293154  1
  O  O11  1  0.773530  0.007404  0.631483  1
  O  O12  1  0.998989  0.372606  0.215654  1
  O  O13  1  0.707972  0.074203  0.943247  1
  O  O14  1  0.577913  0.206371  0.441498  1
  O  O15  1  0.871313  0.486845  0.731671  1
  O  O16  1  0.508809  0.269821  0.133545  1
  O  O17  1  0.797372  0.562900  0.408945  1
  O  O18  1  0.943247  0.707972  0.074203  1
  O  O19  1  0.562900  0.408945  0.797372  1
  O  O20  1  0.372606  0.215654  0.998989  1
  O  O21  1  0.269821  0.133545  0.508809  1
  O  O22  1  0.731671  0.871313  0.486845  1
  O  O23  1  0.631483  0.773530  0.007404  1
  O  O24  1  0.441498  0.577913  0.206371  1
  O  O25  1  0.073513  0.293154  0.912995  1
  O  O26  1  0.206371  0.441498  0.577913  1
  O  O27  1  0.486845  0.731671  0.871313  1
  O  O28  1  0.133545  0.508809  0.269821  1
  O  O29  1  0.408945  0.797372  0.562900  1
  O  O30  1  0.293154  0.912995  0.073513  1
  O  O31  1  0.007404  0.631483  0.773530  1
  O  O32  1  0.215654  0.998989  0.372606  1
  O  O33  1  0.074203  0.943247  0.707972  1
