# generated using pymatgen
data_Cs2CePr(MnS3)2
_symmetry_space_group_name_H-M   'P 1'
_cell_length_a   8.06206160
_cell_length_b   8.06206239
_cell_length_c   11.04252327
_cell_angle_alpha   90.40965253
_cell_angle_beta   89.59034697
_cell_angle_gamma   149.73455692
_symmetry_Int_Tables_number   1
_chemical_formula_structural   Cs2CePr(MnS3)2
_chemical_formula_sum   'Cs2 Ce1 Pr1 Mn2 S6'
_cell_volume   361.73044730
_cell_formula_units_Z   1
loop_
 _symmetry_equiv_pos_site_id
 _symmetry_equiv_pos_as_xyz
  1  'x, y, z'
loop_
 _atom_site_type_symbol
 _atom_site_label
 _atom_site_symmetry_multiplicity
 _atom_site_fract_x
 _atom_site_fract_y
 _atom_site_fract_z
 _atom_site_occupancy
  Cs  Cs0  1  0.260379  0.739621  0.247218  1
  Cs  Cs1  1  0.739621  0.260379  0.752782  1
  Ce  Ce2  1  0.000000  0.000000  0.500000  1
  Pr  Pr3  1  0.000000  0.000000  0.000000  1
  Mn  Mn4  1  0.535384  0.464616  0.250554  1
  Mn  Mn5  1  0.464616  0.535384  0.749446  1
  S  S6  1  0.615966  0.384034  0.070030  1
  S  S7  1  0.384034  0.615966  0.929970  1
  S  S8  1  0.388062  0.611938  0.566259  1
  S  S9  1  0.611938  0.388062  0.433741  1
  S  S10  1  0.950149  0.049851  0.253629  1
  S  S11  1  0.049851  0.950149  0.746371  1
