# generated using pymatgen
data_SbP2O6F
_symmetry_space_group_name_H-M   'P 1'
_cell_length_a   8.69329349
_cell_length_b   5.15448150
_cell_length_c   8.38430065
_cell_angle_alpha   69.16122218
_cell_angle_beta   90.24164656
_cell_angle_gamma   89.36546234
_symmetry_Int_Tables_number   1
_chemical_formula_structural   SbP2O6F
_chemical_formula_sum   'Sb2 P4 O12 F2'
_cell_volume   351.08466204
_cell_formula_units_Z   2
loop_
 _symmetry_equiv_pos_site_id
 _symmetry_equiv_pos_as_xyz
  1  'x, y, z'
loop_
 _atom_site_type_symbol
 _atom_site_label
 _atom_site_symmetry_multiplicity
 _atom_site_fract_x
 _atom_site_fract_y
 _atom_site_fract_z
 _atom_site_occupancy
  Sb  Sb0  1  0.534939  0.740772  0.674986  1
  Sb  Sb1  1  0.030079  0.230531  0.300778  1
  P  P2  1  0.878956  0.604430  0.545850  1
  P  P3  1  0.259663  0.809030  0.142350  1
  P  P4  1  0.789477  0.222858  0.884702  1
  P  P5  1  0.369808  0.375379  0.446195  1
  O  O6  1  0.006302  0.816681  0.502966  1
  O  O7  1  0.717012  0.749199  0.526007  1
  O  O8  1  0.392674  0.542537  0.566031  1
  O  O9  1  0.625184  0.329776  0.835326  1
  O  O10  1  0.904752  0.425571  0.747935  1
  O  O11  1  0.391072  0.596998  0.254300  1
  O  O12  1  0.119307  0.651865  0.125903  1
  O  O13  1  0.879451  0.405241  0.448974  1
  O  O14  1  0.202857  0.275593  0.466101  1
  O  O15  1  0.490275  0.149910  0.469395  1
  O  O16  1  0.846806  0.160910  0.060234  1
  O  O17  1  0.240292  0.053711  0.198229  1
  F  F18  1  0.799321  0.949551  0.837338  1
  F  F19  1  0.344986  0.909455  0.966401  1
