# generated using pymatgen
data_V9Ga4Tc2Ir
_symmetry_space_group_name_H-M   'P 1'
_cell_length_a   4.75652600
_cell_length_b   4.77771705
_cell_length_c   9.68031933
_cell_angle_alpha   89.86909564
_cell_angle_beta   90.00000000
_cell_angle_gamma   90.00000000
_symmetry_Int_Tables_number   1
_chemical_formula_structural   V9Ga4Tc2Ir
_chemical_formula_sum   'V9 Ga4 Tc2 Ir1'
_cell_volume   219.98792900
_cell_formula_units_Z   1
loop_
 _symmetry_equiv_pos_site_id
 _symmetry_equiv_pos_as_xyz
  1  'x, y, z'
loop_
 _atom_site_type_symbol
 _atom_site_label
 _atom_site_symmetry_multiplicity
 _atom_site_fract_x
 _atom_site_fract_y
 _atom_site_fract_z
 _atom_site_occupancy
  V  V0  1  0.500000  0.754032  0.498161  1
  V  V1  1  0.746394  0.999978  0.251440  1
  V  V2  1  0.750932  0.998931  0.749822  1
  V  V3  1  0.000000  0.503191  0.119204  1
  V  V4  1  0.000000  0.497406  0.631164  1
  V  V5  1  0.500000  0.251122  0.999951  1
  V  V6  1  0.500000  0.242603  0.499069  1
  V  V7  1  0.253606  0.999978  0.251440  1
  V  V8  1  0.249068  0.998931  0.749822  1
  Ga  Ga9  1  0.500000  0.497157  0.247281  1
  Ga  Ga10  1  0.500000  0.497933  0.745306  1
  Ga  Ga11  1  0.000000  0.005518  0.003692  1
  Ga  Ga12  1  0.000000  0.998933  0.504811  1
  Tc  Tc13  1  0.000000  0.502221  0.874417  1
  Tc  Tc14  1  0.500000  0.752466  0.000082  1
  Ir  Ir15  1  0.000000  0.499599  0.374333  1
