# generated using pymatgen
data_Tb5Y3(Si3Au)4
_symmetry_space_group_name_H-M   'P 1'
_cell_length_a   8.20795877
_cell_length_b   8.20425873
_cell_length_c   8.26697200
_cell_angle_alpha   90.00000000
_cell_angle_beta   90.00000000
_cell_angle_gamma   120.04982145
_symmetry_Int_Tables_number   1
_chemical_formula_structural   Tb5Y3(Si3Au)4
_chemical_formula_sum   'Tb5 Y3 Si12 Au4'
_cell_volume   481.87385427
_cell_formula_units_Z   1
loop_
 _symmetry_equiv_pos_site_id
 _symmetry_equiv_pos_as_xyz
  1  'x, y, z'
loop_
 _atom_site_type_symbol
 _atom_site_label
 _atom_site_symmetry_multiplicity
 _atom_site_fract_x
 _atom_site_fract_y
 _atom_site_fract_z
 _atom_site_occupancy
  Tb  Tb0  1  0.000038  0.499904  0.750000  1
  Tb  Tb1  1  0.500161  0.500052  0.250000  1
  Tb  Tb2  1  0.499997  0.500007  0.750000  1
  Tb  Tb3  1  0.999996  0.999970  0.250000  1
  Tb  Tb4  1  0.999998  0.000025  0.750000  1
  Y  Y5  1  0.500243  0.000400  0.250000  1
  Y  Y6  1  0.500003  0.999786  0.750000  1
  Y  Y7  1  0.999633  0.499870  0.250000  1
  Si  Si8  1  0.164318  0.328292  0.997055  1
  Si  Si9  1  0.835740  0.671752  0.002330  1
  Si  Si10  1  0.672114  0.835757  0.997402  1
  Si  Si11  1  0.835740  0.671752  0.497670  1
  Si  Si12  1  0.327818  0.164208  0.002722  1
  Si  Si13  1  0.164318  0.328292  0.502945  1
  Si  Si14  1  0.163608  0.836127  0.997026  1
  Si  Si15  1  0.327818  0.164208  0.497278  1
  Si  Si16  1  0.836443  0.163883  0.002365  1
  Si  Si17  1  0.672114  0.835757  0.502598  1
  Si  Si18  1  0.836443  0.163883  0.497635  1
  Si  Si19  1  0.163608  0.836127  0.502974  1
  Au  Au20  1  0.333295  0.667357  0.000688  1
  Au  Au21  1  0.666630  0.332617  0.000438  1
  Au  Au22  1  0.666630  0.332617  0.499562  1
  Au  Au23  1  0.333295  0.667357  0.499312  1
