# generated using pymatgen
data_K2Rb6ThBi4
_symmetry_space_group_name_H-M   'P 1'
_cell_length_a   12.50354559
_cell_length_b   12.50354478
_cell_length_c   12.50354300
_cell_angle_alpha   59.99999677
_cell_angle_beta   59.99999892
_cell_angle_gamma   59.99999560
_symmetry_Int_Tables_number   1
_chemical_formula_structural   K2Rb6ThBi4
_chemical_formula_sum   'K4 Rb12 Th2 Bi8'
_cell_volume   1382.24300643
_cell_formula_units_Z   2
loop_
 _symmetry_equiv_pos_site_id
 _symmetry_equiv_pos_as_xyz
  1  'x, y, z'
loop_
 _atom_site_type_symbol
 _atom_site_label
 _atom_site_symmetry_multiplicity
 _atom_site_fract_x
 _atom_site_fract_y
 _atom_site_fract_z
 _atom_site_occupancy
  K  K0  1  0.625000  0.125000  0.625000  1
  K  K1  1  0.625000  0.625000  0.125000  1
  K  K2  1  0.125000  0.625000  0.625000  1
  K  K3  1  0.625000  0.625000  0.625000  1
  Rb  Rb4  1  0.027753  0.027753  0.472247  1
  Rb  Rb5  1  0.777753  0.222247  0.222247  1
  Rb  Rb6  1  0.222247  0.777753  0.777753  1
  Rb  Rb7  1  0.777753  0.777753  0.222247  1
  Rb  Rb8  1  0.777753  0.222247  0.777753  1
  Rb  Rb9  1  0.222247  0.777753  0.222247  1
  Rb  Rb10  1  0.472247  0.027753  0.472247  1
  Rb  Rb11  1  0.472247  0.027753  0.027753  1
  Rb  Rb12  1  0.027753  0.472247  0.472247  1
  Rb  Rb13  1  0.027753  0.472247  0.027753  1
  Rb  Rb14  1  0.222247  0.222247  0.777753  1
  Rb  Rb15  1  0.472247  0.472247  0.027753  1
  Th  Th16  1  0.750000  0.750000  0.750000  1
  Th  Th17  1  0.500000  0.500000  0.500000  1
  Bi  Bi18  1  0.396473  0.810580  0.396473  1
  Bi  Bi19  1  0.853527  0.853527  0.439420  1
  Bi  Bi20  1  0.439420  0.853527  0.853527  1
  Bi  Bi21  1  0.853527  0.853527  0.853527  1
  Bi  Bi22  1  0.810580  0.396473  0.396473  1
  Bi  Bi23  1  0.396473  0.396473  0.396473  1
  Bi  Bi24  1  0.396473  0.396473  0.810580  1
  Bi  Bi25  1  0.853527  0.439420  0.853527  1
