# generated using pymatgen
data_Lu8Ta5Nb7Ge16
_symmetry_space_group_name_H-M   'P 1'
_cell_length_a   6.94065247
_cell_length_b   7.12235763
_cell_length_c   13.48229902
_cell_angle_alpha   90.00796863
_cell_angle_beta   90.02029818
_cell_angle_gamma   90.03143613
_symmetry_Int_Tables_number   1
_chemical_formula_structural   Lu8Ta5Nb7Ge16
_chemical_formula_sum   'Lu8 Ta5 Nb7 Ge16'
_cell_volume   666.48124720
_cell_formula_units_Z   1
loop_
 _symmetry_equiv_pos_site_id
 _symmetry_equiv_pos_as_xyz
  1  'x, y, z'
loop_
 _atom_site_type_symbol
 _atom_site_label
 _atom_site_symmetry_multiplicity
 _atom_site_fract_x
 _atom_site_fract_y
 _atom_site_fract_z
 _atom_site_occupancy
  Lu  Lu0  1  0.496460  0.674199  0.594003  1
  Lu  Lu1  1  0.996753  0.825127  0.905794  1
  Lu  Lu2  1  0.503346  0.324978  0.093938  1
  Lu  Lu3  1  0.003564  0.175178  0.406095  1
  Lu  Lu4  1  0.503316  0.325345  0.406067  1
  Lu  Lu5  1  0.003175  0.174861  0.094013  1
  Lu  Lu6  1  0.496846  0.674931  0.905827  1
  Lu  Lu7  1  0.996657  0.824814  0.593834  1
  Ta  Ta8  1  0.660829  0.170489  0.626053  1
  Ta  Ta9  1  0.837729  0.487378  0.749890  1
  Ta  Ta10  1  0.338802  0.012321  0.749712  1
  Ta  Ta11  1  0.161851  0.512485  0.250044  1
  Ta  Ta12  1  0.661723  0.987683  0.250244  1
  Nb  Nb13  1  0.161533  0.329639  0.874164  1
  Nb  Nb14  1  0.338036  0.829876  0.125776  1
  Nb  Nb15  1  0.838563  0.670079  0.374475  1
  Nb  Nb16  1  0.338765  0.830147  0.374283  1
  Nb  Nb17  1  0.838333  0.670325  0.125766  1
  Nb  Nb18  1  0.661956  0.170004  0.874161  1
  Nb  Nb19  1  0.162095  0.329880  0.625588  1
  Ge  Ge20  1  0.676606  0.964564  0.459037  1
  Ge  Ge21  1  0.176341  0.535554  0.041477  1
  Ge  Ge22  1  0.323727  0.035378  0.958351  1
  Ge  Ge23  1  0.822944  0.463805  0.541670  1
  Ge  Ge24  1  0.323987  0.035368  0.541619  1
  Ge  Ge25  1  0.823630  0.464533  0.958389  1
  Ge  Ge26  1  0.676183  0.964682  0.041604  1
  Ge  Ge27  1  0.176517  0.535744  0.458337  1
  Ge  Ge28  1  0.461703  0.381267  0.750359  1
  Ge  Ge29  1  0.962106  0.119089  0.749587  1
  Ge  Ge30  1  0.538091  0.619146  0.250043  1
  Ge  Ge31  1  0.037985  0.880838  0.250168  1
  Ge  Ge32  1  0.697613  0.855854  0.749758  1
  Ge  Ge33  1  0.197152  0.644293  0.749808  1
  Ge  Ge34  1  0.302593  0.144198  0.250098  1
  Ge  Ge35  1  0.802493  0.355947  0.249968  1
