# generated using pymatgen
data_Tb13Er2Th(InIr)4
_symmetry_space_group_name_H-M   'P 1'
_cell_length_a   9.71703870
_cell_length_b   9.72533604
_cell_length_c   9.71747941
_cell_angle_alpha   60.15618432
_cell_angle_beta   60.06444763
_cell_angle_gamma   60.08266894
_symmetry_Int_Tables_number   1
_chemical_formula_structural   Tb13Er2Th(InIr)4
_chemical_formula_sum   'Tb13 Er2 Th1 In4 Ir4'
_cell_volume   650.83405864
_cell_formula_units_Z   1
loop_
 _symmetry_equiv_pos_site_id
 _symmetry_equiv_pos_as_xyz
  1  'x, y, z'
loop_
 _atom_site_type_symbol
 _atom_site_label
 _atom_site_symmetry_multiplicity
 _atom_site_fract_x
 _atom_site_fract_y
 _atom_site_fract_z
 _atom_site_occupancy
  Tb  Tb0  1  0.310525  0.689554  0.311372  1
  Tb  Tb1  1  0.939817  0.559366  0.561977  1
  Tb  Tb2  1  0.310212  0.309273  0.690608  1
  Tb  Tb3  1  0.098705  0.100650  0.099785  1
  Tb  Tb4  1  0.562620  0.558526  0.939503  1
  Tb  Tb5  1  0.099250  0.100679  0.700186  1
  Tb  Tb6  1  0.690177  0.308738  0.690148  1
  Tb  Tb7  1  0.688692  0.689059  0.310942  1
  Tb  Tb8  1  0.690425  0.309068  0.310825  1
  Tb  Tb9  1  0.310170  0.689317  0.689052  1
  Tb  Tb10  1  0.559958  0.939898  0.559249  1
  Tb  Tb11  1  0.701264  0.100179  0.099434  1
  Tb  Tb12  1  0.560389  0.939603  0.940665  1
  Er  Er13  1  0.941336  0.939299  0.559757  1
  Er  Er14  1  0.939760  0.559054  0.938799  1
  Th  Th15  1  0.096189  0.710249  0.096795  1
  In  In16  1  0.332913  0.333094  0.332908  1
  In  In17  1  0.001080  0.333069  0.332786  1
  In  In18  1  0.333029  0.000205  0.333374  1
  In  In19  1  0.332701  0.333217  0.001068  1
  Ir  Ir20  1  0.892376  0.890269  0.891571  1
  Ir  Ir21  1  0.892358  0.891421  0.324738  1
  Ir  Ir22  1  0.324121  0.891380  0.892265  1
  Ir  Ir23  1  0.891935  0.324830  0.892196  1
