# generated using pymatgen
data_Dy3Ho2Si6P6Ir19
_symmetry_space_group_name_H-M   'P 1'
_cell_length_a   12.79754800
_cell_length_b   12.79732575
_cell_length_c   3.95034600
_cell_angle_alpha   90.00000000
_cell_angle_beta   90.00000000
_cell_angle_gamma   119.99891388
_symmetry_Int_Tables_number   1
_chemical_formula_structural   Dy3Ho2Si6P6Ir19
_chemical_formula_sum   'Dy3 Ho2 Si6 P6 Ir19'
_cell_volume   560.29469803
_cell_formula_units_Z   1
loop_
 _symmetry_equiv_pos_site_id
 _symmetry_equiv_pos_as_xyz
  1  'x, y, z'
loop_
 _atom_site_type_symbol
 _atom_site_label
 _atom_site_symmetry_multiplicity
 _atom_site_fract_x
 _atom_site_fract_y
 _atom_site_fract_z
 _atom_site_occupancy
  Dy  Dy0  1  0.333338  0.666664  0.500000  1
  Dy  Dy1  1  0.666663  0.333319  0.500000  1
  Dy  Dy2  1  0.814546  0.998443  0.000000  1
  Ho  Ho3  1  0.001618  0.816125  0.000000  1
  Ho  Ho4  1  0.183870  0.185489  0.000000  1
  Si  Si5  1  0.000708  0.636006  0.500000  1
  Si  Si6  1  0.363989  0.364706  0.500000  1
  Si  Si7  1  0.635147  0.999276  0.500000  1
  Si  Si8  1  0.519556  0.682177  0.000000  1
  Si  Si9  1  0.317812  0.837406  0.000000  1
  Si  Si10  1  0.162628  0.480453  0.000000  1
  P  P11  1  0.483689  0.177723  0.000000  1
  P  P12  1  0.693983  0.516288  0.000000  1
  P  P13  1  0.822297  0.305997  0.000000  1
  P  P14  1  0.996359  0.176331  0.500000  1
  P  P15  1  0.823778  0.819915  0.500000  1
  P  P16  1  0.180080  0.003766  0.500000  1
  Ir  Ir17  1  0.515460  0.869013  0.000000  1
  Ir  Ir18  1  0.130950  0.646491  0.000000  1
  Ir  Ir19  1  0.353556  0.484488  0.000000  1
  Ir  Ir20  1  0.494394  0.368435  0.000000  1
  Ir  Ir21  1  0.874008  0.505600  0.000000  1
  Ir  Ir22  1  0.631580  0.126005  0.000000  1
  Ir  Ir23  1  0.014809  0.457764  0.500000  1
  Ir  Ir24  1  0.542292  0.557036  0.500000  1
  Ir  Ir25  1  0.442903  0.985151  0.500000  1
  Ir  Ir26  1  0.993712  0.277763  0.000000  1
  Ir  Ir27  1  0.722320  0.715846  0.000000  1
  Ir  Ir28  1  0.283975  0.006417  0.000000  1
  Ir  Ir29  1  0.632733  0.808783  0.500000  1
  Ir  Ir30  1  0.190916  0.823933  0.500000  1
  Ir  Ir31  1  0.176079  0.366985  0.500000  1
  Ir  Ir32  1  0.381752  0.182734  0.500000  1
  Ir  Ir33  1  0.800963  0.618240  0.500000  1
  Ir  Ir34  1  0.817319  0.199239  0.500000  1
  Ir  Ir35  1  0.000214  0.999995  0.500000  1
