# generated using pymatgen
data_Ti2V16C15
_symmetry_space_group_name_H-M   'P 1'
_cell_length_a   5.12216382
_cell_length_b   5.12178519
_cell_length_c   14.45333999
_cell_angle_alpha   90.04717863
_cell_angle_beta   90.09774552
_cell_angle_gamma   119.90233233
_symmetry_Int_Tables_number   1
_chemical_formula_structural   Ti2V16C15
_chemical_formula_sum   'Ti2 V16 C15'
_cell_volume   328.69932265
_cell_formula_units_Z   1
loop_
 _symmetry_equiv_pos_site_id
 _symmetry_equiv_pos_as_xyz
  1  'x, y, z'
loop_
 _atom_site_type_symbol
 _atom_site_label
 _atom_site_symmetry_multiplicity
 _atom_site_fract_x
 _atom_site_fract_y
 _atom_site_fract_z
 _atom_site_occupancy
  Ti  Ti0  1  0.777001  0.542080  0.417944  1
  Ti  Ti1  1  0.764527  0.222160  0.083318  1
  V  V2  1  0.471551  0.249686  0.748239  1
  V  V3  1  0.748860  0.526137  0.917941  1
  V  V4  1  0.779073  0.248266  0.586429  1
  V  V5  1  0.471281  0.222239  0.252402  1
  V  V6  1  0.110856  0.527163  0.749103  1
  V  V7  1  0.472930  0.582779  0.081492  1
  V  V8  1  0.416805  0.889908  0.416520  1
  V  V9  1  0.474550  0.889200  0.916526  1
  V  V10  1  0.415644  0.523393  0.585219  1
  V  V11  1  0.108187  0.586576  0.251115  1
  V  V12  1  0.136687  0.886557  0.591112  1
  V  V13  1  0.111871  0.247962  0.921775  1
  V  V14  1  0.748362  0.862759  0.256355  1
  V  V15  1  0.113001  0.866462  0.075047  1
  V  V16  1  0.753426  0.887632  0.742784  1
  V  V17  1  0.132752  0.246633  0.409070  1
  C  C18  1  0.439020  0.219383  0.998840  1
  C  C19  1  0.780841  0.559329  0.667340  1
  C  C20  1  0.778161  0.219505  0.333574  1
  C  C21  1  0.116222  0.560141  0.997766  1
  C  C22  1  0.444275  0.886753  0.667216  1
  C  C23  1  0.438146  0.556036  0.332180  1
  C  C24  1  0.785194  0.887607  0.997758  1
  C  C25  1  0.107559  0.214269  0.667153  1
  C  C26  1  0.110704  0.897062  0.332293  1
  C  C27  1  0.435786  0.214111  0.501864  1
  C  C28  1  0.778174  0.563967  0.167083  1
  C  C29  1  0.780070  0.220128  0.832400  1
  C  C30  1  0.111723  0.552097  0.501871  1
  C  C31  1  0.440048  0.888202  0.167400  1
  C  C32  1  0.446718  0.553818  0.832870  1
