# generated using pymatgen
data_YTm7(Sc3Sn4)4
_symmetry_space_group_name_H-M   'P 1'
_cell_length_a   7.65747990
_cell_length_b   7.90613406
_cell_length_c   14.79673332
_cell_angle_alpha   89.98910682
_cell_angle_beta   89.91997390
_cell_angle_gamma   90.02367189
_symmetry_Int_Tables_number   1
_chemical_formula_structural   YTm7(Sc3Sn4)4
_chemical_formula_sum   'Y1 Tm7 Sc12 Sn16'
_cell_volume   895.80899305
_cell_formula_units_Z   1
loop_
 _symmetry_equiv_pos_site_id
 _symmetry_equiv_pos_as_xyz
  1  'x, y, z'
loop_
 _atom_site_type_symbol
 _atom_site_label
 _atom_site_symmetry_multiplicity
 _atom_site_fract_x
 _atom_site_fract_y
 _atom_site_fract_z
 _atom_site_occupancy
  Y  Y0  1  0.994131  0.177584  0.093255  1
  Tm  Tm1  1  0.006715  0.821492  0.905986  1
  Tm  Tm2  1  0.507604  0.677987  0.905850  1
  Tm  Tm3  1  0.007156  0.821792  0.593527  1
  Tm  Tm4  1  0.493070  0.322133  0.093552  1
  Tm  Tm5  1  0.992694  0.178259  0.406312  1
  Tm  Tm6  1  0.493148  0.321880  0.407103  1
  Tm  Tm7  1  0.506924  0.678411  0.593553  1
  Sc  Sc8  1  0.165920  0.496066  0.749841  1
  Sc  Sc9  1  0.833772  0.503999  0.250233  1
  Sc  Sc10  1  0.333787  0.995701  0.250306  1
  Sc  Sc11  1  0.665682  0.004107  0.749754  1
  Sc  Sc12  1  0.337731  0.160486  0.627643  1
  Sc  Sc13  1  0.661833  0.839214  0.372885  1
  Sc  Sc14  1  0.162394  0.660693  0.373106  1
  Sc  Sc15  1  0.662498  0.838993  0.127692  1
  Sc  Sc16  1  0.837843  0.339309  0.627516  1
  Sc  Sc17  1  0.337400  0.160907  0.872260  1
  Sc  Sc18  1  0.837220  0.340105  0.872227  1
  Sc  Sc19  1  0.162234  0.660385  0.127300  1
  Sn  Sn20  1  0.027858  0.122520  0.750069  1
  Sn  Sn21  1  0.971500  0.876738  0.250277  1
  Sn  Sn22  1  0.471378  0.622271  0.250173  1
  Sn  Sn23  1  0.528058  0.377672  0.749681  1
  Sn  Sn24  1  0.308559  0.847432  0.749892  1
  Sn  Sn25  1  0.690505  0.152563  0.250526  1
  Sn  Sn26  1  0.192409  0.348088  0.250876  1
  Sn  Sn27  1  0.808737  0.652796  0.749727  1
  Sn  Sn28  1  0.183401  0.458042  0.542521  1
  Sn  Sn29  1  0.816643  0.541797  0.457920  1
  Sn  Sn30  1  0.316168  0.958525  0.457939  1
  Sn  Sn31  1  0.816067  0.542887  0.041815  1
  Sn  Sn32  1  0.683530  0.041747  0.542469  1
  Sn  Sn33  1  0.183823  0.459207  0.957162  1
  Sn  Sn34  1  0.682128  0.041400  0.957088  1
  Sn  Sn35  1  0.319480  0.956810  0.041968  1
