# generated using pymatgen
data_Hf4Ni11Ir
_symmetry_space_group_name_H-M   'P 1'
_cell_length_a   5.32054268
_cell_length_b   5.31751859
_cell_length_c   8.60116700
_cell_angle_alpha   90.00000000
_cell_angle_beta   90.00000000
_cell_angle_gamma   119.98121156
_symmetry_Int_Tables_number   1
_chemical_formula_structural   Hf4Ni11Ir
_chemical_formula_sum   'Hf4 Ni11 Ir1'
_cell_volume   210.78279144
_cell_formula_units_Z   1
loop_
 _symmetry_equiv_pos_site_id
 _symmetry_equiv_pos_as_xyz
  1  'x, y, z'
loop_
 _atom_site_type_symbol
 _atom_site_label
 _atom_site_symmetry_multiplicity
 _atom_site_fract_x
 _atom_site_fract_y
 _atom_site_fract_z
 _atom_site_occupancy
  Hf  Hf0  1  0.002268  0.001135  0.497518  1
  Hf  Hf1  1  0.667590  0.333794  0.750000  1
  Hf  Hf2  1  0.333075  0.666538  0.250000  1
  Hf  Hf3  1  0.002268  0.001135  0.002482  1
  Ni  Ni4  1  0.171200  0.347809  0.750000  1
  Ni  Ni5  1  0.000504  0.500252  0.002168  1
  Ni  Ni6  1  0.822795  0.644383  0.250000  1
  Ni  Ni7  1  0.359458  0.179730  0.250000  1
  Ni  Ni8  1  0.499817  0.497256  0.004151  1
  Ni  Ni9  1  0.822795  0.178412  0.250000  1
  Ni  Ni10  1  0.499817  0.497256  0.495849  1
  Ni  Ni11  1  0.499817  0.002560  0.495849  1
  Ni  Ni12  1  0.171200  0.823390  0.750000  1
  Ni  Ni13  1  0.499817  0.002560  0.004151  1
  Ni  Ni14  1  0.000504  0.500252  0.497832  1
  Ir  Ir15  1  0.647074  0.823536  0.750000  1
