# generated using pymatgen
data_La3Sm3(BiO7)2
_symmetry_space_group_name_H-M   'P 1'
_cell_length_a   6.75093978
_cell_length_b   6.79375801
_cell_length_c   7.95919968
_cell_angle_alpha   106.93617956
_cell_angle_beta   89.89081478
_cell_angle_gamma   98.64628803
_symmetry_Int_Tables_number   1
_chemical_formula_structural   La3Sm3(BiO7)2
_chemical_formula_sum   'La3 Sm3 Bi2 O14'
_cell_volume   344.90329469
_cell_formula_units_Z   1
loop_
 _symmetry_equiv_pos_site_id
 _symmetry_equiv_pos_as_xyz
  1  'x, y, z'
loop_
 _atom_site_type_symbol
 _atom_site_label
 _atom_site_symmetry_multiplicity
 _atom_site_fract_x
 _atom_site_fract_y
 _atom_site_fract_z
 _atom_site_occupancy
  La  La0  1  0.731776  0.466913  0.116473  1
  La  La1  1  0.739524  0.483866  0.620513  1
  La  La2  1  0.258158  0.516598  0.381947  1
  Sm  Sm3  1  0.461579  0.003486  0.252483  1
  Sm  Sm4  1  0.536615  0.995641  0.747316  1
  Sm  Sm5  1  0.268729  0.537360  0.882885  1
  Bi  Bi6  1  0.001154  0.002250  0.501802  1
  Bi  Bi7  1  0.002239  0.000194  0.998701  1
  O  O8  1  0.439293  0.648689  0.163032  1
  O  O9  1  0.548668  0.350525  0.833244  1
  O  O10  1  0.299044  0.926492  0.953984  1
  O  O11  1  0.703243  0.065614  0.045921  1
  O  O12  1  0.296003  0.931516  0.512692  1
  O  O13  1  0.705218  0.068384  0.486743  1
  O  O14  1  0.543919  0.359905  0.344036  1
  O  O15  1  0.452419  0.640377  0.659830  1
  O  O16  1  0.930706  0.670857  0.949162  1
  O  O17  1  0.080696  0.326073  0.041792  1
  O  O18  1  0.076605  0.336541  0.619824  1
  O  O19  1  0.926029  0.666187  0.387007  1
  O  O20  1  0.883110  0.920274  0.729491  1
  O  O21  1  0.115275  0.082258  0.271122  1
