# generated using pymatgen
data_CsRb5(ScTe3)2
_symmetry_space_group_name_H-M   'P 1'
_cell_length_a   15.25078088
_cell_length_b   9.21906791
_cell_length_c   11.72502856
_cell_angle_alpha   52.91595682
_cell_angle_beta   89.53355382
_cell_angle_gamma   89.78689492
_symmetry_Int_Tables_number   1
_chemical_formula_structural   CsRb5(ScTe3)2
_chemical_formula_sum   'Cs2 Rb10 Sc4 Te12'
_cell_volume   1315.06122369
_cell_formula_units_Z   2
loop_
 _symmetry_equiv_pos_site_id
 _symmetry_equiv_pos_as_xyz
  1  'x, y, z'
loop_
 _atom_site_type_symbol
 _atom_site_label
 _atom_site_symmetry_multiplicity
 _atom_site_fract_x
 _atom_site_fract_y
 _atom_site_fract_z
 _atom_site_occupancy
  Cs  Cs0  1  0.313150  0.172250  0.059710  1
  Cs  Cs1  1  0.686850  0.827750  0.940290  1
  Rb  Rb2  1  0.816652  0.836206  0.441648  1
  Rb  Rb3  1  0.895828  0.320797  0.398056  1
  Rb  Rb4  1  0.616509  0.370225  0.471580  1
  Rb  Rb5  1  0.111577  0.631674  0.025732  1
  Rb  Rb6  1  0.383491  0.629775  0.528420  1
  Rb  Rb7  1  0.888423  0.368326  0.974268  1
  Rb  Rb8  1  0.612119  0.307539  0.904229  1
  Rb  Rb9  1  0.104172  0.679203  0.601944  1
  Rb  Rb10  1  0.387881  0.692461  0.095771  1
  Rb  Rb11  1  0.183348  0.163794  0.558352  1
  Sc  Sc12  1  0.065645  0.944733  0.159408  1
  Sc  Sc13  1  0.566616  0.045379  0.344361  1
  Sc  Sc14  1  0.433384  0.954621  0.655639  1
  Sc  Sc15  1  0.934355  0.055267  0.840592  1
  Te  Te16  1  0.406738  0.193643  0.357047  1
  Te  Te17  1  0.899948  0.823471  0.139845  1
  Te  Te18  1  0.593262  0.806357  0.642953  1
  Te  Te19  1  0.100052  0.176529  0.860155  1
  Te  Te20  1  0.701521  0.297745  0.209032  1
  Te  Te21  1  0.191528  0.674367  0.303645  1
  Te  Te22  1  0.298479  0.702255  0.790968  1
  Te  Te23  1  0.808472  0.325633  0.696355  1
  Te  Te24  1  0.548065  0.855756  0.233871  1
  Te  Te25  1  0.054325  0.140044  0.266617  1
  Te  Te26  1  0.451935  0.144244  0.766129  1
  Te  Te27  1  0.945675  0.859956  0.733383  1
