# generated using pymatgen
data_HoCd(CuPd)2
_symmetry_space_group_name_H-M   'P 1'
_cell_length_a   5.06087671
_cell_length_b   5.21682843
_cell_length_c   5.21682847
_cell_angle_alpha   63.65847158
_cell_angle_beta   60.98405672
_cell_angle_gamma   60.98405098
_symmetry_Int_Tables_number   1
_chemical_formula_structural   HoCd(CuPd)2
_chemical_formula_sum   'Ho1 Cd1 Cu2 Pd2'
_cell_volume   101.33959544
_cell_formula_units_Z   1
loop_
 _symmetry_equiv_pos_site_id
 _symmetry_equiv_pos_as_xyz
  1  'x, y, z'
loop_
 _atom_site_type_symbol
 _atom_site_label
 _atom_site_symmetry_multiplicity
 _atom_site_fract_x
 _atom_site_fract_y
 _atom_site_fract_z
 _atom_site_occupancy
  Ho  Ho0  1  0.748181  0.751819  0.751819  1
  Cd  Cd1  1  0.993692  0.006308  0.006308  1
  Cu  Cu2  1  0.377846  0.372570  0.372570  1
  Cu  Cu3  1  0.877012  0.372570  0.372570  1
  Pd  Pd4  1  0.376634  0.372949  0.873782  1
  Pd  Pd5  1  0.376634  0.873782  0.372949  1
