# generated using pymatgen
data_Er8Sc2(IrRh)3
_symmetry_space_group_name_H-M   'P 1'
_cell_length_a   10.68891050
_cell_length_b   10.68996900
_cell_length_c   6.25725429
_cell_angle_alpha   89.99988609
_cell_angle_beta   90.03514969
_cell_angle_gamma   90.00010722
_symmetry_Int_Tables_number   1
_chemical_formula_structural   Er8Sc2(IrRh)3
_chemical_formula_sum   'Er16 Sc4 Ir6 Rh6'
_cell_volume   714.97953303
_cell_formula_units_Z   2
loop_
 _symmetry_equiv_pos_site_id
 _symmetry_equiv_pos_as_xyz
  1  'x, y, z'
loop_
 _atom_site_type_symbol
 _atom_site_label
 _atom_site_symmetry_multiplicity
 _atom_site_fract_x
 _atom_site_fract_y
 _atom_site_fract_z
 _atom_site_occupancy
  Er  Er0  1  0.287640  0.086548  0.377245  1
  Er  Er1  1  0.287639  0.913452  0.877245  1
  Er  Er2  1  0.711463  0.087504  0.877144  1
  Er  Er3  1  0.711467  0.912494  0.377144  1
  Er  Er4  1  0.585593  0.787504  0.877641  1
  Er  Er5  1  0.585593  0.212497  0.377638  1
  Er  Er6  1  0.413387  0.787718  0.377460  1
  Er  Er7  1  0.413387  0.212281  0.877460  1
  Er  Er8  1  0.212246  0.413369  0.622512  1
  Er  Er9  1  0.212242  0.586632  0.122507  1
  Er  Er10  1  0.787468  0.414452  0.122397  1
  Er  Er11  1  0.787468  0.585548  0.622390  1
  Er  Er12  1  0.913521  0.711927  0.123022  1
  Er  Er13  1  0.913522  0.288075  0.623025  1
  Er  Er14  1  0.087569  0.711905  0.622585  1
  Er  Er15  1  0.087571  0.288097  0.122581  1
  Sc  Sc16  1  0.000855  0.000050  0.500013  1
  Sc  Sc17  1  0.000855  0.999952  0.000017  1
  Sc  Sc18  1  0.500024  0.499952  0.999993  1
  Sc  Sc19  1  0.500026  0.500049  0.499998  1
  Ir  Ir20  1  0.148143  0.148838  0.750128  1
  Ir  Ir21  1  0.148145  0.851162  0.250131  1
  Ir  Ir22  1  0.649537  0.350494  0.750026  1
  Ir  Ir23  1  0.649538  0.649507  0.250025  1
  Ir  Ir24  1  0.350948  0.350922  0.249986  1
  Ir  Ir25  1  0.350951  0.649073  0.749980  1
  Rh  Rh26  1  0.851074  0.148326  0.249858  1
  Rh  Rh27  1  0.851072  0.851676  0.749865  1
  Rh  Rh28  1  0.500759  0.999994  0.122541  1
  Rh  Rh29  1  0.500756  0.000003  0.622538  1
  Rh  Rh30  1  0.999770  0.500056  0.877454  1
  Rh  Rh31  1  0.999774  0.499944  0.377454  1
