# generated using pymatgen
data_ThUCo3P4Ir
_symmetry_space_group_name_H-M   'P 1'
_cell_length_a   4.04097800
_cell_length_b   4.02731500
_cell_length_c   9.11194200
_cell_angle_alpha   90.00000000
_cell_angle_beta   90.00000000
_cell_angle_gamma   90.00000000
_symmetry_Int_Tables_number   1
_chemical_formula_structural   ThUCo3P4Ir
_chemical_formula_sum   'Th1 U1 Co3 P4 Ir1'
_cell_volume   148.29039854
_cell_formula_units_Z   1
loop_
 _symmetry_equiv_pos_site_id
 _symmetry_equiv_pos_as_xyz
  1  'x, y, z'
loop_
 _atom_site_type_symbol
 _atom_site_label
 _atom_site_symmetry_multiplicity
 _atom_site_fract_x
 _atom_site_fract_y
 _atom_site_fract_z
 _atom_site_occupancy
  Th  Th0  1  0.500000  0.000000  0.240862  1
  U  U1  1  0.000000  0.500000  0.758225  1
  Co  Co2  1  0.000000  0.500000  0.106470  1
  Co  Co3  1  0.500000  0.000000  0.889496  1
  Co  Co4  1  0.500000  0.500000  0.504198  1
  P  P5  1  0.000000  0.500000  0.359757  1
  P  P6  1  0.500000  0.500000  0.993480  1
  P  P7  1  0.500000  0.000000  0.646986  1
  P  P8  1  0.000000  0.000000  0.993443  1
  Ir  Ir9  1  0.000000  0.000000  0.507083  1
