# generated using pymatgen
data_Th3Al2Pt2RhAu
_symmetry_space_group_name_H-M   'P 1'
_cell_length_a   7.30932784
_cell_length_b   7.58223718
_cell_length_c   4.09878800
_cell_angle_alpha   90.00000000
_cell_angle_beta   90.00000000
_cell_angle_gamma   121.24298450
_symmetry_Int_Tables_number   1
_chemical_formula_structural   Th3Al2Pt2RhAu
_chemical_formula_sum   'Th3 Al2 Pt2 Rh1 Au1'
_cell_volume   194.21549422
_cell_formula_units_Z   1
loop_
 _symmetry_equiv_pos_site_id
 _symmetry_equiv_pos_as_xyz
  1  'x, y, z'
loop_
 _atom_site_type_symbol
 _atom_site_label
 _atom_site_symmetry_multiplicity
 _atom_site_fract_x
 _atom_site_fract_y
 _atom_site_fract_z
 _atom_site_occupancy
  Th  Th0  1  0.000000  0.411871  0.500000  1
  Th  Th1  1  0.606390  0.596927  0.500000  1
  Th  Th2  1  0.393610  0.990537  0.500000  1
  Al  Al3  1  0.234579  0.237845  0.000000  1
  Al  Al4  1  0.765421  0.003266  0.000000  1
  Pt  Pt5  1  0.355075  0.659765  0.000000  1
  Pt  Pt6  1  0.644925  0.304689  0.000000  1
  Rh  Rh7  1  0.000000  0.040429  0.500000  1
  Au  Au8  1  0.000000  0.754672  0.000000  1
