# generated using pymatgen
data_Mg2ZnFe3(B2Rh5)2
_symmetry_space_group_name_H-M   'P 1'
_cell_length_a   9.38247056
_cell_length_b   9.36957607
_cell_length_c   2.91355200
_cell_angle_alpha   90.00000000
_cell_angle_beta   90.00000000
_cell_angle_gamma   90.80786310
_symmetry_Int_Tables_number   1
_chemical_formula_structural   Mg2ZnFe3(B2Rh5)2
_chemical_formula_sum   'Mg2 Zn1 Fe3 B4 Rh10'
_cell_volume   256.10423127
_cell_formula_units_Z   1
loop_
 _symmetry_equiv_pos_site_id
 _symmetry_equiv_pos_as_xyz
  1  'x, y, z'
loop_
 _atom_site_type_symbol
 _atom_site_label
 _atom_site_symmetry_multiplicity
 _atom_site_fract_x
 _atom_site_fract_y
 _atom_site_fract_z
 _atom_site_occupancy
  Mg  Mg0  1  0.177478  0.322932  0.000000  1
  Mg  Mg1  1  0.822522  0.677068  0.000000  1
  Zn  Zn2  1  0.000000  0.000000  0.000000  1
  Fe  Fe3  1  0.676831  0.176577  0.000000  1
  Fe  Fe4  1  0.323169  0.823423  0.000000  1
  Fe  Fe5  1  0.500000  0.500000  0.000000  1
  B  B6  1  0.125549  0.628223  0.000000  1
  B  B7  1  0.874451  0.371777  0.000000  1
  B  B8  1  0.627794  0.875130  0.000000  1
  B  B9  1  0.372206  0.124870  0.000000  1
  Rh  Rh10  1  0.500000  0.000000  0.500000  1
  Rh  Rh11  1  0.000000  0.500000  0.500000  1
  Rh  Rh12  1  0.219313  0.063899  0.500000  1
  Rh  Rh13  1  0.780687  0.936101  0.500000  1
  Rh  Rh14  1  0.079594  0.786689  0.500000  1
  Rh  Rh15  1  0.711630  0.422653  0.500000  1
  Rh  Rh16  1  0.920406  0.213311  0.500000  1
  Rh  Rh17  1  0.288370  0.577347  0.500000  1
  Rh  Rh18  1  0.562740  0.717626  0.500000  1
  Rh  Rh19  1  0.437260  0.282374  0.500000  1
