# generated using pymatgen
data_TbY5Fe3(Co5P4)3
_symmetry_space_group_name_H-M   'P 1'
_cell_length_a   3.70743400
_cell_length_b   10.55602200
_cell_length_c   12.16300500
_cell_angle_alpha   90.00000000
_cell_angle_beta   90.00000000
_cell_angle_gamma   90.00000000
_symmetry_Int_Tables_number   1
_chemical_formula_structural   TbY5Fe3(Co5P4)3
_chemical_formula_sum   'Tb1 Y5 Fe3 Co15 P12'
_cell_volume   476.00838213
_cell_formula_units_Z   1
loop_
 _symmetry_equiv_pos_site_id
 _symmetry_equiv_pos_as_xyz
  1  'x, y, z'
loop_
 _atom_site_type_symbol
 _atom_site_label
 _atom_site_symmetry_multiplicity
 _atom_site_fract_x
 _atom_site_fract_y
 _atom_site_fract_z
 _atom_site_occupancy
  Tb  Tb0  1  0.000000  0.500000  0.522029  1
  Y  Y1  1  0.500000  0.000000  0.478151  1
  Y  Y2  1  0.500000  0.817806  0.205019  1
  Y  Y3  1  0.500000  0.182194  0.205019  1
  Y  Y4  1  0.000000  0.680995  0.795569  1
  Y  Y5  1  0.000000  0.319005  0.795569  1
  Fe  Fe6  1  0.500000  0.500000  0.155066  1
  Fe  Fe7  1  0.000000  0.000000  0.843246  1
  Fe  Fe8  1  0.000000  0.500000  0.988729  1
  Co  Co9  1  0.500000  0.500000  0.701566  1
  Co  Co10  1  0.000000  0.000000  0.298429  1
  Co  Co11  1  0.500000  0.000000  0.013649  1
  Co  Co12  1  0.500000  0.331071  0.994404  1
  Co  Co13  1  0.500000  0.668929  0.994404  1
  Co  Co14  1  0.000000  0.166108  0.005483  1
  Co  Co15  1  0.000000  0.833892  0.005483  1
  Co  Co16  1  0.500000  0.296892  0.430527  1
  Co  Co17  1  0.500000  0.703108  0.430527  1
  Co  Co18  1  0.000000  0.203385  0.569615  1
  Co  Co19  1  0.000000  0.796615  0.569615  1
  Co  Co20  1  0.500000  0.879281  0.709137  1
  Co  Co21  1  0.500000  0.120719  0.709137  1
  Co  Co22  1  0.000000  0.620902  0.290347  1
  Co  Co23  1  0.000000  0.379098  0.290347  1
  P  P24  1  0.500000  0.500000  0.884776  1
  P  P25  1  0.000000  0.000000  0.117298  1
  P  P26  1  0.500000  0.500000  0.340757  1
  P  P27  1  0.000000  0.000000  0.658062  1
  P  P28  1  0.500000  0.309843  0.616246  1
  P  P29  1  0.500000  0.690157  0.616246  1
  P  P30  1  0.000000  0.190265  0.383816  1
  P  P31  1  0.000000  0.809735  0.383816  1
  P  P32  1  0.500000  0.847814  0.892872  1
  P  P33  1  0.500000  0.152186  0.892872  1
  P  P34  1  0.000000  0.652600  0.106086  1
  P  P35  1  0.000000  0.347400  0.106086  1
