# generated using pymatgen
data_Pa2I5ClO2
_symmetry_space_group_name_H-M   'P 1'
_cell_length_a   9.66543214
_cell_length_b   9.66543244
_cell_length_c   10.48547200
_cell_angle_alpha   64.98958186
_cell_angle_beta   64.98957449
_cell_angle_gamma   24.73965671
_symmetry_Int_Tables_number   1
_chemical_formula_structural   Pa2I5ClO2
_chemical_formula_sum   'Pa2 I5 Cl1 O2'
_cell_volume   369.55180347
_cell_formula_units_Z   1
loop_
 _symmetry_equiv_pos_site_id
 _symmetry_equiv_pos_as_xyz
  1  'x, y, z'
loop_
 _atom_site_type_symbol
 _atom_site_label
 _atom_site_symmetry_multiplicity
 _atom_site_fract_x
 _atom_site_fract_y
 _atom_site_fract_z
 _atom_site_occupancy
  Pa  Pa0  1  0.195848  0.195848  0.662552  1
  Pa  Pa1  1  0.799892  0.799892  0.336318  1
  I  I2  1  0.950269  0.950269  0.350336  1
  I  I3  1  0.329519  0.329519  0.730969  1
  I  I4  1  0.665122  0.665122  0.271600  1
  I  I5  1  0.619036  0.619036  0.915380  1
  I  I6  1  0.377229  0.377229  0.083944  1
  Cl  Cl7  1  0.065981  0.065981  0.649847  1
  O  O8  1  0.725423  0.725423  0.575635  1
  O  O9  1  0.271682  0.271682  0.423418  1
