# generated using pymatgen
data_Sr2Ga6AgAu
_symmetry_space_group_name_H-M   'P 1'
_cell_length_a   6.37253737
_cell_length_b   6.37253622
_cell_length_c   6.07648400
_cell_angle_alpha   90.00000000
_cell_angle_beta   90.00000000
_cell_angle_gamma   117.25347217
_symmetry_Int_Tables_number   1
_chemical_formula_structural   Sr2Ga6AgAu
_chemical_formula_sum   'Sr2 Ga6 Ag1 Au1'
_cell_volume   219.36818443
_cell_formula_units_Z   1
loop_
 _symmetry_equiv_pos_site_id
 _symmetry_equiv_pos_as_xyz
  1  'x, y, z'
loop_
 _atom_site_type_symbol
 _atom_site_label
 _atom_site_symmetry_multiplicity
 _atom_site_fract_x
 _atom_site_fract_y
 _atom_site_fract_z
 _atom_site_occupancy
  Sr  Sr0  1  0.234586  0.765414  0.750000  1
  Sr  Sr1  1  0.766923  0.233077  0.250000  1
  Ga  Ga2  1  0.653020  0.346980  0.750000  1
  Ga  Ga3  1  0.344498  0.655502  0.250000  1
  Ga  Ga4  1  0.714930  0.714298  0.002131  1
  Ga  Ga5  1  0.714930  0.714298  0.497869  1
  Ga  Ga6  1  0.285702  0.285070  0.002131  1
  Ga  Ga7  1  0.285702  0.285070  0.497869  1
  Ag  Ag8  1  0.894662  0.105338  0.750000  1
  Au  Au9  1  0.105048  0.894952  0.250000  1
