# generated using pymatgen
data_Nd7Dy(Tm3Sn4)4
_symmetry_space_group_name_H-M   'P 1'
_cell_length_a   8.07425600
_cell_length_b   8.23133022
_cell_length_c   15.49181300
_cell_angle_alpha   90.05630507
_cell_angle_beta   90.00036900
_cell_angle_gamma   89.96853729
_symmetry_Int_Tables_number   1
_chemical_formula_structural   Nd7Dy(Tm3Sn4)4
_chemical_formula_sum   'Nd7 Dy1 Tm12 Sn16'
_cell_volume   1029.61416871
_cell_formula_units_Z   1
loop_
 _symmetry_equiv_pos_site_id
 _symmetry_equiv_pos_as_xyz
  1  'x, y, z'
loop_
 _atom_site_type_symbol
 _atom_site_label
 _atom_site_symmetry_multiplicity
 _atom_site_fract_x
 _atom_site_fract_y
 _atom_site_fract_z
 _atom_site_occupancy
  Nd  Nd0  1  0.515944  0.321124  0.903546  1
  Nd  Nd1  1  0.015419  0.177793  0.596319  1
  Nd  Nd2  1  0.484291  0.678090  0.403454  1
  Nd  Nd3  1  0.983998  0.822537  0.096078  1
  Nd  Nd4  1  0.484439  0.677957  0.096154  1
  Nd  Nd5  1  0.984440  0.822056  0.403500  1
  Nd  Nd6  1  0.515772  0.321840  0.597232  1
  Dy  Dy7  1  0.016879  0.178555  0.902828  1
  Tm  Tm8  1  0.359750  0.837209  0.876672  1
  Tm  Tm9  1  0.859760  0.663112  0.624339  1
  Tm  Tm10  1  0.640065  0.163363  0.376364  1
  Tm  Tm11  1  0.139625  0.336262  0.123330  1
  Tm  Tm12  1  0.639509  0.162818  0.123152  1
  Tm  Tm13  1  0.140402  0.336865  0.376368  1
  Tm  Tm14  1  0.359617  0.836960  0.624022  1
  Tm  Tm15  1  0.859879  0.663129  0.876263  1
  Tm  Tm16  1  0.192385  0.503520  0.750430  1
  Tm  Tm17  1  0.693138  0.996684  0.750460  1
  Tm  Tm18  1  0.807262  0.496018  0.249940  1
  Tm  Tm19  1  0.307032  0.003864  0.249808  1
  Sn  Sn20  1  0.300566  0.042614  0.040815  1
  Sn  Sn21  1  0.803920  0.458862  0.458003  1
  Sn  Sn22  1  0.695829  0.958770  0.542373  1
  Sn  Sn23  1  0.194985  0.538680  0.957181  1
  Sn  Sn24  1  0.699876  0.961341  0.956800  1
  Sn  Sn25  1  0.195986  0.541497  0.542339  1
  Sn  Sn26  1  0.303965  0.041296  0.457913  1
  Sn  Sn27  1  0.804869  0.457736  0.041773  1
  Sn  Sn28  1  0.557992  0.624671  0.750094  1
  Sn  Sn29  1  0.057961  0.876699  0.750513  1
  Sn  Sn30  1  0.441811  0.374983  0.249816  1
  Sn  Sn31  1  0.941890  0.124773  0.249939  1
  Sn  Sn32  1  0.323190  0.144132  0.750827  1
  Sn  Sn33  1  0.826492  0.354083  0.751519  1
  Sn  Sn34  1  0.675426  0.856205  0.249986  1
  Sn  Sn35  1  0.175634  0.643903  0.249854  1
