# generated using pymatgen
data_Er4TmReOsC7
_symmetry_space_group_name_H-M   'P 1'
_cell_length_a   8.17685636
_cell_length_b   8.17633405
_cell_length_c   3.43662700
_cell_angle_alpha   90.00000000
_cell_angle_beta   90.00000000
_cell_angle_gamma   121.98266873
_symmetry_Int_Tables_number   1
_chemical_formula_structural   Er4TmReOsC7
_chemical_formula_sum   'Er4 Tm1 Re1 Os1 C7'
_cell_volume   194.88568369
_cell_formula_units_Z   1
loop_
 _symmetry_equiv_pos_site_id
 _symmetry_equiv_pos_as_xyz
  1  'x, y, z'
loop_
 _atom_site_type_symbol
 _atom_site_label
 _atom_site_symmetry_multiplicity
 _atom_site_fract_x
 _atom_site_fract_y
 _atom_site_fract_z
 _atom_site_occupancy
  Er  Er0  1  0.500549  0.499019  0.000000  1
  Er  Er1  1  0.076416  0.336820  0.500000  1
  Er  Er2  1  0.922021  0.662446  0.500000  1
  Er  Er3  1  0.663026  0.923777  0.500000  1
  Tm  Tm4  1  0.338469  0.078483  0.500000  1
  Re  Re5  1  0.284878  0.715350  0.000000  1
  Os  Os6  1  0.713175  0.286652  0.000000  1
  C  C7  1  0.629206  0.370099  0.500000  1
  C  C8  1  0.375439  0.624563  0.500000  1
  C  C9  1  0.999518  0.000390  0.000000  1
  C  C10  1  0.171282  0.171002  0.000000  1
  C  C11  1  0.828625  0.829357  0.000000  1
  C  C12  1  0.999096  0.501069  0.000000  1
  C  C13  1  0.498300  0.000974  0.000000  1
