# generated using pymatgen
data_Nd2HoSi4(PPd10)2
_symmetry_space_group_name_H-M   'P 1'
_cell_length_a   8.74180337
_cell_length_b   8.74180346
_cell_length_c   8.74162700
_cell_angle_alpha   60.00066396
_cell_angle_beta   60.00066360
_cell_angle_gamma   59.99867078
_symmetry_Int_Tables_number   1
_chemical_formula_structural   Nd2HoSi4(PPd10)2
_chemical_formula_sum   'Nd2 Ho1 Si4 P2 Pd20'
_cell_volume   472.36677132
_cell_formula_units_Z   1
loop_
 _symmetry_equiv_pos_site_id
 _symmetry_equiv_pos_as_xyz
  1  'x, y, z'
loop_
 _atom_site_type_symbol
 _atom_site_label
 _atom_site_symmetry_multiplicity
 _atom_site_fract_x
 _atom_site_fract_y
 _atom_site_fract_z
 _atom_site_occupancy
  Nd  Nd0  1  0.250000  0.250000  0.250000  1
  Nd  Nd1  1  0.750000  0.750000  0.750000  1
  Ho  Ho2  1  0.000000  0.000000  0.000000  1
  Si  Si3  1  0.734568  0.265432  0.265432  1
  Si  Si4  1  0.265432  0.734568  0.734568  1
  Si  Si5  1  0.265432  0.734568  0.265432  1
  Si  Si6  1  0.734568  0.265432  0.734568  1
  P  P7  1  0.264785  0.264785  0.735215  1
  P  P8  1  0.735215  0.735215  0.264785  1
  Pd  Pd9  1  0.385028  0.385028  0.387114  1
  Pd  Pd10  1  0.614972  0.614972  0.612886  1
  Pd  Pd11  1  0.385028  0.385028  0.842831  1
  Pd  Pd12  1  0.387114  0.842831  0.385028  1
  Pd  Pd13  1  0.614972  0.614972  0.157169  1
  Pd  Pd14  1  0.612886  0.157169  0.614972  1
  Pd  Pd15  1  0.842831  0.387114  0.385028  1
  Pd  Pd16  1  0.157169  0.612886  0.614972  1
  Pd  Pd17  1  0.344918  0.001463  0.998537  1
  Pd  Pd18  1  0.655082  0.998537  0.001463  1
  Pd  Pd19  1  0.001463  0.344918  0.655082  1
  Pd  Pd20  1  0.998537  0.655082  0.344918  1
  Pd  Pd21  1  0.001463  0.344918  0.998537  1
  Pd  Pd22  1  0.655082  0.998537  0.344918  1
  Pd  Pd23  1  0.998537  0.655082  0.001463  1
  Pd  Pd24  1  0.344918  0.001463  0.655082  1
  Pd  Pd25  1  0.000000  0.000000  0.346307  1
  Pd  Pd26  1  0.000000  0.000000  0.653693  1
  Pd  Pd27  1  0.653693  0.346307  0.000000  1
  Pd  Pd28  1  0.346307  0.653693  0.000000  1
