# generated using pymatgen
data_Dy2Pa(Ga2Co3)3
_symmetry_space_group_name_H-M   'P 1'
_cell_length_a   4.16007900
_cell_length_b   8.58125611
_cell_length_c   8.58125600
_cell_angle_alpha   59.99487546
_cell_angle_beta   90.00000000
_cell_angle_gamma   90.00000000
_symmetry_Int_Tables_number   1
_chemical_formula_structural   Dy2Pa(Ga2Co3)3
_chemical_formula_sum   'Dy2 Pa1 Ga6 Co9'
_cell_volume   265.28427248
_cell_formula_units_Z   1
loop_
 _symmetry_equiv_pos_site_id
 _symmetry_equiv_pos_as_xyz
  1  'x, y, z'
loop_
 _atom_site_type_symbol
 _atom_site_label
 _atom_site_symmetry_multiplicity
 _atom_site_fract_x
 _atom_site_fract_y
 _atom_site_fract_z
 _atom_site_occupancy
  Dy  Dy0  1  0.500000  0.332846  0.333354  1
  Dy  Dy1  1  0.500000  0.666646  0.667154  1
  Pa  Pa2  1  0.000000  0.000253  0.999747  1
  Ga  Ga3  1  0.000000  0.505216  0.494784  1
  Ga  Ga4  1  0.000000  0.494593  0.999865  1
  Ga  Ga5  1  0.000000  0.000135  0.505407  1
  Ga  Ga6  1  0.500000  0.278276  0.721724  1
  Ga  Ga7  1  0.500000  0.721486  0.999924  1
  Ga  Ga8  1  0.500000  0.000076  0.278514  1
  Co  Co9  1  0.000000  0.173732  0.173859  1
  Co  Co10  1  0.000000  0.173690  0.652464  1
  Co  Co11  1  0.000000  0.652527  0.173879  1
  Co  Co12  1  0.000000  0.826141  0.826268  1
  Co  Co13  1  0.000000  0.347536  0.826310  1
  Co  Co14  1  0.000000  0.826121  0.347473  1
  Co  Co15  1  0.500000  0.699746  0.300254  1
  Co  Co16  1  0.500000  0.300816  0.999933  1
  Co  Co17  1  0.500000  0.000067  0.699184  1
