# generated using pymatgen
data_Hf2MnP2Pd
_symmetry_space_group_name_H-M   'P 1'
_cell_length_a   3.77461200
_cell_length_b   6.37842128
_cell_length_c   7.39688957
_cell_angle_alpha   88.38548690
_cell_angle_beta   90.00000000
_cell_angle_gamma   90.00000000
_symmetry_Int_Tables_number   1
_chemical_formula_structural   Hf2MnP2Pd
_chemical_formula_sum   'Hf4 Mn2 P4 Pd2'
_cell_volume   178.01729879
_cell_formula_units_Z   2
loop_
 _symmetry_equiv_pos_site_id
 _symmetry_equiv_pos_as_xyz
  1  'x, y, z'
loop_
 _atom_site_type_symbol
 _atom_site_label
 _atom_site_symmetry_multiplicity
 _atom_site_fract_x
 _atom_site_fract_y
 _atom_site_fract_z
 _atom_site_occupancy
  Hf  Hf0  1  0.250000  0.528030  0.687389  1
  Hf  Hf1  1  0.750000  0.471970  0.312611  1
  Hf  Hf2  1  0.250000  0.026234  0.828188  1
  Hf  Hf3  1  0.750000  0.973766  0.171812  1
  Mn  Mn4  1  0.750000  0.359319  0.945053  1
  Mn  Mn5  1  0.250000  0.640681  0.054947  1
  P  P6  1  0.250000  0.279277  0.102901  1
  P  P7  1  0.750000  0.720723  0.897099  1
  P  P8  1  0.250000  0.748971  0.355335  1
  P  P9  1  0.750000  0.251029  0.644665  1
  Pd  Pd10  1  0.750000  0.850887  0.565306  1
  Pd  Pd11  1  0.250000  0.149113  0.434694  1
