# generated using pymatgen
data_Ta3Nb2GaSi2
_symmetry_space_group_name_H-M   'P 1'
_cell_length_a   7.60822007
_cell_length_b   7.60821925
_cell_length_c   7.60821896
_cell_angle_alpha   128.36597569
_cell_angle_beta   128.36596945
_cell_angle_gamma   76.03291265
_symmetry_Int_Tables_number   1
_chemical_formula_structural   Ta3Nb2GaSi2
_chemical_formula_sum   'Ta6 Nb4 Ga2 Si4'
_cell_volume   263.21880856
_cell_formula_units_Z   2
loop_
 _symmetry_equiv_pos_site_id
 _symmetry_equiv_pos_as_xyz
  1  'x, y, z'
loop_
 _atom_site_type_symbol
 _atom_site_label
 _atom_site_symmetry_multiplicity
 _atom_site_fract_x
 _atom_site_fract_y
 _atom_site_fract_z
 _atom_site_occupancy
  Ta  Ta0  1  0.984829  0.812527  0.500000  1
  Ta  Ta1  1  0.312527  0.484829  0.500000  1
  Ta  Ta2  1  0.484829  0.984829  0.172301  1
  Ta  Ta3  1  0.812527  0.312527  0.827699  1
  Ta  Ta4  1  0.000163  0.000163  0.000000  1
  Ta  Ta5  1  0.500163  0.500163  0.000000  1
  Nb  Nb6  1  0.015532  0.187119  0.500000  1
  Nb  Nb7  1  0.687119  0.515532  0.500000  1
  Nb  Nb8  1  0.515532  0.015532  0.828414  1
  Nb  Nb9  1  0.187119  0.687119  0.171586  1
  Ga  Ga10  1  0.749879  0.749879  0.000000  1
  Ga  Ga11  1  0.249879  0.249879  0.000000  1
  Si  Si12  1  0.369826  0.130125  0.500000  1
  Si  Si13  1  0.630125  0.869826  0.500000  1
  Si  Si14  1  0.869826  0.369826  0.239700  1
  Si  Si15  1  0.130125  0.630125  0.760300  1
