# generated using pymatgen
data_TmLu9(GaSn2)2
_symmetry_space_group_name_H-M   'P 1'
_cell_length_a   8.64238300
_cell_length_b   8.66306797
_cell_length_c   6.27831000
_cell_angle_alpha   90.00000000
_cell_angle_beta   90.00000000
_cell_angle_gamma   119.88532868
_symmetry_Int_Tables_number   1
_chemical_formula_structural   TmLu9(GaSn2)2
_chemical_formula_sum   'Tm1 Lu9 Ga2 Sn4'
_cell_volume   407.54848987
_cell_formula_units_Z   1
loop_
 _symmetry_equiv_pos_site_id
 _symmetry_equiv_pos_as_xyz
  1  'x, y, z'
loop_
 _atom_site_type_symbol
 _atom_site_label
 _atom_site_symmetry_multiplicity
 _atom_site_fract_x
 _atom_site_fract_y
 _atom_site_fract_z
 _atom_site_occupancy
  Tm  Tm0  1  0.010448  0.769799  0.750000  1
  Lu  Lu1  1  0.343561  0.686920  0.000081  1
  Lu  Lu2  1  0.656568  0.313031  0.499980  1
  Lu  Lu3  1  0.656568  0.313031  0.000020  1
  Lu  Lu4  1  0.343561  0.686920  0.499919  1
  Lu  Lu5  1  0.242077  0.000128  0.250000  1
  Lu  Lu6  1  0.758283  0.000336  0.750000  1
  Lu  Lu7  1  0.989151  0.229540  0.250000  1
  Lu  Lu8  1  0.758542  0.769360  0.250000  1
  Lu  Lu9  1  0.241107  0.230698  0.750000  1
  Ga  Ga10  1  0.601621  0.000078  0.250000  1
  Ga  Ga11  1  0.399411  0.000562  0.750000  1
  Sn  Sn12  1  0.994188  0.600791  0.250000  1
  Sn  Sn13  1  0.393306  0.399267  0.250000  1
  Sn  Sn14  1  0.605834  0.600518  0.750000  1
  Sn  Sn15  1  0.005773  0.399019  0.750000  1
