# generated using pymatgen
data_Dy7Tm9MgIn3Ni4
_symmetry_space_group_name_H-M   'P 1'
_cell_length_a   9.53648951
_cell_length_b   9.49220331
_cell_length_c   9.50568500
_cell_angle_alpha   59.95300952
_cell_angle_beta   60.10679933
_cell_angle_gamma   60.08507705
_symmetry_Int_Tables_number   1
_chemical_formula_structural   Dy7Tm9MgIn3Ni4
_chemical_formula_sum   'Dy7 Tm9 Mg1 In3 Ni4'
_cell_volume   609.11219694
_cell_formula_units_Z   1
loop_
 _symmetry_equiv_pos_site_id
 _symmetry_equiv_pos_as_xyz
  1  'x, y, z'
loop_
 _atom_site_type_symbol
 _atom_site_label
 _atom_site_symmetry_multiplicity
 _atom_site_fract_x
 _atom_site_fract_y
 _atom_site_fract_z
 _atom_site_occupancy
  Dy  Dy0  1  0.812950  0.812081  0.187485  1
  Dy  Dy1  1  0.937729  0.563102  0.564009  1
  Dy  Dy2  1  0.562021  0.937587  0.937328  1
  Dy  Dy3  1  0.562021  0.937587  0.563063  1
  Dy  Dy4  1  0.937729  0.563102  0.935160  1
  Dy  Dy5  1  0.562539  0.563153  0.937153  1
  Dy  Dy6  1  0.937470  0.937084  0.562723  1
  Tm  Tm7  1  0.346088  0.345435  0.346771  1
  Tm  Tm8  1  0.346088  0.345435  0.961705  1
  Tm  Tm9  1  0.346774  0.960021  0.346602  1
  Tm  Tm10  1  0.954425  0.348462  0.348556  1
  Tm  Tm11  1  0.811520  0.189323  0.187733  1
  Tm  Tm12  1  0.185766  0.814447  0.813141  1
  Tm  Tm13  1  0.185766  0.814447  0.186646  1
  Tm  Tm14  1  0.811520  0.189323  0.811423  1
  Tm  Tm15  1  0.185214  0.186430  0.814178  1
  Mg  Mg16  1  0.269882  0.576027  0.577046  1
  In  In17  1  0.581950  0.581672  0.582739  1
  In  In18  1  0.581950  0.581672  0.253641  1
  In  In19  1  0.581859  0.253888  0.582128  1
  Ni  Ni20  1  0.141433  0.142354  0.142507  1
  Ni  Ni21  1  0.141433  0.142354  0.573705  1
  Ni  Ni22  1  0.142170  0.572961  0.142435  1
  Ni  Ni23  1  0.573703  0.142051  0.142123  1
