# generated using pymatgen
data_Sc12Cu3Si12Ir
_symmetry_space_group_name_H-M   'P 1'
_cell_length_a   4.02050200
_cell_length_b   10.19216273
_cell_length_c   11.70774407
_cell_angle_alpha   89.74830601
_cell_angle_beta   90.00000000
_cell_angle_gamma   90.00000000
_symmetry_Int_Tables_number   1
_chemical_formula_structural   Sc12Cu3Si12Ir
_chemical_formula_sum   'Sc12 Cu3 Si12 Ir1'
_cell_volume   479.75074918
_cell_formula_units_Z   1
loop_
 _symmetry_equiv_pos_site_id
 _symmetry_equiv_pos_as_xyz
  1  'x, y, z'
loop_
 _atom_site_type_symbol
 _atom_site_label
 _atom_site_symmetry_multiplicity
 _atom_site_fract_x
 _atom_site_fract_y
 _atom_site_fract_z
 _atom_site_occupancy
  Sc  Sc0  1  0.250000  0.877464  0.023164  1
  Sc  Sc1  1  0.250000  0.623750  0.524428  1
  Sc  Sc2  1  0.750000  0.122872  0.975520  1
  Sc  Sc3  1  0.750000  0.375447  0.474912  1
  Sc  Sc4  1  0.250000  0.919990  0.601245  1
  Sc  Sc5  1  0.250000  0.579974  0.098333  1
  Sc  Sc6  1  0.750000  0.078443  0.402205  1
  Sc  Sc7  1  0.750000  0.421125  0.903355  1
  Sc  Sc8  1  0.250000  0.660614  0.800704  1
  Sc  Sc9  1  0.250000  0.837191  0.301214  1
  Sc  Sc10  1  0.750000  0.337870  0.197599  1
  Sc  Sc11  1  0.750000  0.158720  0.698818  1
  Cu  Cu12  1  0.250000  0.387114  0.678109  1
  Cu  Cu13  1  0.250000  0.112782  0.178837  1
  Cu  Cu14  1  0.750000  0.612961  0.320948  1
  Si  Si15  1  0.250000  0.013463  0.825237  1
  Si  Si16  1  0.250000  0.484612  0.325511  1
  Si  Si17  1  0.750000  0.985483  0.177125  1
  Si  Si18  1  0.750000  0.514279  0.673378  1
  Si  Si19  1  0.250000  0.248693  0.843521  1
  Si  Si20  1  0.250000  0.249706  0.343485  1
  Si  Si21  1  0.750000  0.750431  0.156102  1
  Si  Si22  1  0.750000  0.749174  0.658107  1
  Si  Si23  1  0.250000  0.188403  0.542057  1
  Si  Si24  1  0.250000  0.312837  0.040691  1
  Si  Si25  1  0.750000  0.812225  0.459085  1
  Si  Si26  1  0.750000  0.695628  0.955255  1
  Ir  Ir27  1  0.750000  0.888748  0.821056  1
