# generated using pymatgen
data_Ho4Mo3Os5
_symmetry_space_group_name_H-M   'P 1'
_cell_length_a   5.40519896
_cell_length_b   5.40519825
_cell_length_c   8.63776800
_cell_angle_alpha   90.00000000
_cell_angle_beta   90.00000000
_cell_angle_gamma   117.28598004
_symmetry_Int_Tables_number   1
_chemical_formula_structural   Ho4Mo3Os5
_chemical_formula_sum   'Ho4 Mo3 Os5'
_cell_volume   224.28199534
_cell_formula_units_Z   1
loop_
 _symmetry_equiv_pos_site_id
 _symmetry_equiv_pos_as_xyz
  1  'x, y, z'
loop_
 _atom_site_type_symbol
 _atom_site_label
 _atom_site_symmetry_multiplicity
 _atom_site_fract_x
 _atom_site_fract_y
 _atom_site_fract_z
 _atom_site_occupancy
  Ho  Ho0  1  0.333302  0.666698  0.437885  1
  Ho  Ho1  1  0.666011  0.333989  0.566982  1
  Ho  Ho2  1  0.666011  0.333989  0.933018  1
  Ho  Ho3  1  0.333302  0.666698  0.062115  1
  Mo  Mo4  1  0.002328  0.997672  0.506608  1
  Mo  Mo5  1  0.002328  0.997672  0.993392  1
  Mo  Mo6  1  0.826265  0.173735  0.250000  1
  Os  Os7  1  0.829762  0.661053  0.250000  1
  Os  Os8  1  0.338947  0.170238  0.250000  1
  Os  Os9  1  0.176358  0.823642  0.750000  1
  Os  Os10  1  0.168393  0.343005  0.750000  1
  Os  Os11  1  0.656995  0.831607  0.750000  1
