# generated using pymatgen
data_YErSb5
_symmetry_space_group_name_H-M   'P 1'
_cell_length_a   4.23593300
_cell_length_b   13.15792200
_cell_length_c   14.64560829
_cell_angle_alpha   77.68613564
_cell_angle_beta   90.00000000
_cell_angle_gamma   90.00000000
_symmetry_Int_Tables_number   1
_chemical_formula_structural   YErSb5
_chemical_formula_sum   'Y4 Er4 Sb20'
_cell_volume   797.50919591
_cell_formula_units_Z   4
loop_
 _symmetry_equiv_pos_site_id
 _symmetry_equiv_pos_as_xyz
  1  'x, y, z'
loop_
 _atom_site_type_symbol
 _atom_site_label
 _atom_site_symmetry_multiplicity
 _atom_site_fract_x
 _atom_site_fract_y
 _atom_site_fract_z
 _atom_site_occupancy
  Y  Y0  1  0.250000  0.669647  0.577257  1
  Y  Y1  1  0.750000  0.330353  0.422743  1
  Y  Y2  1  0.250000  0.952688  0.360104  1
  Y  Y3  1  0.750000  0.047312  0.639896  1
  Er  Er4  1  0.250000  0.394402  0.771560  1
  Er  Er5  1  0.750000  0.605598  0.228440  1
  Er  Er6  1  0.250000  0.662964  0.855856  1
  Er  Er7  1  0.750000  0.337036  0.144144  1
  Sb  Sb8  1  0.250000  0.143402  0.780405  1
  Sb  Sb9  1  0.750000  0.856598  0.219595  1
  Sb  Sb10  1  0.250000  0.142670  0.482500  1
  Sb  Sb11  1  0.750000  0.857330  0.517500  1
  Sb  Sb12  1  0.250000  0.152621  0.172028  1
  Sb  Sb13  1  0.750000  0.847379  0.827972  1
  Sb  Sb14  1  0.250000  0.420355  0.975810  1
  Sb  Sb15  1  0.750000  0.579645  0.024190  1
  Sb  Sb16  1  0.750000  0.030427  0.907150  1
  Sb  Sb17  1  0.250000  0.969573  0.092850  1
  Sb  Sb18  1  0.750000  0.139035  0.321592  1
  Sb  Sb19  1  0.250000  0.860965  0.678408  1
  Sb  Sb20  1  0.750000  0.279790  0.938496  1
  Sb  Sb21  1  0.250000  0.720210  0.061504  1
  Sb  Sb22  1  0.750000  0.286955  0.654137  1
  Sb  Sb23  1  0.250000  0.713045  0.345863  1
  Sb  Sb24  1  0.750000  0.575793  0.735979  1
  Sb  Sb25  1  0.250000  0.424207  0.264021  1
  Sb  Sb26  1  0.750000  0.574579  0.446490  1
  Sb  Sb27  1  0.250000  0.425421  0.553510  1
