# generated using pymatgen
data_Pa6Sb8PdPt5
_symmetry_space_group_name_H-M   'P 1'
_cell_length_a   8.47446595
_cell_length_b   8.47446544
_cell_length_c   8.47446457
_cell_angle_alpha   109.40817351
_cell_angle_beta   109.40818787
_cell_angle_gamma   109.59737405
_symmetry_Int_Tables_number   1
_chemical_formula_structural   Pa6Sb8PdPt5
_chemical_formula_sum   'Pa6 Sb8 Pd1 Pt5'
_cell_volume   468.50415929
_cell_formula_units_Z   1
loop_
 _symmetry_equiv_pos_site_id
 _symmetry_equiv_pos_as_xyz
  1  'x, y, z'
loop_
 _atom_site_type_symbol
 _atom_site_label
 _atom_site_symmetry_multiplicity
 _atom_site_fract_x
 _atom_site_fract_y
 _atom_site_fract_z
 _atom_site_occupancy
  Pa  Pa0  1  0.875584  0.251714  0.129493  1
  Pa  Pa1  1  0.622221  0.746090  0.370507  1
  Pa  Pa2  1  0.253910  0.124416  0.876130  1
  Pa  Pa3  1  0.748286  0.377779  0.623870  1
  Pa  Pa4  1  0.125000  0.875000  0.250000  1
  Pa  Pa5  1  0.375000  0.625000  0.750000  1
  Sb  Sb6  1  0.679217  0.500209  0.999262  1
  Sb  Sb7  1  0.504108  0.002101  0.679009  1
  Sb  Sb8  1  0.000947  0.679955  0.500738  1
  Sb  Sb9  1  0.823092  0.825099  0.820991  1
  Sb  Sb10  1  0.499791  0.999053  0.179008  1
  Sb  Sb11  1  0.174901  0.495892  0.997993  1
  Sb  Sb12  1  0.997899  0.176908  0.502007  1
  Sb  Sb13  1  0.320045  0.320783  0.320992  1
  Pd  Pd14  1  0.875000  0.125000  0.750000  1
  Pt  Pt15  1  0.374277  0.249668  0.624790  1
  Pt  Pt16  1  0.124878  0.749488  0.875210  1
  Pt  Pt17  1  0.250512  0.625723  0.375390  1
  Pt  Pt18  1  0.750332  0.875122  0.124610  1
  Pt  Pt19  1  0.625000  0.375000  0.250000  1
