# generated using pymatgen
data_Nb4V4GaSiP2
_symmetry_space_group_name_H-M   'P 1'
_cell_length_a   3.40767000
_cell_length_b   6.55685046
_cell_length_c   7.90706979
_cell_angle_alpha   89.37702543
_cell_angle_beta   90.00000000
_cell_angle_gamma   90.00000000
_symmetry_Int_Tables_number   1
_chemical_formula_structural   Nb4V4GaSiP2
_chemical_formula_sum   'Nb4 V4 Ga1 Si1 P2'
_cell_volume   176.66182395
_cell_formula_units_Z   1
loop_
 _symmetry_equiv_pos_site_id
 _symmetry_equiv_pos_as_xyz
  1  'x, y, z'
loop_
 _atom_site_type_symbol
 _atom_site_label
 _atom_site_symmetry_multiplicity
 _atom_site_fract_x
 _atom_site_fract_y
 _atom_site_fract_z
 _atom_site_occupancy
  Nb  Nb0  1  0.250000  0.033581  0.832637  1
  Nb  Nb1  1  0.250000  0.546428  0.674205  1
  Nb  Nb2  1  0.750000  0.970805  0.159862  1
  Nb  Nb3  1  0.750000  0.443991  0.328773  1
  V  V4  1  0.250000  0.135221  0.439680  1
  V  V5  1  0.250000  0.627253  0.053403  1
  V  V6  1  0.750000  0.873276  0.567193  1
  V  V7  1  0.750000  0.369567  0.942754  1
  Ga  Ga8  1  0.250000  0.753292  0.359177  1
  Si  Si9  1  0.750000  0.247296  0.641118  1
  P  P10  1  0.250000  0.258431  0.137482  1
  P  P11  1  0.750000  0.740861  0.863717  1
