# generated using pymatgen
data_Hf4ThSnN8
_symmetry_space_group_name_H-M   'P 1'
_cell_length_a   6.54888185
_cell_length_b   6.54888126
_cell_length_c   6.54888100
_cell_angle_alpha   59.99999628
_cell_angle_beta   59.99999922
_cell_angle_gamma   59.99999946
_symmetry_Int_Tables_number   1
_chemical_formula_structural   Hf4ThSnN8
_chemical_formula_sum   'Hf4 Th1 Sn1 N8'
_cell_volume   198.60325223
_cell_formula_units_Z   1
loop_
 _symmetry_equiv_pos_site_id
 _symmetry_equiv_pos_as_xyz
  1  'x, y, z'
loop_
 _atom_site_type_symbol
 _atom_site_label
 _atom_site_symmetry_multiplicity
 _atom_site_fract_x
 _atom_site_fract_y
 _atom_site_fract_z
 _atom_site_occupancy
  Hf  Hf0  1  0.123194  0.123194  0.123194  1
  Hf  Hf1  1  0.630419  0.123194  0.123194  1
  Hf  Hf2  1  0.123194  0.123194  0.630419  1
  Hf  Hf3  1  0.123194  0.630419  0.123194  1
  Th  Th4  1  0.750000  0.750000  0.750000  1
  Sn  Sn5  1  0.500000  0.500000  0.500000  1
  N  N6  1  0.891453  0.325640  0.891453  1
  N  N7  1  0.366638  0.366638  0.900086  1
  N  N8  1  0.366638  0.366638  0.366638  1
  N  N9  1  0.900086  0.366638  0.366638  1
  N  N10  1  0.891453  0.891453  0.891453  1
  N  N11  1  0.325640  0.891453  0.891453  1
  N  N12  1  0.366638  0.900086  0.366638  1
  N  N13  1  0.891453  0.891453  0.325640  1
