# generated using pymatgen
data_Ti4Mn24Sn
_symmetry_space_group_name_H-M   'P 1'
_cell_length_a   7.61876755
_cell_length_b   7.61876755
_cell_length_c   7.61876700
_cell_angle_alpha   109.47121917
_cell_angle_beta   109.47121916
_cell_angle_gamma   109.47121835
_symmetry_Int_Tables_number   1
_chemical_formula_structural   Ti4Mn24Sn
_chemical_formula_sum   'Ti4 Mn24 Sn1'
_cell_volume   340.43348932
_cell_formula_units_Z   1
loop_
 _symmetry_equiv_pos_site_id
 _symmetry_equiv_pos_as_xyz
  1  'x, y, z'
loop_
 _atom_site_type_symbol
 _atom_site_label
 _atom_site_symmetry_multiplicity
 _atom_site_fract_x
 _atom_site_fract_y
 _atom_site_fract_z
 _atom_site_occupancy
  Ti  Ti0  1  0.622233  0.000000  0.000000  1
  Ti  Ti1  1  0.000000  0.622233  0.000000  1
  Ti  Ti2  1  0.000000  0.000000  0.622233  1
  Ti  Ti3  1  0.377767  0.377767  0.377767  1
  Mn  Mn4  1  0.389119  0.671209  0.000000  1
  Mn  Mn5  1  0.717909  0.328791  0.328791  1
  Mn  Mn6  1  0.389119  0.000000  0.671209  1
  Mn  Mn7  1  0.671209  0.389119  0.000000  1
  Mn  Mn8  1  0.000000  0.389119  0.671209  1
  Mn  Mn9  1  0.328791  0.717909  0.328791  1
  Mn  Mn10  1  0.328791  0.328791  0.717909  1
  Mn  Mn11  1  0.000000  0.671209  0.389119  1
  Mn  Mn12  1  0.671209  0.000000  0.389119  1
  Mn  Mn13  1  0.610881  0.610881  0.282091  1
  Mn  Mn14  1  0.282091  0.610881  0.610881  1
  Mn  Mn15  1  0.610881  0.282091  0.610881  1
  Mn  Mn16  1  0.376530  0.196374  0.000000  1
  Mn  Mn17  1  0.180156  0.803626  0.803626  1
  Mn  Mn18  1  0.376530  0.000000  0.196374  1
  Mn  Mn19  1  0.196374  0.376530  0.000000  1
  Mn  Mn20  1  0.000000  0.376530  0.196374  1
  Mn  Mn21  1  0.803626  0.180156  0.803626  1
  Mn  Mn22  1  0.803626  0.803626  0.180156  1
  Mn  Mn23  1  0.000000  0.196374  0.376530  1
  Mn  Mn24  1  0.196374  0.000000  0.376530  1
  Mn  Mn25  1  0.623470  0.623470  0.819844  1
  Mn  Mn26  1  0.819844  0.623470  0.623470  1
  Mn  Mn27  1  0.623470  0.819844  0.623470  1
  Sn  Sn28  1  0.000000  0.000000  0.000000  1
