# generated using pymatgen
data_Ho8In3Cu
_symmetry_space_group_name_H-M   'P 1'
_cell_length_a   10.51262600
_cell_length_b   10.51262585
_cell_length_c   6.83221800
_cell_angle_alpha   90.00000000
_cell_angle_beta   90.00000000
_cell_angle_gamma   120.00000048
_symmetry_Int_Tables_number   1
_chemical_formula_structural   Ho8In3Cu
_chemical_formula_sum   'Ho16 In6 Cu2'
_cell_volume   653.90516346
_cell_formula_units_Z   2
loop_
 _symmetry_equiv_pos_site_id
 _symmetry_equiv_pos_as_xyz
  1  'x, y, z'
loop_
 _atom_site_type_symbol
 _atom_site_label
 _atom_site_symmetry_multiplicity
 _atom_site_fract_x
 _atom_site_fract_y
 _atom_site_fract_z
 _atom_site_occupancy
  Ho  Ho0  1  0.526841  0.053682  0.509810  1
  Ho  Ho1  1  0.946318  0.473159  0.509810  1
  Ho  Ho2  1  0.526841  0.473159  0.509810  1
  Ho  Ho3  1  0.473159  0.946318  0.009810  1
  Ho  Ho4  1  0.053682  0.526841  0.009810  1
  Ho  Ho5  1  0.473159  0.526841  0.009810  1
  Ho  Ho6  1  0.175311  0.350621  0.720855  1
  Ho  Ho7  1  0.649379  0.824689  0.720855  1
  Ho  Ho8  1  0.175311  0.824689  0.720855  1
  Ho  Ho9  1  0.824689  0.649379  0.220855  1
  Ho  Ho10  1  0.350621  0.175311  0.220855  1
  Ho  Ho11  1  0.824689  0.175311  0.220855  1
  Ho  Ho12  1  0.666667  0.333333  0.881900  1
  Ho  Ho13  1  0.333333  0.666667  0.381900  1
  Ho  Ho14  1  0.000000  0.000000  0.489178  1
  Ho  Ho15  1  0.000000  0.000000  0.989178  1
  In  In16  1  0.836261  0.672523  0.744837  1
  In  In17  1  0.327477  0.163739  0.744837  1
  In  In18  1  0.836261  0.163739  0.744837  1
  In  In19  1  0.163739  0.327477  0.244837  1
  In  In20  1  0.672523  0.836261  0.244837  1
  In  In21  1  0.163739  0.836261  0.244837  1
  Cu  Cu22  1  0.666667  0.333333  0.281437  1
  Cu  Cu23  1  0.333333  0.666667  0.781437  1
