# generated using pymatgen
data_Ho8Lu4InCo4Au
_symmetry_space_group_name_H-M   'P 1'
_cell_length_a   8.25451413
_cell_length_b   8.25451348
_cell_length_c   8.25451358
_cell_angle_alpha   111.33696594
_cell_angle_beta   110.43193540
_cell_angle_gamma   106.68162814
_symmetry_Int_Tables_number   1
_chemical_formula_structural   Ho8Lu4InCo4Au
_chemical_formula_sum   'Ho8 Lu4 In1 Co4 Au1'
_cell_volume   432.17135858
_cell_formula_units_Z   1
loop_
 _symmetry_equiv_pos_site_id
 _symmetry_equiv_pos_as_xyz
  1  'x, y, z'
loop_
 _atom_site_type_symbol
 _atom_site_label
 _atom_site_symmetry_multiplicity
 _atom_site_fract_x
 _atom_site_fract_y
 _atom_site_fract_z
 _atom_site_occupancy
  Ho  Ho0  1  0.187503  0.290996  0.478498  1
  Ho  Ho1  1  0.812497  0.709004  0.521502  1
  Ho  Ho2  1  0.187503  0.709004  0.896507  1
  Ho  Ho3  1  0.812497  0.290996  0.103493  1
  Ho  Ho4  1  0.427256  0.222151  0.205105  1
  Ho  Ho5  1  0.572744  0.777849  0.794895  1
  Ho  Ho6  1  0.017045  0.222151  0.794895  1
  Ho  Ho7  1  0.982955  0.777849  0.205105  1
  Lu  Lu8  1  0.317082  0.622439  0.305357  1
  Lu  Lu9  1  0.682918  0.377561  0.694643  1
  Lu  Lu10  1  0.317082  0.011722  0.694643  1
  Lu  Lu11  1  0.682918  0.988278  0.305357  1
  In  In12  1  0.500000  0.500000  0.000000  1
  Co  Co13  1  0.113495  0.613495  0.500000  1
  Co  Co14  1  0.886505  0.386505  0.500000  1
  Co  Co15  1  0.378340  0.000000  0.378340  1
  Co  Co16  1  0.621660  0.000000  0.621660  1
  Au  Au17  1  0.000000  0.000000  0.000000  1
