# generated using pymatgen
data_Li6In5Ag7
_symmetry_space_group_name_H-M   'P 1'
_cell_length_a   4.73111100
_cell_length_b   4.73111234
_cell_length_c   17.19142400
_cell_angle_alpha   90.00000000
_cell_angle_beta   90.00000000
_cell_angle_gamma   120.00001158
_symmetry_Int_Tables_number   1
_chemical_formula_structural   Li6In5Ag7
_chemical_formula_sum   'Li6 In5 Ag7'
_cell_volume   333.24898166
_cell_formula_units_Z   1
loop_
 _symmetry_equiv_pos_site_id
 _symmetry_equiv_pos_as_xyz
  1  'x, y, z'
loop_
 _atom_site_type_symbol
 _atom_site_label
 _atom_site_symmetry_multiplicity
 _atom_site_fract_x
 _atom_site_fract_y
 _atom_site_fract_z
 _atom_site_occupancy
  Li  Li0  1  0.000000  0.000000  0.498319  1
  Li  Li1  1  0.666667  0.333333  0.555696  1
  Li  Li2  1  0.333333  0.666667  0.285836  1
  Li  Li3  1  0.666667  0.333333  0.715583  1
  Li  Li4  1  0.333333  0.666667  0.109813  1
  Li  Li5  1  0.666667  0.333333  0.890702  1
  In  In6  1  0.000000  0.000000  0.999420  1
  In  In7  1  0.333333  0.666667  0.780764  1
  In  In8  1  0.666667  0.333333  0.218521  1
  In  In9  1  0.333333  0.666667  0.609479  1
  In  In10  1  0.666667  0.333333  0.392807  1
  Ag  Ag11  1  0.000000  0.000000  0.666604  1
  Ag  Ag12  1  0.000000  0.000000  0.331557  1
  Ag  Ag13  1  0.000000  0.000000  0.834507  1
  Ag  Ag14  1  0.000000  0.000000  0.164838  1
  Ag  Ag15  1  0.333333  0.666667  0.945482  1
  Ag  Ag16  1  0.666667  0.333333  0.053875  1
  Ag  Ag17  1  0.333333  0.666667  0.446197  1
