# generated using pymatgen
data_K8Zr6HBr20
_symmetry_space_group_name_H-M   'P 1'
_cell_length_a   11.69854598
_cell_length_b   11.69854524
_cell_length_c   11.69854600
_cell_angle_alpha   59.99999785
_cell_angle_beta   59.99999994
_cell_angle_gamma   59.99999950
_symmetry_Int_Tables_number   1
_chemical_formula_structural   K8Zr6HBr20
_chemical_formula_sum   'K8 Zr6 H1 Br20'
_cell_volume   1132.08914341
_cell_formula_units_Z   1
loop_
 _symmetry_equiv_pos_site_id
 _symmetry_equiv_pos_as_xyz
  1  'x, y, z'
loop_
 _atom_site_type_symbol
 _atom_site_label
 _atom_site_symmetry_multiplicity
 _atom_site_fract_x
 _atom_site_fract_y
 _atom_site_fract_z
 _atom_site_occupancy
  K  K0  1  0.082591  0.639137  0.639137  1
  K  K1  1  0.639137  0.082591  0.639137  1
  K  K2  1  0.639137  0.639137  0.082591  1
  K  K3  1  0.639137  0.639137  0.639137  1
  K  K4  1  0.360863  0.917409  0.360863  1
  K  K5  1  0.917409  0.360863  0.360863  1
  K  K6  1  0.360863  0.360863  0.917409  1
  K  K7  1  0.360863  0.360863  0.360863  1
  Zr  Zr8  1  0.860734  0.860734  0.139266  1
  Zr  Zr9  1  0.860734  0.139266  0.860734  1
  Zr  Zr10  1  0.139266  0.139266  0.860734  1
  Zr  Zr11  1  0.139266  0.860734  0.139266  1
  Zr  Zr12  1  0.139266  0.860734  0.860734  1
  Zr  Zr13  1  0.860734  0.139266  0.139266  1
  H  H14  1  0.000000  0.000000  0.000000  1
  Br  Br15  1  0.672210  0.327790  0.000000  1
  Br  Br16  1  0.000000  0.672210  0.000000  1
  Br  Br17  1  0.000000  0.000000  0.672210  1
  Br  Br18  1  0.672210  0.000000  0.327790  1
  Br  Br19  1  0.327790  0.672210  0.000000  1
  Br  Br20  1  0.327790  0.000000  0.672210  1
  Br  Br21  1  0.000000  0.000000  0.327790  1
  Br  Br22  1  0.000000  0.327790  0.000000  1
  Br  Br23  1  0.000000  0.672210  0.327790  1
  Br  Br24  1  0.672210  0.000000  0.000000  1
  Br  Br25  1  0.000000  0.327790  0.672210  1
  Br  Br26  1  0.327790  0.000000  0.000000  1
  Br  Br27  1  0.685052  0.685052  0.314948  1
  Br  Br28  1  0.685052  0.314948  0.685052  1
  Br  Br29  1  0.314948  0.314948  0.685052  1
  Br  Br30  1  0.314948  0.685052  0.314948  1
  Br  Br31  1  0.314948  0.685052  0.685052  1
  Br  Br32  1  0.685052  0.314948  0.314948  1
  Br  Br33  1  0.750000  0.750000  0.750000  1
  Br  Br34  1  0.250000  0.250000  0.250000  1
