# generated using pymatgen
data_Er8Ga(Si5W4)3
_symmetry_space_group_name_H-M   'P 1'
_cell_length_a   6.86893032
_cell_length_b   6.85212512
_cell_length_c   12.73991161
_cell_angle_alpha   90.05613286
_cell_angle_beta   90.01338852
_cell_angle_gamma   89.92993555
_symmetry_Int_Tables_number   1
_chemical_formula_structural   Er8Ga(Si5W4)3
_chemical_formula_sum   'Er8 Ga1 Si15 W12'
_cell_volume   599.62573683
_cell_formula_units_Z   1
loop_
 _symmetry_equiv_pos_site_id
 _symmetry_equiv_pos_as_xyz
  1  'x, y, z'
loop_
 _atom_site_type_symbol
 _atom_site_label
 _atom_site_symmetry_multiplicity
 _atom_site_fract_x
 _atom_site_fract_y
 _atom_site_fract_z
 _atom_site_occupancy
  Er  Er0  1  0.339805  0.997938  0.468108  1
  Er  Er1  1  0.503655  0.836161  0.719753  1
  Er  Er2  1  0.498182  0.162360  0.219289  1
  Er  Er3  1  0.837873  0.502045  0.280501  1
  Er  Er4  1  0.163739  0.500357  0.780950  1
  Er  Er5  1  0.661746  0.001477  0.969435  1
  Er  Er6  1  0.997190  0.339316  0.529217  1
  Er  Er7  1  0.001862  0.661972  0.031050  1
  Ga  Ga8  1  0.201973  0.127846  0.679816  1
  Si  Si9  1  0.373120  0.702117  0.933999  1
  Si  Si10  1  0.627475  0.297930  0.432621  1
  Si  Si11  1  0.701775  0.372357  0.066660  1
  Si  Si12  1  0.296642  0.626611  0.567367  1
  Si  Si13  1  0.797927  0.873136  0.183193  1
  Si  Si14  1  0.126479  0.202230  0.316692  1
  Si  Si15  1  0.873927  0.798615  0.817230  1
  Si  Si16  1  0.289004  0.962087  0.064986  1
  Si  Si17  1  0.537127  0.788828  0.313461  1
  Si  Si18  1  0.461656  0.210355  0.813935  1
  Si  Si19  1  0.792441  0.536010  0.687398  1
  Si  Si20  1  0.211031  0.463116  0.186092  1
  Si  Si21  1  0.710490  0.038151  0.564390  1
  Si  Si22  1  0.962675  0.289737  0.935636  1
  Si  Si23  1  0.037549  0.711146  0.435603  1
  W  W24  1  0.332497  0.332364  0.000020  1
  W  W25  1  0.166659  0.832752  0.249833  1
  W  W26  1  0.828279  0.165823  0.751490  1
  W  W27  1  0.666859  0.667217  0.500014  1
  W  W28  1  0.162540  0.998776  0.876873  1
  W  W29  1  0.502092  0.663470  0.123792  1
  W  W30  1  0.507216  0.342459  0.623066  1
  W  W31  1  0.663192  0.500643  0.876342  1
  W  W32  1  0.336235  0.499088  0.376338  1
  W  W33  1  0.835548  0.001432  0.373031  1
  W  W34  1  0.998168  0.164002  0.126475  1
  W  W35  1  0.995373  0.830076  0.625343  1
