# generated using pymatgen
data_Y4Ga4PtRh3
_symmetry_space_group_name_H-M   'P 1'
_cell_length_a   4.34787300
_cell_length_b   6.90436982
_cell_length_c   7.75857653
_cell_angle_alpha   89.21256229
_cell_angle_beta   90.00000000
_cell_angle_gamma   90.00000000
_symmetry_Int_Tables_number   1
_chemical_formula_structural   Y4Ga4PtRh3
_chemical_formula_sum   'Y4 Ga4 Pt1 Rh3'
_cell_volume   232.88522018
_cell_formula_units_Z   1
loop_
 _symmetry_equiv_pos_site_id
 _symmetry_equiv_pos_as_xyz
  1  'x, y, z'
loop_
 _atom_site_type_symbol
 _atom_site_label
 _atom_site_symmetry_multiplicity
 _atom_site_fract_x
 _atom_site_fract_y
 _atom_site_fract_z
 _atom_site_occupancy
  Y  Y0  1  0.250000  0.976459  0.309440  1
  Y  Y1  1  0.250000  0.478789  0.193136  1
  Y  Y2  1  0.750000  0.023982  0.687834  1
  Y  Y3  1  0.750000  0.525645  0.810419  1
  Ga  Ga4  1  0.250000  0.344607  0.569117  1
  Ga  Ga5  1  0.250000  0.837578  0.927139  1
  Ga  Ga6  1  0.750000  0.658013  0.428677  1
  Ga  Ga7  1  0.750000  0.156028  0.074826  1
  Pt  Pt8  1  0.250000  0.228001  0.894480  1
  Rh  Rh9  1  0.250000  0.729941  0.606789  1
  Rh  Rh10  1  0.750000  0.769899  0.105297  1
  Rh  Rh11  1  0.750000  0.271056  0.392846  1
