# generated using pymatgen
data_Li2Pr8Gd9ScSi16
_symmetry_space_group_name_H-M   'P 1'
_cell_length_a   7.34363500
_cell_length_b   7.76202173
_cell_length_c   14.79259700
_cell_angle_alpha   90.00000000
_cell_angle_beta   90.00000000
_cell_angle_gamma   89.95196823
_symmetry_Int_Tables_number   1
_chemical_formula_structural   Li2Pr8Gd9ScSi16
_chemical_formula_sum   'Li2 Pr8 Gd9 Sc1 Si16'
_cell_volume   843.19924749
_cell_formula_units_Z   1
loop_
 _symmetry_equiv_pos_site_id
 _symmetry_equiv_pos_as_xyz
  1  'x, y, z'
loop_
 _atom_site_type_symbol
 _atom_site_label
 _atom_site_symmetry_multiplicity
 _atom_site_fract_x
 _atom_site_fract_y
 _atom_site_fract_z
 _atom_site_occupancy
  Li  Li0  1  0.656600  0.986879  0.750000  1
  Li  Li1  1  0.845230  0.488716  0.250000  1
  Pr  Pr2  1  0.015429  0.188948  0.400189  1
  Pr  Pr3  1  0.526519  0.324321  0.398554  1
  Pr  Pr4  1  0.484446  0.687659  0.898072  1
  Pr  Pr5  1  0.484446  0.687659  0.601928  1
  Pr  Pr6  1  0.975184  0.823785  0.602510  1
  Pr  Pr7  1  0.975184  0.823785  0.897490  1
  Pr  Pr8  1  0.526519  0.324321  0.101446  1
  Pr  Pr9  1  0.015429  0.188948  0.099811  1
  Gd  Gd10  1  0.331861  0.174685  0.625622  1
  Gd  Gd11  1  0.680124  0.810223  0.374898  1
  Gd  Gd12  1  0.167373  0.674210  0.377006  1
  Gd  Gd13  1  0.819930  0.311217  0.872862  1
  Gd  Gd14  1  0.819930  0.311217  0.627138  1
  Gd  Gd15  1  0.345718  0.008024  0.250000  1
  Gd  Gd16  1  0.331861  0.174685  0.874378  1
  Gd  Gd17  1  0.167373  0.674210  0.122994  1
  Gd  Gd18  1  0.680124  0.810223  0.125102  1
  Sc  Sc19  1  0.153622  0.507034  0.750000  1
  Si  Si20  1  0.268379  0.872422  0.750000  1
  Si  Si21  1  0.466176  0.602628  0.250000  1
  Si  Si22  1  0.034455  0.102281  0.750000  1
  Si  Si23  1  0.520124  0.409344  0.750000  1
  Si  Si24  1  0.147215  0.470896  0.545270  1
  Si  Si25  1  0.972117  0.901930  0.250000  1
  Si  Si26  1  0.727709  0.116177  0.250000  1
  Si  Si27  1  0.849854  0.535159  0.027683  1
  Si  Si28  1  0.352635  0.969149  0.039898  1
  Si  Si29  1  0.147215  0.470896  0.954730  1
  Si  Si30  1  0.650353  0.035468  0.529861  1
  Si  Si31  1  0.352635  0.969149  0.460102  1
  Si  Si32  1  0.849854  0.535159  0.472317  1
  Si  Si33  1  0.780656  0.612677  0.750000  1
  Si  Si34  1  0.227367  0.380442  0.250000  1
  Si  Si35  1  0.650353  0.035468  0.970139  1
