# generated using pymatgen
data_Dy3Ho5Cd2IrOs
_symmetry_space_group_name_H-M   'P 1'
_cell_length_a   9.61364846
_cell_length_b   9.61364727
_cell_length_c   9.67255700
_cell_angle_alpha   59.79709225
_cell_angle_beta   59.79709639
_cell_angle_gamma   59.57226532
_symmetry_Int_Tables_number   1
_chemical_formula_structural   Dy3Ho5Cd2IrOs
_chemical_formula_sum   'Dy6 Ho10 Cd4 Ir2 Os2'
_cell_volume   628.12916344
_cell_formula_units_Z   2
loop_
 _symmetry_equiv_pos_site_id
 _symmetry_equiv_pos_as_xyz
  1  'x, y, z'
loop_
 _atom_site_type_symbol
 _atom_site_label
 _atom_site_symmetry_multiplicity
 _atom_site_fract_x
 _atom_site_fract_y
 _atom_site_fract_z
 _atom_site_occupancy
  Dy  Dy0  1  0.188928  0.807946  0.813184  1
  Dy  Dy1  1  0.807946  0.188928  0.189943  1
  Dy  Dy2  1  0.807946  0.188928  0.813184  1
  Dy  Dy3  1  0.188928  0.807946  0.189943  1
  Dy  Dy4  1  0.811967  0.811967  0.188033  1
  Dy  Dy5  1  0.190241  0.190241  0.809759  1
  Ho  Ho6  1  0.598235  0.598235  0.597740  1
  Ho  Ho7  1  0.598235  0.598235  0.205791  1
  Ho  Ho8  1  0.596817  0.209446  0.596868  1
  Ho  Ho9  1  0.209446  0.596817  0.596868  1
  Ho  Ho10  1  0.061471  0.438104  0.440329  1
  Ho  Ho11  1  0.438104  0.061471  0.060097  1
  Ho  Ho12  1  0.438104  0.061471  0.440329  1
  Ho  Ho13  1  0.061471  0.438104  0.060097  1
  Ho  Ho14  1  0.438756  0.438756  0.061244  1
  Ho  Ho15  1  0.059884  0.059884  0.440116  1
  Cd  Cd16  1  0.830103  0.830103  0.830637  1
  Cd  Cd17  1  0.830103  0.830103  0.509158  1
  Cd  Cd18  1  0.830285  0.508008  0.830853  1
  Cd  Cd19  1  0.508008  0.830285  0.830853  1
  Ir  Ir20  1  0.393263  0.827873  0.389432  1
  Ir  Ir21  1  0.827873  0.393263  0.389432  1
  Os  Os22  1  0.391944  0.391944  0.387708  1
  Os  Os23  1  0.391944  0.391944  0.828403  1
