# generated using pymatgen
data_Gd7GeCl12
_symmetry_space_group_name_H-M   'P 1'
_cell_length_a   8.89250517
_cell_length_b   8.89250568
_cell_length_c   8.89250500
_cell_angle_alpha   107.92097432
_cell_angle_beta   107.92097539
_cell_angle_gamma   107.92097275
_symmetry_Int_Tables_number   1
_chemical_formula_structural   Gd7GeCl12
_chemical_formula_sum   'Gd7 Ge1 Cl12'
_cell_volume   570.27090808
_cell_formula_units_Z   1
loop_
 _symmetry_equiv_pos_site_id
 _symmetry_equiv_pos_as_xyz
  1  'x, y, z'
loop_
 _atom_site_type_symbol
 _atom_site_label
 _atom_site_symmetry_multiplicity
 _atom_site_fract_x
 _atom_site_fract_y
 _atom_site_fract_z
 _atom_site_occupancy
  Gd  Gd0  1  0.838761  0.537220  0.617967  1
  Gd  Gd1  1  0.537220  0.617967  0.838761  1
  Gd  Gd2  1  0.161239  0.462780  0.382033  1
  Gd  Gd3  1  0.462780  0.382033  0.161239  1
  Gd  Gd4  1  0.000000  0.000000  0.000000  1
  Gd  Gd5  1  0.617967  0.838761  0.537220  1
  Gd  Gd6  1  0.382033  0.161239  0.462780  1
  Ge  Ge7  1  0.500000  0.500000  0.500000  1
  Cl  Cl8  1  0.724217  0.189874  0.575369  1
  Cl  Cl9  1  0.971202  0.889321  0.662906  1
  Cl  Cl10  1  0.575369  0.724217  0.189874  1
  Cl  Cl11  1  0.110679  0.337094  0.028798  1
  Cl  Cl12  1  0.662906  0.971202  0.889321  1
  Cl  Cl13  1  0.889321  0.662906  0.971202  1
  Cl  Cl14  1  0.028798  0.110679  0.337094  1
  Cl  Cl15  1  0.810126  0.424631  0.275783  1
  Cl  Cl16  1  0.337094  0.028798  0.110679  1
  Cl  Cl17  1  0.275783  0.810126  0.424631  1
  Cl  Cl18  1  0.189874  0.575369  0.724217  1
  Cl  Cl19  1  0.424631  0.275783  0.810126  1
