# generated using pymatgen
data_SrLa6Ho(In4Au3)4
_symmetry_space_group_name_H-M   'P 1'
_cell_length_a   15.24898320
_cell_length_b   15.07020844
_cell_length_c   4.55260900
_cell_angle_alpha   90.00000000
_cell_angle_beta   90.00000000
_cell_angle_gamma   120.59727062
_symmetry_Int_Tables_number   1
_chemical_formula_structural   SrLa6Ho(In4Au3)4
_chemical_formula_sum   'Sr1 La6 Ho1 In16 Au12'
_cell_volume   900.54566679
_cell_formula_units_Z   1
loop_
 _symmetry_equiv_pos_site_id
 _symmetry_equiv_pos_as_xyz
  1  'x, y, z'
loop_
 _atom_site_type_symbol
 _atom_site_label
 _atom_site_symmetry_multiplicity
 _atom_site_fract_x
 _atom_site_fract_y
 _atom_site_fract_z
 _atom_site_occupancy
  Sr  Sr0  1  0.666652  0.327304  0.000000  1
  La  La1  1  0.000037  0.451348  0.000000  1
  La  La2  1  0.548245  0.547651  0.000000  1
  La  La3  1  0.341203  0.675199  0.000000  1
  La  La4  1  0.820821  0.999335  0.500000  1
  La  La5  1  0.999701  0.821736  0.500000  1
  La  La6  1  0.177140  0.178611  0.500000  1
  Ho  Ho7  1  0.448538  0.000845  0.000000  1
  In  In8  1  0.180559  0.379733  0.000000  1
  In  In9  1  0.628396  0.806735  0.000000  1
  In  In10  1  0.378394  0.179214  0.000000  1
  In  In11  1  0.201047  0.822428  0.000000  1
  In  In12  1  0.804239  0.622680  0.000000  1
  In  In13  1  0.819561  0.190349  0.000000  1
  In  In14  1  0.277612  0.999149  0.500000  1
  In  In15  1  0.001526  0.281577  0.500000  1
  In  In16  1  0.717635  0.718735  0.500000  1
  In  In17  1  0.349699  0.473910  0.500000  1
  In  In18  1  0.523498  0.876990  0.500000  1
  In  In19  1  0.474707  0.347035  0.500000  1
  In  In20  1  0.127517  0.652340  0.500000  1
  In  In21  1  0.876367  0.525859  0.500000  1
  In  In22  1  0.646198  0.121136  0.500000  1
  In  In23  1  0.000200  0.000123  0.000000  1
  Au  Au24  1  0.175021  0.495557  0.500000  1
  Au  Au25  1  0.508947  0.681808  0.500000  1
  Au  Au26  1  0.485361  0.160240  0.500000  1
  Au  Au27  1  0.324165  0.836742  0.500000  1
  Au  Au28  1  0.679942  0.509382  0.500000  1
  Au  Au29  1  0.830773  0.317204  0.500000  1
  Au  Au30  1  0.176090  0.001343  0.000000  1
  Au  Au31  1  0.001340  0.177785  0.000000  1
  Au  Au32  1  0.824438  0.821229  0.000000  1
  Au  Au33  1  0.644093  0.997398  0.000000  1
  Au  Au34  1  0.002591  0.662191  0.000000  1
  Au  Au35  1  0.337749  0.339100  0.000000  1
