# generated using pymatgen
data_Sc4Ti2MnB4Ir9
_symmetry_space_group_name_H-M   'P 1'
_cell_length_a   9.44128546
_cell_length_b   9.44128546
_cell_length_c   3.03987800
_cell_angle_alpha   90.00000000
_cell_angle_beta   90.00000000
_cell_angle_gamma   90.46717748
_symmetry_Int_Tables_number   1
_chemical_formula_structural   Sc4Ti2MnB4Ir9
_chemical_formula_sum   'Sc4 Ti2 Mn1 B4 Ir9'
_cell_volume   270.95924604
_cell_formula_units_Z   1
loop_
 _symmetry_equiv_pos_site_id
 _symmetry_equiv_pos_as_xyz
  1  'x, y, z'
loop_
 _atom_site_type_symbol
 _atom_site_label
 _atom_site_symmetry_multiplicity
 _atom_site_fract_x
 _atom_site_fract_y
 _atom_site_fract_z
 _atom_site_occupancy
  Sc  Sc0  1  0.667373  0.167373  0.000000  1
  Sc  Sc1  1  0.178775  0.321225  0.000000  1
  Sc  Sc2  1  0.821225  0.678775  0.000000  1
  Sc  Sc3  1  0.332627  0.832627  0.000000  1
  Ti  Ti4  1  0.000000  0.000000  0.000000  1
  Ti  Ti5  1  0.500000  0.500000  0.000000  1
  Mn  Mn6  1  0.500000  0.000000  0.500000  1
  B  B7  1  0.389512  0.110488  0.000000  1
  B  B8  1  0.876564  0.376564  0.000000  1
  B  B9  1  0.123436  0.623436  0.000000  1
  B  B10  1  0.610488  0.889512  0.000000  1
  Ir  Ir11  1  0.219432  0.069575  0.500000  1
  Ir  Ir12  1  0.929500  0.216392  0.500000  1
  Ir  Ir13  1  0.430424  0.280568  0.500000  1
  Ir  Ir14  1  0.716392  0.429499  0.500000  1
  Ir  Ir15  1  0.000000  0.500000  0.500000  1
  Ir  Ir16  1  0.283608  0.570501  0.500000  1
  Ir  Ir17  1  0.569576  0.719432  0.500000  1
  Ir  Ir18  1  0.070500  0.783608  0.500000  1
  Ir  Ir19  1  0.780568  0.930425  0.500000  1
