# generated using pymatgen
data_HfBiF7
_symmetry_space_group_name_H-M   'P 1'
_cell_length_a   5.82596000
_cell_length_b   6.23654532
_cell_length_c   8.44574922
_cell_angle_alpha   78.36588320
_cell_angle_beta   90.00000000
_cell_angle_gamma   90.00000000
_symmetry_Int_Tables_number   1
_chemical_formula_structural   HfBiF7
_chemical_formula_sum   'Hf2 Bi2 F14'
_cell_volume   300.56222929
_cell_formula_units_Z   2
loop_
 _symmetry_equiv_pos_site_id
 _symmetry_equiv_pos_as_xyz
  1  'x, y, z'
loop_
 _atom_site_type_symbol
 _atom_site_label
 _atom_site_symmetry_multiplicity
 _atom_site_fract_x
 _atom_site_fract_y
 _atom_site_fract_z
 _atom_site_occupancy
  Hf  Hf0  1  0.209266  0.808790  0.777233  1
  Hf  Hf1  1  0.709266  0.191210  0.222767  1
  Bi  Bi2  1  0.195403  0.659912  0.316754  1
  Bi  Bi3  1  0.695403  0.340088  0.683246  1
  F  F4  1  0.381272  0.442862  0.526820  1
  F  F5  1  0.881272  0.557138  0.473180  1
  F  F6  1  0.925424  0.935513  0.231038  1
  F  F7  1  0.425424  0.064487  0.768962  1
  F  F8  1  0.453393  0.971301  0.241852  1
  F  F9  1  0.953393  0.028699  0.758148  1
  F  F10  1  0.501284  0.448018  0.213363  1
  F  F11  1  0.001284  0.551982  0.786637  1
  F  F12  1  0.203189  0.758969  0.017045  1
  F  F13  1  0.703189  0.241031  0.982955  1
  F  F14  1  0.212582  0.855858  0.532628  1
  F  F15  1  0.712582  0.144142  0.467372  1
  F  F16  1  0.994548  0.378782  0.218445  1
  F  F17  1  0.494548  0.621218  0.781555  1
