# generated using pymatgen
data_K8Ga11
_symmetry_space_group_name_H-M   'P 1'
_cell_length_a   9.29723800
_cell_length_b   9.29723752
_cell_length_c   16.64497600
_cell_angle_alpha   106.21727289
_cell_angle_beta   90.00000000
_cell_angle_gamma   120.00000169
_symmetry_Int_Tables_number   1
_chemical_formula_structural   K8Ga11
_chemical_formula_sum   'K16 Ga22'
_cell_volume   1179.44158514
_cell_formula_units_Z   2
loop_
 _symmetry_equiv_pos_site_id
 _symmetry_equiv_pos_as_xyz
  1  'x, y, z'
loop_
 _atom_site_type_symbol
 _atom_site_label
 _atom_site_symmetry_multiplicity
 _atom_site_fract_x
 _atom_site_fract_y
 _atom_site_fract_z
 _atom_site_occupancy
  K  K0  1  0.319226  0.411180  0.065538  1
  K  K1  1  0.091952  0.746312  0.065538  1
  K  K2  1  0.654359  0.973585  0.065538  1
  K  K3  1  0.079332  0.158664  0.237997  1
  K  K4  1  0.420668  0.841336  0.262003  1
  K  K5  1  0.180774  0.026415  0.434462  1
  K  K6  1  0.845641  0.253688  0.434462  1
  K  K7  1  0.408048  0.588820  0.434462  1
  K  K8  1  0.591953  0.411180  0.565538  1
  K  K9  1  0.154359  0.746312  0.565538  1
  K  K10  1  0.819226  0.973585  0.565538  1
  K  K11  1  0.579332  0.158664  0.737997  1
  K  K12  1  0.920668  0.841336  0.762003  1
  K  K13  1  0.345640  0.026415  0.934461  1
  K  K14  1  0.908047  0.253688  0.934461  1
  K  K15  1  0.680774  0.588820  0.934461  1
  Ga  Ga16  1  0.702411  0.404824  0.107236  1
  Ga  Ga17  1  0.440887  0.170646  0.163193  1
  Ga  Ga18  1  0.992547  0.433432  0.163193  1
  Ga  Ga19  1  0.729761  0.722307  0.163193  1
  Ga  Ga20  1  0.750000  0.299627  0.250000  1
  Ga  Ga21  1  0.549626  0.500000  0.250000  1
  Ga  Ga22  1  0.950374  0.700374  0.250000  1
  Ga  Ga23  1  0.507453  0.277693  0.336807  1
  Ga  Ga24  1  0.059114  0.566568  0.336807  1
  Ga  Ga25  1  0.770240  0.829354  0.336807  1
  Ga  Ga26  1  0.797588  0.595176  0.392765  1
  Ga  Ga27  1  0.202412  0.404824  0.607236  1
  Ga  Ga28  1  0.229761  0.170646  0.663193  1
  Ga  Ga29  1  0.940886  0.433432  0.663193  1
  Ga  Ga30  1  0.492546  0.722307  0.663193  1
  Ga  Ga31  1  0.049626  0.299626  0.750000  1
  Ga  Ga32  1  0.450374  0.500000  0.750000  1
  Ga  Ga33  1  0.250000  0.700374  0.750000  1
  Ga  Ga34  1  0.270239  0.277693  0.836807  1
  Ga  Ga35  1  0.007453  0.566568  0.836807  1
  Ga  Ga36  1  0.559114  0.829354  0.836807  1
  Ga  Ga37  1  0.297589  0.595176  0.892765  1
