# generated using pymatgen
data_Pm2AlCoO6
_symmetry_space_group_name_H-M   'P 1'
_cell_length_a   5.33124700
_cell_length_b   5.37575476
_cell_length_c   7.60013544
_cell_angle_alpha   90.68648387
_cell_angle_beta   90.00000000
_cell_angle_gamma   90.00000000
_symmetry_Int_Tables_number   1
_chemical_formula_structural   Pm2AlCoO6
_chemical_formula_sum   'Pm4 Al2 Co2 O12'
_cell_volume   217.80026847
_cell_formula_units_Z   2
loop_
 _symmetry_equiv_pos_site_id
 _symmetry_equiv_pos_as_xyz
  1  'x, y, z'
loop_
 _atom_site_type_symbol
 _atom_site_label
 _atom_site_symmetry_multiplicity
 _atom_site_fract_x
 _atom_site_fract_y
 _atom_site_fract_z
 _atom_site_occupancy
  Pm  Pm0  1  0.991313  0.042753  0.250708  1
  Pm  Pm1  1  0.508687  0.542752  0.250708  1
  Pm  Pm2  1  0.491313  0.457249  0.749291  1
  Pm  Pm3  1  0.008688  0.957248  0.749291  1
  Al  Al4  1  0.500000  0.000000  0.000000  1
  Al  Al5  1  0.000000  0.500000  0.000000  1
  Co  Co6  1  0.500000  0.000000  0.500001  1
  Co  Co7  1  0.000000  0.500000  0.500001  1
  O  O8  1  0.718403  0.281953  0.035759  1
  O  O9  1  0.781598  0.781952  0.035759  1
  O  O10  1  0.071866  0.488925  0.249116  1
  O  O11  1  0.428133  0.988924  0.249116  1
  O  O12  1  0.707607  0.291489  0.457542  1
  O  O13  1  0.792394  0.791488  0.457542  1
  O  O14  1  0.207607  0.208511  0.542458  1
  O  O15  1  0.292394  0.708511  0.542458  1
  O  O16  1  0.571866  0.011077  0.750883  1
  O  O17  1  0.928135  0.511076  0.750883  1
  O  O18  1  0.218403  0.218047  0.964241  1
  O  O19  1  0.281598  0.718047  0.964241  1
