# generated using pymatgen
data_Er2Tm2CuPt3
_symmetry_space_group_name_H-M   'P 1'
_cell_length_a   4.50217800
_cell_length_b   5.52242844
_cell_length_c   6.88650741
_cell_angle_alpha   90.50916392
_cell_angle_beta   90.00000000
_cell_angle_gamma   90.00000000
_symmetry_Int_Tables_number   1
_chemical_formula_structural   Er2Tm2CuPt3
_chemical_formula_sum   'Er2 Tm2 Cu1 Pt3'
_cell_volume   171.21216887
_cell_formula_units_Z   1
loop_
 _symmetry_equiv_pos_site_id
 _symmetry_equiv_pos_as_xyz
  1  'x, y, z'
loop_
 _atom_site_type_symbol
 _atom_site_label
 _atom_site_symmetry_multiplicity
 _atom_site_fract_x
 _atom_site_fract_y
 _atom_site_fract_z
 _atom_site_occupancy
  Er  Er0  1  0.250000  0.642342  0.181770  1
  Er  Er1  1  0.750000  0.362486  0.813434  1
  Tm  Tm2  1  0.750000  0.140046  0.323293  1
  Tm  Tm3  1  0.250000  0.855783  0.680635  1
  Cu  Cu4  1  0.250000  0.140100  0.037660  1
  Pt  Pt5  1  0.750000  0.863392  0.965126  1
  Pt  Pt6  1  0.750000  0.657355  0.454513  1
  Pt  Pt7  1  0.250000  0.338498  0.543569  1
