# generated using pymatgen
data_Zr4FeTcOs6
_symmetry_space_group_name_H-M   'P 1'
_cell_length_a   5.14884804
_cell_length_b   5.14884870
_cell_length_c   8.62277900
_cell_angle_alpha   90.00000000
_cell_angle_beta   90.00000000
_cell_angle_gamma   118.38461845
_symmetry_Int_Tables_number   1
_chemical_formula_structural   Zr4FeTcOs6
_chemical_formula_sum   'Zr4 Fe1 Tc1 Os6'
_cell_volume   201.11278605
_cell_formula_units_Z   1
loop_
 _symmetry_equiv_pos_site_id
 _symmetry_equiv_pos_as_xyz
  1  'x, y, z'
loop_
 _atom_site_type_symbol
 _atom_site_label
 _atom_site_symmetry_multiplicity
 _atom_site_fract_x
 _atom_site_fract_y
 _atom_site_fract_z
 _atom_site_occupancy
  Zr  Zr0  1  0.330954  0.669046  0.437972  1
  Zr  Zr1  1  0.666535  0.333465  0.568384  1
  Zr  Zr2  1  0.666535  0.333465  0.931616  1
  Zr  Zr3  1  0.330954  0.669046  0.062028  1
  Fe  Fe4  1  0.169574  0.830426  0.750000  1
  Tc  Tc5  1  0.828815  0.171185  0.250000  1
  Os  Os6  1  0.004310  0.995690  0.503029  1
  Os  Os7  1  0.004310  0.995690  0.996971  1
  Os  Os8  1  0.827332  0.656119  0.250000  1
  Os  Os9  1  0.343881  0.172668  0.250000  1
  Os  Os10  1  0.172960  0.346161  0.750000  1
  Os  Os11  1  0.653839  0.827040  0.750000  1
