# generated using pymatgen
data_PrHoAg2(Ir2O7)2
_symmetry_space_group_name_H-M   'P 1'
_cell_length_a   7.26103762
_cell_length_b   7.19312455
_cell_length_c   7.26287335
_cell_angle_alpha   60.31717478
_cell_angle_beta   61.32722434
_cell_angle_gamma   60.30891548
_symmetry_Int_Tables_number   1
_chemical_formula_structural   PrHoAg2(Ir2O7)2
_chemical_formula_sum   'Pr1 Ho1 Ag2 Ir4 O14'
_cell_volume   272.11842916
_cell_formula_units_Z   1
loop_
 _symmetry_equiv_pos_site_id
 _symmetry_equiv_pos_as_xyz
  1  'x, y, z'
loop_
 _atom_site_type_symbol
 _atom_site_label
 _atom_site_symmetry_multiplicity
 _atom_site_fract_x
 _atom_site_fract_y
 _atom_site_fract_z
 _atom_site_occupancy
  Pr  Pr0  1  0.625000  0.125000  0.125000  1
  Ho  Ho1  1  0.125000  0.125000  0.625000  1
  Ag  Ag2  1  0.125000  0.125000  0.125000  1
  Ag  Ag3  1  0.125000  0.625000  0.125000  1
  Ir  Ir4  1  0.625000  0.625000  0.625000  1
  Ir  Ir5  1  0.125000  0.625000  0.625000  1
  Ir  Ir6  1  0.625000  0.125000  0.625000  1
  Ir  Ir7  1  0.625000  0.625000  0.125000  1
  O  O8  1  0.950675  0.534766  0.560172  1
  O  O9  1  0.299325  0.295613  0.689828  1
  O  O10  1  0.943290  0.558454  0.939801  1
  O  O11  1  0.700832  0.295846  0.301540  1
  O  O12  1  0.549168  0.548219  0.948460  1
  O  O13  1  0.530530  0.961810  0.545850  1
  O  O14  1  0.549168  0.954154  0.948460  1
  O  O15  1  0.229281  0.259363  0.251994  1
  O  O16  1  0.299325  0.715234  0.689828  1
  O  O17  1  0.719470  0.288190  0.704150  1
  O  O18  1  0.020719  0.990637  0.998006  1
  O  O19  1  0.950675  0.954387  0.560172  1
  O  O20  1  0.306710  0.691546  0.310199  1
  O  O21  1  0.700832  0.701781  0.301540  1
