# generated using pymatgen
data_Nd3In3CuAgIr
_symmetry_space_group_name_H-M   'P 1'
_cell_length_a   7.81672300
_cell_length_b   7.81672302
_cell_length_c   4.05141700
_cell_angle_alpha   90.00000000
_cell_angle_beta   90.00000000
_cell_angle_gamma   119.99999570
_symmetry_Int_Tables_number   1
_chemical_formula_structural   Nd3In3CuAgIr
_chemical_formula_sum   'Nd3 In3 Cu1 Ag1 Ir1'
_cell_volume   214.38136999
_cell_formula_units_Z   1
loop_
 _symmetry_equiv_pos_site_id
 _symmetry_equiv_pos_as_xyz
  1  'x, y, z'
loop_
 _atom_site_type_symbol
 _atom_site_label
 _atom_site_symmetry_multiplicity
 _atom_site_fract_x
 _atom_site_fract_y
 _atom_site_fract_z
 _atom_site_occupancy
  Nd  Nd0  1  0.023076  0.599950  0.500000  1
  Nd  Nd1  1  0.400050  0.423125  0.500000  1
  Nd  Nd2  1  0.576875  0.976924  0.500000  1
  In  In3  1  0.755600  0.755306  0.000000  1
  In  In4  1  0.999706  0.244400  0.000000  1
  In  In5  1  0.244694  0.000294  0.000000  1
  Cu  Cu6  1  0.000000  0.000000  0.500000  1
  Ag  Ag7  1  0.666667  0.333333  0.000000  1
  Ir  Ir8  1  0.333333  0.666667  0.000000  1
