# generated using pymatgen
data_Gd2AlTc3
_symmetry_space_group_name_H-M   'P 1'
_cell_length_a   5.35456800
_cell_length_b   5.35456844
_cell_length_c   9.08928600
_cell_angle_alpha   90.00000000
_cell_angle_beta   90.00000000
_cell_angle_gamma   119.99998492
_symmetry_Int_Tables_number   1
_chemical_formula_structural   Gd2AlTc3
_chemical_formula_sum   'Gd4 Al2 Tc6'
_cell_volume   225.68847336
_cell_formula_units_Z   2
loop_
 _symmetry_equiv_pos_site_id
 _symmetry_equiv_pos_as_xyz
  1  'x, y, z'
loop_
 _atom_site_type_symbol
 _atom_site_label
 _atom_site_symmetry_multiplicity
 _atom_site_fract_x
 _atom_site_fract_y
 _atom_site_fract_z
 _atom_site_occupancy
  Gd  Gd0  1  0.333333  0.666667  0.431647  1
  Gd  Gd1  1  0.666667  0.333333  0.568353  1
  Gd  Gd2  1  0.666667  0.333333  0.931647  1
  Gd  Gd3  1  0.333333  0.666667  0.068353  1
  Al  Al4  1  0.000000  0.000000  0.500000  1
  Al  Al5  1  0.000000  0.000000  0.000000  1
  Tc  Tc6  1  0.830716  0.169284  0.250000  1
  Tc  Tc7  1  0.830716  0.661432  0.250000  1
  Tc  Tc8  1  0.338568  0.169284  0.250000  1
  Tc  Tc9  1  0.169284  0.830716  0.750000  1
  Tc  Tc10  1  0.169284  0.338568  0.750000  1
  Tc  Tc11  1  0.661432  0.830716  0.750000  1
