# generated using pymatgen
data_TmPa(GeRu)2
_symmetry_space_group_name_H-M   'P 1'
_cell_length_a   4.53840900
_cell_length_b   6.93103493
_cell_length_c   7.27615988
_cell_angle_alpha   85.44705687
_cell_angle_beta   90.00000000
_cell_angle_gamma   90.00000000
_symmetry_Int_Tables_number   1
_chemical_formula_structural   TmPa(GeRu)2
_chemical_formula_sum   'Tm2 Pa2 Ge4 Ru4'
_cell_volume   228.15570354
_cell_formula_units_Z   2
loop_
 _symmetry_equiv_pos_site_id
 _symmetry_equiv_pos_as_xyz
  1  'x, y, z'
loop_
 _atom_site_type_symbol
 _atom_site_label
 _atom_site_symmetry_multiplicity
 _atom_site_fract_x
 _atom_site_fract_y
 _atom_site_fract_z
 _atom_site_occupancy
  Tm  Tm0  1  0.250000  0.481172  0.710638  1
  Tm  Tm1  1  0.750000  0.518828  0.289362  1
  Pa  Pa2  1  0.250000  0.985268  0.802359  1
  Pa  Pa3  1  0.750000  0.014732  0.197641  1
  Ge  Ge4  1  0.250000  0.324805  0.105509  1
  Ge  Ge5  1  0.750000  0.675195  0.894491  1
  Ge  Ge6  1  0.250000  0.784464  0.405006  1
  Ge  Ge7  1  0.750000  0.215536  0.594994  1
  Ru  Ru8  1  0.750000  0.847139  0.545183  1
  Ru  Ru9  1  0.250000  0.152861  0.454817  1
  Ru  Ru10  1  0.750000  0.264929  0.945057  1
  Ru  Ru11  1  0.250000  0.735071  0.054943  1
