# generated using pymatgen
data_Zr2MnZn(TeO6)2
_symmetry_space_group_name_H-M   'P 1'
_cell_length_a   5.01289608
_cell_length_b   4.99564508
_cell_length_c   9.07481600
_cell_angle_alpha   90.00000000
_cell_angle_beta   90.00000000
_cell_angle_gamma   90.02008219
_symmetry_Int_Tables_number   1
_chemical_formula_structural   Zr2MnZn(TeO6)2
_chemical_formula_sum   'Zr2 Mn1 Zn1 Te2 O12'
_cell_volume   227.25742338
_cell_formula_units_Z   1
loop_
 _symmetry_equiv_pos_site_id
 _symmetry_equiv_pos_as_xyz
  1  'x, y, z'
loop_
 _atom_site_type_symbol
 _atom_site_label
 _atom_site_symmetry_multiplicity
 _atom_site_fract_x
 _atom_site_fract_y
 _atom_site_fract_z
 _atom_site_occupancy
  Zr  Zr0  1  0.500000  0.000000  0.115198  1
  Zr  Zr1  1  0.000000  0.499999  0.885009  1
  Mn  Mn2  1  0.500000  0.499999  0.496732  1
  Zn  Zn3  1  0.000000  0.000000  0.502404  1
  Te  Te4  1  0.000000  0.499999  0.247793  1
  Te  Te5  1  0.500000  0.000000  0.752220  1
  O  O6  1  0.820467  0.307669  0.083356  1
  O  O7  1  0.179533  0.692329  0.083356  1
  O  O8  1  0.286532  0.240892  0.248186  1
  O  O9  1  0.713469  0.759108  0.248186  1
  O  O10  1  0.813014  0.291712  0.392318  1
  O  O11  1  0.186987  0.708288  0.392318  1
  O  O12  1  0.295037  0.190240  0.607527  1
  O  O13  1  0.704962  0.809761  0.607527  1
  O  O14  1  0.764211  0.281694  0.752066  1
  O  O15  1  0.235790  0.718306  0.752066  1
  O  O16  1  0.311485  0.183171  0.916869  1
  O  O17  1  0.688516  0.816829  0.916869  1
