# generated using pymatgen
data_HoLu(Ga2Ag)2
_symmetry_space_group_name_H-M   'P 1'
_cell_length_a   4.36180800
_cell_length_b   6.89668753
_cell_length_c   10.20703391
_cell_angle_alpha   89.77206288
_cell_angle_beta   90.00000000
_cell_angle_gamma   90.00000000
_symmetry_Int_Tables_number   1
_chemical_formula_structural   HoLu(Ga2Ag)2
_chemical_formula_sum   'Ho2 Lu2 Ga8 Ag4'
_cell_volume   307.04583817
_cell_formula_units_Z   2
loop_
 _symmetry_equiv_pos_site_id
 _symmetry_equiv_pos_as_xyz
  1  'x, y, z'
loop_
 _atom_site_type_symbol
 _atom_site_label
 _atom_site_symmetry_multiplicity
 _atom_site_fract_x
 _atom_site_fract_y
 _atom_site_fract_z
 _atom_site_occupancy
  Ho  Ho0  1  0.250000  0.777959  0.824437  1
  Ho  Ho1  1  0.750000  0.222041  0.175563  1
  Lu  Lu2  1  0.750000  0.722205  0.325315  1
  Lu  Lu3  1  0.250000  0.277795  0.674685  1
  Ga  Ga4  1  0.250000  0.699926  0.535425  1
  Ga  Ga5  1  0.750000  0.300074  0.464575  1
  Ga  Ga6  1  0.750000  0.796705  0.037204  1
  Ga  Ga7  1  0.250000  0.203295  0.962796  1
  Ga  Ga8  1  0.250000  0.928694  0.154190  1
  Ga  Ga9  1  0.750000  0.071306  0.845810  1
  Ga  Ga10  1  0.750000  0.568966  0.654097  1
  Ga  Ga11  1  0.250000  0.431034  0.345903  1
  Ag  Ag12  1  0.250000  0.544110  0.097368  1
  Ag  Ag13  1  0.750000  0.455890  0.902632  1
  Ag  Ag14  1  0.750000  0.956554  0.596564  1
  Ag  Ag15  1  0.250000  0.043446  0.403436  1
