# generated using pymatgen
data_YbTm2Ga5Cu6
_symmetry_space_group_name_H-M   'P 1'
_cell_length_a   7.91717364
_cell_length_b   7.91717414
_cell_length_c   7.91717384
_cell_angle_alpha   148.65298502
_cell_angle_beta   113.66526832
_cell_angle_gamma   75.20123968
_symmetry_Int_Tables_number   1
_chemical_formula_structural   YbTm2Ga5Cu6
_chemical_formula_sum   'Yb1 Tm2 Ga5 Cu6'
_cell_volume   232.44510074
_cell_formula_units_Z   1
loop_
 _symmetry_equiv_pos_site_id
 _symmetry_equiv_pos_as_xyz
  1  'x, y, z'
loop_
 _atom_site_type_symbol
 _atom_site_label
 _atom_site_symmetry_multiplicity
 _atom_site_fract_x
 _atom_site_fract_y
 _atom_site_fract_z
 _atom_site_occupancy
  Yb  Yb0  1  0.000000  0.000000  0.000000  1
  Tm  Tm1  1  0.692045  0.692045  0.000000  1
  Tm  Tm2  1  0.307955  0.307955  0.000000  1
  Ga  Ga3  1  0.320524  0.671347  0.649177  1
  Ga  Ga4  1  0.500000  0.000000  0.500000  1
  Ga  Ga5  1  0.679476  0.328653  0.350823  1
  Ga  Ga6  1  0.977831  0.328653  0.649177  1
  Ga  Ga7  1  0.022169  0.671347  0.350823  1
  Cu  Cu8  1  0.304215  0.500000  0.804215  1
  Cu  Cu9  1  0.695785  0.500000  0.195785  1
  Cu  Cu10  1  0.403896  0.126470  0.277424  1
  Cu  Cu11  1  0.849046  0.126470  0.722576  1
  Cu  Cu12  1  0.150954  0.873530  0.277424  1
  Cu  Cu13  1  0.596104  0.873530  0.722576  1
