# generated using pymatgen
data_Nd5HoTaMoO14
_symmetry_space_group_name_H-M   'P 1'
_cell_length_a   6.68046910
_cell_length_b   6.59869550
_cell_length_c   7.70072325
_cell_angle_alpha   89.77847050
_cell_angle_beta   90.27264668
_cell_angle_gamma   108.76413095
_symmetry_Int_Tables_number   1
_chemical_formula_structural   Nd5HoTaMoO14
_chemical_formula_sum   'Nd5 Ho1 Ta1 Mo1 O14'
_cell_volume   321.41925237
_cell_formula_units_Z   1
loop_
 _symmetry_equiv_pos_site_id
 _symmetry_equiv_pos_as_xyz
  1  'x, y, z'
loop_
 _atom_site_type_symbol
 _atom_site_label
 _atom_site_symmetry_multiplicity
 _atom_site_fract_x
 _atom_site_fract_y
 _atom_site_fract_z
 _atom_site_occupancy
  Nd  Nd0  1  0.525756  0.521580  0.498075  1
  Nd  Nd1  1  0.535435  0.527539  0.000752  1
  Nd  Nd2  1  0.006249  0.459618  0.754334  1
  Nd  Nd3  1  0.531768  0.003332  0.747808  1
  Nd  Nd4  1  0.464216  0.003329  0.249284  1
  Ho  Ho5  1  0.003769  0.534420  0.248331  1
  Ta  Ta6  1  0.001059  0.001185  0.002305  1
  Mo  Mo7  1  0.000913  0.999514  0.497785  1
  O  O8  1  0.940070  0.059424  0.751392  1
  O  O9  1  0.062607  0.930572  0.248707  1
  O  O10  1  0.351393  0.630746  0.249274  1
  O  O11  1  0.643798  0.372126  0.749150  1
  O  O12  1  0.369624  0.629564  0.750197  1
  O  O13  1  0.647842  0.379873  0.251423  1
  O  O14  1  0.308406  0.073792  0.968336  1
  O  O15  1  0.675564  0.914143  0.473213  1
  O  O16  1  0.315131  0.080500  0.525606  1
  O  O17  1  0.678008  0.915964  0.026450  1
  O  O18  1  0.040051  0.298689  0.460293  1
  O  O19  1  0.931104  0.678192  0.977221  1
  O  O20  1  0.935497  0.686138  0.525279  1
  O  O21  1  0.031741  0.299760  0.044782  1
