# generated using pymatgen
data_Tb4Mg(GaB4)2
_symmetry_space_group_name_H-M   'P 1'
_cell_length_a   7.21731000
_cell_length_b   7.21731000
_cell_length_c   8.08046600
_cell_angle_alpha   90.00000000
_cell_angle_beta   90.00000000
_cell_angle_gamma   90.00000000
_symmetry_Int_Tables_number   1
_chemical_formula_structural   Tb4Mg(GaB4)2
_chemical_formula_sum   'Tb8 Mg2 Ga4 B16'
_cell_volume   420.90794792
_cell_formula_units_Z   2
loop_
 _symmetry_equiv_pos_site_id
 _symmetry_equiv_pos_as_xyz
  1  'x, y, z'
loop_
 _atom_site_type_symbol
 _atom_site_label
 _atom_site_symmetry_multiplicity
 _atom_site_fract_x
 _atom_site_fract_y
 _atom_site_fract_z
 _atom_site_occupancy
  Tb  Tb0  1  0.681904  0.181904  0.226833  1
  Tb  Tb1  1  0.318096  0.818096  0.773167  1
  Tb  Tb2  1  0.318096  0.818096  0.226833  1
  Tb  Tb3  1  0.818096  0.681904  0.226833  1
  Tb  Tb4  1  0.818096  0.681904  0.773167  1
  Tb  Tb5  1  0.681904  0.181904  0.773167  1
  Tb  Tb6  1  0.181904  0.318096  0.773167  1
  Tb  Tb7  1  0.181904  0.318096  0.226833  1
  Mg  Mg8  1  0.000000  0.000000  0.500000  1
  Mg  Mg9  1  0.500000  0.500000  0.500000  1
  Ga  Ga10  1  0.121404  0.621404  0.500000  1
  Ga  Ga11  1  0.878596  0.378596  0.500000  1
  Ga  Ga12  1  0.378596  0.121404  0.500000  1
  Ga  Ga13  1  0.621404  0.878596  0.500000  1
  B  B14  1  0.172445  0.040513  0.000000  1
  B  B15  1  0.827555  0.959487  0.000000  1
  B  B16  1  0.959487  0.172445  0.000000  1
  B  B17  1  0.327555  0.540513  0.000000  1
  B  B18  1  0.040513  0.827555  0.000000  1
  B  B19  1  0.672445  0.459487  0.000000  1
  B  B20  1  0.540513  0.672445  0.000000  1
  B  B21  1  0.459487  0.327555  0.000000  1
  B  B22  1  0.090002  0.590002  0.000000  1
  B  B23  1  0.909998  0.409998  0.000000  1
  B  B24  1  0.409998  0.090002  0.000000  1
  B  B25  1  0.590002  0.909998  0.000000  1
  B  B26  1  0.000000  0.000000  0.158356  1
  B  B27  1  0.000000  0.000000  0.841644  1
  B  B28  1  0.500000  0.500000  0.841644  1
  B  B29  1  0.500000  0.500000  0.158356  1
