# generated using pymatgen
data_Dy3Lu5B24(MoRh)2
_symmetry_space_group_name_H-M   'P 1'
_cell_length_a   3.62713200
_cell_length_b   9.11433974
_cell_length_c   11.52356903
_cell_angle_alpha   90.37421922
_cell_angle_beta   90.00000000
_cell_angle_gamma   90.00000000
_symmetry_Int_Tables_number   1
_chemical_formula_structural   Dy3Lu5B24(MoRh)2
_chemical_formula_sum   'Dy3 Lu5 B24 Mo2 Rh2'
_cell_volume   380.94854428
_cell_formula_units_Z   1
loop_
 _symmetry_equiv_pos_site_id
 _symmetry_equiv_pos_as_xyz
  1  'x, y, z'
loop_
 _atom_site_type_symbol
 _atom_site_label
 _atom_site_symmetry_multiplicity
 _atom_site_fract_x
 _atom_site_fract_y
 _atom_site_fract_z
 _atom_site_occupancy
  Dy  Dy0  1  0.500000  0.318555  0.412090  1
  Dy  Dy1  1  0.500000  0.681488  0.587852  1
  Dy  Dy2  1  0.500000  0.175792  0.916638  1
  Lu  Lu3  1  0.500000  0.824563  0.082796  1
  Lu  Lu4  1  0.500000  0.443512  0.126811  1
  Lu  Lu5  1  0.500000  0.557054  0.873610  1
  Lu  Lu6  1  0.500000  0.054811  0.628132  1
  Lu  Lu7  1  0.500000  0.944826  0.371775  1
  B  B8  1  0.000000  0.103618  0.472640  1
  B  B9  1  0.000000  0.896278  0.527257  1
  B  B10  1  0.000000  0.397580  0.971036  1
  B  B11  1  0.000000  0.603806  0.029450  1
  B  B12  1  0.000000  0.130907  0.317739  1
  B  B13  1  0.000000  0.868792  0.682241  1
  B  B14  1  0.000000  0.369784  0.816207  1
  B  B15  1  0.000000  0.631256  0.183264  1
  B  B16  1  0.000000  0.050939  0.066235  1
  B  B17  1  0.000000  0.947521  0.934534  1
  B  B18  1  0.000000  0.445679  0.565891  1
  B  B19  1  0.000000  0.554467  0.433964  1
  B  B20  1  0.000000  0.483297  0.287612  1
  B  B21  1  0.000000  0.517035  0.712372  1
  B  B22  1  0.000000  0.020853  0.785779  1
  B  B23  1  0.000000  0.977789  0.213707  1
  B  B24  1  0.000000  0.251406  0.079967  1
  B  B25  1  0.000000  0.748746  0.921338  1
  B  B26  1  0.000000  0.249293  0.579691  1
  B  B27  1  0.000000  0.750632  0.420088  1
  B  B28  1  0.000000  0.295809  0.236258  1
  B  B29  1  0.000000  0.704121  0.763901  1
  B  B30  1  0.000000  0.208699  0.734234  1
  B  B31  1  0.000000  0.791528  0.264989  1
  Mo  Mo32  1  0.500000  0.138789  0.181493  1
  Mo  Mo33  1  0.500000  0.860385  0.818795  1
  Rh  Rh34  1  0.500000  0.361279  0.679132  1
  Rh  Rh35  1  0.500000  0.639110  0.320481  1
