# generated using pymatgen
data_VNi2Sb12Pt
_symmetry_space_group_name_H-M   'P 1'
_cell_length_a   8.06065348
_cell_length_b   8.15579595
_cell_length_c   8.11915475
_cell_angle_alpha   109.63747425
_cell_angle_beta   109.09298812
_cell_angle_gamma   109.30594105
_symmetry_Int_Tables_number   1
_chemical_formula_structural   VNi2Sb12Pt
_chemical_formula_sum   'V1 Ni2 Sb12 Pt1'
_cell_volume   412.78481662
_cell_formula_units_Z   1
loop_
 _symmetry_equiv_pos_site_id
 _symmetry_equiv_pos_as_xyz
  1  'x, y, z'
loop_
 _atom_site_type_symbol
 _atom_site_label
 _atom_site_symmetry_multiplicity
 _atom_site_fract_x
 _atom_site_fract_y
 _atom_site_fract_z
 _atom_site_occupancy
  V  V0  1  0.500000  0.000000  0.000000  1
  Ni  Ni1  1  0.000000  0.500000  0.000000  1
  Ni  Ni2  1  0.500000  0.500000  0.500000  1
  Sb  Sb3  1  0.155457  0.810181  0.658676  1
  Sb  Sb4  1  0.844543  0.189819  0.341324  1
  Sb  Sb5  1  0.842082  0.503808  0.663191  1
  Sb  Sb6  1  0.157918  0.496192  0.336809  1
  Sb  Sb7  1  0.813765  0.652710  0.149037  1
  Sb  Sb8  1  0.186235  0.347290  0.850963  1
  Sb  Sb9  1  0.503490  0.656018  0.837653  1
  Sb  Sb10  1  0.496510  0.343982  0.162347  1
  Sb  Sb11  1  0.665991  0.162511  0.818626  1
  Sb  Sb12  1  0.334009  0.837489  0.181374  1
  Sb  Sb13  1  0.650660  0.837360  0.503712  1
  Sb  Sb14  1  0.349340  0.162640  0.496288  1
  Pt  Pt15  1  0.000000  0.000000  0.500000  1
