# generated using pymatgen
data_CeY2(SnIr)3
_symmetry_space_group_name_H-M   'P 1'
_cell_length_a   7.51359623
_cell_length_b   7.58860723
_cell_length_c   3.96543000
_cell_angle_alpha   90.00000000
_cell_angle_beta   90.00000000
_cell_angle_gamma   120.33079557
_symmetry_Int_Tables_number   1
_chemical_formula_structural   CeY2(SnIr)3
_chemical_formula_sum   'Ce1 Y2 Sn3 Ir3'
_cell_volume   195.15223750
_cell_formula_units_Z   1
loop_
 _symmetry_equiv_pos_site_id
 _symmetry_equiv_pos_as_xyz
  1  'x, y, z'
loop_
 _atom_site_type_symbol
 _atom_site_label
 _atom_site_symmetry_multiplicity
 _atom_site_fract_x
 _atom_site_fract_y
 _atom_site_fract_z
 _atom_site_occupancy
  Ce  Ce0  1  0.000000  0.586817  0.000000  1
  Y  Y1  1  0.406266  0.406004  0.000000  1
  Y  Y2  1  0.593734  0.999738  0.000000  1
  Sn  Sn3  1  0.000000  0.250795  0.500000  1
  Sn  Sn4  1  0.735032  0.742226  0.500000  1
  Sn  Sn5  1  0.264968  0.007194  0.500000  1
  Ir  Ir6  1  0.000000  0.995926  0.000000  1
  Ir  Ir7  1  0.681561  0.346431  0.500000  1
  Ir  Ir8  1  0.318439  0.664870  0.500000  1
