# generated using pymatgen
data_Yb4Bi(PN2)6
_symmetry_space_group_name_H-M   'P 1'
_cell_length_a   7.54675830
_cell_length_b   7.54675799
_cell_length_c   7.54675800
_cell_angle_alpha   109.47122066
_cell_angle_beta   109.47121982
_cell_angle_gamma   109.47122229
_symmetry_Int_Tables_number   1
_chemical_formula_structural   Yb4Bi(PN2)6
_chemical_formula_sum   'Yb4 Bi1 P6 N12'
_cell_volume   330.87152493
_cell_formula_units_Z   1
loop_
 _symmetry_equiv_pos_site_id
 _symmetry_equiv_pos_as_xyz
  1  'x, y, z'
loop_
 _atom_site_type_symbol
 _atom_site_label
 _atom_site_symmetry_multiplicity
 _atom_site_fract_x
 _atom_site_fract_y
 _atom_site_fract_z
 _atom_site_occupancy
  Yb  Yb0  1  0.421102  0.421102  0.421102  1
  Yb  Yb1  1  0.000000  0.578898  0.000000  1
  Yb  Yb2  1  0.578898  0.000000  0.000000  1
  Yb  Yb3  1  0.000000  0.000000  0.578898  1
  Bi  Bi4  1  0.000000  0.000000  0.000000  1
  P  P5  1  0.500000  0.250000  0.750000  1
  P  P6  1  0.500000  0.750000  0.250000  1
  P  P7  1  0.750000  0.250000  0.500000  1
  P  P8  1  0.250000  0.500000  0.750000  1
  P  P9  1  0.750000  0.500000  0.250000  1
  P  P10  1  0.250000  0.750000  0.500000  1
  N  N11  1  0.000000  0.686389  0.378243  1
  N  N12  1  0.313611  0.691854  0.313611  1
  N  N13  1  0.308146  0.621757  0.621757  1
  N  N14  1  0.621757  0.621757  0.308146  1
  N  N15  1  0.621757  0.308146  0.621757  1
  N  N16  1  0.686389  0.000000  0.378243  1
  N  N17  1  0.378243  0.000000  0.686389  1
  N  N18  1  0.686389  0.378243  0.000000  1
  N  N19  1  0.313611  0.313611  0.691854  1
  N  N20  1  0.691854  0.313611  0.313611  1
  N  N21  1  0.000000  0.378243  0.686389  1
  N  N22  1  0.378243  0.686389  0.000000  1
