# generated using pymatgen
data_Lu10Ga3CoBi2
_symmetry_space_group_name_H-M   'P 1'
_cell_length_a   8.47329655
_cell_length_b   8.47329666
_cell_length_c   8.62549447
_cell_angle_alpha   125.30184818
_cell_angle_beta   125.30185913
_cell_angle_gamma   79.83240144
_symmetry_Int_Tables_number   1
_chemical_formula_structural   Lu10Ga3CoBi2
_chemical_formula_sum   'Lu10 Ga3 Co1 Bi2'
_cell_volume   400.78682358
_cell_formula_units_Z   1
loop_
 _symmetry_equiv_pos_site_id
 _symmetry_equiv_pos_as_xyz
  1  'x, y, z'
loop_
 _atom_site_type_symbol
 _atom_site_label
 _atom_site_symmetry_multiplicity
 _atom_site_fract_x
 _atom_site_fract_y
 _atom_site_fract_z
 _atom_site_occupancy
  Lu  Lu0  1  0.704218  0.515283  0.500000  1
  Lu  Lu1  1  0.481662  0.002326  0.206116  1
  Lu  Lu2  1  0.775545  0.296209  0.793884  1
  Lu  Lu3  1  0.497674  0.018338  0.793884  1
  Lu  Lu4  1  0.999245  0.999218  0.998463  1
  Lu  Lu5  1  0.048258  0.191431  0.500000  1
  Lu  Lu6  1  0.308569  0.451742  0.500000  1
  Lu  Lu7  1  0.203791  0.724455  0.206116  1
  Lu  Lu8  1  0.984717  0.795782  0.500000  1
  Lu  Lu9  1  0.500782  0.500755  0.001537  1
  Ga  Ga10  1  0.140083  0.641232  0.781314  1
  Ga  Ga11  1  0.858768  0.359917  0.218686  1
  Ga  Ga12  1  0.633524  0.866476  0.500000  1
  Co  Co13  1  0.377586  0.122414  0.500000  1
  Bi  Bi14  1  0.242788  0.257212  0.000000  1
  Bi  Bi15  1  0.742788  0.757212  0.000000  1
