# generated using pymatgen
data_Yb20Cd2Ag9Hg
_symmetry_space_group_name_H-M   'P 1'
_cell_length_a   8.01580700
_cell_length_b   8.01580700
_cell_length_c   14.59269300
_cell_angle_alpha   90.00000000
_cell_angle_beta   90.00000000
_cell_angle_gamma   90.00000000
_symmetry_Int_Tables_number   1
_chemical_formula_structural   Yb20Cd2Ag9Hg
_chemical_formula_sum   'Yb20 Cd2 Ag9 Hg1'
_cell_volume   937.62666532
_cell_formula_units_Z   1
loop_
 _symmetry_equiv_pos_site_id
 _symmetry_equiv_pos_as_xyz
  1  'x, y, z'
loop_
 _atom_site_type_symbol
 _atom_site_label
 _atom_site_symmetry_multiplicity
 _atom_site_fract_x
 _atom_site_fract_y
 _atom_site_fract_z
 _atom_site_occupancy
  Yb  Yb0  1  0.000000  0.000000  0.754699  1
  Yb  Yb1  1  0.500000  0.500000  0.250639  1
  Yb  Yb2  1  0.000000  0.000000  0.245301  1
  Yb  Yb3  1  0.500000  0.500000  0.749361  1
  Yb  Yb4  1  0.170947  0.661384  0.106501  1
  Yb  Yb5  1  0.665809  0.166868  0.609417  1
  Yb  Yb6  1  0.829053  0.338616  0.106501  1
  Yb  Yb7  1  0.334191  0.833132  0.609417  1
  Yb  Yb8  1  0.338616  0.170947  0.106501  1
  Yb  Yb9  1  0.833132  0.665809  0.609417  1
  Yb  Yb10  1  0.661384  0.829053  0.106501  1
  Yb  Yb11  1  0.166868  0.334191  0.609417  1
  Yb  Yb12  1  0.338616  0.829053  0.893499  1
  Yb  Yb13  1  0.833132  0.334191  0.390583  1
  Yb  Yb14  1  0.661384  0.170947  0.893499  1
  Yb  Yb15  1  0.166868  0.665809  0.390583  1
  Yb  Yb16  1  0.170947  0.338616  0.893499  1
  Yb  Yb17  1  0.665809  0.833132  0.390583  1
  Yb  Yb18  1  0.829053  0.661384  0.893499  1
  Yb  Yb19  1  0.334191  0.166868  0.390583  1
  Cd  Cd20  1  0.000000  0.000000  0.500000  1
  Cd  Cd21  1  0.000000  0.000000  0.000000  1
  Ag  Ag22  1  0.628951  0.128032  0.248570  1
  Ag  Ag23  1  0.128032  0.628951  0.751430  1
  Ag  Ag24  1  0.871968  0.371049  0.751430  1
  Ag  Ag25  1  0.371049  0.871968  0.248570  1
  Ag  Ag26  1  0.371049  0.128032  0.751430  1
  Ag  Ag27  1  0.871968  0.628951  0.248570  1
  Ag  Ag28  1  0.128032  0.371049  0.248570  1
  Ag  Ag29  1  0.628951  0.871968  0.751430  1
  Ag  Ag30  1  0.500000  0.500000  0.000000  1
  Hg  Hg31  1  0.500000  0.500000  0.500000  1
