# generated using pymatgen
data_Ac3Tb7Pb8
_symmetry_space_group_name_H-M   'P 1'
_cell_length_a   8.40895400
_cell_length_b   8.47333865
_cell_length_c   16.05898900
_cell_angle_alpha   90.09085955
_cell_angle_beta   90.00000000
_cell_angle_gamma   90.00000000
_symmetry_Int_Tables_number   1
_chemical_formula_structural   Ac3Tb7Pb8
_chemical_formula_sum   'Ac6 Tb14 Pb16'
_cell_volume   1144.23227999
_cell_formula_units_Z   2
loop_
 _symmetry_equiv_pos_site_id
 _symmetry_equiv_pos_as_xyz
  1  'x, y, z'
loop_
 _atom_site_type_symbol
 _atom_site_label
 _atom_site_symmetry_multiplicity
 _atom_site_fract_x
 _atom_site_fract_y
 _atom_site_fract_z
 _atom_site_occupancy
  Ac  Ac0  1  0.477956  0.678301  0.906020  1
  Ac  Ac1  1  0.977956  0.821699  0.593980  1
  Ac  Ac2  1  0.977080  0.826213  0.905770  1
  Ac  Ac3  1  0.477080  0.673787  0.594230  1
  Ac  Ac4  1  0.521023  0.322185  0.096375  1
  Ac  Ac5  1  0.021023  0.177815  0.403625  1
  Tb  Tb6  1  0.862218  0.657498  0.123502  1
  Tb  Tb7  1  0.362218  0.842502  0.376498  1
  Tb  Tb8  1  0.633054  0.157208  0.879512  1
  Tb  Tb9  1  0.133054  0.342792  0.620488  1
  Tb  Tb10  1  0.133648  0.340287  0.878909  1
  Tb  Tb11  1  0.633648  0.159713  0.621091  1
  Tb  Tb12  1  0.364640  0.845035  0.124471  1
  Tb  Tb13  1  0.864640  0.654965  0.375529  1
  Tb  Tb14  1  0.031327  0.176247  0.103532  1
  Tb  Tb15  1  0.531327  0.323753  0.396468  1
  Tb  Tb16  1  0.700039  0.997550  0.250520  1
  Tb  Tb17  1  0.200039  0.502450  0.249480  1
  Tb  Tb18  1  0.799069  0.495383  0.749206  1
  Tb  Tb19  1  0.299069  0.004617  0.750794  1
  Pb  Pb20  1  0.060657  0.868857  0.248643  1
  Pb  Pb21  1  0.560657  0.631143  0.251357  1
  Pb  Pb22  1  0.437686  0.364968  0.751165  1
  Pb  Pb23  1  0.937686  0.135032  0.748835  1
  Pb  Pb24  1  0.837706  0.350307  0.246073  1
  Pb  Pb25  1  0.337706  0.149693  0.253927  1
  Pb  Pb26  1  0.663848  0.856414  0.749966  1
  Pb  Pb27  1  0.163848  0.643586  0.750034  1
  Pb  Pb28  1  0.803688  0.453907  0.955976  1
  Pb  Pb29  1  0.303688  0.046093  0.544024  1
  Pb  Pb30  1  0.709939  0.965394  0.049091  1
  Pb  Pb31  1  0.209939  0.534606  0.450909  1
  Pb  Pb32  1  0.193364  0.539489  0.046835  1
  Pb  Pb33  1  0.693364  0.960511  0.453165  1
  Pb  Pb34  1  0.293056  0.049097  0.961467  1
  Pb  Pb35  1  0.793056  0.450903  0.538533  1
