# generated using pymatgen
data_NbP2Cl13
_symmetry_space_group_name_H-M   'P 1'
_cell_length_a   9.74954772
_cell_length_b   9.74954760
_cell_length_c   12.00724500
_cell_angle_alpha   90.00000000
_cell_angle_beta   90.00000000
_cell_angle_gamma   115.26295112
_symmetry_Int_Tables_number   1
_chemical_formula_structural   NbP2Cl13
_chemical_formula_sum   'Nb2 P4 Cl26'
_cell_volume   1032.17426595
_cell_formula_units_Z   2
loop_
 _symmetry_equiv_pos_site_id
 _symmetry_equiv_pos_as_xyz
  1  'x, y, z'
loop_
 _atom_site_type_symbol
 _atom_site_label
 _atom_site_symmetry_multiplicity
 _atom_site_fract_x
 _atom_site_fract_y
 _atom_site_fract_z
 _atom_site_occupancy
  Nb  Nb0  1  0.206733  0.793267  0.501824  1
  Nb  Nb1  1  0.793267  0.206733  0.001824  1
  P  P2  1  0.543405  0.456595  0.153951  1
  P  P3  1  0.456595  0.543405  0.653951  1
  P  P4  1  0.141030  0.858970  0.962917  1
  P  P5  1  0.858970  0.141030  0.462917  1
  Cl  Cl6  1  0.383352  0.312570  0.629962  1
  Cl  Cl7  1  0.746397  0.253603  0.411197  1
  Cl  Cl8  1  0.450554  0.549446  0.826969  1
  Cl  Cl9  1  0.307852  0.013210  0.386577  1
  Cl  Cl10  1  0.067086  0.238635  0.406732  1
  Cl  Cl11  1  0.253603  0.746397  0.911197  1
  Cl  Cl12  1  0.312570  0.383352  0.129962  1
  Cl  Cl13  1  0.013210  0.307852  0.886577  1
  Cl  Cl14  1  0.986790  0.692148  0.386577  1
  Cl  Cl15  1  0.932914  0.761365  0.906732  1
  Cl  Cl16  1  0.549446  0.450554  0.326969  1
  Cl  Cl17  1  0.139618  0.860382  0.125863  1
  Cl  Cl18  1  0.898702  0.426327  0.117913  1
  Cl  Cl19  1  0.325684  0.674316  0.390586  1
  Cl  Cl20  1  0.912725  0.087275  0.116325  1
  Cl  Cl21  1  0.692148  0.986790  0.886577  1
  Cl  Cl22  1  0.761365  0.932914  0.406732  1
  Cl  Cl23  1  0.238635  0.067086  0.906732  1
  Cl  Cl24  1  0.674316  0.325684  0.890586  1
  Cl  Cl25  1  0.616648  0.687430  0.129962  1
  Cl  Cl26  1  0.573673  0.101298  0.117913  1
  Cl  Cl27  1  0.860382  0.139618  0.625863  1
  Cl  Cl28  1  0.426327  0.898702  0.617913  1
  Cl  Cl29  1  0.687430  0.616648  0.629962  1
  Cl  Cl30  1  0.087275  0.912725  0.616325  1
  Cl  Cl31  1  0.101298  0.573673  0.617913  1
