# generated using pymatgen
data_Y4Zn8Cd3Ag
_symmetry_space_group_name_H-M   'P 1'
_cell_length_a   4.39505800
_cell_length_b   7.20845448
_cell_length_c   10.15114910
_cell_angle_alpha   89.89325615
_cell_angle_beta   90.00000000
_cell_angle_gamma   90.00000000
_symmetry_Int_Tables_number   1
_chemical_formula_structural   Y4Zn8Cd3Ag
_chemical_formula_sum   'Y4 Zn8 Cd3 Ag1'
_cell_volume   321.60383900
_cell_formula_units_Z   1
loop_
 _symmetry_equiv_pos_site_id
 _symmetry_equiv_pos_as_xyz
  1  'x, y, z'
loop_
 _atom_site_type_symbol
 _atom_site_label
 _atom_site_symmetry_multiplicity
 _atom_site_fract_x
 _atom_site_fract_y
 _atom_site_fract_z
 _atom_site_occupancy
  Y  Y0  1  0.250000  0.299658  0.674767  1
  Y  Y1  1  0.750000  0.697409  0.327402  1
  Y  Y2  1  0.250000  0.806994  0.821274  1
  Y  Y3  1  0.750000  0.195985  0.175552  1
  Zn  Zn4  1  0.750000  0.306139  0.465736  1
  Zn  Zn5  1  0.250000  0.688465  0.536498  1
  Zn  Zn6  1  0.750000  0.813750  0.035102  1
  Zn  Zn7  1  0.250000  0.185055  0.964270  1
  Zn  Zn8  1  0.750000  0.592033  0.644104  1
  Zn  Zn9  1  0.250000  0.413154  0.358095  1
  Zn  Zn10  1  0.750000  0.088089  0.850864  1
  Zn  Zn11  1  0.250000  0.913268  0.144809  1
  Cd  Cd12  1  0.250000  0.531892  0.098825  1
  Cd  Cd13  1  0.750000  0.469377  0.901254  1
  Cd  Cd14  1  0.250000  0.031407  0.404713  1
  Ag  Ag15  1  0.750000  0.967324  0.596736  1
