# generated using pymatgen
data_SmY3Ni4(SnH)4
_symmetry_space_group_name_H-M   'P 1'
_cell_length_a   4.28935100
_cell_length_b   7.14929100
_cell_length_c   8.35845300
_cell_angle_alpha   89.99903941
_cell_angle_beta   90.00000000
_cell_angle_gamma   90.00000000
_symmetry_Int_Tables_number   1
_chemical_formula_structural   SmY3Ni4(SnH)4
_chemical_formula_sum   'Sm1 Y3 Ni4 Sn4 H4'
_cell_volume   256.31880262
_cell_formula_units_Z   1
loop_
 _symmetry_equiv_pos_site_id
 _symmetry_equiv_pos_as_xyz
  1  'x, y, z'
loop_
 _atom_site_type_symbol
 _atom_site_label
 _atom_site_symmetry_multiplicity
 _atom_site_fract_x
 _atom_site_fract_y
 _atom_site_fract_z
 _atom_site_occupancy
  Sm  Sm0  1  0.750000  0.514032  0.812050  1
  Y  Y1  1  0.750000  0.013802  0.685813  1
  Y  Y2  1  0.250000  0.985858  0.313729  1
  Y  Y3  1  0.250000  0.486124  0.186141  1
  Ni  Ni4  1  0.750000  0.777581  0.107527  1
  Ni  Ni5  1  0.250000  0.220950  0.894834  1
  Ni  Ni6  1  0.250000  0.724693  0.603816  1
  Ni  Ni7  1  0.750000  0.276435  0.394283  1
  Sn  Sn8  1  0.750000  0.657840  0.426768  1
  Sn  Sn9  1  0.250000  0.341729  0.569814  1
  Sn  Sn10  1  0.250000  0.843306  0.928937  1
  Sn  Sn11  1  0.750000  0.157396  0.072556  1
  H  H12  1  0.250000  0.443217  0.922750  1
  H  H13  1  0.750000  0.555621  0.081335  1
  H  H14  1  0.750000  0.055234  0.421306  1
  H  H15  1  0.250000  0.946184  0.578343  1
