# generated using pymatgen
data_Sr3Ca6DyV7O28
_symmetry_space_group_name_H-M   'P 1'
_cell_length_a   11.14682300
_cell_length_b   11.14682277
_cell_length_c   14.34657526
_cell_angle_alpha   67.49133414
_cell_angle_beta   67.49133415
_cell_angle_gamma   59.96398301
_symmetry_Int_Tables_number   1
_chemical_formula_structural   Sr3Ca6DyV7O28
_chemical_formula_sum   'Sr6 Ca12 Dy2 V14 O56'
_cell_volume   1384.30311764
_cell_formula_units_Z   2
loop_
 _symmetry_equiv_pos_site_id
 _symmetry_equiv_pos_as_xyz
  1  'x, y, z'
loop_
 _atom_site_type_symbol
 _atom_site_label
 _atom_site_symmetry_multiplicity
 _atom_site_fract_x
 _atom_site_fract_y
 _atom_site_fract_z
 _atom_site_occupancy
  Sr  Sr0  1  0.555743  0.467110  0.021624  1
  Sr  Sr1  1  0.953895  0.055389  0.020575  1
  Sr  Sr2  1  0.970816  0.453096  0.018474  1
  Sr  Sr3  1  0.055389  0.953895  0.520575  1
  Sr  Sr4  1  0.453096  0.970816  0.518474  1
  Sr  Sr5  1  0.467110  0.555743  0.521624  1
  Ca  Ca6  1  0.501177  0.004964  0.999032  1
  Ca  Ca7  1  0.566367  0.075941  0.202150  1
  Ca  Ca8  1  0.570275  0.660144  0.200289  1
  Ca  Ca9  1  0.156812  0.065453  0.201525  1
  Ca  Ca10  1  0.660144  0.570275  0.700289  1
  Ca  Ca11  1  0.065453  0.156812  0.701525  1
  Ca  Ca12  1  0.075941  0.566367  0.702150  1
  Ca  Ca13  1  0.004964  0.501177  0.499032  1
  Ca  Ca14  1  0.945244  0.849606  0.295736  1
  Ca  Ca15  1  0.350385  0.413994  0.295708  1
  Ca  Ca16  1  0.849606  0.945244  0.795736  1
  Ca  Ca17  1  0.413994  0.350385  0.795708  1
  Dy  Dy18  1  0.909440  0.445864  0.296255  1
  Dy  Dy19  1  0.445864  0.909440  0.796255  1
  V  V20  1  0.770354  0.268535  0.195921  1
  V  V21  1  0.691234  0.221409  0.896265  1
  V  V22  1  0.718492  0.693462  0.895921  1
  V  V23  1  0.193599  0.187030  0.895969  1
  V  V24  1  0.781659  0.308635  0.593043  1
  V  V25  1  0.807092  0.815823  0.598814  1
  V  V26  1  0.693462  0.718492  0.395921  1
  V  V27  1  0.316965  0.276289  0.598974  1
  V  V28  1  0.187030  0.193599  0.395969  1
  V  V29  1  0.221409  0.691234  0.396265  1
  V  V30  1  0.815823  0.807092  0.098814  1
  V  V31  1  0.276289  0.316965  0.098974  1
  V  V32  1  0.308635  0.781659  0.093043  1
  V  V33  1  0.268535  0.770354  0.695921  1
  O  O34  1  0.600746  0.271637  0.230887  1
  O  O35  1  0.777426  0.399938  0.231966  1
  O  O36  1  0.902464  0.098915  0.229420  1
  O  O37  1  0.665424  0.183510  0.029918  1
  O  O38  1  0.682774  0.620767  0.028732  1
  O  O39  1  0.813650  0.314437  0.060324  1
  O  O40  1  0.616908  0.141365  0.864382  1
  O  O41  1  0.633360  0.879977  0.864593  1
  O  O42  1  0.640904  0.645937  0.839322  1
  O  O43  1  0.603272  0.405159  0.854813  1
  O  O44  1  0.122320  0.165453  0.028916  1
  O  O45  1  0.873299  0.150889  0.843083  1
  O  O46  1  0.901493  0.638245  0.854126  1
  O  O47  1  0.605163  0.398241  0.657602  1
  O  O48  1  0.134657  0.368342  0.841503  1
  O  O49  1  0.620610  0.885680  0.645027  1
  O  O50  1  0.145001  0.093132  0.855047  1
  O  O51  1  0.380691  0.108117  0.863674  1
  O  O52  1  0.854060  0.125194  0.637353  1
  O  O53  1  0.899183  0.839768  0.660507  1
  O  O54  1  0.620767  0.682774  0.528732  1
  O  O55  1  0.876096  0.371218  0.622302  1
  O  O56  1  0.869570  0.629667  0.627186  1
  O  O57  1  0.130710  0.370613  0.628484  1
  O  O58  1  0.794317  0.362504  0.460157  1
  O  O59  1  0.859002  0.879463  0.467898  1
  O  O60  1  0.645937  0.640904  0.339322  1
  O  O61  1  0.344542  0.096087  0.664129  1
  O  O62  1  0.638245  0.901493  0.354126  1
  O  O63  1  0.384907  0.352610  0.639367  1
  O  O64  1  0.165453  0.122320  0.528916  1
  O  O65  1  0.183510  0.665424  0.529918  1
  O  O66  1  0.879977  0.633360  0.364593  1
  O  O67  1  0.108117  0.380691  0.363674  1
  O  O68  1  0.141365  0.616908  0.364382  1
  O  O69  1  0.377581  0.287311  0.468105  1
  O  O70  1  0.150889  0.873299  0.343083  1
  O  O71  1  0.093132  0.145001  0.355047  1
  O  O72  1  0.629667  0.869570  0.127186  1
  O  O73  1  0.839768  0.899183  0.160507  1
  O  O74  1  0.368342  0.134657  0.341503  1
  O  O75  1  0.885680  0.620610  0.145027  1
  O  O76  1  0.405159  0.603272  0.354813  1
  O  O77  1  0.096087  0.344542  0.164129  1
  O  O78  1  0.125194  0.854060  0.137353  1
  O  O79  1  0.879463  0.859002  0.967898  1
  O  O80  1  0.352610  0.384907  0.139367  1
  O  O81  1  0.398241  0.605163  0.157602  1
  O  O82  1  0.370613  0.130710  0.128484  1
  O  O83  1  0.371218  0.876096  0.122302  1
  O  O84  1  0.287311  0.377581  0.968105  1
  O  O85  1  0.362504  0.794317  0.960157  1
  O  O86  1  0.098915  0.902464  0.729420  1
  O  O87  1  0.271637  0.600746  0.730887  1
  O  O88  1  0.399938  0.777426  0.731966  1
  O  O89  1  0.314437  0.813650  0.560324  1
