# generated using pymatgen
data_Lu3Al2Ga3Ni
_symmetry_space_group_name_H-M   'P 1'
_cell_length_a   6.77489816
_cell_length_b   6.77489835
_cell_length_c   4.19270000
_cell_angle_alpha   90.00000000
_cell_angle_beta   90.00000000
_cell_angle_gamma   119.78286537
_symmetry_Int_Tables_number   1
_chemical_formula_structural   Lu3Al2Ga3Ni
_chemical_formula_sum   'Lu3 Al2 Ga3 Ni1'
_cell_volume   167.02291378
_cell_formula_units_Z   1
loop_
 _symmetry_equiv_pos_site_id
 _symmetry_equiv_pos_as_xyz
  1  'x, y, z'
loop_
 _atom_site_type_symbol
 _atom_site_label
 _atom_site_symmetry_multiplicity
 _atom_site_fract_x
 _atom_site_fract_y
 _atom_site_fract_z
 _atom_site_occupancy
  Lu  Lu0  1  0.590659  0.998851  0.500000  1
  Lu  Lu1  1  0.410018  0.410018  0.500000  1
  Lu  Lu2  1  0.998851  0.590659  0.500000  1
  Al  Al3  1  0.232436  0.001028  0.000000  1
  Al  Al4  1  0.001028  0.232436  0.000000  1
  Ga  Ga5  1  0.666585  0.330643  0.000000  1
  Ga  Ga6  1  0.330643  0.666585  0.000000  1
  Ga  Ga7  1  0.763071  0.763071  0.000000  1
  Ni  Ni8  1  0.006707  0.006707  0.500000  1
