# generated using pymatgen
data_Zr2Sc5P12Ir16Ru
_symmetry_space_group_name_H-M   'P 1'
_cell_length_a   12.79594470
_cell_length_b   12.79594435
_cell_length_c   3.91548200
_cell_angle_alpha   90.00000000
_cell_angle_beta   90.00000000
_cell_angle_gamma   120.93971159
_symmetry_Int_Tables_number   1
_chemical_formula_structural   Zr2Sc5P12Ir16Ru
_chemical_formula_sum   'Zr2 Sc5 P12 Ir16 Ru1'
_cell_volume   549.88234638
_cell_formula_units_Z   1
loop_
 _symmetry_equiv_pos_site_id
 _symmetry_equiv_pos_as_xyz
  1  'x, y, z'
loop_
 _atom_site_type_symbol
 _atom_site_label
 _atom_site_symmetry_multiplicity
 _atom_site_fract_x
 _atom_site_fract_y
 _atom_site_fract_z
 _atom_site_occupancy
  Zr  Zr0  1  0.449514  0.002389  0.000000  1
  Zr  Zr1  1  0.002389  0.449514  0.000000  1
  Sc  Sc2  1  0.329549  0.667952  0.000000  1
  Sc  Sc3  1  0.667952  0.329549  0.000000  1
  Sc  Sc4  1  0.819130  0.001490  0.500000  1
  Sc  Sc5  1  0.001490  0.819130  0.500000  1
  Sc  Sc6  1  0.189104  0.189104  0.500000  1
  P  P7  1  0.173279  0.001988  0.000000  1
  P  P8  1  0.001988  0.173279  0.000000  1
  P  P9  1  0.820282  0.820282  0.000000  1
  P  P10  1  0.173714  0.485759  0.500000  1
  P  P11  1  0.514244  0.687129  0.500000  1
  P  P12  1  0.315337  0.833574  0.500000  1
  P  P13  1  0.687129  0.514244  0.500000  1
  P  P14  1  0.833574  0.315337  0.500000  1
  P  P15  1  0.485759  0.173714  0.500000  1
  P  P16  1  0.648190  0.993539  0.000000  1
  P  P17  1  0.993539  0.648190  0.000000  1
  P  P18  1  0.357994  0.357994  0.000000  1
  Ir  Ir19  1  0.359386  0.494008  0.500000  1
  Ir  Ir20  1  0.511890  0.867838  0.500000  1
  Ir  Ir21  1  0.141959  0.644686  0.500000  1
  Ir  Ir22  1  0.867838  0.511890  0.500000  1
  Ir  Ir23  1  0.644686  0.141959  0.500000  1
  Ir  Ir24  1  0.494008  0.359386  0.500000  1
  Ir  Ir25  1  0.184032  0.372565  0.000000  1
  Ir  Ir26  1  0.624990  0.799840  0.000000  1
  Ir  Ir27  1  0.185104  0.821536  0.000000  1
  Ir  Ir28  1  0.799840  0.624990  0.000000  1
  Ir  Ir29  1  0.821536  0.185104  0.000000  1
  Ir  Ir30  1  0.372565  0.184032  0.000000  1
  Ir  Ir31  1  0.277306  0.002715  0.500000  1
  Ir  Ir32  1  0.002715  0.277306  0.500000  1
  Ir  Ir33  1  0.711624  0.711624  0.500000  1
  Ir  Ir34  1  0.996179  0.996179  0.000000  1
  Ru  Ru35  1  0.540185  0.540185  0.000000  1
