# generated using pymatgen
data_AcThNi2Ir5
_symmetry_space_group_name_H-M   'P 1'
_cell_length_a   5.39275744
_cell_length_b   5.39275656
_cell_length_c   13.03663615
_cell_angle_alpha   78.06330251
_cell_angle_beta   78.06330599
_cell_angle_gamma   60.00000964
_symmetry_Int_Tables_number   1
_chemical_formula_structural   AcThNi2Ir5
_chemical_formula_sum   'Ac2 Th2 Ni4 Ir10'
_cell_volume   318.83417307
_cell_formula_units_Z   2
loop_
 _symmetry_equiv_pos_site_id
 _symmetry_equiv_pos_as_xyz
  1  'x, y, z'
loop_
 _atom_site_type_symbol
 _atom_site_label
 _atom_site_symmetry_multiplicity
 _atom_site_fract_x
 _atom_site_fract_y
 _atom_site_fract_z
 _atom_site_occupancy
  Ac  Ac0  1  0.949497  0.949497  0.151509  1
  Ac  Ac1  1  0.050503  0.050503  0.848491  1
  Th  Th2  1  0.853317  0.853317  0.440051  1
  Th  Th3  1  0.146683  0.146683  0.559949  1
  Ni  Ni4  1  0.720709  0.720709  0.837874  1
  Ni  Ni5  1  0.279291  0.279291  0.162126  1
  Ni  Ni6  1  0.612546  0.612546  0.162363  1
  Ni  Ni7  1  0.387454  0.387454  0.837637  1
  Ir  Ir8  1  0.390214  0.390214  0.324951  1
  Ir  Ir9  1  0.894622  0.390214  0.324951  1
  Ir  Ir10  1  0.390214  0.894622  0.324951  1
  Ir  Ir11  1  0.609786  0.609786  0.675049  1
  Ir  Ir12  1  0.105378  0.609786  0.675049  1
  Ir  Ir13  1  0.609786  0.105378  0.675049  1
  Ir  Ir14  1  0.000000  0.500000  0.000000  1
  Ir  Ir15  1  0.500000  0.000000  0.000000  1
  Ir  Ir16  1  0.500000  0.500000  0.000000  1
  Ir  Ir17  1  0.500000  0.500000  0.500000  1
