# generated using pymatgen
data_Cs3Sm(PO4)2
_symmetry_space_group_name_H-M   'P 1'
_cell_length_a   5.90090300
_cell_length_b   5.90090247
_cell_length_c   8.69616800
_cell_angle_alpha   90.00000000
_cell_angle_beta   90.00000000
_cell_angle_gamma   120.00000859
_symmetry_Int_Tables_number   1
_chemical_formula_structural   Cs3Sm(PO4)2
_chemical_formula_sum   'Cs3 Sm1 P2 O8'
_cell_volume   262.23788137
_cell_formula_units_Z   1
loop_
 _symmetry_equiv_pos_site_id
 _symmetry_equiv_pos_as_xyz
  1  'x, y, z'
loop_
 _atom_site_type_symbol
 _atom_site_label
 _atom_site_symmetry_multiplicity
 _atom_site_fract_x
 _atom_site_fract_y
 _atom_site_fract_z
 _atom_site_occupancy
  Cs  Cs0  1  0.333333  0.666667  0.766022  1
  Cs  Cs1  1  0.666667  0.333333  0.233978  1
  Cs  Cs2  1  0.000000  0.000000  0.000000  1
  Sm  Sm3  1  0.000000  0.000000  0.500000  1
  P  P4  1  0.333333  0.666667  0.287227  1
  P  P5  1  0.666667  0.333333  0.712773  1
  O  O6  1  0.333333  0.666667  0.110460  1
  O  O7  1  0.666667  0.333333  0.889540  1
  O  O8  1  0.188930  0.811070  0.348596  1
  O  O9  1  0.811070  0.188930  0.651404  1
  O  O10  1  0.188930  0.377860  0.348596  1
  O  O11  1  0.811070  0.622140  0.651404  1
  O  O12  1  0.622140  0.811070  0.348596  1
  O  O13  1  0.377860  0.188930  0.651404  1
