# generated using pymatgen
data_EuY6RhBr12
_symmetry_space_group_name_H-M   'P 1'
_cell_length_a   9.23217807
_cell_length_b   9.35134155
_cell_length_c   9.32755900
_cell_angle_alpha   106.32890543
_cell_angle_beta   106.40409765
_cell_angle_gamma   106.54375225
_symmetry_Int_Tables_number   1
_chemical_formula_structural   EuY6RhBr12
_chemical_formula_sum   'Eu1 Y6 Rh1 Br12'
_cell_volume   680.87704614
_cell_formula_units_Z   1
loop_
 _symmetry_equiv_pos_site_id
 _symmetry_equiv_pos_as_xyz
  1  'x, y, z'
loop_
 _atom_site_type_symbol
 _atom_site_label
 _atom_site_symmetry_multiplicity
 _atom_site_fract_x
 _atom_site_fract_y
 _atom_site_fract_z
 _atom_site_occupancy
  Eu  Eu0  1  0.500000  0.500000  0.500000  1
  Y  Y1  1  0.102456  0.312157  0.021359  1
  Y  Y2  1  0.304513  0.021061  0.099639  1
  Y  Y3  1  0.020311  0.102971  0.312517  1
  Y  Y4  1  0.979690  0.897029  0.687484  1
  Y  Y5  1  0.695487  0.978940  0.900361  1
  Y  Y6  1  0.897544  0.687843  0.978641  1
  Rh  Rh7  1  0.000000  0.000000  0.000000  1
  Br  Br8  1  0.218935  0.677983  0.074294  1
  Br  Br9  1  0.450247  0.368146  0.145514  1
  Br  Br10  1  0.675694  0.072711  0.216617  1
  Br  Br11  1  0.926219  0.782438  0.324387  1
  Br  Br12  1  0.142835  0.449359  0.367429  1
  Br  Br13  1  0.368431  0.145229  0.447884  1
  Br  Br14  1  0.631569  0.854771  0.552117  1
  Br  Br15  1  0.857166  0.550641  0.632571  1
  Br  Br16  1  0.073782  0.217562  0.675614  1
  Br  Br17  1  0.324307  0.927290  0.783383  1
  Br  Br18  1  0.549753  0.631854  0.854487  1
  Br  Br19  1  0.781065  0.322017  0.925706  1
