# generated using pymatgen
data_Sr3BiBr2ClO3
_symmetry_space_group_name_H-M   'P 1'
_cell_length_a   6.81237500
_cell_length_b   11.50416000
_cell_length_c   12.67099600
_cell_angle_alpha   90.00000000
_cell_angle_beta   90.00046547
_cell_angle_gamma   90.00000000
_symmetry_Int_Tables_number   1
_chemical_formula_structural   Sr3BiBr2ClO3
_chemical_formula_sum   'Sr12 Bi4 Br8 Cl4 O12'
_cell_volume   993.03421774
_cell_formula_units_Z   4
loop_
 _symmetry_equiv_pos_site_id
 _symmetry_equiv_pos_as_xyz
  1  'x, y, z'
loop_
 _atom_site_type_symbol
 _atom_site_label
 _atom_site_symmetry_multiplicity
 _atom_site_fract_x
 _atom_site_fract_y
 _atom_site_fract_z
 _atom_site_occupancy
  Sr  Sr0  1  0.356634  0.429127  0.113862  1
  Sr  Sr1  1  0.855951  0.250000  0.031605  1
  Sr  Sr2  1  0.856637  0.429125  0.386138  1
  Sr  Sr3  1  0.643356  0.570878  0.886138  1
  Sr  Sr4  1  0.856637  0.070875  0.386138  1
  Sr  Sr5  1  0.143361  0.929123  0.613865  1
  Sr  Sr6  1  0.644041  0.750000  0.531609  1
  Sr  Sr7  1  0.643356  0.929122  0.886138  1
  Sr  Sr8  1  0.356634  0.070873  0.113862  1
  Sr  Sr9  1  0.143361  0.570877  0.613865  1
  Sr  Sr10  1  0.355957  0.250000  0.468394  1
  Sr  Sr11  1  0.144042  0.750000  0.968390  1
  Bi  Bi12  1  0.595243  0.750000  0.109793  1
  Bi  Bi13  1  0.904751  0.250000  0.609801  1
  Bi  Bi14  1  0.404729  0.250000  0.890177  1
  Bi  Bi15  1  0.095251  0.750000  0.390200  1
  Br  Br16  1  0.080616  0.022041  0.850725  1
  Br  Br17  1  0.080616  0.477959  0.850725  1
  Br  Br18  1  0.919371  0.977948  0.149279  1
  Br  Br19  1  0.580626  0.022053  0.649279  1
  Br  Br20  1  0.919371  0.522052  0.149279  1
  Br  Br21  1  0.419373  0.977948  0.350721  1
  Br  Br22  1  0.580626  0.477947  0.649279  1
  Br  Br23  1  0.419373  0.522052  0.350721  1
  Cl  Cl24  1  0.610934  0.250000  0.223627  1
  Cl  Cl25  1  0.110939  0.250000  0.276377  1
  Cl  Cl26  1  0.389067  0.750000  0.776373  1
  Cl  Cl27  1  0.889063  0.750000  0.723626  1
  O  O28  1  0.586134  0.121603  0.961865  1
  O  O29  1  0.413873  0.621613  0.038136  1
  O  O30  1  0.913864  0.878390  0.461866  1
  O  O31  1  0.218171  0.250000  0.024370  1
  O  O32  1  0.781806  0.750000  0.975639  1
  O  O33  1  0.086133  0.378390  0.538135  1
  O  O34  1  0.718193  0.250000  0.475637  1
  O  O35  1  0.281805  0.750000  0.524363  1
  O  O36  1  0.913864  0.621610  0.461866  1
  O  O37  1  0.086133  0.121610  0.538135  1
  O  O38  1  0.586134  0.378397  0.961865  1
  O  O39  1  0.413873  0.878387  0.038136  1
