# generated using pymatgen
data_TaNb3Al3Zn5
_symmetry_space_group_name_H-M   'P 1'
_cell_length_a   5.05703704
_cell_length_b   5.05703779
_cell_length_c   8.32985103
_cell_angle_alpha   89.99165006
_cell_angle_beta   90.00835120
_cell_angle_gamma   120.38663080
_symmetry_Int_Tables_number   1
_chemical_formula_structural   TaNb3Al3Zn5
_chemical_formula_sum   'Ta1 Nb3 Al3 Zn5'
_cell_volume   183.76169439
_cell_formula_units_Z   1
loop_
 _symmetry_equiv_pos_site_id
 _symmetry_equiv_pos_as_xyz
  1  'x, y, z'
loop_
 _atom_site_type_symbol
 _atom_site_label
 _atom_site_symmetry_multiplicity
 _atom_site_fract_x
 _atom_site_fract_y
 _atom_site_fract_z
 _atom_site_occupancy
  Ta  Ta0  1  0.332554  0.667446  0.065408  1
  Nb  Nb1  1  0.332509  0.667491  0.434335  1
  Nb  Nb2  1  0.669718  0.330282  0.562884  1
  Nb  Nb3  1  0.669670  0.330330  0.937476  1
  Al  Al4  1  0.002310  0.997690  0.503334  1
  Al  Al5  1  0.002287  0.997713  0.996700  1
  Al  Al6  1  0.823597  0.176403  0.249888  1
  Zn  Zn7  1  0.826229  0.661703  0.249857  1
  Zn  Zn8  1  0.338297  0.173771  0.249857  1
  Zn  Zn9  1  0.173412  0.826588  0.750107  1
  Zn  Zn10  1  0.173666  0.344248  0.750077  1
  Zn  Zn11  1  0.655752  0.826334  0.750077  1
