# generated using pymatgen
data_SrLiNd3(FeO4)3
_symmetry_space_group_name_H-M   'P 1'
_cell_length_a   5.48594559
_cell_length_b   5.58470857
_cell_length_c   7.80825410
_cell_angle_alpha   89.43720148
_cell_angle_beta   90.11759624
_cell_angle_gamma   90.24702445
_symmetry_Int_Tables_number   1
_chemical_formula_structural   SrLiNd3(FeO4)3
_chemical_formula_sum   'Sr1 Li1 Nd3 Fe3 O12'
_cell_volume   239.21041441
_cell_formula_units_Z   1
loop_
 _symmetry_equiv_pos_site_id
 _symmetry_equiv_pos_as_xyz
  1  'x, y, z'
loop_
 _atom_site_type_symbol
 _atom_site_label
 _atom_site_symmetry_multiplicity
 _atom_site_fract_x
 _atom_site_fract_y
 _atom_site_fract_z
 _atom_site_occupancy
  Sr  Sr0  1  0.011208  0.958479  0.740409  1
  Li  Li1  1  0.999327  0.508540  0.502166  1
  Nd  Nd2  1  0.505197  0.543915  0.259215  1
  Nd  Nd3  1  0.489775  0.453606  0.740862  1
  Nd  Nd4  1  0.985441  0.056632  0.260499  1
  Fe  Fe5  1  0.500651  0.998297  0.498543  1
  Fe  Fe6  1  0.497817  0.997747  0.999393  1
  Fe  Fe7  1  0.999854  0.501979  0.000048  1
  O  O8  1  0.704805  0.272500  0.461143  1
  O  O9  1  0.238226  0.206670  0.524150  1
  O  O10  1  0.775825  0.795006  0.053958  1
  O  O11  1  0.290751  0.694506  0.958058  1
  O  O12  1  0.310251  0.717667  0.530438  1
  O  O13  1  0.768806  0.799092  0.455333  1
  O  O14  1  0.229390  0.210708  0.960709  1
  O  O15  1  0.721941  0.291745  0.052083  1
  O  O16  1  0.073799  0.488356  0.235508  1
  O  O17  1  0.565302  0.018133  0.759756  1
  O  O18  1  0.412682  0.981444  0.238854  1
  O  O19  1  0.918953  0.504979  0.768876  1
