# generated using pymatgen
data_YbTm2(GeRh2)3
_symmetry_space_group_name_H-M   'P 1'
_cell_length_a   5.59791300
_cell_length_b   5.59791287
_cell_length_c   15.42344300
_cell_angle_alpha   90.00000000
_cell_angle_beta   90.00000000
_cell_angle_gamma   119.99999488
_symmetry_Int_Tables_number   1
_chemical_formula_structural   YbTm2(GeRh2)3
_chemical_formula_sum   'Yb2 Tm4 Ge6 Rh12'
_cell_volume   418.56630634
_cell_formula_units_Z   2
loop_
 _symmetry_equiv_pos_site_id
 _symmetry_equiv_pos_as_xyz
  1  'x, y, z'
loop_
 _atom_site_type_symbol
 _atom_site_label
 _atom_site_symmetry_multiplicity
 _atom_site_fract_x
 _atom_site_fract_y
 _atom_site_fract_z
 _atom_site_occupancy
  Yb  Yb0  1  0.333333  0.666667  0.750000  1
  Yb  Yb1  1  0.666667  0.333333  0.250000  1
  Tm  Tm2  1  0.333333  0.666667  0.540985  1
  Tm  Tm3  1  0.666667  0.333333  0.459015  1
  Tm  Tm4  1  0.666667  0.333333  0.040985  1
  Tm  Tm5  1  0.333333  0.666667  0.959015  1
  Ge  Ge6  1  0.000000  0.000000  0.250000  1
  Ge  Ge7  1  0.000000  0.000000  0.750000  1
  Ge  Ge8  1  0.333333  0.666667  0.250000  1
  Ge  Ge9  1  0.666667  0.333333  0.750000  1
  Ge  Ge10  1  0.000000  0.000000  0.000000  1
  Ge  Ge11  1  0.000000  0.000000  0.500000  1
  Rh  Rh12  1  0.168777  0.337555  0.125604  1
  Rh  Rh13  1  0.831223  0.662445  0.874396  1
  Rh  Rh14  1  0.662445  0.831223  0.125604  1
  Rh  Rh15  1  0.831223  0.662445  0.625604  1
  Rh  Rh16  1  0.337555  0.168777  0.874396  1
  Rh  Rh17  1  0.168777  0.337555  0.374396  1
  Rh  Rh18  1  0.168777  0.831223  0.125604  1
  Rh  Rh19  1  0.337555  0.168777  0.625604  1
  Rh  Rh20  1  0.831223  0.168777  0.874396  1
  Rh  Rh21  1  0.662445  0.831223  0.374396  1
  Rh  Rh22  1  0.831223  0.168777  0.625604  1
  Rh  Rh23  1  0.168777  0.831223  0.374396  1
