# generated using pymatgen
data_Tm3Fe3Co5P6W
_symmetry_space_group_name_H-M   'P 1'
_cell_length_a   3.70570400
_cell_length_b   10.56464800
_cell_length_c   12.13650800
_cell_angle_alpha   90.00000000
_cell_angle_beta   90.00000000
_cell_angle_gamma   90.00000000
_symmetry_Int_Tables_number   1
_chemical_formula_structural   Tm3Fe3Co5P6W
_chemical_formula_sum   'Tm6 Fe6 Co10 P12 W2'
_cell_volume   475.13771449
_cell_formula_units_Z   2
loop_
 _symmetry_equiv_pos_site_id
 _symmetry_equiv_pos_as_xyz
  1  'x, y, z'
loop_
 _atom_site_type_symbol
 _atom_site_label
 _atom_site_symmetry_multiplicity
 _atom_site_fract_x
 _atom_site_fract_y
 _atom_site_fract_z
 _atom_site_occupancy
  Tm  Tm0  1  0.000000  0.500000  0.525493  1
  Tm  Tm1  1  0.500000  0.000000  0.474236  1
  Tm  Tm2  1  0.500000  0.820614  0.204966  1
  Tm  Tm3  1  0.500000  0.179386  0.204966  1
  Tm  Tm4  1  0.000000  0.679660  0.795298  1
  Tm  Tm5  1  0.000000  0.320340  0.795298  1
  Fe  Fe6  1  0.500000  0.332713  0.994093  1
  Fe  Fe7  1  0.500000  0.667287  0.994093  1
  Fe  Fe8  1  0.000000  0.167388  0.005671  1
  Fe  Fe9  1  0.000000  0.832612  0.005671  1
  Fe  Fe10  1  0.500000  0.295865  0.431275  1
  Fe  Fe11  1  0.500000  0.704135  0.431275  1
  Co  Co12  1  0.500000  0.500000  0.700578  1
  Co  Co13  1  0.000000  0.000000  0.299809  1
  Co  Co14  1  0.000000  0.500000  0.986290  1
  Co  Co15  1  0.500000  0.000000  0.013566  1
  Co  Co16  1  0.000000  0.203457  0.569988  1
  Co  Co17  1  0.000000  0.796543  0.569988  1
  Co  Co18  1  0.500000  0.878430  0.706809  1
  Co  Co19  1  0.500000  0.121570  0.706809  1
  Co  Co20  1  0.000000  0.621519  0.292728  1
  Co  Co21  1  0.000000  0.378481  0.292728  1
  P  P22  1  0.500000  0.500000  0.883079  1
  P  P23  1  0.000000  0.000000  0.117141  1
  P  P24  1  0.500000  0.500000  0.353059  1
  P  P25  1  0.000000  0.000000  0.647321  1
  P  P26  1  0.500000  0.310274  0.614807  1
  P  P27  1  0.500000  0.689726  0.614807  1
  P  P28  1  0.000000  0.191151  0.384325  1
  P  P29  1  0.000000  0.808849  0.384325  1
  P  P30  1  0.500000  0.841541  0.894041  1
  P  P31  1  0.500000  0.158459  0.894041  1
  P  P32  1  0.000000  0.658463  0.106071  1
  P  P33  1  0.000000  0.341537  0.106071  1
  W  W34  1  0.500000  0.500000  0.153799  1
  W  W35  1  0.000000  0.000000  0.845485  1
