# generated using pymatgen
data_Ba12NaLi3P4(Ru2O17)2
_symmetry_space_group_name_H-M   'P 1'
_cell_length_a   5.86927200
_cell_length_b   5.86927230
_cell_length_c   29.62474800
_cell_angle_alpha   90.00000000
_cell_angle_beta   90.00000000
_cell_angle_gamma   119.99999831
_symmetry_Int_Tables_number   1
_chemical_formula_structural   Ba12NaLi3P4(Ru2O17)2
_chemical_formula_sum   'Ba12 Na1 Li3 P4 Ru4 O34'
_cell_volume   883.79959673
_cell_formula_units_Z   1
loop_
 _symmetry_equiv_pos_site_id
 _symmetry_equiv_pos_as_xyz
  1  'x, y, z'
loop_
 _atom_site_type_symbol
 _atom_site_label
 _atom_site_symmetry_multiplicity
 _atom_site_fract_x
 _atom_site_fract_y
 _atom_site_fract_z
 _atom_site_occupancy
  Ba  Ba0  1  0.333333  0.666667  0.175354  1
  Ba  Ba1  1  0.333333  0.666667  0.587512  1
  Ba  Ba2  1  0.000000  0.000000  0.002854  1
  Ba  Ba3  1  0.000000  0.000000  0.250433  1
  Ba  Ba4  1  0.333333  0.666667  0.325887  1
  Ba  Ba5  1  0.000000  0.000000  0.500283  1
  Ba  Ba6  1  0.000000  0.000000  0.749758  1
  Ba  Ba7  1  0.333333  0.666667  0.911042  1
  Ba  Ba8  1  0.666667  0.333333  0.089018  1
  Ba  Ba9  1  0.666667  0.333333  0.820673  1
  Ba  Ba10  1  0.666667  0.333333  0.673755  1
  Ba  Ba11  1  0.666667  0.333333  0.412286  1
  Na  Na12  1  0.000000  0.000000  0.878471  1
  Li  Li13  1  0.000000  0.000000  0.137442  1
  Li  Li14  1  0.000000  0.000000  0.364181  1
  Li  Li15  1  0.000000  0.000000  0.636106  1
  P  P16  1  0.333333  0.666667  0.053931  1
  P  P17  1  0.333333  0.666667  0.445554  1
  P  P18  1  0.666667  0.333333  0.553635  1
  P  P19  1  0.666667  0.333333  0.947357  1
  Ru  Ru20  1  0.333333  0.666667  0.701226  1
  Ru  Ru21  1  0.333333  0.666667  0.795701  1
  Ru  Ru22  1  0.666667  0.333333  0.202927  1
  Ru  Ru23  1  0.666667  0.333333  0.297432  1
  O  O24  1  0.173354  0.826646  0.666719  1
  O  O25  1  0.175877  0.824123  0.830366  1
  O  O26  1  0.970352  0.485177  0.249977  1
  O  O27  1  0.188766  0.811234  0.072831  1
  O  O28  1  0.188644  0.811356  0.426698  1
  O  O29  1  0.514823  0.029648  0.249977  1
  O  O30  1  0.188766  0.377532  0.072831  1
  O  O31  1  0.173354  0.346707  0.666719  1
  O  O32  1  0.333333  0.666667  0.497664  1
  O  O33  1  0.333333  0.666667  0.001757  1
  O  O34  1  0.188644  0.377288  0.426698  1
  O  O35  1  0.175877  0.351753  0.830366  1
  O  O36  1  0.622468  0.811234  0.072831  1
  O  O37  1  0.622712  0.811356  0.426698  1
  O  O38  1  0.346550  0.173275  0.168092  1
  O  O39  1  0.346147  0.173074  0.331891  1
  O  O40  1  0.514823  0.485177  0.249977  1
  O  O41  1  0.485950  0.514050  0.748099  1
  O  O42  1  0.653293  0.826646  0.666719  1
  O  O43  1  0.648247  0.824123  0.830366  1
  O  O44  1  0.377340  0.188670  0.572301  1
  O  O45  1  0.377281  0.188640  0.928663  1
  O  O46  1  0.485950  0.971899  0.748099  1
  O  O47  1  0.666667  0.333333  0.501384  1
  O  O48  1  0.666667  0.333333  0.999470  1
  O  O49  1  0.826725  0.653450  0.168092  1
  O  O50  1  0.826926  0.653853  0.331891  1
  O  O51  1  0.811330  0.622660  0.572301  1
  O  O52  1  0.811360  0.622719  0.928663  1
  O  O53  1  0.811330  0.188670  0.572301  1
  O  O54  1  0.811360  0.188640  0.928663  1
  O  O55  1  0.028101  0.514050  0.748099  1
  O  O56  1  0.826725  0.173275  0.168092  1
  O  O57  1  0.826926  0.173074  0.331891  1
