# generated using pymatgen
data_RuPtI18
_symmetry_space_group_name_H-M   'P 1'
_cell_length_a   10.07130858
_cell_length_b   10.07130833
_cell_length_c   10.07130648
_cell_angle_alpha   92.08302084
_cell_angle_beta   92.08301124
_cell_angle_gamma   92.08301461
_symmetry_Int_Tables_number   1
_chemical_formula_structural   RuPtI18
_chemical_formula_sum   'Ru1 Pt1 I18'
_cell_volume   1019.46967851
_cell_formula_units_Z   1
loop_
 _symmetry_equiv_pos_site_id
 _symmetry_equiv_pos_as_xyz
  1  'x, y, z'
loop_
 _atom_site_type_symbol
 _atom_site_label
 _atom_site_symmetry_multiplicity
 _atom_site_fract_x
 _atom_site_fract_y
 _atom_site_fract_z
 _atom_site_occupancy
  Ru  Ru0  1  0.000000  0.000000  0.000000  1
  Pt  Pt1  1  0.500000  0.500000  0.500000  1
  I  I2  1  0.008838  0.733197  0.972225  1
  I  I3  1  0.972225  0.008838  0.733197  1
  I  I4  1  0.733197  0.972225  0.008838  1
  I  I5  1  0.991162  0.266803  0.027775  1
  I  I6  1  0.027775  0.991162  0.266803  1
  I  I7  1  0.266803  0.027775  0.991162  1
  I  I8  1  0.488118  0.769217  0.517523  1
  I  I9  1  0.517523  0.488118  0.769217  1
  I  I10  1  0.769217  0.517523  0.488118  1
  I  I11  1  0.511882  0.230783  0.482477  1
  I  I12  1  0.482477  0.511882  0.230783  1
  I  I13  1  0.230783  0.482477  0.511882  1
  I  I14  1  0.632901  0.116724  0.235424  1
  I  I15  1  0.235424  0.632901  0.116724  1
  I  I16  1  0.116724  0.235424  0.632901  1
  I  I17  1  0.367099  0.883276  0.764576  1
  I  I18  1  0.764576  0.367099  0.883276  1
  I  I19  1  0.883276  0.764576  0.367099  1
