# generated using pymatgen
data_Y4Ga21Pt10
_symmetry_space_group_name_H-M   'P 1'
_cell_length_a   11.07031576
_cell_length_b   11.07031628
_cell_length_c   16.20155097
_cell_angle_alpha   55.99072782
_cell_angle_beta   55.99072623
_cell_angle_gamma   22.03964969
_symmetry_Int_Tables_number   1
_chemical_formula_structural   Y4Ga21Pt10
_chemical_formula_sum   'Y4 Ga21 Pt10'
_cell_volume   612.26580605
_cell_formula_units_Z   1
loop_
 _symmetry_equiv_pos_site_id
 _symmetry_equiv_pos_as_xyz
  1  'x, y, z'
loop_
 _atom_site_type_symbol
 _atom_site_label
 _atom_site_symmetry_multiplicity
 _atom_site_fract_x
 _atom_site_fract_y
 _atom_site_fract_z
 _atom_site_occupancy
  Y  Y0  1  0.877058  0.877058  0.336126  1
  Y  Y1  1  0.122942  0.122942  0.663874  1
  Y  Y2  1  0.229199  0.229199  0.176228  1
  Y  Y3  1  0.770801  0.770801  0.823772  1
  Ga  Ga4  1  0.456623  0.456623  0.369665  1
  Ga  Ga5  1  0.543377  0.543377  0.630335  1
  Ga  Ga6  1  0.798933  0.798933  0.004123  1
  Ga  Ga7  1  0.201067  0.201067  0.995877  1
  Ga  Ga8  1  0.698945  0.698945  0.500325  1
  Ga  Ga9  1  0.301055  0.301055  0.499675  1
  Ga  Ga10  1  0.885714  0.885714  0.549516  1
  Ga  Ga11  1  0.114286  0.114286  0.450484  1
  Ga  Ga12  1  0.616312  0.616312  0.295856  1
  Ga  Ga13  1  0.383688  0.383688  0.704144  1
  Ga  Ga14  1  0.747766  0.747766  0.294260  1
  Ga  Ga15  1  0.252234  0.252234  0.705740  1
  Ga  Ga16  1  0.602296  0.602296  0.001683  1
  Ga  Ga17  1  0.397704  0.397704  0.998317  1
  Ga  Ga18  1  0.992506  0.992506  0.090054  1
  Ga  Ga19  1  0.007494  0.007494  0.909946  1
  Ga  Ga20  1  0.935291  0.935291  0.797996  1
  Ga  Ga21  1  0.064709  0.064709  0.202004  1
  Ga  Ga22  1  0.500000  0.500000  0.500000  1
  Ga  Ga23  1  0.370830  0.370830  0.198417  1
  Ga  Ga24  1  0.629170  0.629170  0.801583  1
  Pt  Pt25  1  0.494784  0.494784  0.185034  1
  Pt  Pt26  1  0.505216  0.505216  0.814966  1
  Pt  Pt27  1  0.865142  0.865142  0.105209  1
  Pt  Pt28  1  0.134858  0.134858  0.894791  1
  Pt  Pt29  1  0.750521  0.750521  0.615325  1
  Pt  Pt30  1  0.249479  0.249479  0.384675  1
  Pt  Pt31  1  0.655346  0.655346  0.111169  1
  Pt  Pt32  1  0.344654  0.344654  0.888831  1
  Pt  Pt33  1  0.974251  0.974251  0.613394  1
  Pt  Pt34  1  0.025749  0.025749  0.386606  1
