# generated using pymatgen
data_Zr6Co15Si7Ir
_symmetry_space_group_name_H-M   'P 1'
_cell_length_a   8.09972422
_cell_length_b   8.09972406
_cell_length_c   8.11905750
_cell_angle_alpha   60.07874000
_cell_angle_beta   60.07874385
_cell_angle_gamma   59.99999996
_symmetry_Int_Tables_number   1
_chemical_formula_structural   Zr6Co15Si7Ir
_chemical_formula_sum   'Zr6 Co15 Si7 Ir1'
_cell_volume   377.09167198
_cell_formula_units_Z   1
loop_
 _symmetry_equiv_pos_site_id
 _symmetry_equiv_pos_as_xyz
  1  'x, y, z'
loop_
 _atom_site_type_symbol
 _atom_site_label
 _atom_site_symmetry_multiplicity
 _atom_site_fract_x
 _atom_site_fract_y
 _atom_site_fract_z
 _atom_site_occupancy
  Zr  Zr0  1  0.707354  0.294091  0.291201  1
  Zr  Zr1  1  0.295266  0.295266  0.707546  1
  Zr  Zr2  1  0.295266  0.701922  0.707546  1
  Zr  Zr3  1  0.707354  0.707354  0.291201  1
  Zr  Zr4  1  0.294091  0.707354  0.291201  1
  Zr  Zr5  1  0.701922  0.295266  0.707546  1
  Co  Co6  1  0.672313  0.982302  0.673071  1
  Co  Co7  1  0.359371  0.878329  0.883970  1
  Co  Co8  1  0.016071  0.329916  0.324099  1
  Co  Co9  1  0.982302  0.672313  0.673071  1
  Co  Co10  1  0.326877  0.326877  0.019369  1
  Co  Co11  1  0.673413  0.673413  0.979759  1
  Co  Co12  1  0.640171  0.119986  0.119857  1
  Co  Co13  1  0.672313  0.672313  0.673071  1
  Co  Co14  1  0.879521  0.879521  0.361437  1
  Co  Co15  1  0.119986  0.119986  0.119857  1
  Co  Co16  1  0.878329  0.359371  0.883970  1
  Co  Co17  1  0.878329  0.878329  0.883970  1
  Co  Co18  1  0.329916  0.329916  0.324099  1
  Co  Co19  1  0.119986  0.640171  0.119857  1
  Co  Co20  1  0.329916  0.016071  0.324099  1
  Si  Si21  1  0.999294  0.500913  0.998879  1
  Si  Si22  1  0.999211  0.999211  0.495197  1
  Si  Si23  1  0.995785  0.995785  0.012646  1
  Si  Si24  1  0.500913  0.500913  0.998879  1
  Si  Si25  1  0.506381  0.999211  0.495197  1
  Si  Si26  1  0.500913  0.999294  0.998879  1
  Si  Si27  1  0.999211  0.506381  0.495197  1
  Ir  Ir28  1  0.118223  0.118223  0.645331  1
