# generated using pymatgen
data_Tb5EuDyPtI12
_symmetry_space_group_name_H-M   'P 1'
_cell_length_a   9.84696547
_cell_length_b   9.84656748
_cell_length_c   9.84692617
_cell_angle_alpha   106.64011940
_cell_angle_beta   106.60870789
_cell_angle_gamma   106.64482133
_symmetry_Int_Tables_number   1
_chemical_formula_structural   Tb5EuDyPtI12
_chemical_formula_sum   'Tb5 Eu1 Dy1 Pt1 I12'
_cell_volume   802.98640190
_cell_formula_units_Z   1
loop_
 _symmetry_equiv_pos_site_id
 _symmetry_equiv_pos_as_xyz
  1  'x, y, z'
loop_
 _atom_site_type_symbol
 _atom_site_label
 _atom_site_symmetry_multiplicity
 _atom_site_fract_x
 _atom_site_fract_y
 _atom_site_fract_z
 _atom_site_occupancy
  Tb  Tb0  1  0.300938  0.097154  0.024561  1
  Tb  Tb1  1  0.024569  0.300970  0.097366  1
  Tb  Tb2  1  0.902999  0.975518  0.699253  1
  Tb  Tb3  1  0.699131  0.902832  0.975688  1
  Tb  Tb4  1  0.975573  0.699131  0.903130  1
  Eu  Eu5  1  0.500025  0.500022  0.500039  1
  Dy  Dy6  1  0.096765  0.024555  0.299770  1
  Pt  Pt7  1  0.000050  0.000061  0.000122  1
  I  I8  1  0.073973  0.678429  0.224082  1
  I  I9  1  0.223218  0.073643  0.676765  1
  I  I10  1  0.677508  0.223583  0.073818  1
  I  I11  1  0.926196  0.322393  0.776509  1
  I  I12  1  0.777606  0.926509  0.322640  1
  I  I13  1  0.322470  0.776411  0.926165  1
  I  I14  1  0.453590  0.141675  0.375361  1
  I  I15  1  0.375327  0.454623  0.142058  1
  I  I16  1  0.142024  0.374503  0.454578  1
  I  I17  1  0.545420  0.857924  0.624688  1
  I  I18  1  0.624640  0.545365  0.857946  1
  I  I19  1  0.857979  0.624698  0.545461  1
