# generated using pymatgen
data_Pr2MnFe2RhO10
_symmetry_space_group_name_H-M   'P 1'
_cell_length_a   5.90048900
_cell_length_b   7.66077700
_cell_length_c   8.83391300
_cell_angle_alpha   90.00000000
_cell_angle_beta   90.00000000
_cell_angle_gamma   90.00000000
_symmetry_Int_Tables_number   1
_chemical_formula_structural   Pr2MnFe2RhO10
_chemical_formula_sum   'Pr4 Mn2 Fe4 Rh2 O20'
_cell_volume   399.31345433
_cell_formula_units_Z   2
loop_
 _symmetry_equiv_pos_site_id
 _symmetry_equiv_pos_as_xyz
  1  'x, y, z'
loop_
 _atom_site_type_symbol
 _atom_site_label
 _atom_site_symmetry_multiplicity
 _atom_site_fract_x
 _atom_site_fract_y
 _atom_site_fract_z
 _atom_site_occupancy
  Pr  Pr0  1  0.000928  0.636434  0.329426  1
  Pr  Pr1  1  0.000928  0.363566  0.670574  1
  Pr  Pr2  1  0.999072  0.136434  0.170574  1
  Pr  Pr3  1  0.999072  0.863566  0.829426  1
  Mn  Mn4  1  0.747813  0.500000  0.000000  1
  Mn  Mn5  1  0.252187  0.000000  0.500000  1
  Fe  Fe6  1  0.498158  0.890959  0.142307  1
  Fe  Fe7  1  0.498158  0.109041  0.857693  1
  Fe  Fe8  1  0.501842  0.390959  0.357693  1
  Fe  Fe9  1  0.501842  0.609041  0.642307  1
  Rh  Rh10  1  0.254645  0.500000  0.000000  1
  Rh  Rh11  1  0.745355  0.000000  0.500000  1
  O  O12  1  0.988827  0.659414  0.053923  1
  O  O13  1  0.988827  0.340586  0.946077  1
  O  O14  1  0.011173  0.159414  0.446077  1
  O  O15  1  0.011173  0.840586  0.553923  1
  O  O16  1  0.275997  0.500000  0.500000  1
  O  O17  1  0.724003  0.000000  0.000000  1
  O  O18  1  0.725752  0.500000  0.500000  1
  O  O19  1  0.274248  0.000000  0.000000  1
  O  O20  1  0.510404  0.656074  0.066380  1
  O  O21  1  0.510404  0.343926  0.933620  1
  O  O22  1  0.489596  0.156074  0.433620  1
  O  O23  1  0.489596  0.843926  0.566380  1
  O  O24  1  0.249424  0.901341  0.294420  1
  O  O25  1  0.249424  0.098659  0.705580  1
  O  O26  1  0.750576  0.401341  0.205580  1
  O  O27  1  0.750576  0.598659  0.794420  1
  O  O28  1  0.752431  0.100569  0.709600  1
  O  O29  1  0.752431  0.899431  0.290400  1
  O  O30  1  0.247569  0.600569  0.790400  1
  O  O31  1  0.247569  0.399431  0.209600  1
