# generated using pymatgen
data_Sc4Al2B4Ir3Rh7
_symmetry_space_group_name_H-M   'P 1'
_cell_length_a   9.37756672
_cell_length_b   3.05787100
_cell_length_c   9.38036072
_cell_angle_alpha   90.00000000
_cell_angle_beta   89.93061435
_cell_angle_gamma   90.00000000
_symmetry_Int_Tables_number   1
_chemical_formula_structural   Sc4Al2B4Ir3Rh7
_chemical_formula_sum   'Sc4 Al2 B4 Ir3 Rh7'
_cell_volume   268.98529836
_cell_formula_units_Z   1
loop_
 _symmetry_equiv_pos_site_id
 _symmetry_equiv_pos_as_xyz
  1  'x, y, z'
loop_
 _atom_site_type_symbol
 _atom_site_label
 _atom_site_symmetry_multiplicity
 _atom_site_fract_x
 _atom_site_fract_y
 _atom_site_fract_z
 _atom_site_occupancy
  Sc  Sc0  1  0.676532  0.000000  0.176253  1
  Sc  Sc1  1  0.174582  0.000000  0.324699  1
  Sc  Sc2  1  0.824529  0.000000  0.675112  1
  Sc  Sc3  1  0.322736  0.000000  0.823303  1
  Al  Al4  1  0.999338  0.000000  0.998451  1
  Al  Al5  1  0.499963  0.000000  0.500215  1
  B  B6  1  0.375099  0.000000  0.124462  1
  B  B7  1  0.876728  0.000000  0.375524  1
  B  B8  1  0.124158  0.000000  0.623589  1
  B  B9  1  0.624082  0.000000  0.875847  1
  Ir  Ir10  1  0.500643  0.500000  0.999432  1
  Ir  Ir11  1  0.215691  0.500000  0.070636  1
  Ir  Ir12  1  0.930106  0.500000  0.217090  1
  Rh  Rh13  1  0.429868  0.500000  0.284908  1
  Rh  Rh14  1  0.716312  0.500000  0.430172  1
  Rh  Rh15  1  0.999770  0.500000  0.501830  1
  Rh  Rh16  1  0.283555  0.500000  0.570644  1
  Rh  Rh17  1  0.571682  0.500000  0.715515  1
  Rh  Rh18  1  0.070186  0.500000  0.783446  1
  Rh  Rh19  1  0.784437  0.500000  0.928866  1
