# generated using pymatgen
data_Sm5ZnGaRu3
_symmetry_space_group_name_H-M   'P 1'
_cell_length_a   8.45855561
_cell_length_b   8.45855602
_cell_length_c   8.42029137
_cell_angle_alpha   109.49349563
_cell_angle_beta   109.46744120
_cell_angle_gamma   109.63616517
_symmetry_Int_Tables_number   1
_chemical_formula_structural   Sm5ZnGaRu3
_chemical_formula_sum   'Sm10 Zn2 Ga2 Ru6'
_cell_volume   462.71091249
_cell_formula_units_Z   2
loop_
 _symmetry_equiv_pos_site_id
 _symmetry_equiv_pos_as_xyz
  1  'x, y, z'
loop_
 _atom_site_type_symbol
 _atom_site_label
 _atom_site_symmetry_multiplicity
 _atom_site_fract_x
 _atom_site_fract_y
 _atom_site_fract_z
 _atom_site_occupancy
  Sm  Sm0  1  0.250660  0.684082  0.435959  1
  Sm  Sm1  1  0.748122  0.814700  0.064041  1
  Sm  Sm2  1  0.434840  0.251046  0.685894  1
  Sm  Sm3  1  0.684986  0.434986  0.250000  1
  Sm  Sm4  1  0.065153  0.748946  0.814106  1
  Sm  Sm5  1  0.815264  0.065264  0.750000  1
  Sm  Sm6  1  0.219865  0.219818  0.219228  1
  Sm  Sm7  1  0.500589  0.000637  0.280772  1
  Sm  Sm8  1  0.280614  0.499925  0.000068  1
  Sm  Sm9  1  0.999857  0.280546  0.499932  1
  Zn  Zn10  1  0.588883  0.588027  0.587873  1
  Zn  Zn11  1  0.500153  0.001009  0.912127  1
  Ga  Ga12  1  0.910981  0.501102  0.001064  1
  Ga  Ga13  1  0.000038  0.909916  0.498936  1
  Ru  Ru14  1  0.244873  0.123578  0.871809  1
  Ru  Ru15  1  0.751769  0.373064  0.628191  1
  Ru  Ru16  1  0.880078  0.255244  0.126358  1
  Ru  Ru17  1  0.122797  0.872796  0.250000  1
  Ru  Ru18  1  0.628886  0.753721  0.373642  1
  Ru  Ru19  1  0.371591  0.621591  0.750000  1
