# generated using pymatgen
data_Hf16Co4Re3Tc
_symmetry_space_group_name_H-M   'P 1'
_cell_length_a   8.62731173
_cell_length_b   8.62353456
_cell_length_c   8.62345900
_cell_angle_alpha   59.99866577
_cell_angle_beta   60.01365093
_cell_angle_gamma   60.01373326
_symmetry_Int_Tables_number   1
_chemical_formula_structural   Hf16Co4Re3Tc
_chemical_formula_sum   'Hf16 Co4 Re3 Tc1'
_cell_volume   453.74596034
_cell_formula_units_Z   1
loop_
 _symmetry_equiv_pos_site_id
 _symmetry_equiv_pos_as_xyz
  1  'x, y, z'
loop_
 _atom_site_type_symbol
 _atom_site_label
 _atom_site_symmetry_multiplicity
 _atom_site_fract_x
 _atom_site_fract_y
 _atom_site_fract_z
 _atom_site_occupancy
  Hf  Hf0  1  0.697195  0.100923  0.100935  1
  Hf  Hf1  1  0.101228  0.697533  0.100614  1
  Hf  Hf2  1  0.101232  0.100602  0.697539  1
  Hf  Hf3  1  0.101234  0.100613  0.100619  1
  Hf  Hf4  1  0.314482  0.314717  0.685401  1
  Hf  Hf5  1  0.684896  0.685717  0.314691  1
  Hf  Hf6  1  0.314485  0.685401  0.314710  1
  Hf  Hf7  1  0.684890  0.314695  0.685719  1
  Hf  Hf8  1  0.684893  0.314696  0.314694  1
  Hf  Hf9  1  0.314484  0.685396  0.685404  1
  Hf  Hf10  1  0.954261  0.953489  0.546135  1
  Hf  Hf11  1  0.545853  0.545884  0.954130  1
  Hf  Hf12  1  0.954254  0.546135  0.953496  1
  Hf  Hf13  1  0.545856  0.954126  0.545888  1
  Hf  Hf14  1  0.545871  0.954129  0.954126  1
  Hf  Hf15  1  0.954261  0.546124  0.546120  1
  Co  Co16  1  0.329149  0.890285  0.890285  1
  Co  Co17  1  0.890343  0.329400  0.890130  1
  Co  Co18  1  0.890343  0.890128  0.329399  1
  Co  Co19  1  0.890342  0.890125  0.890127  1
  Re  Re20  1  0.333014  0.002276  0.332355  1
  Re  Re21  1  0.333015  0.332370  0.002256  1
  Re  Re22  1  0.333017  0.332365  0.332361  1
  Tc  Tc23  1  0.001400  0.332870  0.332866  1
