# generated using pymatgen
data_CaNd3(ReC2)2
_symmetry_space_group_name_H-M   'P 1'
_cell_length_a   5.32399300
_cell_length_b   6.65749600
_cell_length_c   10.40002600
_cell_angle_alpha   90.00000000
_cell_angle_beta   90.00000000
_cell_angle_gamma   90.00000000
_symmetry_Int_Tables_number   1
_chemical_formula_structural   CaNd3(ReC2)2
_chemical_formula_sum   'Ca2 Nd6 Re4 C8'
_cell_volume   368.62332741
_cell_formula_units_Z   2
loop_
 _symmetry_equiv_pos_site_id
 _symmetry_equiv_pos_as_xyz
  1  'x, y, z'
loop_
 _atom_site_type_symbol
 _atom_site_label
 _atom_site_symmetry_multiplicity
 _atom_site_fract_x
 _atom_site_fract_y
 _atom_site_fract_z
 _atom_site_occupancy
  Ca  Ca0  1  0.250000  0.468294  0.777912  1
  Ca  Ca1  1  0.750000  0.031706  0.277912  1
  Nd  Nd2  1  0.250000  0.970138  0.721514  1
  Nd  Nd3  1  0.750000  0.529862  0.221514  1
  Nd  Nd4  1  0.250000  0.807745  0.050337  1
  Nd  Nd5  1  0.750000  0.692255  0.550337  1
  Nd  Nd6  1  0.250000  0.305403  0.449265  1
  Nd  Nd7  1  0.750000  0.194597  0.949265  1
  Re  Re8  1  0.250000  0.270302  0.144735  1
  Re  Re9  1  0.750000  0.229698  0.644735  1
  Re  Re10  1  0.250000  0.771912  0.354818  1
  Re  Re11  1  0.750000  0.728088  0.854818  1
  C  C12  1  0.250000  0.701959  0.532528  1
  C  C13  1  0.750000  0.798041  0.032528  1
  C  C14  1  0.250000  0.186329  0.968497  1
  C  C15  1  0.750000  0.313671  0.468497  1
  C  C16  1  0.250000  0.034823  0.258296  1
  C  C17  1  0.750000  0.465177  0.758296  1
  C  C18  1  0.250000  0.534312  0.242098  1
  C  C19  1  0.750000  0.965688  0.742098  1
