# generated using pymatgen
data_Er3Tm17(Bi2Au)4
_symmetry_space_group_name_H-M   'P 1'
_cell_length_a   7.97509712
_cell_length_b   9.23625400
_cell_length_c   12.05867819
_cell_angle_alpha   90.00000000
_cell_angle_beta   89.97985213
_cell_angle_gamma   90.00000000
_symmetry_Int_Tables_number   1
_chemical_formula_structural   Er3Tm17(Bi2Au)4
_chemical_formula_sum   'Er3 Tm17 Bi8 Au4'
_cell_volume   888.24245409
_cell_formula_units_Z   1
loop_
 _symmetry_equiv_pos_site_id
 _symmetry_equiv_pos_as_xyz
  1  'x, y, z'
loop_
 _atom_site_type_symbol
 _atom_site_label
 _atom_site_symmetry_multiplicity
 _atom_site_fract_x
 _atom_site_fract_y
 _atom_site_fract_z
 _atom_site_occupancy
  Er  Er0  1  0.865493  0.750000  0.797387  1
  Er  Er1  1  0.365560  0.250000  0.702553  1
  Er  Er2  1  0.134481  0.250000  0.202600  1
  Tm  Tm3  1  0.820176  0.553574  0.065212  1
  Tm  Tm4  1  0.679779  0.946446  0.565114  1
  Tm  Tm5  1  0.179739  0.053483  0.934857  1
  Tm  Tm6  1  0.320273  0.446545  0.434818  1
  Tm  Tm7  1  0.179739  0.446517  0.934857  1
  Tm  Tm8  1  0.320273  0.053455  0.434818  1
  Tm  Tm9  1  0.820176  0.946426  0.065212  1
  Tm  Tm10  1  0.679779  0.553554  0.565114  1
  Tm  Tm11  1  0.174845  0.750000  0.218640  1
  Tm  Tm12  1  0.325203  0.750000  0.718557  1
  Tm  Tm13  1  0.825215  0.250000  0.781391  1
  Tm  Tm14  1  0.674858  0.250000  0.281384  1
  Tm  Tm15  1  0.457175  0.750000  0.001863  1
  Tm  Tm16  1  0.042828  0.750000  0.501807  1
  Tm  Tm17  1  0.542908  0.250000  0.998225  1
  Tm  Tm18  1  0.957069  0.250000  0.498171  1
  Tm  Tm19  1  0.634301  0.750000  0.297631  1
  Bi  Bi20  1  0.934150  0.510497  0.326362  1
  Bi  Bi21  1  0.565697  0.989582  0.826357  1
  Bi  Bi22  1  0.065707  0.010411  0.673634  1
  Bi  Bi23  1  0.434379  0.489684  0.173657  1
  Bi  Bi24  1  0.065707  0.489589  0.673634  1
  Bi  Bi25  1  0.434379  0.010316  0.173657  1
  Bi  Bi26  1  0.934150  0.989503  0.326362  1
  Bi  Bi27  1  0.565697  0.510418  0.826357  1
  Au  Au28  1  0.409268  0.750000  0.483487  1
  Au  Au29  1  0.091034  0.750000  0.983651  1
  Au  Au30  1  0.590978  0.250000  0.516321  1
  Au  Au31  1  0.908978  0.250000  0.016312  1
