# generated using pymatgen
data_Gd3ErTmPb3
_symmetry_space_group_name_H-M   'P 1'
_cell_length_a   9.05287100
_cell_length_b   9.05287052
_cell_length_c   6.62020300
_cell_angle_alpha   90.00000000
_cell_angle_beta   90.00000000
_cell_angle_gamma   119.99999809
_symmetry_Int_Tables_number   1
_chemical_formula_structural   Gd3ErTmPb3
_chemical_formula_sum   'Gd6 Er2 Tm2 Pb6'
_cell_volume   469.86661393
_cell_formula_units_Z   2
loop_
 _symmetry_equiv_pos_site_id
 _symmetry_equiv_pos_as_xyz
  1  'x, y, z'
loop_
 _atom_site_type_symbol
 _atom_site_label
 _atom_site_symmetry_multiplicity
 _atom_site_fract_x
 _atom_site_fract_y
 _atom_site_fract_z
 _atom_site_occupancy
  Gd  Gd0  1  0.760736  0.760736  0.748701  1
  Gd  Gd1  1  0.239264  0.000000  0.748701  1
  Gd  Gd2  1  0.000000  0.239264  0.748701  1
  Gd  Gd3  1  0.239264  0.239264  0.251299  1
  Gd  Gd4  1  0.760736  0.000000  0.251299  1
  Gd  Gd5  1  0.000000  0.760736  0.251299  1
  Er  Er6  1  0.333333  0.666667  0.500000  1
  Er  Er7  1  0.666667  0.333333  0.500000  1
  Tm  Tm8  1  0.666667  0.333333  0.000000  1
  Tm  Tm9  1  0.333333  0.666667  0.000000  1
  Pb  Pb10  1  0.398652  0.398652  0.750214  1
  Pb  Pb11  1  0.601348  0.000000  0.750214  1
  Pb  Pb12  1  0.000000  0.601348  0.750214  1
  Pb  Pb13  1  0.601348  0.601348  0.249786  1
  Pb  Pb14  1  0.398652  0.000000  0.249786  1
  Pb  Pb15  1  0.000000  0.398652  0.249786  1
