# generated using pymatgen
data_Nd8Zn3Hg3Au20
_symmetry_space_group_name_H-M   'P 1'
_cell_length_a   8.59978070
_cell_length_b   8.59978139
_cell_length_c   10.21806300
_cell_angle_alpha   90.10949109
_cell_angle_beta   89.89050890
_cell_angle_gamma   107.95975170
_symmetry_Int_Tables_number   1
_chemical_formula_structural   Nd8Zn3Hg3Au20
_chemical_formula_sum   'Nd8 Zn3 Hg3 Au20'
_cell_volume   718.86524035
_cell_formula_units_Z   1
loop_
 _symmetry_equiv_pos_site_id
 _symmetry_equiv_pos_as_xyz
  1  'x, y, z'
loop_
 _atom_site_type_symbol
 _atom_site_label
 _atom_site_symmetry_multiplicity
 _atom_site_fract_x
 _atom_site_fract_y
 _atom_site_fract_z
 _atom_site_occupancy
  Nd  Nd0  1  0.702447  0.300355  0.996029  1
  Nd  Nd1  1  0.295850  0.699615  0.997021  1
  Nd  Nd2  1  0.800355  0.202447  0.503971  1
  Nd  Nd3  1  0.199615  0.795850  0.502979  1
  Nd  Nd4  1  0.301773  0.302965  0.206597  1
  Nd  Nd5  1  0.698565  0.700472  0.797076  1
  Nd  Nd6  1  0.200472  0.198565  0.702924  1
  Nd  Nd7  1  0.802965  0.801773  0.293403  1
  Zn  Zn8  1  0.519752  0.019752  0.250000  1
  Zn  Zn9  1  0.001050  0.001402  0.008699  1
  Zn  Zn10  1  0.501402  0.501050  0.491301  1
  Hg  Hg11  1  0.022629  0.522629  0.250000  1
  Hg  Hg12  1  0.978361  0.478361  0.750000  1
  Hg  Hg13  1  0.478396  0.978396  0.750000  1
  Au  Au14  1  0.096163  0.095947  0.405788  1
  Au  Au15  1  0.901396  0.902201  0.593286  1
  Au  Au16  1  0.402201  0.401396  0.906714  1
  Au  Au17  1  0.595947  0.596163  0.094212  1
  Au  Au18  1  0.882727  0.164061  0.210589  1
  Au  Au19  1  0.103182  0.839274  0.795993  1
  Au  Au20  1  0.599688  0.336683  0.701457  1
  Au  Au21  1  0.664061  0.382727  0.289411  1
  Au  Au22  1  0.397463  0.679816  0.289259  1
  Au  Au23  1  0.339274  0.603182  0.704007  1
  Au  Au24  1  0.836683  0.099688  0.798543  1
  Au  Au25  1  0.179816  0.897463  0.210741  1
  Au  Au26  1  0.931122  0.673412  0.023615  1
  Au  Au27  1  0.068204  0.327050  0.980391  1
  Au  Au28  1  0.568962  0.835786  0.517205  1
  Au  Au29  1  0.173412  0.431122  0.476385  1
  Au  Au30  1  0.434381  0.158850  0.468161  1
  Au  Au31  1  0.827050  0.568204  0.519609  1
  Au  Au32  1  0.335786  0.068962  0.982795  1
  Au  Au33  1  0.658850  0.934381  0.031839  1
