# generated using pymatgen
data_Sc8Al14GaRu7
_symmetry_space_group_name_H-M   'P 1'
_cell_length_a   8.86495820
_cell_length_b   8.86495832
_cell_length_c   8.86495800
_cell_angle_alpha   120.10602309
_cell_angle_beta   120.01271709
_cell_angle_gamma   89.89721997
_symmetry_Int_Tables_number   1
_chemical_formula_structural   Sc8Al14GaRu7
_chemical_formula_sum   'Sc8 Al14 Ga1 Ru7'
_cell_volume   492.18009607
_cell_formula_units_Z   1
loop_
 _symmetry_equiv_pos_site_id
 _symmetry_equiv_pos_as_xyz
  1  'x, y, z'
loop_
 _atom_site_type_symbol
 _atom_site_label
 _atom_site_symmetry_multiplicity
 _atom_site_fract_x
 _atom_site_fract_y
 _atom_site_fract_z
 _atom_site_occupancy
  Sc  Sc0  1  0.791818  0.283475  0.069375  1
  Sc  Sc1  1  0.214100  0.283475  0.491657  1
  Sc  Sc2  1  0.207133  0.707133  0.500000  1
  Sc  Sc3  1  0.214100  0.722444  0.930625  1
  Sc  Sc4  1  0.791818  0.722444  0.508343  1
  Sc  Sc5  1  0.776982  0.276982  0.500000  1
  Sc  Sc6  1  0.379157  0.116134  0.736977  1
  Sc  Sc7  1  0.379157  0.642181  0.263023  1
  Al  Al8  1  0.161565  0.336346  0.174780  1
  Al  Al9  1  0.161565  0.986784  0.825220  1
  Al  Al10  1  0.157867  0.340903  0.816962  1
  Al  Al11  1  0.523941  0.340903  0.183038  1
  Al  Al12  1  0.839585  0.661530  0.821947  1
  Al  Al13  1  0.839585  0.017638  0.178053  1
  Al  Al14  1  0.840591  0.660588  0.180002  1
  Al  Al15  1  0.480587  0.660588  0.819998  1
  Al  Al16  1  0.373729  0.122516  0.251212  1
  Al  Al17  1  0.871305  0.122516  0.748788  1
  Al  Al18  1  0.621541  0.871582  0.250040  1
  Al  Al19  1  0.621541  0.371501  0.749960  1
  Al  Al20  1  0.622535  0.877877  0.744658  1
  Al  Al21  1  0.133218  0.877877  0.255342  1
  Ga  Ga22  1  0.993622  0.493622  0.500000  1
  Ru  Ru23  1  0.992422  0.998304  0.496404  1
  Ru  Ru24  1  0.501900  0.998304  0.005882  1
  Ru  Ru25  1  0.502754  0.502754  0.000000  1
  Ru  Ru26  1  0.501900  0.496018  0.503596  1
  Ru  Ru27  1  0.992422  0.496018  0.994118  1
  Ru  Ru28  1  0.999178  0.999178  0.000000  1
  Ru  Ru29  1  0.512383  0.012383  0.500000  1
