# generated using pymatgen
data_YEr(BiO4)2
_symmetry_space_group_name_H-M   'P 1'
_cell_length_a   5.51473293
_cell_length_b   7.85565965
_cell_length_c   7.82290700
_cell_angle_alpha   82.96355877
_cell_angle_beta   90.46668448
_cell_angle_gamma   92.39677843
_symmetry_Int_Tables_number   1
_chemical_formula_structural   YEr(BiO4)2
_chemical_formula_sum   'Y2 Er2 Bi4 O16'
_cell_volume   336.05464736
_cell_formula_units_Z   2
loop_
 _symmetry_equiv_pos_site_id
 _symmetry_equiv_pos_as_xyz
  1  'x, y, z'
loop_
 _atom_site_type_symbol
 _atom_site_label
 _atom_site_symmetry_multiplicity
 _atom_site_fract_x
 _atom_site_fract_y
 _atom_site_fract_z
 _atom_site_occupancy
  Y  Y0  1  0.255129  0.124907  0.621610  1
  Y  Y1  1  0.744871  0.875093  0.378390  1
  Er  Er2  1  0.217186  0.151508  0.116891  1
  Er  Er3  1  0.782814  0.848492  0.883109  1
  Bi  Bi4  1  0.239667  0.663826  0.181329  1
  Bi  Bi5  1  0.760333  0.336174  0.818671  1
  Bi  Bi6  1  0.724623  0.337326  0.320451  1
  Bi  Bi7  1  0.275377  0.662674  0.679549  1
  O  O8  1  0.090470  0.418584  0.675608  1
  O  O9  1  0.909530  0.581416  0.324392  1
  O  O10  1  0.581689  0.321519  0.572834  1
  O  O11  1  0.418311  0.678481  0.427166  1
  O  O12  1  0.901204  0.328559  0.074463  1
  O  O13  1  0.098796  0.671441  0.925537  1
  O  O14  1  0.394103  0.417502  0.185223  1
  O  O15  1  0.605897  0.582498  0.814777  1
  O  O16  1  0.034427  0.894956  0.166694  1
  O  O17  1  0.965573  0.105044  0.833306  1
  O  O18  1  0.499742  0.103270  0.323256  1
  O  O19  1  0.500258  0.896730  0.676744  1
  O  O20  1  0.453951  0.179973  0.888471  1
  O  O21  1  0.546049  0.820027  0.111529  1
  O  O22  1  0.995622  0.157066  0.387776  1
  O  O23  1  0.004378  0.842934  0.612224  1
