# generated using pymatgen
data_Er8Th4Co3Tc
_symmetry_space_group_name_H-M   'P 1'
_cell_length_a   6.26352644
_cell_length_b   6.98897019
_cell_length_c   9.51056100
_cell_angle_alpha   90.00000000
_cell_angle_beta   90.00000000
_cell_angle_gamma   90.01199511
_symmetry_Int_Tables_number   1
_chemical_formula_structural   Er8Th4Co3Tc
_chemical_formula_sum   'Er8 Th4 Co3 Tc1'
_cell_volume   416.33050104
_cell_formula_units_Z   1
loop_
 _symmetry_equiv_pos_site_id
 _symmetry_equiv_pos_as_xyz
  1  'x, y, z'
loop_
 _atom_site_type_symbol
 _atom_site_label
 _atom_site_symmetry_multiplicity
 _atom_site_fract_x
 _atom_site_fract_y
 _atom_site_fract_z
 _atom_site_occupancy
  Er  Er0  1  0.328707  0.667997  0.066848  1
  Er  Er1  1  0.172302  0.178926  0.434481  1
  Er  Er2  1  0.673050  0.327853  0.572203  1
  Er  Er3  1  0.833334  0.827211  0.930822  1
  Er  Er4  1  0.673050  0.327853  0.927797  1
  Er  Er5  1  0.833334  0.827211  0.569178  1
  Er  Er6  1  0.328707  0.667997  0.433152  1
  Er  Er7  1  0.172302  0.178926  0.065519  1
  Th  Th8  1  0.841219  0.545808  0.250000  1
  Th  Th9  1  0.638658  0.050406  0.250000  1
  Th  Th10  1  0.162152  0.446392  0.750000  1
  Th  Th11  1  0.346006  0.947891  0.750000  1
  Co  Co12  1  0.467077  0.369936  0.250000  1
  Co  Co13  1  0.969078  0.129770  0.750000  1
  Co  Co14  1  0.536753  0.630725  0.750000  1
  Tc  Tc15  1  0.024270  0.875101  0.250000  1
