# generated using pymatgen
data_Dy2Y13Th(CdPt)4
_symmetry_space_group_name_H-M   'P 1'
_cell_length_a   9.72960495
_cell_length_b   9.73594915
_cell_length_c   9.73595030
_cell_angle_alpha   60.19453180
_cell_angle_beta   60.17846901
_cell_angle_gamma   60.17846587
_symmetry_Int_Tables_number   1
_chemical_formula_structural   Dy2Y13Th(CdPt)4
_chemical_formula_sum   'Dy2 Y13 Th1 Cd4 Pt4'
_cell_volume   654.84872053
_cell_formula_units_Z   1
loop_
 _symmetry_equiv_pos_site_id
 _symmetry_equiv_pos_as_xyz
  1  'x, y, z'
loop_
 _atom_site_type_symbol
 _atom_site_label
 _atom_site_symmetry_multiplicity
 _atom_site_fract_x
 _atom_site_fract_y
 _atom_site_fract_z
 _atom_site_occupancy
  Dy  Dy0  1  0.353580  0.353618  0.939877  1
  Dy  Dy1  1  0.353580  0.939877  0.353618  1
  Y  Y2  1  0.938106  0.354315  0.354315  1
  Y  Y3  1  0.812320  0.189297  0.189297  1
  Y  Y4  1  0.190910  0.810511  0.810511  1
  Y  Y5  1  0.189566  0.812316  0.189362  1
  Y  Y6  1  0.810636  0.190599  0.810690  1
  Y  Y7  1  0.189566  0.189362  0.812316  1
  Y  Y8  1  0.810636  0.810690  0.190599  1
  Y  Y9  1  0.936453  0.565999  0.565999  1
  Y  Y10  1  0.563389  0.937045  0.937045  1
  Y  Y11  1  0.565399  0.936498  0.565800  1
  Y  Y12  1  0.936951  0.563887  0.936501  1
  Y  Y13  1  0.565399  0.565800  0.936498  1
  Y  Y14  1  0.936951  0.936501  0.563887  1
  Th  Th15  1  0.348987  0.349223  0.349223  1
  Cd  Cd16  1  0.581717  0.581730  0.581730  1
  Cd  Cd17  1  0.582409  0.582576  0.252634  1
  Cd  Cd18  1  0.582409  0.252634  0.582576  1
  Cd  Cd19  1  0.252697  0.582467  0.582467  1
  Pt  Pt20  1  0.145413  0.143942  0.143942  1
  Pt  Pt21  1  0.142047  0.140519  0.569321  1
  Pt  Pt22  1  0.142047  0.569321  0.140519  1
  Pt  Pt23  1  0.568830  0.141272  0.141272  1
