# generated using pymatgen
data_Cs2Na2PtO4
_symmetry_space_group_name_H-M   'P 1'
_cell_length_a   6.75407948
_cell_length_b   6.75408014
_cell_length_c   9.71523832
_cell_angle_alpha   77.48398109
_cell_angle_beta   77.48398066
_cell_angle_gamma   52.65893977
_symmetry_Int_Tables_number   1
_chemical_formula_structural   Cs2Na2PtO4
_chemical_formula_sum   'Cs4 Na4 Pt2 O8'
_cell_volume   341.89466694
_cell_formula_units_Z   2
loop_
 _symmetry_equiv_pos_site_id
 _symmetry_equiv_pos_as_xyz
  1  'x, y, z'
loop_
 _atom_site_type_symbol
 _atom_site_label
 _atom_site_symmetry_multiplicity
 _atom_site_fract_x
 _atom_site_fract_y
 _atom_site_fract_z
 _atom_site_occupancy
  Cs  Cs0  1  0.665009  0.665009  0.139211  1
  Cs  Cs1  1  0.334991  0.334991  0.860789  1
  Cs  Cs2  1  0.669744  0.669744  0.755858  1
  Cs  Cs3  1  0.330256  0.330256  0.244142  1
  Na  Na4  1  0.974744  0.974744  0.655493  1
  Na  Na5  1  0.783273  0.783273  0.426006  1
  Na  Na6  1  0.025256  0.025256  0.344507  1
  Na  Na7  1  0.216727  0.216727  0.573994  1
  Pt  Pt8  1  0.000000  0.000000  0.000000  1
  Pt  Pt9  1  0.500000  0.500000  0.500000  1
  O  O10  1  0.386482  0.851246  0.467046  1
  O  O11  1  0.148754  0.613518  0.532954  1
  O  O12  1  0.874520  0.874520  0.906464  1
  O  O13  1  0.892986  0.892986  0.189417  1
  O  O14  1  0.613518  0.148754  0.532954  1
  O  O15  1  0.125480  0.125480  0.093536  1
  O  O16  1  0.107014  0.107014  0.810583  1
  O  O17  1  0.851246  0.386482  0.467046  1
