# generated using pymatgen
data_Cd3(IN)4
_symmetry_space_group_name_H-M   'P 1'
_cell_length_a   7.53175503
_cell_length_b   9.91173944
_cell_length_c   10.48481722
_cell_angle_alpha   116.30523546
_cell_angle_beta   118.68841116
_cell_angle_gamma   93.80267457
_symmetry_Int_Tables_number   1
_chemical_formula_structural   Cd3(IN)4
_chemical_formula_sum   'Cd3 I4 N4'
_cell_volume   575.47578596
_cell_formula_units_Z   1
loop_
 _symmetry_equiv_pos_site_id
 _symmetry_equiv_pos_as_xyz
  1  'x, y, z'
loop_
 _atom_site_type_symbol
 _atom_site_label
 _atom_site_symmetry_multiplicity
 _atom_site_fract_x
 _atom_site_fract_y
 _atom_site_fract_z
 _atom_site_occupancy
  Cd  Cd0  1  0.751825  0.500023  0.001733  1
  Cd  Cd1  1  0.248175  0.499977  0.998267  1
  Cd  Cd2  1  0.500000  0.000000  0.500000  1
  I  I3  1  0.696791  0.670733  0.274228  1
  I  I4  1  0.303209  0.329267  0.725772  1
  I  I5  1  0.013897  0.307231  0.044415  1
  I  I6  1  0.986103  0.692769  0.955585  1
  N  N7  1  0.403697  0.775141  0.735407  1
  N  N8  1  0.596303  0.224859  0.264593  1
  N  N9  1  0.302306  0.751962  0.602951  1
  N  N10  1  0.697694  0.248038  0.397049  1
