# generated using pymatgen
data_Tb2Si2Os2C
_symmetry_space_group_name_H-M   'P 1'
_cell_length_a   5.82773322
_cell_length_b   5.82773323
_cell_length_c   6.86549811
_cell_angle_alpha   125.69199073
_cell_angle_beta   125.69199261
_cell_angle_gamma   41.05418920
_symmetry_Int_Tables_number   1
_chemical_formula_structural   Tb2Si2Os2C
_chemical_formula_sum   'Tb2 Si2 Os2 C1'
_cell_volume   119.79088279
_cell_formula_units_Z   1
loop_
 _symmetry_equiv_pos_site_id
 _symmetry_equiv_pos_as_xyz
  1  'x, y, z'
loop_
 _atom_site_type_symbol
 _atom_site_label
 _atom_site_symmetry_multiplicity
 _atom_site_fract_x
 _atom_site_fract_y
 _atom_site_fract_z
 _atom_site_occupancy
  Tb  Tb0  1  0.435919  0.435919  0.170075  1
  Tb  Tb1  1  0.564081  0.564081  0.829925  1
  Si  Si2  1  0.847904  0.847904  0.394977  1
  Si  Si3  1  0.152096  0.152096  0.605023  1
  Os  Os4  1  0.206636  0.206636  0.308605  1
  Os  Os5  1  0.793363  0.793363  0.691395  1
  C  C6  1  0.000000  0.000000  0.000000  1
