# generated using pymatgen
data_Ba2ThU3F18
_symmetry_space_group_name_H-M   'P 1'
_cell_length_a   7.17783046
_cell_length_b   7.17178241
_cell_length_c   9.01293041
_cell_angle_alpha   79.01918138
_cell_angle_beta   78.65445872
_cell_angle_gamma   60.86341963
_symmetry_Int_Tables_number   1
_chemical_formula_structural   Ba2ThU3F18
_chemical_formula_sum   'Ba2 Th1 U3 F18'
_cell_volume   394.90075034
_cell_formula_units_Z   1
loop_
 _symmetry_equiv_pos_site_id
 _symmetry_equiv_pos_as_xyz
  1  'x, y, z'
loop_
 _atom_site_type_symbol
 _atom_site_label
 _atom_site_symmetry_multiplicity
 _atom_site_fract_x
 _atom_site_fract_y
 _atom_site_fract_z
 _atom_site_occupancy
  Ba  Ba0  1  0.584947  0.351072  0.403355  1
  Ba  Ba1  1  0.355296  0.585703  0.898680  1
  Th  Th2  1  0.897057  0.704216  0.313231  1
  U  U3  1  0.290890  0.094706  0.189109  1
  U  U4  1  0.095349  0.287457  0.694209  1
  U  U5  1  0.704816  0.896901  0.813117  1
  F  F6  1  0.080535  0.911514  0.251809  1
  F  F7  1  0.913056  0.082053  0.750888  1
  F  F8  1  0.928368  0.382664  0.237778  1
  F  F9  1  0.629951  0.057257  0.254440  1
  F  F10  1  0.059231  0.625613  0.756493  1
  F  F11  1  0.379563  0.929332  0.737134  1
  F  F12  1  0.163584  0.536826  0.476636  1
  F  F13  1  0.477201  0.812992  0.027929  1
  F  F14  1  0.816158  0.481300  0.523214  1
  F  F15  1  0.531559  0.166860  0.980117  1
  F  F16  1  0.908706  0.768305  0.043005  1
  F  F17  1  0.227474  0.142238  0.451065  1
  F  F18  1  0.136147  0.225612  0.955266  1
  F  F19  1  0.769443  0.907791  0.530336  1
  F  F20  1  0.543402  0.744695  0.318508  1
  F  F21  1  0.262329  0.458312  0.190464  1
  F  F22  1  0.453676  0.266312  0.689456  1
  F  F23  1  0.747861  0.536869  0.816154  1
