# generated using pymatgen
data_Tb2ZnGaFe4
_symmetry_space_group_name_H-M   'P 1'
_cell_length_a   4.96322000
_cell_length_b   3.94177500
_cell_length_c   6.93763400
_cell_angle_alpha   90.00000000
_cell_angle_beta   90.00000000
_cell_angle_gamma   90.00000000
_symmetry_Int_Tables_number   1
_chemical_formula_structural   Tb2ZnGaFe4
_chemical_formula_sum   'Tb2 Zn1 Ga1 Fe4'
_cell_volume   135.72715364
_cell_formula_units_Z   1
loop_
 _symmetry_equiv_pos_site_id
 _symmetry_equiv_pos_as_xyz
  1  'x, y, z'
loop_
 _atom_site_type_symbol
 _atom_site_label
 _atom_site_symmetry_multiplicity
 _atom_site_fract_x
 _atom_site_fract_y
 _atom_site_fract_z
 _atom_site_occupancy
  Tb  Tb0  1  0.250000  0.000000  0.185230  1
  Tb  Tb1  1  0.750000  0.000000  0.813530  1
  Zn  Zn2  1  0.750000  0.500001  0.167757  1
  Ga  Ga3  1  0.250000  0.500001  0.830628  1
  Fe  Fe4  1  0.750000  0.000000  0.411067  1
  Fe  Fe5  1  0.998752  0.500001  0.500405  1
  Fe  Fe6  1  0.501248  0.500001  0.500405  1
  Fe  Fe7  1  0.250000  0.000000  0.590981  1
