# generated using pymatgen
data_Dy6P13Rh20
_symmetry_space_group_name_H-M   'P 1'
_cell_length_a   13.34079500
_cell_length_b   13.34079442
_cell_length_c   3.92189600
_cell_angle_alpha   90.00000000
_cell_angle_beta   90.00000000
_cell_angle_gamma   119.99999895
_symmetry_Int_Tables_number   1
_chemical_formula_structural   Dy6P13Rh20
_chemical_formula_sum   'Dy6 P13 Rh20'
_cell_volume   604.49137946
_cell_formula_units_Z   1
loop_
 _symmetry_equiv_pos_site_id
 _symmetry_equiv_pos_as_xyz
  1  'x, y, z'
loop_
 _atom_site_type_symbol
 _atom_site_label
 _atom_site_symmetry_multiplicity
 _atom_site_fract_x
 _atom_site_fract_y
 _atom_site_fract_z
 _atom_site_occupancy
  Dy  Dy0  1  0.529507  0.717394  0.248339  1
  Dy  Dy1  1  0.282606  0.812112  0.248339  1
  Dy  Dy2  1  0.187888  0.470493  0.248339  1
  Dy  Dy3  1  0.470493  0.282606  0.751661  1
  Dy  Dy4  1  0.717394  0.187888  0.751661  1
  Dy  Dy5  1  0.812112  0.529507  0.751661  1
  P  P6  1  0.526094  0.139334  0.250233  1
  P  P7  1  0.860666  0.386761  0.250233  1
  P  P8  1  0.613239  0.473906  0.250233  1
  P  P9  1  0.945176  0.714785  0.254636  1
  P  P10  1  0.285215  0.230390  0.254636  1
  P  P11  1  0.769610  0.054824  0.254636  1
  P  P12  1  0.386761  0.526094  0.749767  1
  P  P13  1  0.473906  0.860666  0.749767  1
  P  P14  1  0.139334  0.613239  0.749767  1
  P  P15  1  0.714785  0.769610  0.745364  1
  P  P16  1  0.230390  0.945176  0.745364  1
  P  P17  1  0.054824  0.285215  0.745364  1
  P  P18  1  0.000000  0.000000  0.000000  1
  Rh  Rh19  1  0.333333  0.666667  0.752202  1
  Rh  Rh20  1  0.921273  0.250358  0.254338  1
  Rh  Rh21  1  0.749642  0.670915  0.254338  1
  Rh  Rh22  1  0.329085  0.078727  0.254338  1
  Rh  Rh23  1  0.438658  0.022543  0.751551  1
  Rh  Rh24  1  0.977457  0.416116  0.751551  1
  Rh  Rh25  1  0.583884  0.561342  0.751551  1
  Rh  Rh26  1  0.666667  0.333333  0.247798  1
  Rh  Rh27  1  0.094512  0.186821  0.247263  1
  Rh  Rh28  1  0.813179  0.907691  0.247263  1
  Rh  Rh29  1  0.092309  0.905488  0.247263  1
  Rh  Rh30  1  0.022543  0.583884  0.248449  1
  Rh  Rh31  1  0.416116  0.438658  0.248449  1
  Rh  Rh32  1  0.561342  0.977457  0.248449  1
  Rh  Rh33  1  0.670915  0.921273  0.745662  1
  Rh  Rh34  1  0.078727  0.749642  0.745662  1
  Rh  Rh35  1  0.250358  0.329085  0.745662  1
  Rh  Rh36  1  0.905488  0.813179  0.752737  1
  Rh  Rh37  1  0.186821  0.092309  0.752737  1
  Rh  Rh38  1  0.907691  0.094512  0.752737  1
