# generated using pymatgen
data_Er2Co4SiP5Ru6
_symmetry_space_group_name_H-M   'P 1'
_cell_length_a   3.79902200
_cell_length_b   10.61456900
_cell_length_c   12.14857500
_cell_angle_alpha   90.00000000
_cell_angle_beta   90.00000000
_cell_angle_gamma   90.00000000
_symmetry_Int_Tables_number   1
_chemical_formula_structural   Er2Co4SiP5Ru6
_chemical_formula_sum   'Er4 Co8 Si2 P10 Ru12'
_cell_volume   489.89105789
_cell_formula_units_Z   2
loop_
 _symmetry_equiv_pos_site_id
 _symmetry_equiv_pos_as_xyz
  1  'x, y, z'
loop_
 _atom_site_type_symbol
 _atom_site_label
 _atom_site_symmetry_multiplicity
 _atom_site_fract_x
 _atom_site_fract_y
 _atom_site_fract_z
 _atom_site_occupancy
  Er  Er0  1  0.250000  0.584720  0.706344  1
  Er  Er1  1  0.250000  0.915280  0.206344  1
  Er  Er2  1  0.750000  0.414736  0.294083  1
  Er  Er3  1  0.750000  0.085264  0.794083  1
  Co  Co4  1  0.250000  0.883839  0.696310  1
  Co  Co5  1  0.250000  0.616161  0.196310  1
  Co  Co6  1  0.750000  0.111463  0.305338  1
  Co  Co7  1  0.750000  0.388537  0.805338  1
  Co  Co8  1  0.250000  0.466023  0.930832  1
  Co  Co9  1  0.250000  0.033977  0.430832  1
  Co  Co10  1  0.750000  0.539361  0.063717  1
  Co  Co11  1  0.750000  0.960639  0.563717  1
  Si  Si12  1  0.250000  0.422812  0.111379  1
  Si  Si13  1  0.250000  0.077188  0.611379  1
  P  P14  1  0.750000  0.574723  0.886984  1
  P  P15  1  0.750000  0.925277  0.386984  1
  P  P16  1  0.250000  0.272735  0.871942  1
  P  P17  1  0.250000  0.227265  0.371942  1
  P  P18  1  0.750000  0.728565  0.129467  1
  P  P19  1  0.750000  0.771435  0.629467  1
  P  P20  1  0.250000  0.601703  0.386459  1
  P  P21  1  0.250000  0.898297  0.886459  1
  P  P22  1  0.750000  0.397553  0.613485  1
  P  P23  1  0.750000  0.102447  0.113485  1
  Ru  Ru24  1  0.250000  0.706276  0.986843  1
  Ru  Ru25  1  0.250000  0.793724  0.486843  1
  Ru  Ru26  1  0.750000  0.296667  0.015068  1
  Ru  Ru27  1  0.750000  0.203333  0.515068  1
  Ru  Ru28  1  0.250000  0.405817  0.484348  1
  Ru  Ru29  1  0.250000  0.094183  0.984348  1
  Ru  Ru30  1  0.750000  0.593777  0.515373  1
  Ru  Ru31  1  0.750000  0.906223  0.015373  1
  Ru  Ru32  1  0.250000  0.217417  0.181924  1
  Ru  Ru33  1  0.250000  0.282583  0.681924  1
  Ru  Ru34  1  0.750000  0.776454  0.820105  1
  Ru  Ru35  1  0.750000  0.723546  0.320105  1
