# generated using pymatgen
data_Ho5Ti(Si3Pt2)4
_symmetry_space_group_name_H-M   'P 1'
_cell_length_a   4.17899300
_cell_length_b   8.45418850
_cell_length_c   13.01000201
_cell_angle_alpha   80.67651162
_cell_angle_beta   90.00000000
_cell_angle_gamma   90.00000000
_symmetry_Int_Tables_number   1
_chemical_formula_structural   Ho5Ti(Si3Pt2)4
_chemical_formula_sum   'Ho5 Ti1 Si12 Pt8'
_cell_volume   453.57112904
_cell_formula_units_Z   1
loop_
 _symmetry_equiv_pos_site_id
 _symmetry_equiv_pos_as_xyz
  1  'x, y, z'
loop_
 _atom_site_type_symbol
 _atom_site_label
 _atom_site_symmetry_multiplicity
 _atom_site_fract_x
 _atom_site_fract_y
 _atom_site_fract_z
 _atom_site_occupancy
  Ho  Ho0  1  0.250000  0.582092  0.191193  1
  Ho  Ho1  1  0.750000  0.233966  0.561924  1
  Ho  Ho2  1  0.750000  0.417965  0.807744  1
  Ho  Ho3  1  0.750000  0.927690  0.809812  1
  Ho  Ho4  1  0.250000  0.072768  0.189637  1
  Ti  Ti5  1  0.250000  0.767688  0.433308  1
  Si  Si6  1  0.750000  0.594125  0.560097  1
  Si  Si7  1  0.750000  0.123633  0.007913  1
  Si  Si8  1  0.750000  0.874417  0.561458  1
  Si  Si9  1  0.250000  0.696576  0.718704  1
  Si  Si10  1  0.750000  0.302953  0.285330  1
  Si  Si11  1  0.750000  0.803671  0.281297  1
  Si  Si12  1  0.250000  0.875594  0.996203  1
  Si  Si13  1  0.250000  0.195171  0.722569  1
  Si  Si14  1  0.250000  0.377833  0.000525  1
  Si  Si15  1  0.250000  0.118886  0.431952  1
  Si  Si16  1  0.750000  0.620988  0.002478  1
  Si  Si17  1  0.250000  0.415400  0.433388  1
  Pt  Pt18  1  0.750000  0.351128  0.099906  1
  Pt  Pt19  1  0.250000  0.966969  0.622006  1
  Pt  Pt20  1  0.750000  0.848172  0.093536  1
  Pt  Pt21  1  0.750000  0.025587  0.376788  1
  Pt  Pt22  1  0.250000  0.648131  0.903565  1
  Pt  Pt23  1  0.250000  0.150635  0.909615  1
  Pt  Pt24  1  0.750000  0.534990  0.377004  1
  Pt  Pt25  1  0.250000  0.472971  0.622048  1
