# generated using pymatgen
data_Er2MnFe5Co6P7
_symmetry_space_group_name_H-M   'P 1'
_cell_length_a   8.98001027
_cell_length_b   8.96817142
_cell_length_c   3.60253200
_cell_angle_alpha   90.00000000
_cell_angle_beta   90.00000000
_cell_angle_gamma   120.10508338
_symmetry_Int_Tables_number   1
_chemical_formula_structural   Er2MnFe5Co6P7
_chemical_formula_sum   'Er2 Mn1 Fe5 Co6 P7'
_cell_volume   250.99112687
_cell_formula_units_Z   1
loop_
 _symmetry_equiv_pos_site_id
 _symmetry_equiv_pos_as_xyz
  1  'x, y, z'
loop_
 _atom_site_type_symbol
 _atom_site_label
 _atom_site_symmetry_multiplicity
 _atom_site_fract_x
 _atom_site_fract_y
 _atom_site_fract_z
 _atom_site_occupancy
  Er  Er0  1  0.999966  0.000898  0.000000  1
  Er  Er1  1  0.333929  0.667159  0.500000  1
  Mn  Mn2  1  0.895378  0.458224  0.500000  1
  Fe  Fe3  1  0.821320  0.213324  0.000000  1
  Fe  Fe4  1  0.785780  0.608315  0.000000  1
  Fe  Fe5  1  0.392440  0.179470  0.000000  1
  Fe  Fe6  1  0.537979  0.435440  0.500000  1
  Fe  Fe7  1  0.564889  0.102305  0.500000  1
  Co  Co8  1  0.100202  0.706095  0.000000  1
  Co  Co9  1  0.293958  0.394331  0.000000  1
  Co  Co10  1  0.605783  0.900055  0.000000  1
  Co  Co11  1  0.052264  0.280695  0.500000  1
  Co  Co12  1  0.717715  0.770500  0.500000  1
  Co  Co13  1  0.230325  0.948577  0.500000  1
  P  P14  1  0.075673  0.445428  0.000000  1
  P  P15  1  0.553749  0.627605  0.000000  1
  P  P16  1  0.372200  0.927009  0.000000  1
  P  P17  1  0.780146  0.045358  0.500000  1
  P  P18  1  0.954918  0.736892  0.500000  1
  P  P19  1  0.265484  0.219944  0.500000  1
  P  P20  1  0.665902  0.332374  0.000000  1
