# generated using pymatgen
data_Cs2K2PaTiTe6
_symmetry_space_group_name_H-M   'P 1'
_cell_length_a   14.92884800
_cell_length_b   7.05483242
_cell_length_c   9.77998437
_cell_angle_alpha   70.22262052
_cell_angle_beta   90.00000000
_cell_angle_gamma   90.00000000
_symmetry_Int_Tables_number   1
_chemical_formula_structural   Cs2K2PaTiTe6
_chemical_formula_sum   'Cs4 K4 Pa2 Ti2 Te12'
_cell_volume   969.27596137
_cell_formula_units_Z   2
loop_
 _symmetry_equiv_pos_site_id
 _symmetry_equiv_pos_as_xyz
  1  'x, y, z'
loop_
 _atom_site_type_symbol
 _atom_site_label
 _atom_site_symmetry_multiplicity
 _atom_site_fract_x
 _atom_site_fract_y
 _atom_site_fract_z
 _atom_site_occupancy
  Cs  Cs0  1  0.950665  0.668309  0.669023  1
  Cs  Cs1  1  0.450665  0.831691  0.330977  1
  Cs  Cs2  1  0.049545  0.336153  0.330029  1
  Cs  Cs3  1  0.549545  0.163847  0.669971  1
  K  K4  1  0.867352  0.081425  0.900905  1
  K  K5  1  0.367352  0.418575  0.099095  1
  K  K6  1  0.132762  0.932773  0.100569  1
  K  K7  1  0.632762  0.567227  0.899431  1
  Pa  Pa8  1  0.749530  0.648755  0.286983  1
  Pa  Pa9  1  0.249530  0.851245  0.713017  1
  Ti  Ti10  1  0.250374  0.351304  0.710563  1
  Ti  Ti11  1  0.750374  0.148696  0.289437  1
  Te  Te12  1  0.908704  0.920846  0.269185  1
  Te  Te13  1  0.408704  0.579154  0.730815  1
  Te  Te14  1  0.090685  0.111319  0.731141  1
  Te  Te15  1  0.590685  0.388681  0.268859  1
  Te  Te16  1  0.816309  0.273945  0.518521  1
  Te  Te17  1  0.316309  0.226055  0.481479  1
  Te  Te18  1  0.184249  0.694302  0.481544  1
  Te  Te19  1  0.684249  0.805698  0.518456  1
  Te  Te20  1  0.839060  0.484546  0.072072  1
  Te  Te21  1  0.339060  0.015454  0.927928  1
  Te  Te22  1  0.160769  0.483781  0.926938  1
  Te  Te23  1  0.660769  0.016219  0.073062  1
