# generated using pymatgen
data_Ho4ScInGa2
_symmetry_space_group_name_H-M   'P 1'
_cell_length_a   7.57553700
_cell_length_b   7.57553700
_cell_length_c   14.29906200
_cell_angle_alpha   90.00000000
_cell_angle_beta   90.00000000
_cell_angle_gamma   90.00000000
_symmetry_Int_Tables_number   1
_chemical_formula_structural   Ho4ScInGa2
_chemical_formula_sum   'Ho16 Sc4 In4 Ga8'
_cell_volume   820.60544933
_cell_formula_units_Z   4
loop_
 _symmetry_equiv_pos_site_id
 _symmetry_equiv_pos_as_xyz
  1  'x, y, z'
loop_
 _atom_site_type_symbol
 _atom_site_label
 _atom_site_symmetry_multiplicity
 _atom_site_fract_x
 _atom_site_fract_y
 _atom_site_fract_z
 _atom_site_occupancy
  Ho  Ho0  1  0.673310  0.662038  0.607458  1
  Ho  Ho1  1  0.673310  0.337962  0.107458  1
  Ho  Ho2  1  0.826690  0.837962  0.392542  1
  Ho  Ho3  1  0.173310  0.837962  0.892542  1
  Ho  Ho4  1  0.326690  0.337962  0.607458  1
  Ho  Ho5  1  0.326690  0.662038  0.107458  1
  Ho  Ho6  1  0.173310  0.162038  0.392542  1
  Ho  Ho7  1  0.826690  0.162038  0.892542  1
  Ho  Ho8  1  0.662038  0.326690  0.392542  1
  Ho  Ho9  1  0.337962  0.326690  0.892542  1
  Ho  Ho10  1  0.162038  0.826690  0.607458  1
  Ho  Ho11  1  0.837962  0.826690  0.107458  1
  Ho  Ho12  1  0.337962  0.673310  0.392542  1
  Ho  Ho13  1  0.662038  0.673310  0.892542  1
  Ho  Ho14  1  0.837962  0.173310  0.607458  1
  Ho  Ho15  1  0.162038  0.173310  0.107458  1
  Sc  Sc16  1  0.000000  0.500000  0.759155  1
  Sc  Sc17  1  0.000000  0.500000  0.259155  1
  Sc  Sc18  1  0.500000  0.000000  0.240845  1
  Sc  Sc19  1  0.500000  0.000000  0.740845  1
  In  In20  1  0.000000  0.500000  0.494645  1
  In  In21  1  0.000000  0.500000  0.994645  1
  In  In22  1  0.500000  0.000000  0.505355  1
  In  In23  1  0.500000  0.000000  0.005355  1
  Ga  Ga24  1  0.872313  0.872313  0.750000  1
  Ga  Ga25  1  0.872313  0.127687  0.250000  1
  Ga  Ga26  1  0.627687  0.627687  0.250000  1
  Ga  Ga27  1  0.372313  0.627687  0.750000  1
  Ga  Ga28  1  0.127687  0.127687  0.750000  1
  Ga  Ga29  1  0.127687  0.872313  0.250000  1
  Ga  Ga30  1  0.372313  0.372313  0.250000  1
  Ga  Ga31  1  0.627687  0.372313  0.750000  1
