# generated using pymatgen
data_Eu20Cd6RuPt
_symmetry_space_group_name_H-M   'P 1'
_cell_length_a   10.36168700
_cell_length_b   10.36168797
_cell_length_c   10.57719600
_cell_angle_alpha   90.00000000
_cell_angle_beta   90.00000000
_cell_angle_gamma   120.00000009
_symmetry_Int_Tables_number   1
_chemical_formula_structural   Eu20Cd6RuPt
_chemical_formula_sum   'Eu20 Cd6 Ru1 Pt1'
_cell_volume   983.47236839
_cell_formula_units_Z   1
loop_
 _symmetry_equiv_pos_site_id
 _symmetry_equiv_pos_as_xyz
  1  'x, y, z'
loop_
 _atom_site_type_symbol
 _atom_site_label
 _atom_site_symmetry_multiplicity
 _atom_site_fract_x
 _atom_site_fract_y
 _atom_site_fract_z
 _atom_site_occupancy
  Eu  Eu0  1  0.000000  0.000000  0.500034  1
  Eu  Eu1  1  0.000000  0.000000  0.999966  1
  Eu  Eu2  1  0.207001  0.792999  0.437406  1
  Eu  Eu3  1  0.207001  0.414002  0.437406  1
  Eu  Eu4  1  0.585998  0.792999  0.437406  1
  Eu  Eu5  1  0.790443  0.209557  0.565484  1
  Eu  Eu6  1  0.790443  0.580884  0.565484  1
  Eu  Eu7  1  0.419116  0.209557  0.565484  1
  Eu  Eu8  1  0.790443  0.209557  0.934516  1
  Eu  Eu9  1  0.790443  0.580884  0.934516  1
  Eu  Eu10  1  0.419116  0.209557  0.934516  1
  Eu  Eu11  1  0.207001  0.792999  0.062594  1
  Eu  Eu12  1  0.207001  0.414002  0.062594  1
  Eu  Eu13  1  0.585998  0.792999  0.062594  1
  Eu  Eu14  1  0.540229  0.459771  0.250000  1
  Eu  Eu15  1  0.540229  0.080457  0.250000  1
  Eu  Eu16  1  0.919543  0.459771  0.250000  1
  Eu  Eu17  1  0.462347  0.537653  0.750000  1
  Eu  Eu18  1  0.462347  0.924694  0.750000  1
  Eu  Eu19  1  0.075306  0.537653  0.750000  1
  Cd  Cd20  1  0.885207  0.114793  0.250000  1
  Cd  Cd21  1  0.885207  0.770416  0.250000  1
  Cd  Cd22  1  0.229584  0.114793  0.250000  1
  Cd  Cd23  1  0.114422  0.885578  0.750000  1
  Cd  Cd24  1  0.114422  0.228842  0.750000  1
  Cd  Cd25  1  0.771158  0.885578  0.750000  1
  Ru  Ru26  1  0.666667  0.333333  0.750000  1
  Pt  Pt27  1  0.333333  0.666667  0.250000  1
