# generated using pymatgen
data_Yb3HoOs8
_symmetry_space_group_name_H-M   'P 1'
_cell_length_a   5.28964100
_cell_length_b   5.28964033
_cell_length_c   8.78762300
_cell_angle_alpha   90.00000000
_cell_angle_beta   90.00000000
_cell_angle_gamma   119.99999793
_symmetry_Int_Tables_number   1
_chemical_formula_structural   Yb3HoOs8
_chemical_formula_sum   'Yb3 Ho1 Os8'
_cell_volume   212.93860227
_cell_formula_units_Z   1
loop_
 _symmetry_equiv_pos_site_id
 _symmetry_equiv_pos_as_xyz
  1  'x, y, z'
loop_
 _atom_site_type_symbol
 _atom_site_label
 _atom_site_symmetry_multiplicity
 _atom_site_fract_x
 _atom_site_fract_y
 _atom_site_fract_z
 _atom_site_occupancy
  Yb  Yb0  1  0.666667  0.333333  0.569351  1
  Yb  Yb1  1  0.666667  0.333333  0.934662  1
  Yb  Yb2  1  0.333333  0.666667  0.061204  1
  Ho  Ho3  1  0.333333  0.666667  0.433053  1
  Os  Os4  1  0.000000  0.000000  0.500378  1
  Os  Os5  1  0.000000  0.000000  0.001147  1
  Os  Os6  1  0.827493  0.172507  0.250196  1
  Os  Os7  1  0.827493  0.654986  0.250196  1
  Os  Os8  1  0.345014  0.172507  0.250196  1
  Os  Os9  1  0.172078  0.827922  0.749872  1
  Os  Os10  1  0.172078  0.344156  0.749872  1
  Os  Os11  1  0.655844  0.827922  0.749872  1
