# generated using pymatgen
data_Tm2Si14NiIr5
_symmetry_space_group_name_H-M   'P 1'
_cell_length_a   7.95798547
_cell_length_b   7.95798543
_cell_length_c   7.98789800
_cell_angle_alpha   57.22154829
_cell_angle_beta   57.22153994
_cell_angle_gamma   56.90100498
_symmetry_Int_Tables_number   1
_chemical_formula_structural   Tm2Si14NiIr5
_chemical_formula_sum   'Tm2 Si14 Ni1 Ir5'
_cell_volume   333.91247253
_cell_formula_units_Z   1
loop_
 _symmetry_equiv_pos_site_id
 _symmetry_equiv_pos_as_xyz
  1  'x, y, z'
loop_
 _atom_site_type_symbol
 _atom_site_label
 _atom_site_symmetry_multiplicity
 _atom_site_fract_x
 _atom_site_fract_y
 _atom_site_fract_z
 _atom_site_occupancy
  Tm  Tm0  1  0.999752  0.001682  0.999968  1
  Tm  Tm1  1  0.498318  0.500248  0.500032  1
  Si  Si2  1  0.757068  0.742932  0.750000  1
  Si  Si3  1  0.250778  0.249222  0.250000  1
  Si  Si4  1  0.851733  0.070204  0.669593  1
  Si  Si5  1  0.670322  0.853001  0.065655  1
  Si  Si6  1  0.058163  0.671159  0.849655  1
  Si  Si7  1  0.646999  0.829678  0.434345  1
  Si  Si8  1  0.429796  0.648267  0.830407  1
  Si  Si9  1  0.828841  0.441837  0.650345  1
  Si  Si10  1  0.178209  0.560305  0.350226  1
  Si  Si11  1  0.576714  0.351832  0.165676  1
  Si  Si12  1  0.346211  0.176858  0.572559  1
  Si  Si13  1  0.939695  0.321791  0.149774  1
  Si  Si14  1  0.323142  0.153789  0.927441  1
  Si  Si15  1  0.148168  0.923286  0.334324  1
  Ni  Ni16  1  0.069798  0.430202  0.750000  1
  Ir  Ir17  1  0.247766  0.929923  0.572346  1
  Ir  Ir18  1  0.570077  0.252234  0.927654  1
  Ir  Ir19  1  0.927701  0.572299  0.250000  1
  Ir  Ir20  1  0.431955  0.751209  0.066800  1
  Ir  Ir21  1  0.748791  0.068045  0.433200  1
