# generated using pymatgen
data_Y16MgCd3(NiIr)2
_symmetry_space_group_name_H-M   'P 1'
_cell_length_a   9.66591246
_cell_length_b   9.66591307
_cell_length_c   9.71945741
_cell_angle_alpha   59.73800709
_cell_angle_beta   59.73800368
_cell_angle_gamma   59.46927147
_symmetry_Int_Tables_number   1
_chemical_formula_structural   Y16MgCd3(NiIr)2
_chemical_formula_sum   'Y16 Mg1 Cd3 Ni2 Ir2'
_cell_volume   636.97598871
_cell_formula_units_Z   1
loop_
 _symmetry_equiv_pos_site_id
 _symmetry_equiv_pos_as_xyz
  1  'x, y, z'
loop_
 _atom_site_type_symbol
 _atom_site_label
 _atom_site_symmetry_multiplicity
 _atom_site_fract_x
 _atom_site_fract_y
 _atom_site_fract_z
 _atom_site_occupancy
  Y  Y0  1  0.599738  0.599738  0.595693  1
  Y  Y1  1  0.600719  0.600719  0.204054  1
  Y  Y2  1  0.602370  0.204650  0.597144  1
  Y  Y3  1  0.204650  0.602370  0.597144  1
  Y  Y4  1  0.058045  0.438913  0.441811  1
  Y  Y5  1  0.436285  0.060512  0.063296  1
  Y  Y6  1  0.438913  0.058045  0.441811  1
  Y  Y7  1  0.060512  0.436285  0.063296  1
  Y  Y8  1  0.439767  0.439767  0.060219  1
  Y  Y9  1  0.061679  0.061679  0.437283  1
  Y  Y10  1  0.187435  0.812263  0.817029  1
  Y  Y11  1  0.810618  0.188231  0.186655  1
  Y  Y12  1  0.812263  0.187435  0.817029  1
  Y  Y13  1  0.188231  0.810618  0.186655  1
  Y  Y14  1  0.815953  0.815953  0.186761  1
  Y  Y15  1  0.189474  0.189474  0.811007  1
  Mg  Mg16  1  0.824422  0.824422  0.826778  1
  Cd  Cd17  1  0.830213  0.830213  0.505662  1
  Cd  Cd18  1  0.830199  0.505206  0.831279  1
  Cd  Cd19  1  0.505206  0.830199  0.831279  1
  Ni  Ni20  1  0.392422  0.825002  0.391307  1
  Ni  Ni21  1  0.825002  0.392422  0.391307  1
  Ir  Ir22  1  0.393299  0.393299  0.390730  1
  Ir  Ir23  1  0.392584  0.392584  0.824775  1
