# generated using pymatgen
data_YbAl7ZnCu4
_symmetry_space_group_name_H-M   'P 1'
_cell_length_a   6.75488707
_cell_length_b   6.75488711
_cell_length_c   6.75488800
_cell_angle_alpha   98.20596162
_cell_angle_beta   98.67481810
_cell_angle_gamma   134.94614090
_symmetry_Int_Tables_number   1
_chemical_formula_structural   YbAl7ZnCu4
_chemical_formula_sum   'Yb1 Al7 Zn1 Cu4'
_cell_volume   201.49906962
_cell_formula_units_Z   1
loop_
 _symmetry_equiv_pos_site_id
 _symmetry_equiv_pos_as_xyz
  1  'x, y, z'
loop_
 _atom_site_type_symbol
 _atom_site_label
 _atom_site_symmetry_multiplicity
 _atom_site_fract_x
 _atom_site_fract_y
 _atom_site_fract_z
 _atom_site_occupancy
  Yb  Yb0  1  0.000257  0.000100  0.000344  1
  Al  Al1  1  0.502654  0.281514  0.784186  1
  Al  Al2  1  0.347953  0.999987  0.347931  1
  Al  Al3  1  0.997592  0.651798  0.649368  1
  Al  Al4  1  0.651780  0.999982  0.651758  1
  Al  Al5  1  0.997581  0.348165  0.345764  1
  Al  Al6  1  0.276656  0.499988  0.776652  1
  Al  Al7  1  0.502677  0.718494  0.221156  1
  Zn  Zn8  1  0.717955  0.500020  0.218018  1
  Cu  Cu9  1  0.500758  0.501823  0.503222  1
  Cu  Cu10  1  0.001418  0.002476  0.503247  1
  Cu  Cu11  1  0.001672  0.498134  0.999170  1
  Cu  Cu12  1  0.501049  0.997520  0.999183  1
