# generated using pymatgen
data_YHo2ReB7
_symmetry_space_group_name_H-M   'P 1'
_cell_length_a   8.06488301
_cell_length_b   8.06488251
_cell_length_c   9.35008900
_cell_angle_alpha   90.00000000
_cell_angle_beta   90.00000000
_cell_angle_gamma   154.72046969
_symmetry_Int_Tables_number   1
_chemical_formula_structural   YHo2ReB7
_chemical_formula_sum   'Y2 Ho4 Re2 B14'
_cell_volume   259.70192624
_cell_formula_units_Z   2
loop_
 _symmetry_equiv_pos_site_id
 _symmetry_equiv_pos_as_xyz
  1  'x, y, z'
loop_
 _atom_site_type_symbol
 _atom_site_label
 _atom_site_symmetry_multiplicity
 _atom_site_fract_x
 _atom_site_fract_y
 _atom_site_fract_z
 _atom_site_occupancy
  Y  Y0  1  0.243044  0.756956  0.250000  1
  Y  Y1  1  0.756956  0.243044  0.750000  1
  Ho  Ho2  1  0.894803  0.105197  0.059777  1
  Ho  Ho3  1  0.105197  0.894803  0.559777  1
  Ho  Ho4  1  0.105197  0.894803  0.940223  1
  Ho  Ho5  1  0.894803  0.105197  0.440223  1
  Re  Re6  1  0.052464  0.947536  0.250000  1
  Re  Re7  1  0.947535  0.052464  0.750000  1
  B  B8  1  0.456547  0.543453  0.250000  1
  B  B9  1  0.543453  0.456547  0.750000  1
  B  B10  1  0.727141  0.272859  0.033313  1
  B  B11  1  0.272859  0.727141  0.533313  1
  B  B12  1  0.272859  0.727141  0.966687  1
  B  B13  1  0.727141  0.272859  0.466687  1
  B  B14  1  0.631887  0.368113  0.349562  1
  B  B15  1  0.368113  0.631887  0.849562  1
  B  B16  1  0.368113  0.631887  0.650438  1
  B  B17  1  0.631887  0.368113  0.150438  1
  B  B18  1  0.520572  0.479428  0.404915  1
  B  B19  1  0.479428  0.520572  0.904915  1
  B  B20  1  0.479428  0.520572  0.595085  1
  B  B21  1  0.520572  0.479428  0.095085  1
