# generated using pymatgen
data_CeEr9Al4Ru5Rh
_symmetry_space_group_name_H-M   'P 1'
_cell_length_a   8.35021156
_cell_length_b   8.35021203
_cell_length_c   8.25303574
_cell_angle_alpha   110.09729123
_cell_angle_beta   109.33478500
_cell_angle_gamma   109.46003689
_symmetry_Int_Tables_number   1
_chemical_formula_structural   CeEr9Al4Ru5Rh
_chemical_formula_sum   'Ce1 Er9 Al4 Ru5 Rh1'
_cell_volume   440.33082351
_cell_formula_units_Z   1
loop_
 _symmetry_equiv_pos_site_id
 _symmetry_equiv_pos_as_xyz
  1  'x, y, z'
loop_
 _atom_site_type_symbol
 _atom_site_label
 _atom_site_symmetry_multiplicity
 _atom_site_fract_x
 _atom_site_fract_y
 _atom_site_fract_z
 _atom_site_occupancy
  Ce  Ce0  1  0.193435  0.943435  0.250000  1
  Er  Er1  1  0.780175  0.784276  0.785236  1
  Er  Er2  1  0.318392  0.568392  0.750000  1
  Er  Er3  1  0.752582  0.321566  0.568074  1
  Er  Er4  1  0.568270  0.745998  0.315563  1
  Er  Er5  1  0.713937  0.499723  0.997188  1
  Er  Er6  1  0.002536  0.716749  0.502812  1
  Er  Er7  1  0.499041  0.994940  0.714764  1
  Er  Er8  1  0.253492  0.184509  0.931926  1
  Er  Er9  1  0.930434  0.252706  0.184437  1
  Al  Al10  1  0.412361  0.413691  0.407151  1
  Al  Al11  1  0.094378  0.497844  0.004072  1
  Al  Al12  1  0.993772  0.090307  0.495928  1
  Al  Al13  1  0.506539  0.005210  0.092849  1
  Ru  Ru14  1  0.741419  0.870720  0.118830  1
  Ru  Ru15  1  0.126566  0.761598  0.902014  1
  Ru  Ru16  1  0.251890  0.622590  0.381170  1
  Ru  Ru17  1  0.359584  0.224552  0.597986  1
  Ru  Ru18  1  0.626871  0.376871  0.250000  1
  Rh  Rh19  1  0.874322  0.124322  0.750000  1
