# generated using pymatgen
data_Y4Er4Tm4CdCo5
_symmetry_space_group_name_H-M   'P 1'
_cell_length_a   8.23125244
_cell_length_b   8.23140739
_cell_length_c   8.23125301
_cell_angle_alpha   110.75886975
_cell_angle_beta   109.91683375
_cell_angle_gamma   107.75190420
_symmetry_Int_Tables_number   1
_chemical_formula_structural   Y4Er4Tm4CdCo5
_chemical_formula_sum   'Y4 Er4 Tm4 Cd1 Co5'
_cell_volume   429.01422379
_cell_formula_units_Z   1
loop_
 _symmetry_equiv_pos_site_id
 _symmetry_equiv_pos_as_xyz
  1  'x, y, z'
loop_
 _atom_site_type_symbol
 _atom_site_label
 _atom_site_symmetry_multiplicity
 _atom_site_fract_x
 _atom_site_fract_y
 _atom_site_fract_z
 _atom_site_occupancy
  Y  Y0  1  0.289885  0.186924  0.476874  1
  Y  Y1  1  0.710115  0.813076  0.523126  1
  Y  Y2  1  0.289948  0.813076  0.102961  1
  Y  Y3  1  0.710052  0.186924  0.897039  1
  Er  Er4  1  0.209701  0.401660  0.191957  1
  Er  Er5  1  0.790299  0.598340  0.808043  1
  Er  Er6  1  0.209627  0.017683  0.808056  1
  Er  Er7  1  0.790373  0.982317  0.191944  1
  Tm  Tm8  1  0.622412  0.315452  0.306917  1
  Tm  Tm9  1  0.377588  0.684548  0.693083  1
  Tm  Tm10  1  0.008535  0.315452  0.693040  1
  Tm  Tm11  1  0.991465  0.684548  0.306960  1
  Cd  Cd12  1  0.500000  0.500000  0.000000  1
  Co  Co13  1  0.000047  0.378357  0.378311  1
  Co  Co14  1  0.999953  0.621643  0.621689  1
  Co  Co15  1  0.386300  0.886341  0.500042  1
  Co  Co16  1  0.613700  0.113659  0.499958  1
  Co  Co17  1  0.000000  0.000000  0.000000  1
