# generated using pymatgen
data_Dy2Be24CuNi
_symmetry_space_group_name_H-M   'P 1'
_cell_length_a   7.28147794
_cell_length_b   7.24878272
_cell_length_c   7.27064364
_cell_angle_alpha   59.74381452
_cell_angle_beta   59.93542110
_cell_angle_gamma   59.60943863
_symmetry_Int_Tables_number   1
_chemical_formula_structural   Dy2Be24CuNi
_chemical_formula_sum   'Dy2 Be24 Cu1 Ni1'
_cell_volume   269.89252113
_cell_formula_units_Z   1
loop_
 _symmetry_equiv_pos_site_id
 _symmetry_equiv_pos_as_xyz
  1  'x, y, z'
loop_
 _atom_site_type_symbol
 _atom_site_label
 _atom_site_symmetry_multiplicity
 _atom_site_fract_x
 _atom_site_fract_y
 _atom_site_fract_z
 _atom_site_occupancy
  Dy  Dy0  1  0.252948  0.250453  0.250184  1
  Dy  Dy1  1  0.750438  0.747299  0.752285  1
  Be  Be2  1  0.504043  0.497694  0.500268  1
  Be  Be3  1  0.000564  0.001235  0.000111  1
  Be  Be4  1  0.709020  0.934809  0.066535  1
  Be  Be5  1  0.064266  0.938186  0.284959  1
  Be  Be6  1  0.928278  0.067911  0.716604  1
  Be  Be7  1  0.934790  0.291612  0.064305  1
  Be  Be8  1  0.710378  0.061490  0.291781  1
  Be  Be9  1  0.567494  0.791097  0.433690  1
  Be  Be10  1  0.438974  0.791179  0.203269  1
  Be  Be11  1  0.787607  0.436901  0.565528  1
  Be  Be12  1  0.438457  0.208689  0.563248  1
  Be  Be13  1  0.791033  0.562827  0.209841  1
  Be  Be14  1  0.562260  0.207219  0.795066  1
  Be  Be15  1  0.209839  0.433490  0.792089  1
  Be  Be16  1  0.215493  0.562987  0.429837  1
  Be  Be17  1  0.706146  0.291452  0.937548  1
  Be  Be18  1  0.288835  0.066318  0.931673  1
  Be  Be19  1  0.291686  0.937639  0.710459  1
  Be  Be20  1  0.062104  0.706363  0.943207  1
  Be  Be21  1  0.939218  0.704377  0.293661  1
  Be  Be22  1  0.295232  0.706859  0.062328  1
  Be  Be23  1  0.566127  0.435254  0.209387  1
  Be  Be24  1  0.792283  0.204423  0.437858  1
  Be  Be25  1  0.431353  0.565264  0.790972  1
  Cu  Cu26  1  0.200155  0.799965  0.560493  1
  Ni  Ni27  1  0.060978  0.297007  0.702813  1
