# generated using pymatgen
data_TbTm4Bi2As
_symmetry_space_group_name_H-M   'P 1'
_cell_length_a   7.97727600
_cell_length_b   9.08254600
_cell_length_c   11.96188300
_cell_angle_alpha   90.00000000
_cell_angle_beta   90.00000000
_cell_angle_gamma   90.00000000
_symmetry_Int_Tables_number   1
_chemical_formula_structural   TbTm4Bi2As
_chemical_formula_sum   'Tb4 Tm16 Bi8 As4'
_cell_volume   866.68598648
_cell_formula_units_Z   4
loop_
 _symmetry_equiv_pos_site_id
 _symmetry_equiv_pos_as_xyz
  1  'x, y, z'
loop_
 _atom_site_type_symbol
 _atom_site_label
 _atom_site_symmetry_multiplicity
 _atom_site_fract_x
 _atom_site_fract_y
 _atom_site_fract_z
 _atom_site_occupancy
  Tb  Tb0  1  0.637254  0.750000  0.293847  1
  Tb  Tb1  1  0.862746  0.750000  0.793847  1
  Tb  Tb2  1  0.362746  0.250000  0.706153  1
  Tb  Tb3  1  0.137254  0.250000  0.206153  1
  Tm  Tm4  1  0.818426  0.557520  0.062755  1
  Tm  Tm5  1  0.681574  0.942480  0.562755  1
  Tm  Tm6  1  0.181574  0.057520  0.937245  1
  Tm  Tm7  1  0.318426  0.442480  0.437245  1
  Tm  Tm8  1  0.181574  0.442480  0.937245  1
  Tm  Tm9  1  0.318426  0.057520  0.437245  1
  Tm  Tm10  1  0.818426  0.942480  0.062755  1
  Tm  Tm11  1  0.681574  0.557520  0.562755  1
  Tm  Tm12  1  0.159517  0.750000  0.211573  1
  Tm  Tm13  1  0.340483  0.750000  0.711573  1
  Tm  Tm14  1  0.840483  0.250000  0.788427  1
  Tm  Tm15  1  0.659517  0.250000  0.288427  1
  Tm  Tm16  1  0.465538  0.750000  0.000690  1
  Tm  Tm17  1  0.034462  0.750000  0.500690  1
  Tm  Tm18  1  0.534462  0.250000  0.999310  1
  Tm  Tm19  1  0.965538  0.250000  0.499310  1
  Bi  Bi20  1  0.929651  0.510162  0.326919  1
  Bi  Bi21  1  0.570349  0.989838  0.826919  1
  Bi  Bi22  1  0.070349  0.010162  0.673081  1
  Bi  Bi23  1  0.429651  0.489838  0.173081  1
  Bi  Bi24  1  0.070349  0.489838  0.673081  1
  Bi  Bi25  1  0.429651  0.010162  0.173081  1
  Bi  Bi26  1  0.929651  0.989838  0.326919  1
  Bi  Bi27  1  0.570349  0.510162  0.826919  1
  As  As28  1  0.409025  0.750000  0.480427  1
  As  As29  1  0.090975  0.750000  0.980427  1
  As  As30  1  0.590975  0.250000  0.519573  1
  As  As31  1  0.909025  0.250000  0.019573  1
