# generated using pymatgen
data_Tb5Ho(BiO7)2
_symmetry_space_group_name_H-M   'P 1'
_cell_length_a   6.57648572
_cell_length_b   6.56264019
_cell_length_c   7.73059525
_cell_angle_alpha   106.88712490
_cell_angle_beta   89.73218173
_cell_angle_gamma   98.74471574
_symmetry_Int_Tables_number   1
_chemical_formula_structural   Tb5Ho(BiO7)2
_chemical_formula_sum   'Tb5 Ho1 Bi2 O14'
_cell_volume   315.27204529
_cell_formula_units_Z   1
loop_
 _symmetry_equiv_pos_site_id
 _symmetry_equiv_pos_as_xyz
  1  'x, y, z'
loop_
 _atom_site_type_symbol
 _atom_site_label
 _atom_site_symmetry_multiplicity
 _atom_site_fract_x
 _atom_site_fract_y
 _atom_site_fract_z
 _atom_site_occupancy
  Tb  Tb0  1  0.538402  0.994633  0.748048  1
  Tb  Tb1  1  0.272061  0.538294  0.883204  1
  Tb  Tb2  1  0.727566  0.462408  0.117592  1
  Tb  Tb3  1  0.733746  0.475212  0.612182  1
  Tb  Tb4  1  0.266122  0.524321  0.386842  1
  Ho  Ho5  1  0.461801  0.005672  0.252027  1
  Bi  Bi6  1  0.000034  0.000013  0.499451  1
  Bi  Bi7  1  0.999896  0.999970  0.000627  1
  O  O8  1  0.445766  0.650775  0.168391  1
  O  O9  1  0.554961  0.352611  0.832973  1
  O  O10  1  0.302205  0.922834  0.953035  1
  O  O11  1  0.697929  0.076892  0.050125  1
  O  O12  1  0.298811  0.924489  0.511350  1
  O  O13  1  0.701209  0.075199  0.485368  1
  O  O14  1  0.544452  0.360982  0.344261  1
  O  O15  1  0.453805  0.636386  0.654413  1
  O  O16  1  0.925506  0.667400  0.960841  1
  O  O17  1  0.074297  0.332470  0.039149  1
  O  O18  1  0.069358  0.348949  0.620460  1
  O  O19  1  0.929678  0.650607  0.379746  1
  O  O20  1  0.875370  0.900726  0.724618  1
  O  O21  1  0.127024  0.099158  0.275296  1
