# generated using pymatgen
data_Dy4Lu16InBi11
_symmetry_space_group_name_H-M   'P 1'
_cell_length_a   8.15360180
_cell_length_b   9.39271100
_cell_length_c   11.88006937
_cell_angle_alpha   90.00000000
_cell_angle_beta   90.21783601
_cell_angle_gamma   90.00000000
_symmetry_Int_Tables_number   1
_chemical_formula_structural   Dy4Lu16InBi11
_chemical_formula_sum   'Dy4 Lu16 In1 Bi11'
_cell_volume   909.82170950
_cell_formula_units_Z   1
loop_
 _symmetry_equiv_pos_site_id
 _symmetry_equiv_pos_as_xyz
  1  'x, y, z'
loop_
 _atom_site_type_symbol
 _atom_site_label
 _atom_site_symmetry_multiplicity
 _atom_site_fract_x
 _atom_site_fract_y
 _atom_site_fract_z
 _atom_site_occupancy
  Dy  Dy0  1  0.312929  0.250000  0.218434  1
  Dy  Dy1  1  0.811654  0.250000  0.282764  1
  Dy  Dy2  1  0.684528  0.750000  0.783900  1
  Dy  Dy3  1  0.188387  0.750000  0.719640  1
  Lu  Lu4  1  0.352678  0.750000  0.213674  1
  Lu  Lu5  1  0.853154  0.750000  0.282851  1
  Lu  Lu6  1  0.648069  0.250000  0.781459  1
  Lu  Lu7  1  0.148832  0.250000  0.717639  1
  Lu  Lu8  1  0.688145  0.570280  0.058993  1
  Lu  Lu9  1  0.192464  0.933181  0.439367  1
  Lu  Lu10  1  0.307188  0.060486  0.939853  1
  Lu  Lu11  1  0.807624  0.432866  0.560078  1
  Lu  Lu12  1  0.307188  0.439514  0.939853  1
  Lu  Lu13  1  0.807624  0.067134  0.560078  1
  Lu  Lu14  1  0.688145  0.929720  0.058993  1
  Lu  Lu15  1  0.192464  0.566819  0.439367  1
  Lu  Lu16  1  0.477421  0.250000  0.489864  1
  Lu  Lu17  1  0.978479  0.250000  0.010501  1
  Lu  Lu18  1  0.522533  0.750000  0.510125  1
  Lu  Lu19  1  0.029990  0.750000  0.990180  1
  In  In20  1  0.404279  0.750000  0.958961  1
  Bi  Bi21  1  0.902674  0.750000  0.541612  1
  Bi  Bi22  1  0.596786  0.250000  0.040837  1
  Bi  Bi23  1  0.097452  0.250000  0.459119  1
  Bi  Bi24  1  0.564578  0.994465  0.326770  1
  Bi  Bi25  1  0.063541  0.504647  0.175036  1
  Bi  Bi26  1  0.435546  0.494900  0.673541  1
  Bi  Bi27  1  0.935991  0.005509  0.825582  1
  Bi  Bi28  1  0.435546  0.005100  0.673541  1
  Bi  Bi29  1  0.935991  0.494491  0.825582  1
  Bi  Bi30  1  0.564578  0.505535  0.326770  1
  Bi  Bi31  1  0.063541  0.995353  0.175036  1
