# generated using pymatgen
data_Sc3AlGa4Au
_symmetry_space_group_name_H-M   'P 1'
_cell_length_a   6.77194400
_cell_length_b   6.80866355
_cell_length_c   4.13863500
_cell_angle_alpha   90.00000000
_cell_angle_beta   90.00000000
_cell_angle_gamma   119.82176842
_symmetry_Int_Tables_number   1
_chemical_formula_structural   Sc3AlGa4Au
_chemical_formula_sum   'Sc3 Al1 Ga4 Au1'
_cell_volume   165.55418951
_cell_formula_units_Z   1
loop_
 _symmetry_equiv_pos_site_id
 _symmetry_equiv_pos_as_xyz
  1  'x, y, z'
loop_
 _atom_site_type_symbol
 _atom_site_label
 _atom_site_symmetry_multiplicity
 _atom_site_fract_x
 _atom_site_fract_y
 _atom_site_fract_z
 _atom_site_occupancy
  Sc  Sc0  1  0.579485  0.000000  0.000000  1
  Sc  Sc1  1  0.998588  0.576030  0.000000  1
  Sc  Sc2  1  0.422559  0.423970  0.000000  1
  Al  Al3  1  0.244141  0.000000  0.500000  1
  Ga  Ga4  1  0.005030  0.258018  0.500000  1
  Ga  Ga5  1  0.747012  0.741982  0.500000  1
  Ga  Ga6  1  0.334811  0.672042  0.500000  1
  Ga  Ga7  1  0.662771  0.327958  0.500000  1
  Au  Au8  1  0.005603  0.000000  0.000000  1
