# generated using pymatgen
data_Tb4MgAl17Pd6
_symmetry_space_group_name_H-M   'P 1'
_cell_length_a   7.67548423
_cell_length_b   7.68521533
_cell_length_c   9.50421205
_cell_angle_alpha   90.03001366
_cell_angle_beta   90.02396650
_cell_angle_gamma   119.65250548
_symmetry_Int_Tables_number   1
_chemical_formula_structural   Tb4MgAl17Pd6
_chemical_formula_sum   'Tb4 Mg1 Al17 Pd6'
_cell_volume   487.21255991
_cell_formula_units_Z   1
loop_
 _symmetry_equiv_pos_site_id
 _symmetry_equiv_pos_as_xyz
  1  'x, y, z'
loop_
 _atom_site_type_symbol
 _atom_site_label
 _atom_site_symmetry_multiplicity
 _atom_site_fract_x
 _atom_site_fract_y
 _atom_site_fract_z
 _atom_site_occupancy
  Tb  Tb0  1  0.994763  0.673480  0.251780  1
  Tb  Tb1  1  0.005785  0.330725  0.748222  1
  Tb  Tb2  1  0.666002  0.990211  0.251784  1
  Tb  Tb3  1  0.330484  0.005674  0.749511  1
  Mg  Mg4  1  0.997287  0.334385  0.078306  1
  Al  Al5  1  0.129331  0.127279  0.250635  1
  Al  Al6  1  0.870956  0.870287  0.750616  1
  Al  Al7  1  0.000195  0.663602  0.922991  1
  Al  Al8  1  0.999256  0.665220  0.577924  1
  Al  Al9  1  0.334805  0.001208  0.423002  1
  Al  Al10  1  0.000793  0.334593  0.419580  1
  Al  Al11  1  0.665610  0.999439  0.578147  1
  Al  Al12  1  0.667880  0.001887  0.923044  1
  Al  Al13  1  0.334725  0.000947  0.076784  1
  Al  Al14  1  0.333862  0.333752  0.558664  1
  Al  Al15  1  0.665890  0.665727  0.441567  1
  Al  Al16  1  0.666339  0.666017  0.057580  1
  Al  Al17  1  0.331243  0.333625  0.941011  1
  Al  Al18  1  0.340163  0.547587  0.250486  1
  Al  Al19  1  0.661105  0.454207  0.749134  1
  Al  Al20  1  0.549600  0.337451  0.249467  1
  Al  Al21  1  0.454136  0.662945  0.750544  1
  Pd  Pd22  1  0.661907  0.327082  0.996538  1
  Pd  Pd23  1  0.335459  0.678898  0.999750  1
  Pd  Pd24  1  0.329228  0.672429  0.501181  1
  Pd  Pd25  1  0.671575  0.328382  0.500855  1
  Pd  Pd26  1  0.001304  0.993515  0.999422  1
  Pd  Pd27  1  0.000315  0.999446  0.501477  1
