# generated using pymatgen
data_NaNd3(Sn2Ir)8
_symmetry_space_group_name_H-M   'P 1'
_cell_length_a   4.49914100
_cell_length_b   7.26182112
_cell_length_c   18.65859479
_cell_angle_alpha   89.61935117
_cell_angle_beta   90.00000000
_cell_angle_gamma   90.00000000
_symmetry_Int_Tables_number   1
_chemical_formula_structural   NaNd3(Sn2Ir)8
_chemical_formula_sum   'Na1 Nd3 Sn16 Ir8'
_cell_volume   609.59935627
_cell_formula_units_Z   1
loop_
 _symmetry_equiv_pos_site_id
 _symmetry_equiv_pos_as_xyz
  1  'x, y, z'
loop_
 _atom_site_type_symbol
 _atom_site_label
 _atom_site_symmetry_multiplicity
 _atom_site_fract_x
 _atom_site_fract_y
 _atom_site_fract_z
 _atom_site_occupancy
  Na  Na0  1  0.250000  0.005402  0.857279  1
  Nd  Nd1  1  0.750000  0.997667  0.140791  1
  Nd  Nd2  1  0.750000  0.502610  0.644370  1
  Nd  Nd3  1  0.250000  0.497544  0.357632  1
  Sn  Sn4  1  0.250000  0.275445  0.192775  1
  Sn  Sn5  1  0.750000  0.979303  0.567031  1
  Sn  Sn6  1  0.750000  0.293745  0.820170  1
  Sn  Sn7  1  0.250000  0.128841  0.029600  1
  Sn  Sn8  1  0.750000  0.197498  0.317516  1
  Sn  Sn9  1  0.250000  0.482444  0.930768  1
  Sn  Sn10  1  0.750000  0.868722  0.963555  1
  Sn  Sn11  1  0.250000  0.366237  0.533477  1
  Sn  Sn12  1  0.250000  0.697483  0.182865  1
  Sn  Sn13  1  0.750000  0.521971  0.067536  1
  Sn  Sn14  1  0.750000  0.730897  0.808739  1
  Sn  Sn15  1  0.250000  0.020894  0.432515  1
  Sn  Sn16  1  0.750000  0.776879  0.306271  1
  Sn  Sn17  1  0.750000  0.632039  0.468187  1
  Sn  Sn18  1  0.250000  0.220485  0.695921  1
  Sn  Sn19  1  0.250000  0.803014  0.683460  1
  Ir  Ir20  1  0.250000  0.517458  0.783864  1
  Ir  Ir21  1  0.250000  0.746215  0.037404  1
  Ir  Ir22  1  0.750000  0.248825  0.463500  1
  Ir  Ir23  1  0.250000  0.982598  0.286268  1
  Ir  Ir24  1  0.250000  0.751075  0.535467  1
  Ir  Ir25  1  0.750000  0.254464  0.965744  1
  Ir  Ir26  1  0.750000  0.016943  0.712186  1
  Ir  Ir27  1  0.750000  0.483300  0.215109  1
