# generated using pymatgen
data_Lu6TcBiTe
_symmetry_space_group_name_H-M   'P 1'
_cell_length_a   8.10231800
_cell_length_b   8.10231695
_cell_length_c   4.17744700
_cell_angle_alpha   90.00000000
_cell_angle_beta   90.00000000
_cell_angle_gamma   120.00000430
_symmetry_Int_Tables_number   1
_chemical_formula_structural   Lu6TcBiTe
_chemical_formula_sum   'Lu6 Tc1 Bi1 Te1'
_cell_volume   237.49806399
_cell_formula_units_Z   1
loop_
 _symmetry_equiv_pos_site_id
 _symmetry_equiv_pos_as_xyz
  1  'x, y, z'
loop_
 _atom_site_type_symbol
 _atom_site_label
 _atom_site_symmetry_multiplicity
 _atom_site_fract_x
 _atom_site_fract_y
 _atom_site_fract_z
 _atom_site_occupancy
  Lu  Lu0  1  0.233223  0.999212  0.500000  1
  Lu  Lu1  1  0.000788  0.234011  0.500000  1
  Lu  Lu2  1  0.765989  0.766777  0.500000  1
  Lu  Lu3  1  0.615907  0.999196  0.000000  1
  Lu  Lu4  1  0.000804  0.616711  0.000000  1
  Lu  Lu5  1  0.383289  0.384093  0.000000  1
  Tc  Tc6  1  0.000000  0.000000  0.000000  1
  Bi  Bi7  1  0.666667  0.333333  0.500000  1
  Te  Te8  1  0.333333  0.666667  0.500000  1
