# generated using pymatgen
data_Er5Tm7Co4BiRu
_symmetry_space_group_name_H-M   'P 1'
_cell_length_a   8.22921452
_cell_length_b   8.22878862
_cell_length_c   8.22878944
_cell_angle_alpha   110.72701615
_cell_angle_beta   111.12838650
_cell_angle_gamma   106.59422173
_symmetry_Int_Tables_number   1
_chemical_formula_structural   Er5Tm7Co4BiRu
_chemical_formula_sum   'Er5 Tm7 Co4 Bi1 Ru1'
_cell_volume   428.15124334
_cell_formula_units_Z   1
loop_
 _symmetry_equiv_pos_site_id
 _symmetry_equiv_pos_as_xyz
  1  'x, y, z'
loop_
 _atom_site_type_symbol
 _atom_site_label
 _atom_site_symmetry_multiplicity
 _atom_site_fract_x
 _atom_site_fract_y
 _atom_site_fract_z
 _atom_site_occupancy
  Er  Er0  1  0.283835  0.183174  0.467409  1
  Er  Er1  1  0.716013  0.817040  0.532827  1
  Er  Er2  1  0.283835  0.816427  0.100660  1
  Er  Er3  1  0.716013  0.183185  0.898974  1
  Er  Er4  1  0.619282  0.311188  0.308094  1
  Tm  Tm5  1  0.380118  0.688711  0.691407  1
  Tm  Tm6  1  0.003013  0.311259  0.691754  1
  Tm  Tm7  1  0.997411  0.688905  0.308506  1
  Tm  Tm8  1  0.212353  0.408991  0.196398  1
  Tm  Tm9  1  0.787660  0.591258  0.804023  1
  Tm  Tm10  1  0.212353  0.015956  0.803361  1
  Tm  Tm11  1  0.787660  0.983636  0.196403  1
  Co  Co12  1  0.000337  0.375149  0.375067  1
  Co  Co13  1  0.000337  0.625269  0.625187  1
  Co  Co14  1  0.388318  0.888359  0.499960  1
  Co  Co15  1  0.611471  0.111392  0.500079  1
  Bi  Bi16  1  0.499992  0.500092  0.999900  1
  Ru  Ru17  1  0.000001  0.000010  0.999991  1
