# generated using pymatgen
data_TbSm3(Sn5Rh3)2
_symmetry_space_group_name_H-M   'P 1'
_cell_length_a   13.53770016
_cell_length_b   13.53770040
_cell_length_c   7.29124451
_cell_angle_alpha   90.09351984
_cell_angle_beta   89.90648001
_cell_angle_gamma   161.00310022
_symmetry_Int_Tables_number   1
_chemical_formula_structural   TbSm3(Sn5Rh3)2
_chemical_formula_sum   'Tb1 Sm3 Sn10 Rh6'
_cell_volume   434.97522557
_cell_formula_units_Z   1
loop_
 _symmetry_equiv_pos_site_id
 _symmetry_equiv_pos_as_xyz
  1  'x, y, z'
loop_
 _atom_site_type_symbol
 _atom_site_label
 _atom_site_symmetry_multiplicity
 _atom_site_fract_x
 _atom_site_fract_y
 _atom_site_fract_z
 _atom_site_occupancy
  Tb  Tb0  1  0.523940  0.476060  0.239165  1
  Sm  Sm1  1  0.172686  0.827314  0.753442  1
  Sm  Sm2  1  0.827340  0.172660  0.253457  1
  Sm  Sm3  1  0.476504  0.523496  0.738433  1
  Sn  Sn4  1  0.880480  0.119520  0.730573  1
  Sn  Sn5  1  0.119206  0.880794  0.231124  1
  Sn  Sn6  1  0.704570  0.295430  0.049023  1
  Sn  Sn7  1  0.295070  0.704930  0.548933  1
  Sn  Sn8  1  0.596336  0.403664  0.614005  1
  Sn  Sn9  1  0.404077  0.595923  0.114357  1
  Sn  Sn10  1  0.952429  0.047571  0.399371  1
  Sn  Sn11  1  0.048018  0.951982  0.901250  1
  Sn  Sn12  1  0.290423  0.709577  0.974953  1
  Sn  Sn13  1  0.709535  0.290465  0.474740  1
  Rh  Rh14  1  0.050675  0.949325  0.519040  1
  Rh  Rh15  1  0.949558  0.050442  0.020935  1
  Rh  Rh16  1  0.777450  0.222550  0.762752  1
  Rh  Rh17  1  0.222234  0.777766  0.262594  1
  Rh  Rh18  1  0.393729  0.606271  0.483136  1
  Rh  Rh19  1  0.605739  0.394261  0.984717  1
