# generated using pymatgen
data_Nd16YTm3Sn16
_symmetry_space_group_name_H-M   'P 1'
_cell_length_a   8.22161100
_cell_length_b   8.37648800
_cell_length_c   15.90808600
_cell_angle_alpha   90.00000000
_cell_angle_beta   90.00000000
_cell_angle_gamma   90.00353485
_symmetry_Int_Tables_number   1
_chemical_formula_structural   Nd16YTm3Sn16
_chemical_formula_sum   'Nd16 Y1 Tm3 Sn16'
_cell_volume   1095.56165896
_cell_formula_units_Z   1
loop_
 _symmetry_equiv_pos_site_id
 _symmetry_equiv_pos_as_xyz
  1  'x, y, z'
loop_
 _atom_site_type_symbol
 _atom_site_label
 _atom_site_symmetry_multiplicity
 _atom_site_fract_x
 _atom_site_fract_y
 _atom_site_fract_z
 _atom_site_occupancy
  Nd  Nd0  1  0.017878  0.180809  0.401486  1
  Nd  Nd1  1  0.368042  0.837778  0.120854  1
  Nd  Nd2  1  0.132191  0.337522  0.621011  1
  Nd  Nd3  1  0.482015  0.680951  0.901434  1
  Nd  Nd4  1  0.867443  0.662723  0.120871  1
  Nd  Nd5  1  0.132191  0.337522  0.878989  1
  Nd  Nd6  1  0.482015  0.680951  0.598566  1
  Nd  Nd7  1  0.632176  0.162474  0.620927  1
  Nd  Nd8  1  0.867443  0.662723  0.379129  1
  Nd  Nd9  1  0.017878  0.180809  0.098514  1
  Nd  Nd10  1  0.982024  0.819041  0.901452  1
  Nd  Nd11  1  0.632176  0.162474  0.879073  1
  Nd  Nd12  1  0.518203  0.318914  0.098475  1
  Nd  Nd13  1  0.368042  0.837778  0.379146  1
  Nd  Nd14  1  0.982024  0.819041  0.598548  1
  Nd  Nd15  1  0.518203  0.318914  0.401525  1
  Y  Y16  1  0.198863  0.501950  0.250000  1
  Tm  Tm17  1  0.699344  0.997880  0.250000  1
  Tm  Tm18  1  0.300662  0.002057  0.750000  1
  Tm  Tm19  1  0.800658  0.497921  0.750000  1
  Sn  Sn20  1  0.792010  0.464975  0.543995  1
  Sn  Sn21  1  0.708001  0.964939  0.456061  1
  Sn  Sn22  1  0.675306  0.853190  0.750000  1
  Sn  Sn23  1  0.208005  0.535117  0.456348  1
  Sn  Sn24  1  0.291999  0.035069  0.956006  1
  Sn  Sn25  1  0.824502  0.353012  0.250000  1
  Sn  Sn26  1  0.792010  0.464975  0.956005  1
  Sn  Sn27  1  0.564725  0.616703  0.250000  1
  Sn  Sn28  1  0.208005  0.535117  0.043652  1
  Sn  Sn29  1  0.435987  0.383465  0.750000  1
  Sn  Sn30  1  0.175259  0.646876  0.750000  1
  Sn  Sn31  1  0.935968  0.116553  0.750000  1
  Sn  Sn32  1  0.291999  0.035069  0.543994  1
  Sn  Sn33  1  0.708001  0.964939  0.043939  1
  Sn  Sn34  1  0.324866  0.146086  0.250000  1
  Sn  Sn35  1  0.063887  0.883685  0.250000  1
