# generated using pymatgen
data_Er2Th3Sb3C
_symmetry_space_group_name_H-M   'P 1'
_cell_length_a   9.15313200
_cell_length_b   9.15313301
_cell_length_c   6.39926300
_cell_angle_alpha   90.00000000
_cell_angle_beta   90.00000000
_cell_angle_gamma   119.99999636
_symmetry_Int_Tables_number   1
_chemical_formula_structural   Er2Th3Sb3C
_chemical_formula_sum   'Er4 Th6 Sb6 C2'
_cell_volume   464.30152042
_cell_formula_units_Z   2
loop_
 _symmetry_equiv_pos_site_id
 _symmetry_equiv_pos_as_xyz
  1  'x, y, z'
loop_
 _atom_site_type_symbol
 _atom_site_label
 _atom_site_symmetry_multiplicity
 _atom_site_fract_x
 _atom_site_fract_y
 _atom_site_fract_z
 _atom_site_occupancy
  Er  Er0  1  0.666667  0.333333  0.000000  1
  Er  Er1  1  0.333333  0.666667  0.000000  1
  Er  Er2  1  0.333333  0.666667  0.500000  1
  Er  Er3  1  0.666667  0.333333  0.500000  1
  Th  Th4  1  0.774498  0.774498  0.750000  1
  Th  Th5  1  0.225502  0.000000  0.750000  1
  Th  Th6  1  0.000000  0.225502  0.750000  1
  Th  Th7  1  0.225502  0.225502  0.250000  1
  Th  Th8  1  0.774498  0.000000  0.250000  1
  Th  Th9  1  0.000000  0.774498  0.250000  1
  Sb  Sb10  1  0.404308  0.404308  0.750000  1
  Sb  Sb11  1  0.595692  0.000000  0.750000  1
  Sb  Sb12  1  0.000000  0.595692  0.750000  1
  Sb  Sb13  1  0.595692  0.595692  0.250000  1
  Sb  Sb14  1  0.404308  0.000000  0.250000  1
  Sb  Sb15  1  0.000000  0.404308  0.250000  1
  C  C16  1  0.000000  0.000000  0.000000  1
  C  C17  1  0.000000  0.000000  0.500000  1
