# generated using pymatgen
data_CeHf2(Ni3P2)3
_symmetry_space_group_name_H-M   'P 1'
_cell_length_a   3.70697200
_cell_length_b   10.37445600
_cell_length_c   12.16597000
_cell_angle_alpha   90.00000000
_cell_angle_beta   90.00000000
_cell_angle_gamma   90.00000000
_symmetry_Int_Tables_number   1
_chemical_formula_structural   CeHf2(Ni3P2)3
_chemical_formula_sum   'Ce2 Hf4 Ni18 P12'
_cell_volume   467.87665892
_cell_formula_units_Z   2
loop_
 _symmetry_equiv_pos_site_id
 _symmetry_equiv_pos_as_xyz
  1  'x, y, z'
loop_
 _atom_site_type_symbol
 _atom_site_label
 _atom_site_symmetry_multiplicity
 _atom_site_fract_x
 _atom_site_fract_y
 _atom_site_fract_z
 _atom_site_occupancy
  Ce  Ce0  1  0.751889  0.000000  0.474788  1
  Ce  Ce1  1  0.251889  0.500000  0.525212  1
  Hf  Hf2  1  0.251830  0.680489  0.796221  1
  Hf  Hf3  1  0.251830  0.319511  0.796221  1
  Hf  Hf4  1  0.751830  0.819511  0.203779  1
  Hf  Hf5  1  0.751830  0.180489  0.203779  1
  Ni  Ni6  1  0.751747  0.000000  0.014997  1
  Ni  Ni7  1  0.251747  0.500000  0.985003  1
  Ni  Ni8  1  0.251957  0.200598  0.572307  1
  Ni  Ni9  1  0.251957  0.799402  0.572307  1
  Ni  Ni10  1  0.751957  0.299402  0.427693  1
  Ni  Ni11  1  0.751957  0.700598  0.427693  1
  Ni  Ni12  1  0.251830  0.623931  0.286708  1
  Ni  Ni13  1  0.251830  0.376069  0.286708  1
  Ni  Ni14  1  0.751830  0.876069  0.713292  1
  Ni  Ni15  1  0.751830  0.123931  0.713292  1
  Ni  Ni16  1  0.251805  0.168918  0.004829  1
  Ni  Ni17  1  0.251805  0.831082  0.004829  1
  Ni  Ni18  1  0.751805  0.331082  0.995171  1
  Ni  Ni19  1  0.751805  0.668918  0.995171  1
  Ni  Ni20  1  0.251504  0.000000  0.841920  1
  Ni  Ni21  1  0.751504  0.500000  0.158080  1
  Ni  Ni22  1  0.251902  0.000000  0.295508  1
  Ni  Ni23  1  0.751902  0.500000  0.704492  1
  P  P24  1  0.251912  0.188564  0.380028  1
  P  P25  1  0.251912  0.811436  0.380028  1
  P  P26  1  0.751912  0.311436  0.619972  1
  P  P27  1  0.751912  0.688564  0.619972  1
  P  P28  1  0.251754  0.000000  0.121193  1
  P  P29  1  0.751754  0.500000  0.878807  1
  P  P30  1  0.251754  0.656433  0.109819  1
  P  P31  1  0.251754  0.343567  0.109819  1
  P  P32  1  0.751754  0.843567  0.890181  1
  P  P33  1  0.751754  0.156433  0.890181  1
  P  P34  1  0.251834  0.000000  0.657653  1
  P  P35  1  0.751834  0.500000  0.342347  1
