# generated using pymatgen
data_Tb12Th4MgCd(HgIr2)2
_symmetry_space_group_name_H-M   'P 1'
_cell_length_a   9.80591346
_cell_length_b   9.80591426
_cell_length_c   9.80591400
_cell_angle_alpha   59.88318377
_cell_angle_beta   59.88318106
_cell_angle_gamma   59.88318424
_symmetry_Int_Tables_number   1
_chemical_formula_structural   Tb12Th4MgCd(HgIr2)2
_chemical_formula_sum   'Tb12 Th4 Mg1 Cd1 Hg2 Ir4'
_cell_volume   664.96167547
_cell_formula_units_Z   1
loop_
 _symmetry_equiv_pos_site_id
 _symmetry_equiv_pos_as_xyz
  1  'x, y, z'
loop_
 _atom_site_type_symbol
 _atom_site_label
 _atom_site_symmetry_multiplicity
 _atom_site_fract_x
 _atom_site_fract_y
 _atom_site_fract_z
 _atom_site_occupancy
  Tb  Tb0  1  0.060375  0.439921  0.439921  1
  Tb  Tb1  1  0.437169  0.063418  0.063418  1
  Tb  Tb2  1  0.438972  0.060960  0.439659  1
  Tb  Tb3  1  0.063311  0.437747  0.063490  1
  Tb  Tb4  1  0.438972  0.439659  0.060960  1
  Tb  Tb5  1  0.063311  0.063490  0.437747  1
  Tb  Tb6  1  0.187515  0.815723  0.815723  1
  Tb  Tb7  1  0.813192  0.187379  0.187379  1
  Tb  Tb8  1  0.815044  0.189024  0.815337  1
  Tb  Tb9  1  0.185893  0.813717  0.188105  1
  Tb  Tb10  1  0.815044  0.815337  0.189024  1
  Tb  Tb11  1  0.185893  0.188105  0.813717  1
  Th  Th12  1  0.598923  0.599109  0.599109  1
  Th  Th13  1  0.599671  0.599439  0.201642  1
  Th  Th14  1  0.599671  0.201642  0.599439  1
  Th  Th15  1  0.200941  0.599738  0.599738  1
  Mg  Mg16  1  0.826229  0.824967  0.824967  1
  Cd  Cd17  1  0.501423  0.831828  0.831828  1
  Hg  Hg18  1  0.834653  0.836736  0.492302  1
  Hg  Hg19  1  0.834653  0.492302  0.836736  1
  Ir  Ir20  1  0.393743  0.393879  0.393879  1
  Ir  Ir21  1  0.393281  0.393359  0.819005  1
  Ir  Ir22  1  0.393281  0.819005  0.393359  1
  Ir  Ir23  1  0.818844  0.393518  0.393518  1
