# generated using pymatgen
data_Tb2Ho5Co2Sn23Os4
_symmetry_space_group_name_H-M   'P 1'
_cell_length_a   9.79688015
_cell_length_b   9.84907608
_cell_length_c   10.04390094
_cell_angle_alpha   89.99999887
_cell_angle_beta   89.79638404
_cell_angle_gamma   120.17640234
_symmetry_Int_Tables_number   1
_chemical_formula_structural   Tb2Ho5Co2Sn23Os4
_chemical_formula_sum   'Tb2 Ho5 Co2 Sn23 Os4'
_cell_volume   837.79534631
_cell_formula_units_Z   1
loop_
 _symmetry_equiv_pos_site_id
 _symmetry_equiv_pos_as_xyz
  1  'x, y, z'
loop_
 _atom_site_type_symbol
 _atom_site_label
 _atom_site_symmetry_multiplicity
 _atom_site_fract_x
 _atom_site_fract_y
 _atom_site_fract_z
 _atom_site_occupancy
  Tb  Tb0  1  0.000228  0.000114  0.000031  1
  Tb  Tb1  1  0.965315  0.482657  0.695967  1
  Ho  Ho2  1  0.484951  0.518243  0.305030  1
  Ho  Ho3  1  0.515237  0.481910  0.694903  1
  Ho  Ho4  1  0.484951  0.966708  0.305030  1
  Ho  Ho5  1  0.515237  0.033327  0.694903  1
  Ho  Ho6  1  0.033231  0.516616  0.303482  1
  Co  Co7  1  0.339190  0.169594  0.200240  1
  Co  Co8  1  0.660632  0.830316  0.799924  1
  Sn  Sn9  1  0.349224  0.002785  0.005055  1
  Sn  Sn10  1  0.650963  0.997327  0.995169  1
  Sn  Sn11  1  0.000135  0.349394  0.000061  1
  Sn  Sn12  1  0.000135  0.650741  0.000061  1
  Sn  Sn13  1  0.650963  0.653635  0.995169  1
  Sn  Sn14  1  0.349224  0.346439  0.005055  1
  Sn  Sn15  1  0.336264  0.668133  0.823084  1
  Sn  Sn16  1  0.663811  0.331904  0.177047  1
  Sn  Sn17  1  0.000054  0.000027  0.499994  1
  Sn  Sn18  1  0.779619  0.220471  0.461822  1
  Sn  Sn19  1  0.220543  0.779682  0.537621  1
  Sn  Sn20  1  0.779619  0.559148  0.461822  1
  Sn  Sn21  1  0.220543  0.440862  0.537621  1
  Sn  Sn22  1  0.438611  0.219305  0.455482  1
  Sn  Sn23  1  0.561384  0.780692  0.544405  1
  Sn  Sn24  1  0.335464  0.667732  0.126004  1
  Sn  Sn25  1  0.663218  0.331609  0.874784  1
  Sn  Sn26  1  0.120483  0.888647  0.276862  1
  Sn  Sn27  1  0.879572  0.110958  0.723240  1
  Sn  Sn28  1  0.120483  0.231837  0.276862  1
  Sn  Sn29  1  0.879572  0.768613  0.723240  1
  Sn  Sn30  1  0.763783  0.881892  0.277722  1
  Sn  Sn31  1  0.236463  0.118231  0.722164  1
  Os  Os32  1  0.829080  0.168523  0.201161  1
  Os  Os33  1  0.171368  0.832158  0.798912  1
  Os  Os34  1  0.829080  0.660556  0.201161  1
  Os  Os35  1  0.171368  0.339209  0.798912  1
