# generated using pymatgen
data_Ac7Pr9(NdPb4)4
_symmetry_space_group_name_H-M   'P 1'
_cell_length_a   8.57064883
_cell_length_b   16.55447731
_cell_length_c   8.67925400
_cell_angle_alpha   90.09217111
_cell_angle_beta   89.61070934
_cell_angle_gamma   90.29793827
_symmetry_Int_Tables_number   1
_chemical_formula_structural   Ac7Pr9(NdPb4)4
_chemical_formula_sum   'Ac7 Pr9 Nd4 Pb16'
_cell_volume   1231.38862681
_cell_formula_units_Z   1
loop_
 _symmetry_equiv_pos_site_id
 _symmetry_equiv_pos_as_xyz
  1  'x, y, z'
loop_
 _atom_site_type_symbol
 _atom_site_label
 _atom_site_symmetry_multiplicity
 _atom_site_fract_x
 _atom_site_fract_y
 _atom_site_fract_z
 _atom_site_occupancy
  Ac  Ac0  1  0.978698  0.901462  0.821137  1
  Ac  Ac1  1  0.520819  0.097108  0.321920  1
  Ac  Ac2  1  0.022869  0.403409  0.179292  1
  Ac  Ac3  1  0.522716  0.403129  0.324269  1
  Ac  Ac4  1  0.020910  0.096968  0.178268  1
  Ac  Ac5  1  0.479573  0.902844  0.677546  1
  Ac  Ac6  1  0.977745  0.597116  0.819561  1
  Pr  Pr7  1  0.635148  0.620548  0.155359  1
  Pr  Pr8  1  0.137902  0.878862  0.344649  1
  Pr  Pr9  1  0.362616  0.121994  0.844234  1
  Pr  Pr10  1  0.864698  0.381184  0.653841  1
  Pr  Pr11  1  0.366363  0.379423  0.844750  1
  Pr  Pr12  1  0.862443  0.120771  0.655128  1
  Pr  Pr13  1  0.637139  0.876976  0.155775  1
  Pr  Pr14  1  0.135743  0.618805  0.345100  1
  Pr  Pr15  1  0.474517  0.600243  0.677177  1
  Nd  Nd16  1  0.801081  0.749099  0.497069  1
  Nd  Nd17  1  0.300515  0.749002  0.001528  1
  Nd  Nd18  1  0.199291  0.251116  0.503521  1
  Nd  Nd19  1  0.699788  0.250117  0.997742  1
  Pb  Pb20  1  0.702976  0.454698  0.959479  1
  Pb  Pb21  1  0.201992  0.045499  0.543226  1
  Pb  Pb22  1  0.299142  0.954005  0.040799  1
  Pb  Pb23  1  0.788089  0.547604  0.463923  1
  Pb  Pb24  1  0.298738  0.546663  0.035276  1
  Pb  Pb25  1  0.798139  0.954399  0.456168  1
  Pb  Pb26  1  0.700956  0.044825  0.958681  1
  Pb  Pb27  1  0.209520  0.457514  0.546195  1
  Pb  Pb28  1  0.438746  0.747686  0.372052  1
  Pb  Pb29  1  0.941064  0.748865  0.130317  1
  Pb  Pb30  1  0.560990  0.250406  0.630297  1
  Pb  Pb31  1  0.058995  0.251410  0.869212  1
  Pb  Pb32  1  0.665704  0.747024  0.850092  1
  Pb  Pb33  1  0.174589  0.748650  0.644930  1
  Pb  Pb34  1  0.329737  0.250260  0.147019  1
  Pb  Pb35  1  0.830048  0.250310  0.354464  1
