# generated using pymatgen
data_Lu3Al2(ReN4)3
_symmetry_space_group_name_H-M   'P 1'
_cell_length_a   10.59918785
_cell_length_b   10.59918742
_cell_length_c   10.59918800
_cell_angle_alpha   109.47122365
_cell_angle_beta   109.47122284
_cell_angle_gamma   109.47121924
_symmetry_Int_Tables_number   1
_chemical_formula_structural   Lu3Al2(ReN4)3
_chemical_formula_sum   'Lu12 Al8 Re12 N48'
_cell_volume   916.63375272
_cell_formula_units_Z   4
loop_
 _symmetry_equiv_pos_site_id
 _symmetry_equiv_pos_as_xyz
  1  'x, y, z'
loop_
 _atom_site_type_symbol
 _atom_site_label
 _atom_site_symmetry_multiplicity
 _atom_site_fract_x
 _atom_site_fract_y
 _atom_site_fract_z
 _atom_site_occupancy
  Lu  Lu0  1  0.250000  0.375000  0.125000  1
  Lu  Lu1  1  0.375000  0.750000  0.125000  1
  Lu  Lu2  1  0.375000  0.125000  0.250000  1
  Lu  Lu3  1  0.875000  0.625000  0.250000  1
  Lu  Lu4  1  0.750000  0.125000  0.375000  1
  Lu  Lu5  1  0.125000  0.250000  0.375000  1
  Lu  Lu6  1  0.874999  0.750000  0.625000  1
  Lu  Lu7  1  0.250000  0.875000  0.625000  1
  Lu  Lu8  1  0.125000  0.375000  0.750000  1
  Lu  Lu9  1  0.625000  0.874999  0.750000  1
  Lu  Lu10  1  0.625000  0.250000  0.875000  1
  Lu  Lu11  1  0.750000  0.625000  0.874999  1
  Al  Al12  1  0.000000  0.000000  0.000000  1
  Al  Al13  1  0.500001  0.000000  0.000000  1
  Al  Al14  1  0.000000  0.500001  0.000000  1
  Al  Al15  1  0.500000  0.500000  0.000000  1
  Al  Al16  1  0.000000  0.000000  0.500001  1
  Al  Al17  1  0.500000  0.000000  0.500000  1
  Al  Al18  1  0.000000  0.500000  0.500000  1
  Al  Al19  1  0.500001  0.500001  0.500001  1
  Re  Re20  1  0.874999  0.250000  0.124999  1
  Re  Re21  1  0.750000  0.875000  0.125000  1
  Re  Re22  1  0.625000  0.375000  0.250000  1
  Re  Re23  1  0.124999  0.874999  0.250000  1
  Re  Re24  1  0.250000  0.625000  0.375000  1
  Re  Re25  1  0.625000  0.750000  0.375000  1
  Re  Re26  1  0.375000  0.250000  0.625000  1
  Re  Re27  1  0.750000  0.375000  0.625000  1
  Re  Re28  1  0.875000  0.125000  0.750000  1
  Re  Re29  1  0.375000  0.625000  0.750000  1
  Re  Re30  1  0.250000  0.124999  0.874999  1
  Re  Re31  1  0.125000  0.750000  0.875000  1
  N  N32  1  0.204859  0.118479  0.024311  1
  N  N33  1  0.319452  0.905831  0.024310  1
  N  N34  1  0.881521  0.405831  0.086379  1
  N  N35  1  0.704859  0.680548  0.086379  1
  N  N36  1  0.618479  0.413621  0.094169  1
  N  N37  1  0.975689  0.680548  0.094169  1
  N  N38  1  0.024311  0.204859  0.118479  1
  N  N39  1  0.594169  0.913620  0.118478  1
  N  N40  1  0.204858  0.586379  0.180548  1
  N  N41  1  0.475690  0.594169  0.180548  1
  N  N42  1  0.118479  0.024311  0.204859  1
  N  N43  1  0.586379  0.180548  0.204858  1
  N  N44  1  0.475690  0.381522  0.295141  1
  N  N45  1  0.319452  0.913621  0.295141  1
  N  N46  1  0.905831  0.024310  0.319452  1
  N  N47  1  0.913621  0.295141  0.319452  1
  N  N48  1  0.295141  0.475690  0.381522  1
  N  N49  1  0.586379  0.905832  0.381522  1
  N  N50  1  0.819452  0.524311  0.405832  1
  N  N51  1  0.086379  0.881521  0.405831  1
  N  N52  1  0.094169  0.618479  0.413621  1
  N  N53  1  0.819451  0.795141  0.413621  1
  N  N54  1  0.594169  0.180548  0.475690  1
  N  N55  1  0.381522  0.295141  0.475690  1
  N  N56  1  0.618478  0.704858  0.524310  1
  N  N57  1  0.405832  0.819452  0.524311  1
  N  N58  1  0.180548  0.204858  0.586379  1
  N  N59  1  0.905832  0.381522  0.586379  1
  N  N60  1  0.913620  0.118478  0.594169  1
  N  N61  1  0.180548  0.475690  0.594169  1
  N  N62  1  0.413621  0.094169  0.618479  1
  N  N63  1  0.704858  0.524310  0.618478  1
  N  N64  1  0.086379  0.704859  0.680548  1
  N  N65  1  0.094169  0.975689  0.680548  1
  N  N66  1  0.680548  0.086379  0.704859  1
  N  N67  1  0.524310  0.618478  0.704858  1
  N  N68  1  0.413621  0.819451  0.795141  1
  N  N69  1  0.881522  0.975690  0.795142  1
  N  N70  1  0.524311  0.405832  0.819452  1
  N  N71  1  0.795141  0.413621  0.819451  1
  N  N72  1  0.405831  0.086379  0.881521  1
  N  N73  1  0.975690  0.795142  0.881522  1
  N  N74  1  0.024310  0.319452  0.905831  1
  N  N75  1  0.381522  0.586379  0.905832  1
  N  N76  1  0.295141  0.319452  0.913621  1
  N  N77  1  0.118478  0.594169  0.913620  1
  N  N78  1  0.680548  0.094169  0.975689  1
  N  N79  1  0.795142  0.881522  0.975690  1
