# generated using pymatgen
data_Ho2Ga5Co3
_symmetry_space_group_name_H-M   'P 1'
_cell_length_a   5.50476049
_cell_length_b   8.32787178
_cell_length_c   8.32787174
_cell_angle_alpha   96.76129574
_cell_angle_beta   109.32298806
_cell_angle_gamma   109.32298551
_symmetry_Int_Tables_number   1
_chemical_formula_structural   Ho2Ga5Co3
_chemical_formula_sum   'Ho4 Ga10 Co6'
_cell_volume   328.71999308
_cell_formula_units_Z   2
loop_
 _symmetry_equiv_pos_site_id
 _symmetry_equiv_pos_as_xyz
  1  'x, y, z'
loop_
 _atom_site_type_symbol
 _atom_site_label
 _atom_site_symmetry_multiplicity
 _atom_site_fract_x
 _atom_site_fract_y
 _atom_site_fract_z
 _atom_site_occupancy
  Ho  Ho0  1  0.777523  0.419672  0.132188  1
  Ho  Ho1  1  0.722477  0.867812  0.580328  1
  Ho  Ho2  1  0.222477  0.580328  0.867812  1
  Ho  Ho3  1  0.277523  0.132188  0.419672  1
  Ga  Ga4  1  0.819205  0.736534  0.904716  1
  Ga  Ga5  1  0.680795  0.095284  0.263466  1
  Ga  Ga6  1  0.180795  0.263466  0.095284  1
  Ga  Ga7  1  0.319205  0.904716  0.736534  1
  Ga  Ga8  1  0.750000  0.204298  0.795702  1
  Ga  Ga9  1  0.250000  0.795702  0.204298  1
  Ga  Ga10  1  0.750000  0.500608  0.499392  1
  Ga  Ga11  1  0.250000  0.499392  0.500608  1
  Ga  Ga12  1  0.750000  0.794715  0.205285  1
  Ga  Ga13  1  0.250000  0.205285  0.794715  1
  Co  Co14  1  0.586667  0.435775  0.735133  1
  Co  Co15  1  0.913333  0.264867  0.564225  1
  Co  Co16  1  0.413333  0.564225  0.264867  1
  Co  Co17  1  0.086667  0.735133  0.435775  1
  Co  Co18  1  0.750000  0.000071  0.999929  1
  Co  Co19  1  0.250000  0.999929  0.000071  1
