# generated using pymatgen
data_SrFe3NiSb12
_symmetry_space_group_name_H-M   'P 1'
_cell_length_a   7.97536046
_cell_length_b   7.98872303
_cell_length_c   7.97536140
_cell_angle_alpha   109.50516993
_cell_angle_beta   109.43725365
_cell_angle_gamma   109.50516238
_symmetry_Int_Tables_number   1
_chemical_formula_structural   SrFe3NiSb12
_chemical_formula_sum   'Sr1 Fe3 Ni1 Sb12'
_cell_volume   390.99756739
_cell_formula_units_Z   1
loop_
 _symmetry_equiv_pos_site_id
 _symmetry_equiv_pos_as_xyz
  1  'x, y, z'
loop_
 _atom_site_type_symbol
 _atom_site_label
 _atom_site_symmetry_multiplicity
 _atom_site_fract_x
 _atom_site_fract_y
 _atom_site_fract_z
 _atom_site_occupancy
  Sr  Sr0  1  0.000000  0.000000  0.000000  1
  Fe  Fe1  1  0.000000  0.000000  0.500000  1
  Fe  Fe2  1  0.500000  0.000000  0.000000  1
  Fe  Fe3  1  0.500000  0.500000  0.500000  1
  Ni  Ni4  1  0.000000  0.500000  0.000000  1
  Sb  Sb5  1  0.335039  0.170751  0.836674  1
  Sb  Sb6  1  0.664961  0.829249  0.163326  1
  Sb  Sb7  1  0.657210  0.500607  0.835663  1
  Sb  Sb8  1  0.342790  0.499393  0.164337  1
  Sb  Sb9  1  0.178453  0.843396  0.342790  1
  Sb  Sb10  1  0.821547  0.156604  0.657210  1
  Sb  Sb11  1  0.501636  0.835712  0.664961  1
  Sb  Sb12  1  0.498364  0.164288  0.335039  1
  Sb  Sb13  1  0.835663  0.335057  0.178453  1
  Sb  Sb14  1  0.164337  0.664943  0.821547  1
  Sb  Sb15  1  0.836674  0.665924  0.501636  1
  Sb  Sb16  1  0.163326  0.334076  0.498364  1
