# generated using pymatgen
data_Hf6TcNi17P12
_symmetry_space_group_name_H-M   'P 1'
_cell_length_a   3.63696800
_cell_length_b   10.34808901
_cell_length_c   12.08041302
_cell_angle_alpha   89.99459460
_cell_angle_beta   89.99663066
_cell_angle_gamma   90.00127320
_symmetry_Int_Tables_number   1
_chemical_formula_structural   Hf6TcNi17P12
_chemical_formula_sum   'Hf6 Tc1 Ni17 P12'
_cell_volume   454.65441820
_cell_formula_units_Z   1
loop_
 _symmetry_equiv_pos_site_id
 _symmetry_equiv_pos_as_xyz
  1  'x, y, z'
loop_
 _atom_site_type_symbol
 _atom_site_label
 _atom_site_symmetry_multiplicity
 _atom_site_fract_x
 _atom_site_fract_y
 _atom_site_fract_z
 _atom_site_occupancy
  Hf  Hf0  1  0.751868  0.999989  0.469415  1
  Hf  Hf1  1  0.251899  0.500000  0.525439  1
  Hf  Hf2  1  0.251769  0.679819  0.793469  1
  Hf  Hf3  1  0.251792  0.320232  0.793468  1
  Hf  Hf4  1  0.751878  0.820416  0.207896  1
  Hf  Hf5  1  0.751886  0.179537  0.207918  1
  Tc  Tc6  1  0.251793  0.000026  0.838596  1
  Ni  Ni7  1  0.751727  0.000031  0.016448  1
  Ni  Ni8  1  0.251740  0.499949  0.983675  1
  Ni  Ni9  1  0.251741  0.196642  0.567576  1
  Ni  Ni10  1  0.251679  0.803385  0.567543  1
  Ni  Ni11  1  0.751810  0.301855  0.431576  1
  Ni  Ni12  1  0.751859  0.698087  0.431603  1
  Ni  Ni13  1  0.252094  0.624805  0.292982  1
  Ni  Ni14  1  0.252075  0.375209  0.293019  1
  Ni  Ni15  1  0.751737  0.873859  0.705402  1
  Ni  Ni16  1  0.751752  0.126173  0.705351  1
  Ni  Ni17  1  0.251691  0.171583  0.010883  1
  Ni  Ni18  1  0.251704  0.828404  0.010918  1
  Ni  Ni19  1  0.751728  0.333571  0.993786  1
  Ni  Ni20  1  0.751697  0.666385  0.993736  1
  Ni  Ni21  1  0.752128  0.500043  0.164588  1
  Ni  Ni22  1  0.251895  0.999983  0.298730  1
  Ni  Ni23  1  0.751705  0.500050  0.699472  1
  P  P24  1  0.251804  0.183120  0.383161  1
  P  P25  1  0.251851  0.816842  0.383140  1
  P  P26  1  0.751763  0.317694  0.616257  1
  P  P27  1  0.751696  0.682381  0.616268  1
  P  P28  1  0.251808  0.999997  0.122687  1
  P  P29  1  0.751828  0.499988  0.875183  1
  P  P30  1  0.251811  0.652832  0.113190  1
  P  P31  1  0.251882  0.347105  0.113225  1
  P  P32  1  0.751782  0.843337  0.888339  1
  P  P33  1  0.751771  0.156684  0.888291  1
  P  P34  1  0.251867  0.000000  0.644562  1
  P  P35  1  0.752099  0.499988  0.352206  1
