# generated using pymatgen
data_Yb10P7Au
_symmetry_space_group_name_H-M   'P 1'
_cell_length_a   7.47371641
_cell_length_b   7.62210564
_cell_length_c   14.57852000
_cell_angle_alpha   90.00000000
_cell_angle_beta   90.00000000
_cell_angle_gamma   86.24170237
_symmetry_Int_Tables_number   1
_chemical_formula_structural   Yb10P7Au
_chemical_formula_sum   'Yb20 P14 Au2'
_cell_volume   828.68606133
_cell_formula_units_Z   2
loop_
 _symmetry_equiv_pos_site_id
 _symmetry_equiv_pos_as_xyz
  1  'x, y, z'
loop_
 _atom_site_type_symbol
 _atom_site_label
 _atom_site_symmetry_multiplicity
 _atom_site_fract_x
 _atom_site_fract_y
 _atom_site_fract_z
 _atom_site_occupancy
  Yb  Yb0  1  0.025584  0.197451  0.413406  1
  Yb  Yb1  1  0.871232  0.646032  0.386842  1
  Yb  Yb2  1  0.533891  0.326195  0.101688  1
  Yb  Yb3  1  0.128768  0.353968  0.613158  1
  Yb  Yb4  1  0.387610  0.849314  0.391660  1
  Yb  Yb5  1  0.128768  0.353968  0.886842  1
  Yb  Yb6  1  0.387610  0.849314  0.108340  1
  Yb  Yb7  1  0.214646  0.494667  0.250000  1
  Yb  Yb8  1  0.533891  0.326195  0.398312  1
  Yb  Yb9  1  0.785354  0.505333  0.750000  1
  Yb  Yb10  1  0.974416  0.802549  0.913406  1
  Yb  Yb11  1  0.974416  0.802549  0.586594  1
  Yb  Yb12  1  0.466109  0.673805  0.601688  1
  Yb  Yb13  1  0.612390  0.150686  0.608340  1
  Yb  Yb14  1  0.293613  0.001222  0.750000  1
  Yb  Yb15  1  0.612390  0.150686  0.891660  1
  Yb  Yb16  1  0.706387  0.998778  0.250000  1
  Yb  Yb17  1  0.871232  0.646032  0.113158  1
  Yb  Yb18  1  0.466109  0.673805  0.898312  1
  Yb  Yb19  1  0.025584  0.197451  0.086594  1
  P  P20  1  0.818702  0.375709  0.250000  1
  P  P21  1  0.405846  0.404181  0.750000  1
  P  P22  1  0.674253  0.869300  0.750000  1
  P  P23  1  0.775505  0.458126  0.546764  1
  P  P24  1  0.732808  0.975192  0.053991  1
  P  P25  1  0.775505  0.458126  0.953236  1
  P  P26  1  0.224495  0.541874  0.453236  1
  P  P27  1  0.224495  0.541874  0.046764  1
  P  P28  1  0.181298  0.624291  0.750000  1
  P  P29  1  0.325747  0.130700  0.250000  1
  P  P30  1  0.594154  0.595819  0.250000  1
  P  P31  1  0.267192  0.024808  0.946009  1
  P  P32  1  0.732808  0.975192  0.446009  1
  P  P33  1  0.267192  0.024808  0.553991  1
  Au  Au34  1  0.084704  0.877153  0.250000  1
  Au  Au35  1  0.915296  0.122847  0.750000  1
