# generated using pymatgen
data_Pr4TiCo16(ReP4)3
_symmetry_space_group_name_H-M   'P 1'
_cell_length_a   3.76159700
_cell_length_b   10.55311382
_cell_length_c   11.98808132
_cell_angle_alpha   90.18432316
_cell_angle_beta   90.00000000
_cell_angle_gamma   90.00000000
_symmetry_Int_Tables_number   1
_chemical_formula_structural   Pr4TiCo16(ReP4)3
_chemical_formula_sum   'Pr4 Ti1 Co16 Re3 P12'
_cell_volume   475.88314223
_cell_formula_units_Z   1
loop_
 _symmetry_equiv_pos_site_id
 _symmetry_equiv_pos_as_xyz
  1  'x, y, z'
loop_
 _atom_site_type_symbol
 _atom_site_label
 _atom_site_symmetry_multiplicity
 _atom_site_fract_x
 _atom_site_fract_y
 _atom_site_fract_z
 _atom_site_occupancy
  Pr  Pr0  1  0.250000  0.582933  0.702222  1
  Pr  Pr1  1  0.250000  0.917751  0.203932  1
  Pr  Pr2  1  0.750000  0.416587  0.296706  1
  Pr  Pr3  1  0.750000  0.083139  0.795704  1
  Ti  Ti4  1  0.250000  0.702191  0.990474  1
  Co  Co5  1  0.250000  0.401905  0.492278  1
  Co  Co6  1  0.250000  0.099630  0.990671  1
  Co  Co7  1  0.750000  0.595261  0.509677  1
  Co  Co8  1  0.750000  0.908029  0.007990  1
  Co  Co9  1  0.250000  0.224395  0.174595  1
  Co  Co10  1  0.250000  0.276319  0.675543  1
  Co  Co11  1  0.750000  0.778046  0.823073  1
  Co  Co12  1  0.750000  0.721799  0.327573  1
  Co  Co13  1  0.250000  0.886929  0.699212  1
  Co  Co14  1  0.250000  0.614965  0.200851  1
  Co  Co15  1  0.750000  0.115888  0.298566  1
  Co  Co16  1  0.750000  0.384412  0.800276  1
  Co  Co17  1  0.250000  0.464462  0.933316  1
  Co  Co18  1  0.250000  0.035155  0.432706  1
  Co  Co19  1  0.750000  0.532822  0.066031  1
  Co  Co20  1  0.750000  0.964792  0.565663  1
  Re  Re21  1  0.250000  0.792190  0.489902  1
  Re  Re22  1  0.750000  0.294544  0.010871  1
  Re  Re23  1  0.750000  0.206707  0.510441  1
  P  P24  1  0.250000  0.421160  0.111252  1
  P  P25  1  0.250000  0.079742  0.609989  1
  P  P26  1  0.750000  0.579784  0.886550  1
  P  P27  1  0.750000  0.919357  0.388786  1
  P  P28  1  0.250000  0.273627  0.865626  1
  P  P29  1  0.250000  0.224488  0.364741  1
  P  P30  1  0.750000  0.723606  0.139185  1
  P  P31  1  0.750000  0.775955  0.634928  1
  P  P32  1  0.250000  0.599040  0.395601  1
  P  P33  1  0.250000  0.902230  0.892096  1
  P  P34  1  0.750000  0.398052  0.607084  1
  P  P35  1  0.750000  0.102106  0.105889  1
