# generated using pymatgen
data_TmSc4Ga2Sb
_symmetry_space_group_name_H-M   'P 1'
_cell_length_a   8.26411461
_cell_length_b   8.27552310
_cell_length_c   6.08188300
_cell_angle_alpha   90.00000000
_cell_angle_beta   90.00000000
_cell_angle_gamma   120.04567448
_symmetry_Int_Tables_number   1
_chemical_formula_structural   TmSc4Ga2Sb
_chemical_formula_sum   'Tm2 Sc8 Ga4 Sb2'
_cell_volume   360.04800858
_cell_formula_units_Z   2
loop_
 _symmetry_equiv_pos_site_id
 _symmetry_equiv_pos_as_xyz
  1  'x, y, z'
loop_
 _atom_site_type_symbol
 _atom_site_label
 _atom_site_symmetry_multiplicity
 _atom_site_fract_x
 _atom_site_fract_y
 _atom_site_fract_z
 _atom_site_occupancy
  Tm  Tm0  1  0.231171  0.998890  0.250000  1
  Tm  Tm1  1  0.231171  0.232283  0.750000  1
  Sc  Sc2  1  0.317152  0.658576  0.000000  1
  Sc  Sc3  1  0.673128  0.336564  0.500000  1
  Sc  Sc4  1  0.673128  0.336564  0.000000  1
  Sc  Sc5  1  0.317152  0.658576  0.500000  1
  Sc  Sc6  1  0.011050  0.760554  0.750000  1
  Sc  Sc7  1  0.011050  0.250496  0.250000  1
  Sc  Sc8  1  0.763518  0.751068  0.250000  1
  Sc  Sc9  1  0.763518  0.012451  0.750000  1
  Ga  Ga10  1  0.993971  0.400317  0.750000  1
  Ga  Ga11  1  0.993971  0.593654  0.250000  1
  Ga  Ga12  1  0.401930  0.402809  0.250000  1
  Ga  Ga13  1  0.401930  0.999120  0.750000  1
  Sb  Sb14  1  0.608080  0.995246  0.250000  1
  Sb  Sb15  1  0.608080  0.612834  0.750000  1
