# generated using pymatgen
data_Zr2FeB2Ru4W
_symmetry_space_group_name_H-M   'P 1'
_cell_length_a   9.35141100
_cell_length_b   9.35141100
_cell_length_c   3.07899300
_cell_angle_alpha   90.00000000
_cell_angle_beta   90.00000000
_cell_angle_gamma   90.00000000
_symmetry_Int_Tables_number   1
_chemical_formula_structural   Zr2FeB2Ru4W
_chemical_formula_sum   'Zr4 Fe2 B4 Ru8 W2'
_cell_volume   269.25451306
_cell_formula_units_Z   2
loop_
 _symmetry_equiv_pos_site_id
 _symmetry_equiv_pos_as_xyz
  1  'x, y, z'
loop_
 _atom_site_type_symbol
 _atom_site_label
 _atom_site_symmetry_multiplicity
 _atom_site_fract_x
 _atom_site_fract_y
 _atom_site_fract_z
 _atom_site_occupancy
  Zr  Zr0  1  0.674121  0.174121  0.000000  1
  Zr  Zr1  1  0.325879  0.825879  0.000000  1
  Zr  Zr2  1  0.174121  0.325879  0.000000  1
  Zr  Zr3  1  0.825879  0.674121  0.000000  1
  Fe  Fe4  1  0.500000  0.000000  0.500000  1
  Fe  Fe5  1  0.000000  0.500000  0.500000  1
  B  B6  1  0.111355  0.611355  0.000000  1
  B  B7  1  0.888645  0.388645  0.000000  1
  B  B8  1  0.611355  0.888645  0.000000  1
  B  B9  1  0.388645  0.111355  0.000000  1
  Ru  Ru10  1  0.220946  0.066933  0.500000  1
  Ru  Ru11  1  0.779054  0.933067  0.500000  1
  Ru  Ru12  1  0.066933  0.779054  0.500000  1
  Ru  Ru13  1  0.720946  0.433067  0.500000  1
  Ru  Ru14  1  0.933067  0.220946  0.500000  1
  Ru  Ru15  1  0.279054  0.566933  0.500000  1
  Ru  Ru16  1  0.566933  0.720946  0.500000  1
  Ru  Ru17  1  0.433067  0.279054  0.500000  1
  W  W18  1  0.000000  0.000000  0.000000  1
  W  W19  1  0.500000  0.500000  0.000000  1
