# generated using pymatgen
data_Gd2ReRu3
_symmetry_space_group_name_H-M   'P 1'
_cell_length_a   5.56440964
_cell_length_b   5.11376947
_cell_length_c   5.56441000
_cell_angle_alpha   57.03944802
_cell_angle_beta   59.99999785
_cell_angle_gamma   57.03944497
_symmetry_Int_Tables_number   1
_chemical_formula_structural   Gd2ReRu3
_chemical_formula_sum   'Gd2 Re1 Ru3'
_cell_volume   106.68561989
_cell_formula_units_Z   1
loop_
 _symmetry_equiv_pos_site_id
 _symmetry_equiv_pos_as_xyz
  1  'x, y, z'
loop_
 _atom_site_type_symbol
 _atom_site_label
 _atom_site_symmetry_multiplicity
 _atom_site_fract_x
 _atom_site_fract_y
 _atom_site_fract_z
 _atom_site_occupancy
  Gd  Gd0  1  0.251767  0.244699  0.251767  1
  Gd  Gd1  1  0.998233  0.005301  0.998233  1
  Re  Re2  1  0.625000  0.125000  0.625000  1
  Ru  Ru3  1  0.125000  0.625000  0.625000  1
  Ru  Ru4  1  0.625000  0.625000  0.125000  1
  Ru  Ru5  1  0.625000  0.625000  0.625000  1
