# generated using pymatgen
data_Ta6Zn5AsRu12
_symmetry_space_group_name_H-M   'P 1'
_cell_length_a   4.38510401
_cell_length_b   6.21601801
_cell_length_c   13.11844601
_cell_angle_alpha   89.99957844
_cell_angle_beta   89.99592642
_cell_angle_gamma   90.00459475
_symmetry_Int_Tables_number   1
_chemical_formula_structural   Ta6Zn5AsRu12
_chemical_formula_sum   'Ta6 Zn5 As1 Ru12'
_cell_volume   357.58109661
_cell_formula_units_Z   1
loop_
 _symmetry_equiv_pos_site_id
 _symmetry_equiv_pos_as_xyz
  1  'x, y, z'
loop_
 _atom_site_type_symbol
 _atom_site_label
 _atom_site_symmetry_multiplicity
 _atom_site_fract_x
 _atom_site_fract_y
 _atom_site_fract_z
 _atom_site_occupancy
  Ta  Ta0  1  0.000000  0.499998  0.000017  1
  Ta  Ta1  1  0.499809  0.999999  0.173002  1
  Ta  Ta2  1  0.999797  0.499999  0.334542  1
  Ta  Ta3  1  0.500001  0.000002  0.499973  1
  Ta  Ta4  1  0.000200  0.500002  0.665449  1
  Ta  Ta5  1  0.500191  0.999999  0.827003  1
  Zn  Zn6  1  0.499802  0.500000  0.166255  1
  Zn  Zn7  1  0.999779  0.000001  0.333502  1
  Zn  Zn8  1  0.500001  0.500000  0.499988  1
  Zn  Zn9  1  0.000219  0.999999  0.666488  1
  Zn  Zn10  1  0.500198  0.499999  0.833769  1
  As  As11  1  0.000001  0.999999  0.999993  1
  Ru  Ru12  1  0.500018  0.245761  0.000043  1
  Ru  Ru13  1  0.499983  0.754238  0.000044  1
  Ru  Ru14  1  0.999718  0.247491  0.164238  1
  Ru  Ru15  1  0.999839  0.752508  0.164236  1
  Ru  Ru16  1  0.499786  0.251599  0.332947  1
  Ru  Ru17  1  0.499732  0.748407  0.332948  1
  Ru  Ru18  1  0.999903  0.250066  0.499965  1
  Ru  Ru19  1  0.000098  0.749931  0.499962  1
  Ru  Ru20  1  0.500259  0.251572  0.667017  1
  Ru  Ru21  1  0.500216  0.748430  0.667021  1
  Ru  Ru22  1  0.000160  0.247500  0.835800  1
  Ru  Ru23  1  0.000282  0.752499  0.835798  1
