# generated using pymatgen
data_Tb5CoAsO12
_symmetry_space_group_name_H-M   'P 1'
_cell_length_a   6.79253500
_cell_length_b   6.79253600
_cell_length_c   7.26700605
_cell_angle_alpha   74.54028141
_cell_angle_beta   74.54028741
_cell_angle_gamma   50.30324704
_symmetry_Int_Tables_number   1
_chemical_formula_structural   Tb5CoAsO12
_chemical_formula_sum   'Tb5 Co1 As1 O12'
_cell_volume   246.54364717
_cell_formula_units_Z   1
loop_
 _symmetry_equiv_pos_site_id
 _symmetry_equiv_pos_as_xyz
  1  'x, y, z'
loop_
 _atom_site_type_symbol
 _atom_site_label
 _atom_site_symmetry_multiplicity
 _atom_site_fract_x
 _atom_site_fract_y
 _atom_site_fract_z
 _atom_site_occupancy
  Tb  Tb0  1  0.692593  0.697435  0.664529  1
  Tb  Tb1  1  0.688095  0.702708  0.141726  1
  Tb  Tb2  1  0.995840  0.004160  0.000000  1
  Tb  Tb3  1  0.297292  0.311905  0.858274  1
  Tb  Tb4  1  0.302565  0.307407  0.335471  1
  Co  Co5  1  0.251044  0.748956  0.500000  1
  As  As6  1  0.763973  0.236027  0.500000  1
  O  O7  1  0.398723  0.908720  0.921169  1
  O  O8  1  0.586306  0.101960  0.576976  1
  O  O9  1  0.898040  0.413694  0.423024  1
  O  O10  1  0.091280  0.601277  0.078831  1
  O  O11  1  0.001448  0.000521  0.326149  1
  O  O12  1  0.509728  0.490683  0.674225  1
  O  O13  1  0.898707  0.406624  0.923726  1
  O  O14  1  0.102433  0.580241  0.577455  1
  O  O15  1  0.419759  0.897567  0.422545  1
  O  O16  1  0.593376  0.101293  0.076274  1
  O  O17  1  0.509317  0.490272  0.325775  1
  O  O18  1  0.999479  0.998552  0.673851  1
