# generated using pymatgen
data_Tb10Si6C
_symmetry_space_group_name_H-M   'P 1'
_cell_length_a   8.51640800
_cell_length_b   8.51640865
_cell_length_c   6.42155400
_cell_angle_alpha   90.00000000
_cell_angle_beta   90.00000000
_cell_angle_gamma   119.99998972
_symmetry_Int_Tables_number   1
_chemical_formula_structural   Tb10Si6C
_chemical_formula_sum   'Tb10 Si6 C1'
_cell_volume   403.35158422
_cell_formula_units_Z   1
loop_
 _symmetry_equiv_pos_site_id
 _symmetry_equiv_pos_as_xyz
  1  'x, y, z'
loop_
 _atom_site_type_symbol
 _atom_site_label
 _atom_site_symmetry_multiplicity
 _atom_site_fract_x
 _atom_site_fract_y
 _atom_site_fract_z
 _atom_site_occupancy
  Tb  Tb0  1  0.333333  0.666667  0.500000  1
  Tb  Tb1  1  0.666667  0.333333  0.500000  1
  Tb  Tb2  1  0.666667  0.333333  0.000000  1
  Tb  Tb3  1  0.333333  0.666667  0.000000  1
  Tb  Tb4  1  0.000000  0.764257  0.270831  1
  Tb  Tb5  1  0.235743  0.235743  0.270831  1
  Tb  Tb6  1  0.764257  0.000000  0.270831  1
  Tb  Tb7  1  0.000000  0.235743  0.729169  1
  Tb  Tb8  1  0.764257  0.764257  0.729169  1
  Tb  Tb9  1  0.235743  0.000000  0.729169  1
  Si  Si10  1  0.000000  0.398733  0.253275  1
  Si  Si11  1  0.601267  0.601267  0.253275  1
  Si  Si12  1  0.398733  0.000000  0.253275  1
  Si  Si13  1  0.000000  0.601267  0.746725  1
  Si  Si14  1  0.398733  0.398733  0.746725  1
  Si  Si15  1  0.601267  0.000000  0.746725  1
  C  C16  1  0.000000  0.000000  0.500000  1
