# generated using pymatgen
data_NdDyGaSi
_symmetry_space_group_name_H-M   'P 1'
_cell_length_a   5.91350700
_cell_length_b   5.91350639
_cell_length_c   4.00658000
_cell_angle_alpha   90.00000000
_cell_angle_beta   90.00000000
_cell_angle_gamma   136.48689758
_symmetry_Int_Tables_number   1
_chemical_formula_structural   NdDyGaSi
_chemical_formula_sum   'Nd1 Dy1 Ga1 Si1'
_cell_volume   96.46745914
_cell_formula_units_Z   1
loop_
 _symmetry_equiv_pos_site_id
 _symmetry_equiv_pos_as_xyz
  1  'x, y, z'
loop_
 _atom_site_type_symbol
 _atom_site_label
 _atom_site_symmetry_multiplicity
 _atom_site_fract_x
 _atom_site_fract_y
 _atom_site_fract_z
 _atom_site_occupancy
  Nd  Nd0  1  0.642314  0.357686  0.500000  1
  Dy  Dy1  1  0.361580  0.638420  0.000000  1
  Ga  Ga2  1  0.071633  0.928367  0.000000  1
  Si  Si3  1  0.924473  0.075527  0.500000  1
