# generated using pymatgen
data_Zr8Sc3Os4
_symmetry_space_group_name_H-M   'P 1'
_cell_length_a   9.58922796
_cell_length_b   9.52760804
_cell_length_c   9.52760767
_cell_angle_alpha   59.62976310
_cell_angle_beta   59.78582400
_cell_angle_gamma   59.78582242
_symmetry_Int_Tables_number   1
_chemical_formula_structural   Zr8Sc3Os4
_chemical_formula_sum   'Zr16 Sc6 Os8'
_cell_volume   611.78776749
_cell_formula_units_Z   2
loop_
 _symmetry_equiv_pos_site_id
 _symmetry_equiv_pos_as_xyz
  1  'x, y, z'
loop_
 _atom_site_type_symbol
 _atom_site_label
 _atom_site_symmetry_multiplicity
 _atom_site_fract_x
 _atom_site_fract_y
 _atom_site_fract_z
 _atom_site_occupancy
  Zr  Zr0  1  0.839673  0.844310  0.844310  1
  Zr  Zr1  1  0.528291  0.155690  0.155690  1
  Zr  Zr2  1  0.157502  0.158823  0.521242  1
  Zr  Zr3  1  0.157502  0.521242  0.158823  1
  Zr  Zr4  1  0.837568  0.841177  0.478758  1
  Zr  Zr5  1  0.837568  0.478758  0.841177  1
  Zr  Zr6  1  0.472580  0.842246  0.842246  1
  Zr  Zr7  1  0.157071  0.157754  0.157754  1
  Zr  Zr8  1  0.200047  0.794874  0.205126  1
  Zr  Zr9  1  0.202238  0.797322  0.797322  1
  Zr  Zr10  1  0.796882  0.202678  0.202678  1
  Zr  Zr11  1  0.799709  0.795707  0.204293  1
  Zr  Zr12  1  0.200047  0.205126  0.794874  1
  Zr  Zr13  1  0.799709  0.204293  0.795707  1
  Zr  Zr14  1  0.387216  0.381320  0.381320  1
  Zr  Zr15  1  0.149857  0.618680  0.618680  1
  Sc  Sc16  1  0.617468  0.148747  0.619958  1
  Sc  Sc17  1  0.617468  0.619958  0.148747  1
  Sc  Sc18  1  0.386172  0.851253  0.380042  1
  Sc  Sc19  1  0.386172  0.380042  0.851253  1
  Sc  Sc20  1  0.849716  0.382587  0.382587  1
  Sc  Sc21  1  0.614890  0.617413  0.617413  1
  Os  Os22  1  0.498319  0.499533  0.004785  1
  Os  Os23  1  0.002637  0.995215  0.500467  1
  Os  Os24  1  0.498319  0.004785  0.499533  1
  Os  Os25  1  0.006076  0.500000  0.500000  1
  Os  Os26  1  0.498474  0.000000  0.000000  1
  Os  Os27  1  0.002637  0.500467  0.995215  1
  Os  Os28  1  0.497697  0.500000  0.500000  1
  Os  Os29  1  0.000501  0.000000  0.000000  1
