# generated using pymatgen
data_Ti2Be9Pt
_symmetry_space_group_name_H-M   'P 1'
_cell_length_a   7.47029750
_cell_length_b   7.47029755
_cell_length_c   7.47029766
_cell_angle_alpha   34.27173636
_cell_angle_beta   34.27173629
_cell_angle_gamma   34.27172664
_symmetry_Int_Tables_number   1
_chemical_formula_structural   Ti2Be9Pt
_chemical_formula_sum   'Ti2 Be9 Pt1'
_cell_volume   117.88846090
_cell_formula_units_Z   1
loop_
 _symmetry_equiv_pos_site_id
 _symmetry_equiv_pos_as_xyz
  1  'x, y, z'
loop_
 _atom_site_type_symbol
 _atom_site_label
 _atom_site_symmetry_multiplicity
 _atom_site_fract_x
 _atom_site_fract_y
 _atom_site_fract_z
 _atom_site_occupancy
  Ti  Ti0  1  0.142883  0.142883  0.142883  1
  Ti  Ti1  1  0.003687  0.003687  0.003687  1
  Be  Be2  1  0.415901  0.921332  0.415901  1
  Be  Be3  1  0.415901  0.415901  0.921332  1
  Be  Be4  1  0.921332  0.415901  0.415901  1
  Be  Be5  1  0.581002  0.082288  0.581002  1
  Be  Be6  1  0.581002  0.581002  0.082288  1
  Be  Be7  1  0.082288  0.581002  0.581002  1
  Be  Be8  1  0.666266  0.666266  0.666266  1
  Be  Be9  1  0.332118  0.332118  0.332118  1
  Be  Be10  1  0.500034  0.500034  0.500034  1
  Pt  Pt11  1  0.857586  0.857586  0.857586  1
