# generated using pymatgen
data_Zr2PCl13
_symmetry_space_group_name_H-M   'P 1'
_cell_length_a   11.18162400
_cell_length_b   9.50839552
_cell_length_c   10.32082500
_cell_angle_alpha   76.43714048
_cell_angle_beta   90.00000000
_cell_angle_gamma   90.00000000
_symmetry_Int_Tables_number   1
_chemical_formula_structural   Zr2PCl13
_chemical_formula_sum   'Zr4 P2 Cl26'
_cell_volume   1066.70268237
_cell_formula_units_Z   2
loop_
 _symmetry_equiv_pos_site_id
 _symmetry_equiv_pos_as_xyz
  1  'x, y, z'
loop_
 _atom_site_type_symbol
 _atom_site_label
 _atom_site_symmetry_multiplicity
 _atom_site_fract_x
 _atom_site_fract_y
 _atom_site_fract_z
 _atom_site_occupancy
  Zr  Zr0  1  0.250000  0.848239  0.115726  1
  Zr  Zr1  1  0.750000  0.151761  0.884274  1
  Zr  Zr2  1  0.250000  0.662500  0.843151  1
  Zr  Zr3  1  0.750000  0.337500  0.156849  1
  P  P4  1  0.250000  0.263251  0.509605  1
  P  P5  1  0.750000  0.736749  0.490395  1
  Cl  Cl6  1  0.607583  0.799919  0.571891  1
  Cl  Cl7  1  0.107583  0.200081  0.428109  1
  Cl  Cl8  1  0.750000  0.428900  0.897928  1
  Cl  Cl9  1  0.250000  0.571100  0.102072  1
  Cl  Cl10  1  0.898032  0.153650  0.081562  1
  Cl  Cl11  1  0.398032  0.846350  0.918438  1
  Cl  Cl12  1  0.101968  0.846350  0.918438  1
  Cl  Cl13  1  0.601968  0.153650  0.081562  1
  Cl  Cl14  1  0.750000  0.186081  0.380460  1
  Cl  Cl15  1  0.250000  0.813919  0.619540  1
  Cl  Cl16  1  0.910979  0.489325  0.187925  1
  Cl  Cl17  1  0.410979  0.510675  0.812075  1
  Cl  Cl18  1  0.089021  0.510675  0.812075  1
  Cl  Cl19  1  0.589021  0.489325  0.187925  1
  Cl  Cl20  1  0.750000  0.894697  0.933686  1
  Cl  Cl21  1  0.250000  0.105303  0.066314  1
  Cl  Cl22  1  0.908649  0.196355  0.724090  1
  Cl  Cl23  1  0.408649  0.803645  0.275910  1
  Cl  Cl24  1  0.091351  0.803645  0.275910  1
  Cl  Cl25  1  0.591351  0.196355  0.724090  1
  Cl  Cl26  1  0.750000  0.817860  0.298710  1
  Cl  Cl27  1  0.250000  0.182140  0.701290  1
  Cl  Cl28  1  0.750000  0.525387  0.526012  1
  Cl  Cl29  1  0.250000  0.474613  0.473988  1
  Cl  Cl30  1  0.892417  0.799919  0.571891  1
  Cl  Cl31  1  0.392417  0.200081  0.428109  1
