# generated using pymatgen
data_Hf4Zr(PaPt5)2
_symmetry_space_group_name_H-M   'P 1'
_cell_length_a   8.28351982
_cell_length_b   8.28352031
_cell_length_c   9.81598567
_cell_angle_alpha   89.97496176
_cell_angle_beta   89.97496161
_cell_angle_gamma   107.21702738
_symmetry_Int_Tables_number   1
_chemical_formula_structural   Hf4Zr(PaPt5)2
_chemical_formula_sum   'Hf8 Zr2 Pa4 Pt20'
_cell_volume   643.35935711
_cell_formula_units_Z   2
loop_
 _symmetry_equiv_pos_site_id
 _symmetry_equiv_pos_as_xyz
  1  'x, y, z'
loop_
 _atom_site_type_symbol
 _atom_site_label
 _atom_site_symmetry_multiplicity
 _atom_site_fract_x
 _atom_site_fract_y
 _atom_site_fract_z
 _atom_site_occupancy
  Hf  Hf0  1  0.000000  0.000000  0.000000  1
  Hf  Hf1  1  0.500000  0.500000  0.500000  1
  Hf  Hf2  1  0.000926  0.500254  0.250119  1
  Hf  Hf3  1  0.999074  0.499746  0.749881  1
  Hf  Hf4  1  0.499746  0.999074  0.749881  1
  Hf  Hf5  1  0.500254  0.000926  0.250119  1
  Hf  Hf6  1  0.310513  0.310513  0.188099  1
  Hf  Hf7  1  0.689487  0.689487  0.811901  1
  Zr  Zr8  1  0.190389  0.190389  0.689306  1
  Zr  Zr9  1  0.809611  0.809611  0.310694  1
  Pa  Pa10  1  0.689209  0.310791  0.000000  1
  Pa  Pa11  1  0.310791  0.689209  0.000000  1
  Pa  Pa12  1  0.810503  0.189497  0.500000  1
  Pa  Pa13  1  0.189497  0.810503  0.500000  1
  Pt  Pt14  1  0.850492  0.141140  0.207385  1
  Pt  Pt15  1  0.149508  0.858860  0.792615  1
  Pt  Pt16  1  0.649128  0.360734  0.708038  1
  Pt  Pt17  1  0.639266  0.350872  0.291962  1
  Pt  Pt18  1  0.350872  0.639266  0.291962  1
  Pt  Pt19  1  0.360734  0.649128  0.708038  1
  Pt  Pt20  1  0.858860  0.149508  0.792615  1
  Pt  Pt21  1  0.141140  0.850492  0.207385  1
  Pt  Pt22  1  0.936713  0.647680  0.995751  1
  Pt  Pt23  1  0.063287  0.352320  0.004249  1
  Pt  Pt24  1  0.561645  0.852565  0.496713  1
  Pt  Pt25  1  0.147435  0.438355  0.503287  1
  Pt  Pt26  1  0.438355  0.147435  0.503287  1
  Pt  Pt27  1  0.852565  0.561645  0.496713  1
  Pt  Pt28  1  0.352320  0.063287  0.004249  1
  Pt  Pt29  1  0.647680  0.936713  0.995751  1
  Pt  Pt30  1  0.108675  0.108675  0.391564  1
  Pt  Pt31  1  0.891325  0.891325  0.608436  1
  Pt  Pt32  1  0.393656  0.393656  0.893808  1
  Pt  Pt33  1  0.606344  0.606344  0.106192  1
