# generated using pymatgen
data_Dy5Mg3P12Ir7Rh9
_symmetry_space_group_name_H-M   'P 1'
_cell_length_a   12.81515100
_cell_length_b   12.81515097
_cell_length_c   3.96102300
_cell_angle_alpha   90.00000000
_cell_angle_beta   90.00000000
_cell_angle_gamma   120.00000265
_symmetry_Int_Tables_number   1
_chemical_formula_structural   Dy5Mg3P12Ir7Rh9
_chemical_formula_sum   'Dy5 Mg3 P12 Ir7 Rh9'
_cell_volume   563.35926226
_cell_formula_units_Z   1
loop_
 _symmetry_equiv_pos_site_id
 _symmetry_equiv_pos_as_xyz
  1  'x, y, z'
loop_
 _atom_site_type_symbol
 _atom_site_label
 _atom_site_symmetry_multiplicity
 _atom_site_fract_x
 _atom_site_fract_y
 _atom_site_fract_z
 _atom_site_occupancy
  Dy  Dy0  1  0.333333  0.666667  0.500000  1
  Dy  Dy1  1  0.666667  0.333333  0.500000  1
  Dy  Dy2  1  0.000334  0.808679  0.000000  1
  Dy  Dy3  1  0.191321  0.191655  0.000000  1
  Dy  Dy4  1  0.808345  0.999666  0.000000  1
  Mg  Mg5  1  0.001307  0.445769  0.500000  1
  Mg  Mg6  1  0.554231  0.555538  0.500000  1
  Mg  Mg7  1  0.444462  0.998693  0.500000  1
  P  P8  1  0.998943  0.641210  0.500000  1
  P  P9  1  0.358790  0.357734  0.500000  1
  P  P10  1  0.642266  0.001057  0.500000  1
  P  P11  1  0.516307  0.690819  0.000000  1
  P  P12  1  0.309181  0.825487  0.000000  1
  P  P13  1  0.174513  0.483693  0.000000  1
  P  P14  1  0.484442  0.174751  0.000000  1
  P  P15  1  0.690309  0.515558  0.000000  1
  P  P16  1  0.825249  0.309691  0.000000  1
  P  P17  1  0.000084  0.177949  0.500000  1
  P  P18  1  0.822051  0.822135  0.500000  1
  P  P19  1  0.177865  0.999916  0.500000  1
  Ir  Ir20  1  0.000328  0.279111  0.000000  1
  Ir  Ir21  1  0.720889  0.721217  0.000000  1
  Ir  Ir22  1  0.278783  0.999672  0.000000  1
  Ir  Ir23  1  0.375134  0.178327  0.500000  1
  Ir  Ir24  1  0.803193  0.624866  0.500000  1
  Ir  Ir25  1  0.821673  0.196807  0.500000  1
  Ir  Ir26  1  0.000000  0.000000  0.500000  1
  Rh  Rh27  1  0.509364  0.869816  0.000000  1
  Rh  Rh28  1  0.130184  0.639549  0.000000  1
  Rh  Rh29  1  0.360451  0.490636  0.000000  1
  Rh  Rh30  1  0.490090  0.360552  0.000000  1
  Rh  Rh31  1  0.870463  0.509910  0.000000  1
  Rh  Rh32  1  0.639448  0.129537  0.000000  1
  Rh  Rh33  1  0.625144  0.803690  0.500000  1
  Rh  Rh34  1  0.196310  0.821455  0.500000  1
  Rh  Rh35  1  0.178545  0.374856  0.500000  1
