# generated using pymatgen
data_TbDyTm6(SiBr6)2
_symmetry_space_group_name_H-M   'P 1'
_cell_length_a   4.01867400
_cell_length_b   13.14900616
_cell_length_c   13.89667609
_cell_angle_alpha   90.38451088
_cell_angle_beta   90.00000000
_cell_angle_gamma   90.00000000
_symmetry_Int_Tables_number   1
_chemical_formula_structural   TbDyTm6(SiBr6)2
_chemical_formula_sum   'Tb1 Dy1 Tm6 Si2 Br12'
_cell_volume   734.30563517
_cell_formula_units_Z   1
loop_
 _symmetry_equiv_pos_site_id
 _symmetry_equiv_pos_as_xyz
  1  'x, y, z'
loop_
 _atom_site_type_symbol
 _atom_site_label
 _atom_site_symmetry_multiplicity
 _atom_site_fract_x
 _atom_site_fract_y
 _atom_site_fract_z
 _atom_site_occupancy
  Tb  Tb0  1  0.000000  0.381108  0.079238  1
  Dy  Dy1  1  0.000000  0.618769  0.920861  1
  Tm  Tm2  1  0.500000  0.117164  0.342559  1
  Tm  Tm3  1  0.500000  0.882832  0.657437  1
  Tm  Tm4  1  0.500000  0.618080  0.158471  1
  Tm  Tm5  1  0.500000  0.381981  0.841499  1
  Tm  Tm6  1  0.000000  0.116424  0.577775  1
  Tm  Tm7  1  0.000000  0.883571  0.422231  1
  Si  Si8  1  0.500000  0.000005  0.499998  1
  Si  Si9  1  0.500000  0.500525  0.999659  1
  Br  Br10  1  0.500000  0.240721  0.166595  1
  Br  Br11  1  0.500000  0.758656  0.833797  1
  Br  Br12  1  0.500000  0.747374  0.336922  1
  Br  Br13  1  0.500000  0.252639  0.663073  1
  Br  Br14  1  0.000000  0.253865  0.412312  1
  Br  Br15  1  0.000000  0.746134  0.587700  1
  Br  Br16  1  0.000000  0.755383  0.092343  1
  Br  Br17  1  0.000000  0.244448  0.907228  1
  Br  Br18  1  0.000000  0.001787  0.244369  1
  Br  Br19  1  0.000000  0.998187  0.755644  1
  Br  Br20  1  0.000000  0.506439  0.259003  1
  Br  Br21  1  0.000000  0.493909  0.741287  1
