# generated using pymatgen
data_Dy5Os2
_symmetry_space_group_name_H-M   'P 1'
_cell_length_a   6.37880972
_cell_length_b   7.34536147
_cell_length_c   8.45577900
_cell_angle_alpha   96.84210801
_cell_angle_beta   112.15950096
_cell_angle_gamma   90.00000359
_symmetry_Int_Tables_number   1
_chemical_formula_structural   Dy5Os2
_chemical_formula_sum   'Dy10 Os4'
_cell_volume   363.88042242
_cell_formula_units_Z   2
loop_
 _symmetry_equiv_pos_site_id
 _symmetry_equiv_pos_as_xyz
  1  'x, y, z'
loop_
 _atom_site_type_symbol
 _atom_site_label
 _atom_site_symmetry_multiplicity
 _atom_site_fract_x
 _atom_site_fract_y
 _atom_site_fract_z
 _atom_site_occupancy
  Dy  Dy0  1  0.422011  0.750000  0.999999  1
  Dy  Dy1  1  0.577988  0.250000  0.999999  1
  Dy  Dy2  1  0.207777  0.415957  0.184317  1
  Dy  Dy3  1  0.976539  0.915956  0.184318  1
  Dy  Dy4  1  0.795588  0.315033  0.435315  1
  Dy  Dy5  1  0.639728  0.815033  0.435316  1
  Dy  Dy6  1  0.360274  0.184967  0.564684  1
  Dy  Dy7  1  0.204411  0.684967  0.564685  1
  Dy  Dy8  1  0.792222  0.584043  0.815682  1
  Dy  Dy9  1  0.023461  0.084044  0.815683  1
  Os  Os10  1  0.822698  0.576291  0.219890  1
  Os  Os11  1  0.397190  0.076291  0.219890  1
  Os  Os12  1  0.602809  0.923709  0.780110  1
  Os  Os13  1  0.177302  0.423709  0.780111  1
