# generated using pymatgen
data_Dy6Er10Cd4Ir3Os
_symmetry_space_group_name_H-M   'P 1'
_cell_length_a   9.62880956
_cell_length_b   9.62867014
_cell_length_c   9.62876028
_cell_angle_alpha   59.45915730
_cell_angle_beta   59.45943010
_cell_angle_gamma   59.45738983
_symmetry_Int_Tables_number   1
_chemical_formula_structural   Dy6Er10Cd4Ir3Os
_chemical_formula_sum   'Dy6 Er10 Cd4 Ir3 Os1'
_cell_volume   623.46618604
_cell_formula_units_Z   1
loop_
 _symmetry_equiv_pos_site_id
 _symmetry_equiv_pos_as_xyz
  1  'x, y, z'
loop_
 _atom_site_type_symbol
 _atom_site_label
 _atom_site_symmetry_multiplicity
 _atom_site_fract_x
 _atom_site_fract_y
 _atom_site_fract_z
 _atom_site_occupancy
  Dy  Dy0  1  0.188562  0.811245  0.811256  1
  Dy  Dy1  1  0.806571  0.189497  0.189509  1
  Dy  Dy2  1  0.811264  0.188562  0.811261  1
  Dy  Dy3  1  0.189493  0.806568  0.189507  1
  Dy  Dy4  1  0.811272  0.811258  0.188561  1
  Dy  Dy5  1  0.189502  0.189499  0.806570  1
  Er  Er6  1  0.599522  0.599577  0.599473  1
  Er  Er7  1  0.598550  0.598616  0.207156  1
  Er  Er8  1  0.598580  0.207157  0.598551  1
  Er  Er9  1  0.207172  0.598617  0.598527  1
  Er  Er10  1  0.062143  0.438510  0.438492  1
  Er  Er11  1  0.437178  0.059945  0.060022  1
  Er  Er12  1  0.438487  0.062126  0.438509  1
  Er  Er13  1  0.059962  0.437181  0.060006  1
  Er  Er14  1  0.438503  0.438488  0.062166  1
  Er  Er15  1  0.059998  0.059960  0.437169  1
  Cd  Cd16  1  0.829764  0.829764  0.829772  1
  Cd  Cd17  1  0.830327  0.830312  0.507197  1
  Cd  Cd18  1  0.830322  0.507182  0.830319  1
  Cd  Cd19  1  0.507196  0.830320  0.830317  1
  Ir  Ir20  1  0.393344  0.393339  0.827017  1
  Ir  Ir21  1  0.393343  0.827016  0.393345  1
  Ir  Ir22  1  0.827034  0.393329  0.393343  1
  Os  Os23  1  0.391912  0.391934  0.391956  1
