# generated using pymatgen
data_Nd11In9CuRh3
_symmetry_space_group_name_H-M   'P 1'
_cell_length_a   13.44295911
_cell_length_b   13.47093674
_cell_length_c   3.80515500
_cell_angle_alpha   90.00000000
_cell_angle_beta   90.00000000
_cell_angle_gamma   111.57158678
_symmetry_Int_Tables_number   1
_chemical_formula_structural   Nd11In9CuRh3
_chemical_formula_sum   'Nd11 In9 Cu1 Rh3'
_cell_volume   640.80928212
_cell_formula_units_Z   1
loop_
 _symmetry_equiv_pos_site_id
 _symmetry_equiv_pos_as_xyz
  1  'x, y, z'
loop_
 _atom_site_type_symbol
 _atom_site_label
 _atom_site_symmetry_multiplicity
 _atom_site_fract_x
 _atom_site_fract_y
 _atom_site_fract_z
 _atom_site_occupancy
  Nd  Nd0  1  0.071851  0.417742  0.000000  1
  Nd  Nd1  1  0.921707  0.579038  0.000000  1
  Nd  Nd2  1  0.419306  0.077683  0.000000  1
  Nd  Nd3  1  0.581200  0.922167  0.000000  1
  Nd  Nd4  1  0.627336  0.375409  0.000000  1
  Nd  Nd5  1  0.378525  0.634006  0.000000  1
  Nd  Nd6  1  0.842234  0.159411  0.000000  1
  Nd  Nd7  1  0.158960  0.841061  0.000000  1
  Nd  Nd8  1  0.000246  0.000986  0.000000  1
  Nd  Nd9  1  0.315437  0.306963  0.000000  1
  Nd  Nd10  1  0.688646  0.687192  0.000000  1
  In  In11  1  0.837091  0.364992  0.500000  1
  In  In12  1  0.159401  0.632291  0.500000  1
  In  In13  1  0.364987  0.837807  0.500000  1
  In  In14  1  0.634739  0.162148  0.500000  1
  In  In15  1  0.076824  0.220561  0.500000  1
  In  In16  1  0.922067  0.780187  0.500000  1
  In  In17  1  0.220226  0.078680  0.500000  1
  In  In18  1  0.780040  0.921231  0.500000  1
  In  In19  1  0.498671  0.500915  0.500000  1
  Cu  Cu20  1  0.249918  0.451791  0.500000  1
  Rh  Rh21  1  0.754658  0.549057  0.500000  1
  Rh  Rh22  1  0.449782  0.246384  0.500000  1
  Rh  Rh23  1  0.546148  0.752298  0.500000  1
