# generated using pymatgen
data_Y5Ho15Cd6OsRu
_symmetry_space_group_name_H-M   'P 1'
_cell_length_a   9.57949600
_cell_length_b   9.57949623
_cell_length_c   9.82752300
_cell_angle_alpha   90.00000000
_cell_angle_beta   90.00000000
_cell_angle_gamma   119.99733943
_symmetry_Int_Tables_number   1
_chemical_formula_structural   Y5Ho15Cd6OsRu
_chemical_formula_sum   'Y5 Ho15 Cd6 Os1 Ru1'
_cell_volume   781.03711921
_cell_formula_units_Z   1
loop_
 _symmetry_equiv_pos_site_id
 _symmetry_equiv_pos_as_xyz
  1  'x, y, z'
loop_
 _atom_site_type_symbol
 _atom_site_label
 _atom_site_symmetry_multiplicity
 _atom_site_fract_x
 _atom_site_fract_y
 _atom_site_fract_z
 _atom_site_occupancy
  Y  Y0  1  0.539867  0.460133  0.250000  1
  Y  Y1  1  0.539881  0.079734  0.250000  1
  Y  Y2  1  0.920266  0.460119  0.250000  1
  Y  Y3  1  0.458874  0.917586  0.750000  1
  Y  Y4  1  0.082414  0.541126  0.750000  1
  Ho  Ho5  1  0.999978  0.000022  0.499716  1
  Ho  Ho6  1  0.999978  0.000022  0.000284  1
  Ho  Ho7  1  0.209825  0.790175  0.440485  1
  Ho  Ho8  1  0.209991  0.419729  0.440637  1
  Ho  Ho9  1  0.580271  0.790009  0.440637  1
  Ho  Ho10  1  0.790092  0.209908  0.560005  1
  Ho  Ho11  1  0.789903  0.580185  0.560090  1
  Ho  Ho12  1  0.419815  0.210097  0.560090  1
  Ho  Ho13  1  0.790092  0.209908  0.939995  1
  Ho  Ho14  1  0.789903  0.580185  0.939910  1
  Ho  Ho15  1  0.419815  0.210097  0.939910  1
  Ho  Ho16  1  0.209825  0.790175  0.059515  1
  Ho  Ho17  1  0.209991  0.419729  0.059363  1
  Ho  Ho18  1  0.580271  0.790009  0.059363  1
  Ho  Ho19  1  0.458995  0.541005  0.750000  1
  Cd  Cd20  1  0.885442  0.114558  0.250000  1
  Cd  Cd21  1  0.885430  0.770876  0.250000  1
  Cd  Cd22  1  0.229124  0.114570  0.250000  1
  Cd  Cd23  1  0.114553  0.885447  0.750000  1
  Cd  Cd24  1  0.114813  0.229323  0.750000  1
  Cd  Cd25  1  0.770677  0.885187  0.750000  1
  Os  Os26  1  0.333327  0.666673  0.250000  1
  Ru  Ru27  1  0.666589  0.333411  0.750000  1
