# generated using pymatgen
data_Cs2CrP2O7
_symmetry_space_group_name_H-M   'P 1'
_cell_length_a   7.65607413
_cell_length_b   7.65607292
_cell_length_c   10.28902845
_cell_angle_alpha   80.24743959
_cell_angle_beta   80.24744469
_cell_angle_gamma   121.76903258
_symmetry_Int_Tables_number   1
_chemical_formula_structural   Cs2CrP2O7
_chemical_formula_sum   'Cs4 Cr2 P4 O14'
_cell_volume   480.66366967
_cell_formula_units_Z   2
loop_
 _symmetry_equiv_pos_site_id
 _symmetry_equiv_pos_as_xyz
  1  'x, y, z'
loop_
 _atom_site_type_symbol
 _atom_site_label
 _atom_site_symmetry_multiplicity
 _atom_site_fract_x
 _atom_site_fract_y
 _atom_site_fract_z
 _atom_site_occupancy
  Cs  Cs0  1  0.374942  0.467382  0.131070  1
  Cs  Cs1  1  0.467382  0.374942  0.631070  1
  Cs  Cs2  1  0.595644  0.018090  0.315313  1
  Cs  Cs3  1  0.018090  0.595644  0.815313  1
  Cr  Cr4  1  0.012306  0.780729  0.289937  1
  Cr  Cr5  1  0.780729  0.012306  0.789937  1
  P  P6  1  0.386383  0.986943  0.000408  1
  P  P7  1  0.986943  0.386383  0.500408  1
  P  P8  1  0.026209  0.034137  0.991913  1
  P  P9  1  0.034137  0.026209  0.491913  1
  O  O10  1  0.265074  0.111592  0.416450  1
  O  O11  1  0.111592  0.265074  0.916450  1
  O  O12  1  0.993600  0.210448  0.430224  1
  O  O13  1  0.210448  0.993600  0.930224  1
  O  O14  1  0.546989  0.209416  0.007906  1
  O  O15  1  0.209416  0.546989  0.507906  1
  O  O16  1  0.988365  0.987383  0.149877  1
  O  O17  1  0.987383  0.988365  0.649877  1
  O  O18  1  0.826450  0.865219  0.957202  1
  O  O19  1  0.865219  0.826450  0.457202  1
  O  O20  1  0.478099  0.904225  0.901766  1
  O  O21  1  0.904225  0.478099  0.401766  1
  O  O22  1  0.248631  0.808526  0.142883  1
  O  O23  1  0.808526  0.248631  0.642883  1
