# generated using pymatgen
data_Li6TmTa5Rh12
_symmetry_space_group_name_H-M   'P 1'
_cell_length_a   4.38711500
_cell_length_b   6.15659900
_cell_length_c   13.13315701
_cell_angle_alpha   90.00000000
_cell_angle_beta   90.00347769
_cell_angle_gamma   90.00000000
_symmetry_Int_Tables_number   1
_chemical_formula_structural   Li6TmTa5Rh12
_chemical_formula_sum   'Li6 Tm1 Ta5 Rh12'
_cell_volume   354.72273302
_cell_formula_units_Z   1
loop_
 _symmetry_equiv_pos_site_id
 _symmetry_equiv_pos_as_xyz
  1  'x, y, z'
loop_
 _atom_site_type_symbol
 _atom_site_label
 _atom_site_symmetry_multiplicity
 _atom_site_fract_x
 _atom_site_fract_y
 _atom_site_fract_z
 _atom_site_occupancy
  Li  Li0  1  0.000000  0.499999  0.000000  1
  Li  Li1  1  0.499891  0.000000  0.168158  1
  Li  Li2  1  0.999872  0.499999  0.335247  1
  Li  Li3  1  0.500000  0.000000  0.500000  1
  Li  Li4  1  0.000129  0.499999  0.664753  1
  Li  Li5  1  0.500110  0.000000  0.831842  1
  Tm  Tm6  1  0.000000  0.000000  0.000000  1
  Ta  Ta7  1  0.499885  0.499999  0.167474  1
  Ta  Ta8  1  0.999883  0.000000  0.334911  1
  Ta  Ta9  1  0.500000  0.499999  0.500000  1
  Ta  Ta10  1  0.000118  0.000000  0.665089  1
  Ta  Ta11  1  0.500116  0.499999  0.832526  1
  Rh  Rh12  1  0.500000  0.265062  0.000000  1
  Rh  Rh13  1  0.500000  0.734939  0.000000  1
  Rh  Rh14  1  0.999868  0.256431  0.175320  1
  Rh  Rh15  1  0.999868  0.743570  0.175320  1
  Rh  Rh16  1  0.499892  0.249314  0.335614  1
  Rh  Rh17  1  0.499892  0.750687  0.335614  1
  Rh  Rh18  1  0.000000  0.250917  0.500000  1
  Rh  Rh19  1  0.000000  0.749083  0.500000  1
  Rh  Rh20  1  0.500109  0.249314  0.664386  1
  Rh  Rh21  1  0.500109  0.750687  0.664386  1
  Rh  Rh22  1  0.000133  0.256431  0.824680  1
  Rh  Rh23  1  0.000133  0.743570  0.824680  1
