# generated using pymatgen
data_YHo3Al4Pd3Rh
_symmetry_space_group_name_H-M   'P 1'
_cell_length_a   4.41265300
_cell_length_b   6.82327602
_cell_length_c   7.82688953
_cell_angle_alpha   89.88805643
_cell_angle_beta   90.00000000
_cell_angle_gamma   90.00000000
_symmetry_Int_Tables_number   1
_chemical_formula_structural   YHo3Al4Pd3Rh
_chemical_formula_sum   'Y1 Ho3 Al4 Pd3 Rh1'
_cell_volume   235.65740565
_cell_formula_units_Z   1
loop_
 _symmetry_equiv_pos_site_id
 _symmetry_equiv_pos_as_xyz
  1  'x, y, z'
loop_
 _atom_site_type_symbol
 _atom_site_label
 _atom_site_symmetry_multiplicity
 _atom_site_fract_x
 _atom_site_fract_y
 _atom_site_fract_z
 _atom_site_occupancy
  Y  Y0  1  0.250000  0.533791  0.179834  1
  Ho  Ho1  1  0.750000  0.462511  0.817718  1
  Ho  Ho2  1  0.750000  0.972462  0.679051  1
  Ho  Ho3  1  0.250000  0.037726  0.323455  1
  Al  Al4  1  0.250000  0.636121  0.561324  1
  Al  Al5  1  0.750000  0.357772  0.441673  1
  Al  Al6  1  0.750000  0.858496  0.059815  1
  Al  Al7  1  0.250000  0.142935  0.937483  1
  Pd  Pd8  1  0.250000  0.769777  0.878698  1
  Pd  Pd9  1  0.750000  0.230852  0.121599  1
  Pd  Pd10  1  0.750000  0.732589  0.379371  1
  Rh  Rh11  1  0.250000  0.264967  0.619979  1
