# generated using pymatgen
data_Tb2Pa3Al4Ga11
_symmetry_space_group_name_H-M   'P 1'
_cell_length_a   12.45866425
_cell_length_b   12.46133907
_cell_length_c   12.46133900
_cell_angle_alpha   28.56493664
_cell_angle_beta   28.53779032
_cell_angle_gamma   28.53779474
_symmetry_Int_Tables_number   1
_chemical_formula_structural   Tb2Pa3Al4Ga11
_chemical_formula_sum   'Tb2 Pa3 Al4 Ga11'
_cell_volume   390.52206194
_cell_formula_units_Z   1
loop_
 _symmetry_equiv_pos_site_id
 _symmetry_equiv_pos_as_xyz
  1  'x, y, z'
loop_
 _atom_site_type_symbol
 _atom_site_label
 _atom_site_symmetry_multiplicity
 _atom_site_fract_x
 _atom_site_fract_y
 _atom_site_fract_z
 _atom_site_occupancy
  Tb  Tb0  1  0.401986  0.400562  0.400562  1
  Tb  Tb1  1  0.598544  0.599206  0.599206  1
  Pa  Pa2  1  0.128260  0.132017  0.132017  1
  Pa  Pa3  1  0.869653  0.869699  0.869699  1
  Pa  Pa4  1  0.999296  0.999797  0.999797  1
  Al  Al5  1  0.438450  0.879196  0.879196  1
  Al  Al6  1  0.499182  0.501191  0.000004  1
  Al  Al7  1  0.499182  0.000004  0.501191  1
  Al  Al8  1  0.999374  0.500252  0.500252  1
  Ga  Ga9  1  0.884032  0.880890  0.430669  1
  Ga  Ga10  1  0.884032  0.430669  0.880890  1
  Ga  Ga11  1  0.118538  0.566355  0.119197  1
  Ga  Ga12  1  0.118538  0.119197  0.566355  1
  Ga  Ga13  1  0.566035  0.119094  0.119094  1
  Ga  Ga14  1  0.125030  0.637605  0.637605  1
  Ga  Ga15  1  0.635027  0.639189  0.124974  1
  Ga  Ga16  1  0.635027  0.124974  0.639189  1
  Ga  Ga17  1  0.363618  0.872709  0.363589  1
  Ga  Ga18  1  0.363618  0.363589  0.872709  1
  Ga  Ga19  1  0.872579  0.363807  0.363807  1
