# generated using pymatgen
data_TbDyAl20Fe3Rh
_symmetry_space_group_name_H-M   'P 1'
_cell_length_a   6.78399400
_cell_length_b   6.77443755
_cell_length_c   9.01104107
_cell_angle_alpha   90.18207350
_cell_angle_beta   89.99385868
_cell_angle_gamma   97.05204467
_symmetry_Int_Tables_number   1
_chemical_formula_structural   TbDyAl20Fe3Rh
_chemical_formula_sum   'Tb1 Dy1 Al20 Fe3 Rh1'
_cell_volume   410.99216945
_cell_formula_units_Z   1
loop_
 _symmetry_equiv_pos_site_id
 _symmetry_equiv_pos_as_xyz
  1  'x, y, z'
loop_
 _atom_site_type_symbol
 _atom_site_label
 _atom_site_symmetry_multiplicity
 _atom_site_fract_x
 _atom_site_fract_y
 _atom_site_fract_z
 _atom_site_occupancy
  Tb  Tb0  1  0.874828  0.127265  0.748301  1
  Dy  Dy1  1  0.125340  0.872498  0.251726  1
  Al  Al2  1  0.625410  0.376001  0.548859  1
  Al  Al3  1  0.374487  0.624112  0.451043  1
  Al  Al4  1  0.372535  0.619195  0.051506  1
  Al  Al5  1  0.627368  0.380919  0.948579  1
  Al  Al6  1  0.226055  0.227693  0.499187  1
  Al  Al7  1  0.774003  0.772250  0.500614  1
  Al  Al8  1  0.777195  0.768300  0.002815  1
  Al  Al9  1  0.222885  0.231669  0.997370  1
  Al  Al10  1  0.846845  0.161996  0.100378  1
  Al  Al11  1  0.153280  0.837895  0.899757  1
  Al  Al12  1  0.158105  0.842169  0.597262  1
  Al  Al13  1  0.841992  0.157719  0.402581  1
  Al  Al14  1  0.864481  0.584945  0.748934  1
  Al  Al15  1  0.135567  0.415309  0.251069  1
  Al  Al16  1  0.412831  0.138201  0.745161  1
  Al  Al17  1  0.586935  0.861731  0.254838  1
  Al  Al18  1  0.219886  0.480120  0.748945  1
  Al  Al19  1  0.780260  0.520083  0.251059  1
  Al  Al20  1  0.520796  0.777142  0.744121  1
  Al  Al21  1  0.479006  0.222715  0.255875  1
  Fe  Fe22  1  0.000003  0.500049  0.499893  1
  Fe  Fe23  1  0.000013  0.500046  0.000117  1
  Fe  Fe24  1  0.499946  0.999987  0.499899  1
  Rh  Rh25  1  0.499947  0.999988  0.000111  1
