# generated using pymatgen
data_Tm8Sc2IrPt5
_symmetry_space_group_name_H-M   'P 1'
_cell_length_a   10.86700400
_cell_length_b   10.86700400
_cell_length_c   6.24426300
_cell_angle_alpha   90.00000000
_cell_angle_beta   90.00000000
_cell_angle_gamma   90.00000000
_symmetry_Int_Tables_number   1
_chemical_formula_structural   Tm8Sc2IrPt5
_chemical_formula_sum   'Tm16 Sc4 Ir2 Pt10'
_cell_volume   737.39610708
_cell_formula_units_Z   2
loop_
 _symmetry_equiv_pos_site_id
 _symmetry_equiv_pos_as_xyz
  1  'x, y, z'
loop_
 _atom_site_type_symbol
 _atom_site_label
 _atom_site_symmetry_multiplicity
 _atom_site_fract_x
 _atom_site_fract_y
 _atom_site_fract_z
 _atom_site_occupancy
  Tm  Tm0  1  0.288579  0.087538  0.376679  1
  Tm  Tm1  1  0.288579  0.912462  0.876679  1
  Tm  Tm2  1  0.711421  0.087538  0.876679  1
  Tm  Tm3  1  0.711421  0.912462  0.376679  1
  Tm  Tm4  1  0.587538  0.788579  0.876679  1
  Tm  Tm5  1  0.587538  0.211421  0.376679  1
  Tm  Tm6  1  0.412462  0.788579  0.376679  1
  Tm  Tm7  1  0.412462  0.211421  0.876679  1
  Tm  Tm8  1  0.207439  0.414354  0.623373  1
  Tm  Tm9  1  0.207439  0.585646  0.123373  1
  Tm  Tm10  1  0.792561  0.414354  0.123373  1
  Tm  Tm11  1  0.792561  0.585646  0.623373  1
  Tm  Tm12  1  0.914354  0.707439  0.123373  1
  Tm  Tm13  1  0.914354  0.292561  0.623373  1
  Tm  Tm14  1  0.085646  0.707439  0.623373  1
  Tm  Tm15  1  0.085646  0.292561  0.123373  1
  Sc  Sc16  1  0.000000  0.000000  0.500970  1
  Sc  Sc17  1  0.000000  0.000000  0.000970  1
  Sc  Sc18  1  0.500000  0.500000  0.000970  1
  Sc  Sc19  1  0.500000  0.500000  0.500970  1
  Ir  Ir20  1  0.000000  0.500000  0.878754  1
  Ir  Ir21  1  0.000000  0.500000  0.378754  1
  Pt  Pt22  1  0.850327  0.148352  0.250472  1
  Pt  Pt23  1  0.850327  0.851648  0.750472  1
  Pt  Pt24  1  0.149673  0.148352  0.750472  1
  Pt  Pt25  1  0.149673  0.851648  0.250472  1
  Pt  Pt26  1  0.648352  0.350327  0.750472  1
  Pt  Pt27  1  0.648352  0.649673  0.250472  1
  Pt  Pt28  1  0.351648  0.350327  0.250472  1
  Pt  Pt29  1  0.351648  0.649673  0.750472  1
  Pt  Pt30  1  0.500000  0.000000  0.117209  1
  Pt  Pt31  1  0.500000  0.000000  0.617209  1
