# generated using pymatgen
data_NdTh3(InAu2)2
_symmetry_space_group_name_H-M   'P 1'
_cell_length_a   8.08430393
_cell_length_b   8.08430393
_cell_length_c   3.96696900
_cell_angle_alpha   90.00000000
_cell_angle_beta   90.00000000
_cell_angle_gamma   90.37775306
_symmetry_Int_Tables_number   1
_chemical_formula_structural   NdTh3(InAu2)2
_chemical_formula_sum   'Nd1 Th3 In2 Au4'
_cell_volume   259.25947198
_cell_formula_units_Z   1
loop_
 _symmetry_equiv_pos_site_id
 _symmetry_equiv_pos_as_xyz
  1  'x, y, z'
loop_
 _atom_site_type_symbol
 _atom_site_label
 _atom_site_symmetry_multiplicity
 _atom_site_fract_x
 _atom_site_fract_y
 _atom_site_fract_z
 _atom_site_occupancy
  Nd  Nd0  1  0.823219  0.676781  0.500000  1
  Th  Th1  1  0.676497  0.174851  0.500000  1
  Th  Th2  1  0.325149  0.823503  0.500000  1
  Th  Th3  1  0.174549  0.325451  0.500000  1
  In  In4  1  0.999517  0.998455  0.000000  1
  In  In5  1  0.501545  0.500483  0.000000  1
  Au  Au6  1  0.128432  0.625020  0.000000  1
  Au  Au7  1  0.874980  0.371568  0.000000  1
  Au  Au8  1  0.623950  0.876050  0.000000  1
  Au  Au9  1  0.372161  0.127839  0.000000  1
