# generated using pymatgen
data_BaTh2Se5
_symmetry_space_group_name_H-M   'P 1'
_cell_length_a   8.05515100
_cell_length_b   9.01520314
_cell_length_c   12.69252399
_cell_angle_alpha   89.56914522
_cell_angle_beta   90.00000000
_cell_angle_gamma   90.00000000
_symmetry_Int_Tables_number   1
_chemical_formula_structural   BaTh2Se5
_chemical_formula_sum   'Ba4 Th8 Se20'
_cell_volume   921.69008716
_cell_formula_units_Z   4
loop_
 _symmetry_equiv_pos_site_id
 _symmetry_equiv_pos_as_xyz
  1  'x, y, z'
loop_
 _atom_site_type_symbol
 _atom_site_label
 _atom_site_symmetry_multiplicity
 _atom_site_fract_x
 _atom_site_fract_y
 _atom_site_fract_z
 _atom_site_occupancy
  Ba  Ba0  1  0.052800  0.491469  0.331149  1
  Ba  Ba1  1  0.552800  0.508531  0.168851  1
  Ba  Ba2  1  0.947200  0.508531  0.668851  1
  Ba  Ba3  1  0.447200  0.491469  0.831149  1
  Th  Th4  1  0.023338  0.998054  0.320102  1
  Th  Th5  1  0.523338  0.001946  0.179898  1
  Th  Th6  1  0.976662  0.001946  0.679898  1
  Th  Th7  1  0.476662  0.998054  0.820102  1
  Th  Th8  1  0.071519  0.753057  0.009204  1
  Th  Th9  1  0.571519  0.246943  0.490796  1
  Th  Th10  1  0.928481  0.246943  0.990796  1
  Th  Th11  1  0.428481  0.753057  0.509204  1
  Se  Se12  1  0.663270  0.956964  0.399903  1
  Se  Se13  1  0.163270  0.043036  0.100097  1
  Se  Se14  1  0.336730  0.043036  0.600097  1
  Se  Se15  1  0.836730  0.956964  0.899903  1
  Se  Se16  1  0.453113  0.789150  0.001977  1
  Se  Se17  1  0.953113  0.210850  0.498023  1
  Se  Se18  1  0.546887  0.210850  0.998023  1
  Se  Se19  1  0.046887  0.789150  0.501977  1
  Se  Se20  1  0.835017  0.782638  0.187579  1
  Se  Se21  1  0.335017  0.217362  0.312421  1
  Se  Se22  1  0.164983  0.217362  0.812421  1
  Se  Se23  1  0.664983  0.782638  0.687579  1
  Se  Se24  1  0.309774  0.772005  0.283916  1
  Se  Se25  1  0.809774  0.227995  0.216084  1
  Se  Se26  1  0.690226  0.227995  0.716084  1
  Se  Se27  1  0.190226  0.772005  0.783916  1
  Se  Se28  1  0.179480  0.461578  0.074788  1
  Se  Se29  1  0.679480  0.538422  0.425212  1
  Se  Se30  1  0.820520  0.538422  0.925212  1
  Se  Se31  1  0.320520  0.461578  0.574788  1
