# generated using pymatgen
data_Y5Ho3Hg4
_symmetry_space_group_name_H-M   'P 1'
_cell_length_a   5.08669900
_cell_length_b   7.11071754
_cell_length_c   9.23114775
_cell_angle_alpha   89.92068817
_cell_angle_beta   90.00000000
_cell_angle_gamma   90.00000000
_symmetry_Int_Tables_number   1
_chemical_formula_structural   Y5Ho3Hg4
_chemical_formula_sum   'Y5 Ho3 Hg4'
_cell_volume   333.89103093
_cell_formula_units_Z   1
loop_
 _symmetry_equiv_pos_site_id
 _symmetry_equiv_pos_as_xyz
  1  'x, y, z'
loop_
 _atom_site_type_symbol
 _atom_site_label
 _atom_site_symmetry_multiplicity
 _atom_site_fract_x
 _atom_site_fract_y
 _atom_site_fract_z
 _atom_site_occupancy
  Y  Y0  1  0.250000  0.482390  0.191176  1
  Y  Y1  1  0.750000  0.517132  0.807874  1
  Y  Y2  1  0.250000  0.983395  0.307783  1
  Y  Y3  1  0.750000  0.017584  0.692799  1
  Y  Y4  1  0.750000  0.667698  0.425291  1
  Ho  Ho5  1  0.250000  0.332978  0.574638  1
  Ho  Ho6  1  0.750000  0.166600  0.074891  1
  Ho  Ho7  1  0.250000  0.833772  0.925661  1
  Hg  Hg8  1  0.250000  0.259613  0.897280  1
  Hg  Hg9  1  0.750000  0.740555  0.101075  1
  Hg  Hg10  1  0.250000  0.759728  0.603937  1
  Hg  Hg11  1  0.750000  0.238552  0.397596  1
