# generated using pymatgen
data_SrPdF5
_symmetry_space_group_name_H-M   'P 1'
_cell_length_a   5.85280857
_cell_length_b   5.85280930
_cell_length_c   8.52197605
_cell_angle_alpha   68.91276120
_cell_angle_beta   68.91275918
_cell_angle_gamma   69.01070210
_symmetry_Int_Tables_number   1
_chemical_formula_structural   SrPdF5
_chemical_formula_sum   'Sr2 Pd2 F10'
_cell_volume   245.20460057
_cell_formula_units_Z   2
loop_
 _symmetry_equiv_pos_site_id
 _symmetry_equiv_pos_as_xyz
  1  'x, y, z'
loop_
 _atom_site_type_symbol
 _atom_site_label
 _atom_site_symmetry_multiplicity
 _atom_site_fract_x
 _atom_site_fract_y
 _atom_site_fract_z
 _atom_site_occupancy
  Sr  Sr0  1  0.547369  0.452631  0.250000  1
  Sr  Sr1  1  0.452631  0.547369  0.750000  1
  Pd  Pd2  1  0.000000  0.000000  0.500000  1
  Pd  Pd3  1  0.000000  0.000000  0.000000  1
  F  F4  1  0.065386  0.934614  0.750000  1
  F  F5  1  0.934614  0.065386  0.250000  1
  F  F6  1  0.211619  0.240827  0.887181  1
  F  F7  1  0.759173  0.788381  0.612819  1
  F  F8  1  0.708576  0.307379  0.523169  1
  F  F9  1  0.692621  0.291424  0.976831  1
  F  F10  1  0.291424  0.692621  0.476831  1
  F  F11  1  0.307379  0.708576  0.023169  1
  F  F12  1  0.240827  0.211619  0.387181  1
  F  F13  1  0.788381  0.759173  0.112819  1
