# generated using pymatgen
data_PrYCo9P6Ru
_symmetry_space_group_name_H-M   'P 1'
_cell_length_a   3.70555300
_cell_length_b   10.43722800
_cell_length_c   11.85392900
_cell_angle_alpha   90.00000000
_cell_angle_beta   90.00000000
_cell_angle_gamma   90.00000000
_symmetry_Int_Tables_number   1
_chemical_formula_structural   PrYCo9P6Ru
_chemical_formula_sum   'Pr2 Y2 Co18 P12 Ru2'
_cell_volume   458.45901993
_cell_formula_units_Z   2
loop_
 _symmetry_equiv_pos_site_id
 _symmetry_equiv_pos_as_xyz
  1  'x, y, z'
loop_
 _atom_site_type_symbol
 _atom_site_label
 _atom_site_symmetry_multiplicity
 _atom_site_fract_x
 _atom_site_fract_y
 _atom_site_fract_z
 _atom_site_occupancy
  Pr  Pr0  1  0.250000  0.582651  0.701940  1
  Pr  Pr1  1  0.250000  0.917349  0.201940  1
  Y  Y2  1  0.750000  0.413371  0.296388  1
  Y  Y3  1  0.750000  0.086629  0.796388  1
  Co  Co4  1  0.750000  0.285495  0.008177  1
  Co  Co5  1  0.750000  0.214505  0.508177  1
  Co  Co6  1  0.250000  0.403945  0.486566  1
  Co  Co7  1  0.250000  0.096055  0.986566  1
  Co  Co8  1  0.750000  0.590370  0.505882  1
  Co  Co9  1  0.750000  0.909630  0.005882  1
  Co  Co10  1  0.250000  0.221619  0.175862  1
  Co  Co11  1  0.250000  0.278381  0.675862  1
  Co  Co12  1  0.750000  0.779868  0.823701  1
  Co  Co13  1  0.750000  0.720132  0.323701  1
  Co  Co14  1  0.250000  0.889046  0.701889  1
  Co  Co15  1  0.250000  0.610954  0.201889  1
  Co  Co16  1  0.750000  0.119187  0.302529  1
  Co  Co17  1  0.750000  0.380813  0.802529  1
  Co  Co18  1  0.250000  0.462678  0.934894  1
  Co  Co19  1  0.250000  0.037322  0.434894  1
  Co  Co20  1  0.750000  0.529833  0.070025  1
  Co  Co21  1  0.750000  0.970167  0.570025  1
  P  P22  1  0.250000  0.416641  0.113002  1
  P  P23  1  0.250000  0.083359  0.613002  1
  P  P24  1  0.750000  0.578103  0.890940  1
  P  P25  1  0.750000  0.921897  0.390940  1
  P  P26  1  0.250000  0.271391  0.867970  1
  P  P27  1  0.250000  0.228609  0.367970  1
  P  P28  1  0.750000  0.722685  0.132252  1
  P  P29  1  0.750000  0.777315  0.632252  1
  P  P30  1  0.250000  0.595300  0.390936  1
  P  P31  1  0.250000  0.904700  0.890936  1
  P  P32  1  0.750000  0.392674  0.606446  1
  P  P33  1  0.750000  0.107326  0.106446  1
  Ru  Ru34  1  0.250000  0.713876  0.990599  1
  Ru  Ru35  1  0.250000  0.786124  0.490599  1
