# generated using pymatgen
data_Ho3Er(Pd2O7)2
_symmetry_space_group_name_H-M   'P 1'
_cell_length_a   7.23501612
_cell_length_b   7.23715216
_cell_length_c   7.23715200
_cell_angle_alpha   60.00000074
_cell_angle_beta   59.99023391
_cell_angle_gamma   59.99023353
_symmetry_Int_Tables_number   1
_chemical_formula_structural   Ho3Er(Pd2O7)2
_chemical_formula_sum   'Ho3 Er1 Pd4 O14'
_cell_volume   267.91422945
_cell_formula_units_Z   1
loop_
 _symmetry_equiv_pos_site_id
 _symmetry_equiv_pos_as_xyz
  1  'x, y, z'
loop_
 _atom_site_type_symbol
 _atom_site_label
 _atom_site_symmetry_multiplicity
 _atom_site_fract_x
 _atom_site_fract_y
 _atom_site_fract_z
 _atom_site_occupancy
  Ho  Ho0  1  0.125000  0.125000  0.125000  1
  Ho  Ho1  1  0.125000  0.125000  0.625000  1
  Ho  Ho2  1  0.125000  0.625000  0.125000  1
  Er  Er3  1  0.625000  0.125000  0.125000  1
  Pd  Pd4  1  0.625000  0.125000  0.625000  1
  Pd  Pd5  1  0.625000  0.625000  0.125000  1
  Pd  Pd6  1  0.125000  0.625000  0.625000  1
  Pd  Pd7  1  0.625000  0.625000  0.625000  1
  O  O8  1  0.966259  0.533723  0.966295  1
  O  O9  1  0.251212  0.249596  0.249596  1
  O  O10  1  0.716071  0.283561  0.716807  1
  O  O11  1  0.716071  0.716807  0.283561  1
  O  O12  1  0.283741  0.716277  0.716277  1
  O  O13  1  0.966259  0.966295  0.533723  1
  O  O14  1  0.533929  0.966439  0.966439  1
  O  O15  1  0.966259  0.533723  0.533723  1
  O  O16  1  0.533929  0.533193  0.966439  1
  O  O17  1  0.716071  0.283561  0.283561  1
  O  O18  1  0.283741  0.283705  0.716277  1
  O  O19  1  0.998788  0.000404  0.000404  1
  O  O20  1  0.283741  0.716277  0.283705  1
  O  O21  1  0.533929  0.966439  0.533193  1
