# generated using pymatgen
data_Nb6Ga4CuPtN2
_symmetry_space_group_name_H-M   'P 1'
_cell_length_a   8.30939345
_cell_length_b   8.31178940
_cell_length_c   8.30939311
_cell_angle_alpha   59.99045657
_cell_angle_beta   59.88002837
_cell_angle_gamma   59.99046232
_symmetry_Int_Tables_number   1
_chemical_formula_structural   Nb6Ga4CuPtN2
_chemical_formula_sum   'Nb12 Ga8 Cu2 Pt2 N4'
_cell_volume   405.37813114
_cell_formula_units_Z   2
loop_
 _symmetry_equiv_pos_site_id
 _symmetry_equiv_pos_as_xyz
  1  'x, y, z'
loop_
 _atom_site_type_symbol
 _atom_site_label
 _atom_site_symmetry_multiplicity
 _atom_site_fract_x
 _atom_site_fract_y
 _atom_site_fract_z
 _atom_site_occupancy
  Nb  Nb0  1  0.434922  0.435807  0.067993  1
  Nb  Nb1  1  0.058751  0.441249  0.058751  1
  Nb  Nb2  1  0.434922  0.061279  0.067993  1
  Nb  Nb3  1  0.067993  0.061279  0.434922  1
  Nb  Nb4  1  0.430348  0.069652  0.430348  1
  Nb  Nb5  1  0.067993  0.435807  0.434922  1
  Nb  Nb6  1  0.815078  0.814193  0.182007  1
  Nb  Nb7  1  0.191249  0.808751  0.191249  1
  Nb  Nb8  1  0.815078  0.188721  0.182007  1
  Nb  Nb9  1  0.182007  0.188721  0.815078  1
  Nb  Nb10  1  0.819652  0.180348  0.819652  1
  Nb  Nb11  1  0.182007  0.814193  0.815078  1
  Ga  Ga12  1  0.843100  0.833926  0.489050  1
  Ga  Ga13  1  0.837527  0.494446  0.837527  1
  Ga  Ga14  1  0.489050  0.833926  0.843100  1
  Ga  Ga15  1  0.837527  0.830501  0.837527  1
  Ga  Ga16  1  0.406900  0.416074  0.760950  1
  Ga  Ga17  1  0.412473  0.755554  0.412473  1
  Ga  Ga18  1  0.760950  0.416074  0.406900  1
  Ga  Ga19  1  0.412473  0.419499  0.412473  1
  Cu  Cu20  1  0.625000  0.625000  0.125000  1
  Cu  Cu21  1  0.125000  0.625000  0.625000  1
  Pt  Pt22  1  0.625000  0.125000  0.625000  1
  Pt  Pt23  1  0.625000  0.625000  0.625000  1
  N  N24  1  0.125000  0.125000  0.625000  1
  N  N25  1  0.125000  0.625000  0.125000  1
  N  N26  1  0.625000  0.125000  0.125000  1
  N  N27  1  0.125000  0.125000  0.125000  1
