# generated using pymatgen
data_K7RbBa4(HfBi4)2
_symmetry_space_group_name_H-M   'P 1'
_cell_length_a   11.40754932
_cell_length_b   11.37380324
_cell_length_c   8.82502140
_cell_angle_alpha   89.07642105
_cell_angle_beta   88.71134084
_cell_angle_gamma   60.36883440
_symmetry_Int_Tables_number   1
_chemical_formula_structural   K7RbBa4(HfBi4)2
_chemical_formula_sum   'K7 Rb1 Ba4 Hf2 Bi8'
_cell_volume   995.01484632
_cell_formula_units_Z   1
loop_
 _symmetry_equiv_pos_site_id
 _symmetry_equiv_pos_as_xyz
  1  'x, y, z'
loop_
 _atom_site_type_symbol
 _atom_site_label
 _atom_site_symmetry_multiplicity
 _atom_site_fract_x
 _atom_site_fract_y
 _atom_site_fract_z
 _atom_site_occupancy
  K  K0  1  0.529883  0.940265  0.369756  1
  K  K1  1  0.719847  0.133558  0.196935  1
  K  K2  1  0.132557  0.722418  0.197477  1
  K  K3  1  0.141262  0.141516  0.215739  1
  K  K4  1  0.275973  0.864591  0.699193  1
  K  K5  1  0.865164  0.274661  0.694954  1
  K  K6  1  0.857077  0.857355  0.667236  1
  Rb  Rb7  1  0.942097  0.531132  0.371565  1
  Ba  Ba8  1  0.528963  0.530803  0.370458  1
  Ba  Ba9  1  0.053229  0.475731  0.876148  1
  Ba  Ba10  1  0.477516  0.050366  0.873375  1
  Ba  Ba11  1  0.476816  0.475884  0.868950  1
  Hf  Hf12  1  0.335528  0.332531  0.482507  1
  Hf  Hf13  1  0.665078  0.666679  0.982176  1
  Bi  Bi14  1  0.387190  0.804346  0.091617  1
  Bi  Bi15  1  0.802706  0.386952  0.084554  1
  Bi  Bi16  1  0.806905  0.807857  0.061408  1
  Bi  Bi17  1  0.609131  0.201506  0.589867  1
  Bi  Bi18  1  0.203863  0.607460  0.593694  1
  Bi  Bi19  1  0.200263  0.196821  0.608052  1
  Bi  Bi20  1  0.336462  0.336129  0.149646  1
  Bi  Bi21  1  0.653105  0.662051  0.657516  1
