# generated using pymatgen
data_ScNi5As3
_symmetry_space_group_name_H-M   'P 1'
_cell_length_a   3.76490200
_cell_length_b   10.70103000
_cell_length_c   12.12360800
_cell_angle_alpha   90.00000000
_cell_angle_beta   90.00000000
_cell_angle_gamma   90.00000000
_symmetry_Int_Tables_number   1
_chemical_formula_structural   ScNi5As3
_chemical_formula_sum   'Sc4 Ni20 As12'
_cell_volume   488.43991079
_cell_formula_units_Z   4
loop_
 _symmetry_equiv_pos_site_id
 _symmetry_equiv_pos_as_xyz
  1  'x, y, z'
loop_
 _atom_site_type_symbol
 _atom_site_label
 _atom_site_symmetry_multiplicity
 _atom_site_fract_x
 _atom_site_fract_y
 _atom_site_fract_z
 _atom_site_occupancy
  Sc  Sc0  1  0.250000  0.581655  0.702417  1
  Sc  Sc1  1  0.250000  0.918345  0.202417  1
  Sc  Sc2  1  0.750000  0.418345  0.297583  1
  Sc  Sc3  1  0.750000  0.081655  0.797583  1
  Ni  Ni4  1  0.250000  0.710292  0.989124  1
  Ni  Ni5  1  0.250000  0.789708  0.489124  1
  Ni  Ni6  1  0.750000  0.289708  0.010876  1
  Ni  Ni7  1  0.750000  0.210292  0.510876  1
  Ni  Ni8  1  0.250000  0.407867  0.486826  1
  Ni  Ni9  1  0.250000  0.092133  0.986826  1
  Ni  Ni10  1  0.750000  0.592133  0.513174  1
  Ni  Ni11  1  0.750000  0.907867  0.013174  1
  Ni  Ni12  1  0.250000  0.211734  0.180362  1
  Ni  Ni13  1  0.250000  0.288267  0.680362  1
  Ni  Ni14  1  0.750000  0.788267  0.819638  1
  Ni  Ni15  1  0.750000  0.711733  0.319638  1
  Ni  Ni16  1  0.250000  0.885174  0.695359  1
  Ni  Ni17  1  0.250000  0.614826  0.195359  1
  Ni  Ni18  1  0.750000  0.114826  0.304641  1
  Ni  Ni19  1  0.750000  0.385174  0.804641  1
  Ni  Ni20  1  0.250000  0.472406  0.930548  1
  Ni  Ni21  1  0.250000  0.027594  0.430548  1
  Ni  Ni22  1  0.750000  0.527594  0.069452  1
  Ni  Ni23  1  0.750000  0.972406  0.569452  1
  As  As24  1  0.250000  0.410349  0.118421  1
  As  As25  1  0.250000  0.089651  0.618421  1
  As  As26  1  0.750000  0.589651  0.881579  1
  As  As27  1  0.750000  0.910349  0.381579  1
  As  As28  1  0.250000  0.264802  0.871326  1
  As  As29  1  0.250000  0.235198  0.371326  1
  As  As30  1  0.750000  0.735198  0.128674  1
  As  As31  1  0.750000  0.764802  0.628674  1
  As  As32  1  0.250000  0.596999  0.388969  1
  As  As33  1  0.250000  0.903001  0.888969  1
  As  As34  1  0.750000  0.403001  0.611031  1
  As  As35  1  0.750000  0.096999  0.111031  1
