# generated using pymatgen
data_DyTiFe4P3
_symmetry_space_group_name_H-M   'P 1'
_cell_length_a   3.67659100
_cell_length_b   10.41753600
_cell_length_c   12.24537400
_cell_angle_alpha   90.00000000
_cell_angle_beta   90.00000000
_cell_angle_gamma   90.00000000
_symmetry_Int_Tables_number   1
_chemical_formula_structural   DyTiFe4P3
_chemical_formula_sum   'Dy4 Ti4 Fe16 P12'
_cell_volume   469.01030346
_cell_formula_units_Z   4
loop_
 _symmetry_equiv_pos_site_id
 _symmetry_equiv_pos_as_xyz
  1  'x, y, z'
loop_
 _atom_site_type_symbol
 _atom_site_label
 _atom_site_symmetry_multiplicity
 _atom_site_fract_x
 _atom_site_fract_y
 _atom_site_fract_z
 _atom_site_occupancy
  Dy  Dy0  1  0.250000  0.581981  0.711632  1
  Dy  Dy1  1  0.250000  0.918019  0.211632  1
  Dy  Dy2  1  0.750000  0.418019  0.288368  1
  Dy  Dy3  1  0.750000  0.081981  0.788368  1
  Ti  Ti4  1  0.250000  0.699488  0.991434  1
  Ti  Ti5  1  0.250000  0.800512  0.491434  1
  Ti  Ti6  1  0.750000  0.300512  0.008566  1
  Ti  Ti7  1  0.750000  0.199488  0.508566  1
  Fe  Fe8  1  0.250000  0.414806  0.491818  1
  Fe  Fe9  1  0.250000  0.085194  0.991818  1
  Fe  Fe10  1  0.750000  0.585194  0.508182  1
  Fe  Fe11  1  0.750000  0.914806  0.008182  1
  Fe  Fe12  1  0.250000  0.217609  0.172330  1
  Fe  Fe13  1  0.250000  0.282391  0.672330  1
  Fe  Fe14  1  0.750000  0.782391  0.827670  1
  Fe  Fe15  1  0.750000  0.717609  0.327670  1
  Fe  Fe16  1  0.250000  0.875293  0.699340  1
  Fe  Fe17  1  0.250000  0.624707  0.199340  1
  Fe  Fe18  1  0.750000  0.124707  0.300660  1
  Fe  Fe19  1  0.750000  0.375293  0.800660  1
  Fe  Fe20  1  0.250000  0.463160  0.932540  1
  Fe  Fe21  1  0.250000  0.036840  0.432540  1
  Fe  Fe22  1  0.750000  0.536840  0.067460  1
  Fe  Fe23  1  0.750000  0.963160  0.567460  1
  P  P24  1  0.250000  0.427688  0.112266  1
  P  P25  1  0.250000  0.072312  0.612266  1
  P  P26  1  0.750000  0.572312  0.887734  1
  P  P27  1  0.750000  0.927688  0.387734  1
  P  P28  1  0.250000  0.269883  0.859671  1
  P  P29  1  0.250000  0.230117  0.359671  1
  P  P30  1  0.750000  0.730117  0.140329  1
  P  P31  1  0.750000  0.769883  0.640329  1
  P  P32  1  0.250000  0.599265  0.380583  1
  P  P33  1  0.250000  0.900735  0.880583  1
  P  P34  1  0.750000  0.400735  0.619417  1
  P  P35  1  0.750000  0.099265  0.119417  1
