# generated using pymatgen
data_Ho3Er3(TcB7)2
_symmetry_space_group_name_H-M   'P 1'
_cell_length_a   8.02835957
_cell_length_b   8.02835947
_cell_length_c   9.31308446
_cell_angle_alpha   89.96495210
_cell_angle_beta   90.03504724
_cell_angle_gamma   154.66311662
_symmetry_Int_Tables_number   1
_chemical_formula_structural   Ho3Er3(TcB7)2
_chemical_formula_sum   'Ho3 Er3 Tc2 B14'
_cell_volume   256.87966471
_cell_formula_units_Z   1
loop_
 _symmetry_equiv_pos_site_id
 _symmetry_equiv_pos_as_xyz
  1  'x, y, z'
loop_
 _atom_site_type_symbol
 _atom_site_label
 _atom_site_symmetry_multiplicity
 _atom_site_fract_x
 _atom_site_fract_y
 _atom_site_fract_z
 _atom_site_occupancy
  Ho  Ho0  1  0.894819  0.105181  0.440109  1
  Ho  Ho1  1  0.241999  0.758001  0.250030  1
  Ho  Ho2  1  0.757796  0.242204  0.750103  1
  Er  Er3  1  0.104856  0.895144  0.559504  1
  Er  Er4  1  0.895157  0.104843  0.059379  1
  Er  Er5  1  0.104999  0.895001  0.940475  1
  Tc  Tc6  1  0.052394  0.947606  0.249746  1
  Tc  Tc7  1  0.947604  0.052396  0.750182  1
  B  B8  1  0.726841  0.273159  0.467035  1
  B  B9  1  0.272483  0.727517  0.533550  1
  B  B10  1  0.727289  0.272711  0.033302  1
  B  B11  1  0.272872  0.727128  0.966859  1
  B  B12  1  0.631856  0.368144  0.150773  1
  B  B13  1  0.368270  0.631730  0.849237  1
  B  B14  1  0.631758  0.368242  0.349193  1
  B  B15  1  0.368172  0.631828  0.651230  1
  B  B16  1  0.520475  0.479525  0.094959  1
  B  B17  1  0.479799  0.520201  0.904721  1
  B  B18  1  0.520445  0.479555  0.404541  1
  B  B19  1  0.479736  0.520264  0.595468  1
  B  B20  1  0.456209  0.543791  0.249535  1
  B  B21  1  0.544172  0.455828  0.750069  1
