# generated using pymatgen
data_Er3Th7(In2Ru)4
_symmetry_space_group_name_H-M   'P 1'
_cell_length_a   3.76401000
_cell_length_b   8.18482111
_cell_length_c   18.31106522
_cell_angle_alpha   89.48860531
_cell_angle_beta   90.00000000
_cell_angle_gamma   90.00000000
_symmetry_Int_Tables_number   1
_chemical_formula_structural   Er3Th7(In2Ru)4
_chemical_formula_sum   'Er3 Th7 In8 Ru4'
_cell_volume   564.10022223
_cell_formula_units_Z   1
loop_
 _symmetry_equiv_pos_site_id
 _symmetry_equiv_pos_as_xyz
  1  'x, y, z'
loop_
 _atom_site_type_symbol
 _atom_site_label
 _atom_site_symmetry_multiplicity
 _atom_site_fract_x
 _atom_site_fract_y
 _atom_site_fract_z
 _atom_site_occupancy
  Er  Er0  1  0.000000  0.507547  0.499093  1
  Er  Er1  1  0.000000  0.998696  0.000671  1
  Er  Er2  1  0.000000  0.115016  0.413165  1
  Th  Th3  1  0.000000  0.754118  0.279522  1
  Th  Th4  1  0.000000  0.250671  0.721819  1
  Th  Th5  1  0.000000  0.749001  0.776278  1
  Th  Th6  1  0.000000  0.243849  0.226730  1
  Th  Th7  1  0.000000  0.608955  0.090301  1
  Th  Th8  1  0.000000  0.386024  0.912767  1
  Th  Th9  1  0.000000  0.886477  0.588175  1
  In  In10  1  0.500000  0.715883  0.934596  1
  In  In11  1  0.500000  0.279372  0.066896  1
  In  In12  1  0.500000  0.800843  0.433201  1
  In  In13  1  0.500000  0.216159  0.561568  1
  In  In14  1  0.500000  0.560829  0.645218  1
  In  In15  1  0.500000  0.431639  0.357296  1
  In  In16  1  0.500000  0.935875  0.145666  1
  In  In17  1  0.500000  0.060760  0.853724  1
  Ru  Ru18  1  0.500000  0.500007  0.195089  1
  Ru  Ru19  1  0.500000  0.488734  0.805194  1
  Ru  Ru20  1  0.500000  0.991413  0.693906  1
  Ru  Ru21  1  0.500000  0.018131  0.299124  1
