# generated using pymatgen
data_Ca10GaReN10
_symmetry_space_group_name_H-M   'P 1'
_cell_length_a   6.92940125
_cell_length_b   6.92940097
_cell_length_c   8.81688608
_cell_angle_alpha   81.05234566
_cell_angle_beta   81.05234589
_cell_angle_gamma   60.21076997
_symmetry_Int_Tables_number   1
_chemical_formula_structural   Ca10GaReN10
_chemical_formula_sum   'Ca10 Ga1 Re1 N10'
_cell_volume   361.42741246
_cell_formula_units_Z   1
loop_
 _symmetry_equiv_pos_site_id
 _symmetry_equiv_pos_as_xyz
  1  'x, y, z'
loop_
 _atom_site_type_symbol
 _atom_site_label
 _atom_site_symmetry_multiplicity
 _atom_site_fract_x
 _atom_site_fract_y
 _atom_site_fract_z
 _atom_site_occupancy
  Ca  Ca0  1  0.886319  0.359608  0.831994  1
  Ca  Ca1  1  0.876333  0.876333  0.816699  1
  Ca  Ca2  1  0.735581  0.735581  0.539877  1
  Ca  Ca3  1  0.739410  0.257908  0.524148  1
  Ca  Ca4  1  0.618198  0.141073  0.137427  1
  Ca  Ca5  1  0.359608  0.886319  0.831994  1
  Ca  Ca6  1  0.257908  0.739410  0.524148  1
  Ca  Ca7  1  0.243640  0.243640  0.509429  1
  Ca  Ca8  1  0.141306  0.141306  0.160452  1
  Ca  Ca9  1  0.141073  0.618198  0.137427  1
  Ga  Ga10  1  0.370524  0.370524  0.772615  1
  Re  Re11  1  0.632055  0.632055  0.227213  1
  N  N12  1  0.903928  0.474163  0.314711  1
  N  N13  1  0.990662  0.990662  0.031584  1
  N  N14  1  0.678331  0.678331  0.019785  1
  N  N15  1  0.545023  0.545023  0.691745  1
  N  N16  1  0.474163  0.903928  0.314711  1
  N  N17  1  0.550284  0.072670  0.664482  1
  N  N18  1  0.474823  0.474823  0.290032  1
  N  N19  1  0.308934  0.308934  0.991290  1
  N  N20  1  0.061514  0.061514  0.649561  1
  N  N21  1  0.072670  0.550284  0.664482  1
