# generated using pymatgen
data_MgSiP5(Pd10Pb)2
_symmetry_space_group_name_H-M   'P 1'
_cell_length_a   8.67080915
_cell_length_b   8.66730618
_cell_length_c   8.66730655
_cell_angle_alpha   60.02673458
_cell_angle_beta   59.98662812
_cell_angle_gamma   59.98663316
_symmetry_Int_Tables_number   1
_chemical_formula_structural   MgSiP5(Pd10Pb)2
_chemical_formula_sum   'Mg1 Si1 P5 Pd20 Pb2'
_cell_volume   460.58816042
_cell_formula_units_Z   1
loop_
 _symmetry_equiv_pos_site_id
 _symmetry_equiv_pos_as_xyz
  1  'x, y, z'
loop_
 _atom_site_type_symbol
 _atom_site_label
 _atom_site_symmetry_multiplicity
 _atom_site_fract_x
 _atom_site_fract_y
 _atom_site_fract_z
 _atom_site_occupancy
  Mg  Mg0  1  0.998536  0.001464  0.001464  1
  Si  Si1  1  0.735287  0.264713  0.264713  1
  P  P2  1  0.262899  0.737101  0.737101  1
  P  P3  1  0.264689  0.735311  0.263194  1
  P  P4  1  0.736806  0.263194  0.735311  1
  P  P5  1  0.264689  0.263194  0.735311  1
  P  P6  1  0.736806  0.735311  0.263194  1
  Pd  Pd7  1  0.382996  0.384688  0.384688  1
  Pd  Pd8  1  0.614977  0.615373  0.615373  1
  Pd  Pd9  1  0.384627  0.385023  0.845723  1
  Pd  Pd10  1  0.384627  0.845723  0.385023  1
  Pd  Pd11  1  0.615312  0.617004  0.152371  1
  Pd  Pd12  1  0.615312  0.152371  0.617004  1
  Pd  Pd13  1  0.847629  0.384688  0.384688  1
  Pd  Pd14  1  0.154277  0.615373  0.615373  1
  Pd  Pd15  1  0.340653  0.000841  0.000841  1
  Pd  Pd16  1  0.657665  0.000841  0.000841  1
  Pd  Pd17  1  0.999159  0.342335  0.659347  1
  Pd  Pd18  1  0.999159  0.659347  0.342335  1
  Pd  Pd19  1  0.001676  0.342614  0.998324  1
  Pd  Pd20  1  0.657386  0.998324  0.342614  1
  Pd  Pd21  1  0.999980  0.657909  0.000020  1
  Pd  Pd22  1  0.342091  0.000020  0.657909  1
  Pd  Pd23  1  0.001676  0.998324  0.342614  1
  Pd  Pd24  1  0.999980  0.000020  0.657909  1
  Pd  Pd25  1  0.657386  0.342614  0.998324  1
  Pd  Pd26  1  0.342091  0.657909  0.000020  1
  Pb  Pb27  1  0.250814  0.249186  0.249186  1
  Pb  Pb28  1  0.750814  0.749186  0.749186  1
