# generated using pymatgen
data_YbEu8Y(Sn3H)2
_symmetry_space_group_name_H-M   'P 1'
_cell_length_a   9.65984602
_cell_length_b   9.65984607
_cell_length_c   9.65984621
_cell_angle_alpha   129.14440100
_cell_angle_beta   129.14439828
_cell_angle_gamma   74.77833509
_symmetry_Int_Tables_number   1
_chemical_formula_structural   YbEu8Y(Sn3H)2
_chemical_formula_sum   'Yb1 Eu8 Y1 Sn6 H2'
_cell_volume   528.14217436
_cell_formula_units_Z   1
loop_
 _symmetry_equiv_pos_site_id
 _symmetry_equiv_pos_as_xyz
  1  'x, y, z'
loop_
 _atom_site_type_symbol
 _atom_site_label
 _atom_site_symmetry_multiplicity
 _atom_site_fract_x
 _atom_site_fract_y
 _atom_site_fract_z
 _atom_site_occupancy
  Yb  Yb0  1  0.000000  0.000000  0.000000  1
  Eu  Eu1  1  0.512696  0.011850  0.827491  1
  Eu  Eu2  1  0.184359  0.685204  0.172509  1
  Eu  Eu3  1  0.011850  0.184359  0.499156  1
  Eu  Eu4  1  0.685204  0.512696  0.500844  1
  Eu  Eu5  1  0.487304  0.988150  0.172509  1
  Eu  Eu6  1  0.815641  0.314796  0.827491  1
  Eu  Eu7  1  0.988150  0.815641  0.500844  1
  Eu  Eu8  1  0.314796  0.487304  0.499156  1
  Y  Y9  1  0.500000  0.500000  0.000000  1
  Sn  Sn10  1  0.253836  0.253836  0.000000  1
  Sn  Sn11  1  0.746164  0.746164  0.000000  1
  Sn  Sn12  1  0.867282  0.376710  0.243992  1
  Sn  Sn13  1  0.132718  0.623290  0.756008  1
  Sn  Sn14  1  0.376710  0.132718  0.509428  1
  Sn  Sn15  1  0.623290  0.867282  0.490572  1
  H  H16  1  0.250000  0.750000  0.500000  1
  H  H17  1  0.750000  0.250000  0.500000  1
