# generated using pymatgen
data_NaGd2Np3(Sb4Au3)2
_symmetry_space_group_name_H-M   'P 1'
_cell_length_a   8.68747923
_cell_length_b   8.66809501
_cell_length_c   8.68245043
_cell_angle_alpha   109.83287795
_cell_angle_beta   109.45848093
_cell_angle_gamma   109.13367746
_symmetry_Int_Tables_number   1
_chemical_formula_structural   NaGd2Np3(Sb4Au3)2
_chemical_formula_sum   'Na1 Gd2 Np3 Sb8 Au6'
_cell_volume   503.22792834
_cell_formula_units_Z   1
loop_
 _symmetry_equiv_pos_site_id
 _symmetry_equiv_pos_as_xyz
  1  'x, y, z'
loop_
 _atom_site_type_symbol
 _atom_site_label
 _atom_site_symmetry_multiplicity
 _atom_site_fract_x
 _atom_site_fract_y
 _atom_site_fract_z
 _atom_site_occupancy
  Na  Na0  1  0.375909  0.625765  0.751254  1
  Gd  Gd1  1  0.125291  0.874267  0.250308  1
  Gd  Gd2  1  0.620559  0.749353  0.369947  1
  Np  Np3  1  0.249959  0.122145  0.872017  1
  Np  Np4  1  0.749041  0.378491  0.627381  1
  Np  Np5  1  0.878812  0.251447  0.129940  1
  Sb  Sb6  1  0.320372  0.323694  0.319764  1
  Sb  Sb7  1  0.505148  0.005419  0.178928  1
  Sb  Sb8  1  0.173528  0.493319  0.999577  1
  Sb  Sb9  1  0.995610  0.177066  0.497156  1
  Sb  Sb10  1  0.825137  0.820671  0.822203  1
  Sb  Sb11  1  0.502300  0.005825  0.679805  1
  Sb  Sb12  1  0.001508  0.677695  0.503180  1
  Sb  Sb13  1  0.676314  0.495552  0.998031  1
  Au  Au14  1  0.367573  0.247992  0.618420  1
  Au  Au15  1  0.751796  0.869439  0.122552  1
  Au  Au16  1  0.254356  0.633054  0.380500  1
  Au  Au17  1  0.624266  0.379925  0.251363  1
  Au  Au18  1  0.130916  0.750348  0.882524  1
  Au  Au19  1  0.871605  0.118533  0.745151  1
