# generated using pymatgen
data_RbNOF2
_symmetry_space_group_name_H-M   'P 1'
_cell_length_a   5.04605271
_cell_length_b   5.04605177
_cell_length_c   4.12727930
_cell_angle_alpha   73.74653574
_cell_angle_beta   73.74652718
_cell_angle_gamma   78.70282242
_symmetry_Int_Tables_number   1
_chemical_formula_structural   RbNOF2
_chemical_formula_sum   'Rb1 N1 O1 F2'
_cell_volume   96.06774352
_cell_formula_units_Z   1
loop_
 _symmetry_equiv_pos_site_id
 _symmetry_equiv_pos_as_xyz
  1  'x, y, z'
loop_
 _atom_site_type_symbol
 _atom_site_label
 _atom_site_symmetry_multiplicity
 _atom_site_fract_x
 _atom_site_fract_y
 _atom_site_fract_z
 _atom_site_occupancy
  Rb  Rb0  1  0.466818  0.466818  0.534774  1
  N  N1  1  0.974583  0.974583  0.013048  1
  O  O2  1  0.913557  0.913557  0.310534  1
  F  F3  1  0.370515  0.907426  0.887272  1
  F  F4  1  0.907426  0.370515  0.887272  1
