# generated using pymatgen
data_DyY7(LuIr2)2
_symmetry_space_group_name_H-M   'P 1'
_cell_length_a   6.47443766
_cell_length_b   7.23165540
_cell_length_c   8.50388312
_cell_angle_alpha   96.94074751
_cell_angle_beta   111.90543481
_cell_angle_gamma   89.70958610
_symmetry_Int_Tables_number   1
_chemical_formula_structural   DyY7(LuIr2)2
_chemical_formula_sum   'Dy1 Y7 Lu2 Ir4'
_cell_volume   366.35925568
_cell_formula_units_Z   1
loop_
 _symmetry_equiv_pos_site_id
 _symmetry_equiv_pos_as_xyz
  1  'x, y, z'
loop_
 _atom_site_type_symbol
 _atom_site_label
 _atom_site_symmetry_multiplicity
 _atom_site_fract_x
 _atom_site_fract_y
 _atom_site_fract_z
 _atom_site_occupancy
  Dy  Dy0  1  0.571108  0.749504  0.998698  1
  Y  Y1  1  0.792386  0.083566  0.817523  1
  Y  Y2  1  0.975457  0.418102  0.185642  1
  Y  Y3  1  0.210157  0.917700  0.185198  1
  Y  Y4  1  0.027503  0.581337  0.814907  1
  Y  Y5  1  0.209013  0.184746  0.561054  1
  Y  Y6  1  0.647515  0.316348  0.439455  1
  Y  Y7  1  0.791114  0.815630  0.440563  1
  Lu  Lu8  1  0.350905  0.682372  0.561466  1
  Lu  Lu9  1  0.430087  0.249994  0.000249  1
  Ir  Ir10  1  0.599700  0.427696  0.779470  1
  Ir  Ir11  1  0.818139  0.074339  0.214346  1
  Ir  Ir12  1  0.396310  0.573024  0.221317  1
  Ir  Ir13  1  0.180607  0.925644  0.780113  1
