# generated using pymatgen
data_Pr2Y(Al3Ni2)3
_symmetry_space_group_name_H-M   'P 1'
_cell_length_a   9.13046600
_cell_length_b   9.13046606
_cell_length_c   4.09323300
_cell_angle_alpha   90.00000000
_cell_angle_beta   90.00000000
_cell_angle_gamma   120.00000702
_symmetry_Int_Tables_number   1
_chemical_formula_structural   Pr2Y(Al3Ni2)3
_chemical_formula_sum   'Pr2 Y1 Al9 Ni6'
_cell_volume   295.51733251
_cell_formula_units_Z   1
loop_
 _symmetry_equiv_pos_site_id
 _symmetry_equiv_pos_as_xyz
  1  'x, y, z'
loop_
 _atom_site_type_symbol
 _atom_site_label
 _atom_site_symmetry_multiplicity
 _atom_site_fract_x
 _atom_site_fract_y
 _atom_site_fract_z
 _atom_site_occupancy
  Pr  Pr0  1  0.333333  0.666667  0.500000  1
  Pr  Pr1  1  0.666667  0.333333  0.500000  1
  Y  Y2  1  0.000000  0.000000  0.000000  1
  Al  Al3  1  0.000000  0.293211  0.500000  1
  Al  Al4  1  0.000000  0.500000  0.000000  1
  Al  Al5  1  0.500000  0.500000  0.000000  1
  Al  Al6  1  0.500000  0.000000  0.000000  1
  Al  Al7  1  0.706789  0.000000  0.500000  1
  Al  Al8  1  0.706789  0.706789  0.500000  1
  Al  Al9  1  0.293211  0.000000  0.500000  1
  Al  Al10  1  0.000000  0.706789  0.500000  1
  Al  Al11  1  0.293211  0.293211  0.500000  1
  Ni  Ni12  1  0.820776  0.179224  0.000000  1
  Ni  Ni13  1  0.820776  0.641553  0.000000  1
  Ni  Ni14  1  0.179224  0.820776  0.000000  1
  Ni  Ni15  1  0.641553  0.820776  0.000000  1
  Ni  Ni16  1  0.358447  0.179224  0.000000  1
  Ni  Ni17  1  0.179224  0.358447  0.000000  1
