# generated using pymatgen
data_Hf6Al5Ga2Cu16H3
_symmetry_space_group_name_H-M   'P 1'
_cell_length_a   8.44795537
_cell_length_b   8.40970519
_cell_length_c   8.41733561
_cell_angle_alpha   120.16486989
_cell_angle_beta   119.73302547
_cell_angle_gamma   89.90672754
_symmetry_Int_Tables_number   1
_chemical_formula_structural   Hf6Al5Ga2Cu16H3
_chemical_formula_sum   'Hf6 Al5 Ga2 Cu16 H3'
_cell_volume   423.84261200
_cell_formula_units_Z   1
loop_
 _symmetry_equiv_pos_site_id
 _symmetry_equiv_pos_as_xyz
  1  'x, y, z'
loop_
 _atom_site_type_symbol
 _atom_site_label
 _atom_site_symmetry_multiplicity
 _atom_site_fract_x
 _atom_site_fract_y
 _atom_site_fract_z
 _atom_site_occupancy
  Hf  Hf0  1  0.779677  0.198727  0.990432  1
  Hf  Hf1  1  0.779730  0.789246  0.581008  1
  Hf  Hf2  1  0.777113  0.789887  0.987346  1
  Hf  Hf3  1  0.199055  0.801027  0.999162  1
  Hf  Hf4  1  0.198937  0.199837  0.397817  1
  Hf  Hf5  1  0.207651  0.208766  0.998902  1
  Al  Al6  1  0.492813  0.997197  0.495707  1
  Al  Al7  1  0.990954  0.997822  0.497007  1
  Al  Al8  1  0.990876  0.493902  0.993378  1
  Al  Al9  1  0.992538  0.497262  0.494896  1
  Al  Al10  1  0.492350  0.497256  0.995177  1
  Ga  Ga11  1  0.492038  0.496844  0.494724  1
  Ga  Ga12  1  0.491567  0.996912  0.994583  1
  Cu  Cu13  1  0.464779  0.820594  0.643777  1
  Cu  Cu14  1  0.164358  0.819726  0.344423  1
  Cu  Cu15  1  0.156732  0.829368  0.659538  1
  Cu  Cu16  1  0.157863  0.498263  0.328230  1
  Cu  Cu17  1  0.523752  0.173355  0.349707  1
  Cu  Cu18  1  0.825490  0.164526  0.661082  1
  Cu  Cu19  1  0.826779  0.164759  0.332420  1
  Cu  Cu20  1  0.827716  0.494964  0.662923  1
  Cu  Cu21  1  0.850530  0.617858  0.232806  1
  Cu  Cu22  1  0.367111  0.613074  0.753405  1
  Cu  Cu23  1  0.369330  0.619032  0.230192  1
  Cu  Cu24  1  0.369222  0.139507  0.750038  1
  Cu  Cu25  1  0.133623  0.379418  0.754974  1
  Cu  Cu26  1  0.616766  0.380385  0.235901  1
  Cu  Cu27  1  0.612192  0.375979  0.756755  1
  Cu  Cu28  1  0.612180  0.855273  0.236667  1
  H  H29  1  0.155328  0.059720  0.095696  1
  H  H30  1  0.831575  0.943821  0.887660  1
  H  H31  1  0.069172  0.905493  0.163666  1
