# generated using pymatgen
data_Tb2CeNd4Th(Si3Pd)4
_symmetry_space_group_name_H-M   'P 1'
_cell_length_a   8.21576879
_cell_length_b   8.21576914
_cell_length_c   8.39588900
_cell_angle_alpha   90.00000000
_cell_angle_beta   90.00000000
_cell_angle_gamma   119.84133961
_symmetry_Int_Tables_number   1
_chemical_formula_structural   Tb2CeNd4Th(Si3Pd)4
_chemical_formula_sum   'Tb2 Ce1 Nd4 Th1 Si12 Pd4'
_cell_volume   491.57056949
_cell_formula_units_Z   1
loop_
 _symmetry_equiv_pos_site_id
 _symmetry_equiv_pos_as_xyz
  1  'x, y, z'
loop_
 _atom_site_type_symbol
 _atom_site_label
 _atom_site_symmetry_multiplicity
 _atom_site_fract_x
 _atom_site_fract_y
 _atom_site_fract_z
 _atom_site_occupancy
  Tb  Tb0  1  0.000191  0.500124  0.750000  1
  Tb  Tb1  1  0.499876  0.999809  0.750000  1
  Ce  Ce2  1  0.000005  0.999995  0.750000  1
  Nd  Nd3  1  0.500030  0.499970  0.250000  1
  Nd  Nd4  1  0.999947  0.499962  0.250000  1
  Nd  Nd5  1  0.500038  0.000053  0.250000  1
  Nd  Nd6  1  0.000012  0.999988  0.250000  1
  Th  Th7  1  0.499917  0.500083  0.750000  1
  Si  Si8  1  0.833803  0.166197  0.994085  1
  Si  Si9  1  0.166188  0.833812  0.994248  1
  Si  Si10  1  0.330215  0.163996  0.996271  1
  Si  Si11  1  0.166188  0.833812  0.505752  1
  Si  Si12  1  0.669792  0.836016  0.996409  1
  Si  Si13  1  0.833803  0.166197  0.505915  1
  Si  Si14  1  0.836004  0.669785  0.996271  1
  Si  Si15  1  0.669792  0.836016  0.503591  1
  Si  Si16  1  0.163984  0.330208  0.996409  1
  Si  Si17  1  0.330215  0.163996  0.503729  1
  Si  Si18  1  0.163984  0.330208  0.503591  1
  Si  Si19  1  0.836004  0.669785  0.503729  1
  Pd  Pd20  1  0.666378  0.333622  0.993101  1
  Pd  Pd21  1  0.333627  0.666373  0.993576  1
  Pd  Pd22  1  0.333627  0.666373  0.506424  1
  Pd  Pd23  1  0.666378  0.333622  0.506899  1
