# generated using pymatgen
data_La2Al9RuPt2
_symmetry_space_group_name_H-M   'P 1'
_cell_length_a   7.70641953
_cell_length_b   7.70641828
_cell_length_c   9.66133900
_cell_angle_alpha   90.00000000
_cell_angle_beta   90.00000000
_cell_angle_gamma   119.41733257
_symmetry_Int_Tables_number   1
_chemical_formula_structural   La2Al9RuPt2
_chemical_formula_sum   'La4 Al18 Ru2 Pt4'
_cell_volume   499.79653797
_cell_formula_units_Z   2
loop_
 _symmetry_equiv_pos_site_id
 _symmetry_equiv_pos_as_xyz
  1  'x, y, z'
loop_
 _atom_site_type_symbol
 _atom_site_label
 _atom_site_symmetry_multiplicity
 _atom_site_fract_x
 _atom_site_fract_y
 _atom_site_fract_z
 _atom_site_occupancy
  La  La0  1  0.995139  0.669423  0.250000  1
  La  La1  1  0.004861  0.330577  0.750000  1
  La  La2  1  0.669423  0.995139  0.250000  1
  La  La3  1  0.330577  0.004861  0.750000  1
  Al  Al4  1  0.128357  0.128357  0.250000  1
  Al  Al5  1  0.871643  0.871643  0.750000  1
  Al  Al6  1  0.003222  0.329290  0.074059  1
  Al  Al7  1  0.996778  0.670710  0.925941  1
  Al  Al8  1  0.996778  0.670710  0.574059  1
  Al  Al9  1  0.329290  0.003222  0.425941  1
  Al  Al10  1  0.003222  0.329290  0.425941  1
  Al  Al11  1  0.670710  0.996778  0.574059  1
  Al  Al12  1  0.670710  0.996778  0.925941  1
  Al  Al13  1  0.329290  0.003222  0.074059  1
  Al  Al14  1  0.329982  0.329982  0.548690  1
  Al  Al15  1  0.670018  0.670018  0.451310  1
  Al  Al16  1  0.670018  0.670018  0.048690  1
  Al  Al17  1  0.329982  0.329982  0.951310  1
  Al  Al18  1  0.341471  0.542548  0.250000  1
  Al  Al19  1  0.658529  0.457452  0.750000  1
  Al  Al20  1  0.542548  0.341471  0.250000  1
  Al  Al21  1  0.457452  0.658529  0.750000  1
  Ru  Ru22  1  0.000000  0.000000  0.000000  1
  Ru  Ru23  1  0.000000  0.000000  0.500000  1
  Pt  Pt24  1  0.670890  0.329110  0.000000  1
  Pt  Pt25  1  0.329110  0.670890  0.000000  1
  Pt  Pt26  1  0.329110  0.670890  0.500000  1
  Pt  Pt27  1  0.670890  0.329110  0.500000  1
