# generated using pymatgen
data_Li2Pr8ZnSi12Os
_symmetry_space_group_name_H-M   'P 1'
_cell_length_a   8.30722400
_cell_length_b   8.30722448
_cell_length_c   8.53907400
_cell_angle_alpha   90.00000000
_cell_angle_beta   90.00000000
_cell_angle_gamma   120.00000604
_symmetry_Int_Tables_number   1
_chemical_formula_structural   Li2Pr8ZnSi12Os
_chemical_formula_sum   'Li2 Pr8 Zn1 Si12 Os1'
_cell_volume   510.33252730
_cell_formula_units_Z   1
loop_
 _symmetry_equiv_pos_site_id
 _symmetry_equiv_pos_as_xyz
  1  'x, y, z'
loop_
 _atom_site_type_symbol
 _atom_site_label
 _atom_site_symmetry_multiplicity
 _atom_site_fract_x
 _atom_site_fract_y
 _atom_site_fract_z
 _atom_site_occupancy
  Li  Li0  1  0.666667  0.333333  0.997897  1
  Li  Li1  1  0.333333  0.666667  0.498933  1
  Pr  Pr2  1  0.502787  0.497213  0.744881  1
  Pr  Pr3  1  0.503414  0.496586  0.255181  1
  Pr  Pr4  1  0.994426  0.497213  0.744881  1
  Pr  Pr5  1  0.993171  0.496586  0.255181  1
  Pr  Pr6  1  0.502787  0.005574  0.744881  1
  Pr  Pr7  1  0.503414  0.006829  0.255181  1
  Pr  Pr8  1  0.000000  0.000000  0.750279  1
  Pr  Pr9  1  0.000000  0.000000  0.249723  1
  Zn  Zn10  1  0.333333  0.666667  0.001772  1
  Si  Si11  1  0.833248  0.166752  0.000496  1
  Si  Si12  1  0.164285  0.835715  0.999509  1
  Si  Si13  1  0.333502  0.166752  0.000496  1
  Si  Si14  1  0.162883  0.837117  0.499809  1
  Si  Si15  1  0.671429  0.835715  0.999509  1
  Si  Si16  1  0.831688  0.168312  0.500391  1
  Si  Si17  1  0.833248  0.666498  0.000496  1
  Si  Si18  1  0.674235  0.837117  0.499809  1
  Si  Si19  1  0.164285  0.328571  0.999509  1
  Si  Si20  1  0.336623  0.168312  0.500391  1
  Si  Si21  1  0.162883  0.325765  0.499809  1
  Si  Si22  1  0.831688  0.663377  0.500391  1
  Os  Os23  1  0.666667  0.333333  0.500599  1
