# generated using pymatgen
data_Pr2YCd(Ir2O7)2
_symmetry_space_group_name_H-M   'P 1'
_cell_length_a   7.26252013
_cell_length_b   7.28214667
_cell_length_c   7.28214651
_cell_angle_alpha   61.45764237
_cell_angle_beta   61.19100504
_cell_angle_gamma   61.19100636
_symmetry_Int_Tables_number   1
_chemical_formula_structural   Pr2YCd(Ir2O7)2
_chemical_formula_sum   'Pr2 Y1 Cd1 Ir4 O14'
_cell_volume   280.15938757
_cell_formula_units_Z   1
loop_
 _symmetry_equiv_pos_site_id
 _symmetry_equiv_pos_as_xyz
  1  'x, y, z'
loop_
 _atom_site_type_symbol
 _atom_site_label
 _atom_site_symmetry_multiplicity
 _atom_site_fract_x
 _atom_site_fract_y
 _atom_site_fract_z
 _atom_site_occupancy
  Pr  Pr0  1  0.125000  0.625000  0.125000  1
  Pr  Pr1  1  0.125000  0.125000  0.625000  1
  Y  Y2  1  0.625000  0.125000  0.125000  1
  Cd  Cd3  1  0.125000  0.125000  0.125000  1
  Ir  Ir4  1  0.125000  0.625000  0.625000  1
  Ir  Ir5  1  0.625000  0.125000  0.625000  1
  Ir  Ir6  1  0.625000  0.625000  0.125000  1
  Ir  Ir7  1  0.625000  0.625000  0.625000  1
  O  O8  1  0.701152  0.716250  0.292944  1
  O  O9  1  0.300025  0.298486  0.702162  1
  O  O10  1  0.701152  0.292944  0.716250  1
  O  O11  1  0.300025  0.702162  0.298486  1
  O  O12  1  0.292993  0.709110  0.709110  1
  O  O13  1  0.689912  0.299641  0.299641  1
  O  O14  1  0.548848  0.533750  0.957056  1
  O  O15  1  0.949975  0.951514  0.547838  1
  O  O16  1  0.548848  0.957056  0.533750  1
  O  O17  1  0.949975  0.547838  0.951514  1
  O  O18  1  0.957007  0.540890  0.540890  1
  O  O19  1  0.560088  0.950359  0.950359  1
  O  O20  1  0.259761  0.241876  0.241876  1
  O  O21  1  0.990239  0.008124  0.008124  1
