# generated using pymatgen
data_Ta6Re2Mo3W
_symmetry_space_group_name_H-M   'P 1'
_cell_length_a   4.55236600
_cell_length_b   6.46301800
_cell_length_c   13.72264000
_cell_angle_alpha   90.00000000
_cell_angle_beta   89.99984933
_cell_angle_gamma   90.00000000
_symmetry_Int_Tables_number   1
_chemical_formula_structural   Ta6Re2Mo3W
_chemical_formula_sum   'Ta12 Re4 Mo6 W2'
_cell_volume   403.74783520
_cell_formula_units_Z   2
loop_
 _symmetry_equiv_pos_site_id
 _symmetry_equiv_pos_as_xyz
  1  'x, y, z'
loop_
 _atom_site_type_symbol
 _atom_site_label
 _atom_site_symmetry_multiplicity
 _atom_site_fract_x
 _atom_site_fract_y
 _atom_site_fract_z
 _atom_site_occupancy
  Ta  Ta0  1  0.500015  0.250712  0.998516  1
  Ta  Ta1  1  0.500015  0.749289  0.998516  1
  Ta  Ta2  1  0.000004  0.249371  0.168186  1
  Ta  Ta3  1  0.000004  0.750630  0.168186  1
  Ta  Ta4  1  0.500024  0.249222  0.335947  1
  Ta  Ta5  1  0.500024  0.750777  0.335947  1
  Ta  Ta6  1  0.000003  0.249279  0.501011  1
  Ta  Ta7  1  0.000003  0.750722  0.501011  1
  Ta  Ta8  1  0.499974  0.250689  0.665642  1
  Ta  Ta9  1  0.499974  0.749310  0.665642  1
  Ta  Ta10  1  0.000021  0.250826  0.830710  1
  Ta  Ta11  1  0.000021  0.749175  0.830710  1
  Re  Re12  1  0.999948  0.000000  0.335221  1
  Re  Re13  1  0.500001  0.500001  0.500688  1
  Re  Re14  1  0.999979  0.000000  0.665928  1
  Re  Re15  1  0.500017  0.500001  0.831433  1
  Mo  Mo16  1  0.000013  0.500001  0.000580  1
  Mo  Mo17  1  0.500028  0.000000  0.166119  1
  Mo  Mo18  1  0.000042  0.500001  0.333567  1
  Mo  Mo19  1  0.500002  0.000000  0.500893  1
  Mo  Mo20  1  0.000006  0.500001  0.665733  1
  Mo  Mo21  1  0.499998  0.000000  0.833116  1
  W  W22  1  0.999984  0.000000  0.999655  1
  W  W23  1  0.500007  0.500001  0.167043  1
