# generated using pymatgen
data_YTm2Fe(Co4P3)2
_symmetry_space_group_name_H-M   'P 1'
_cell_length_a   3.68221500
_cell_length_b   10.49830600
_cell_length_c   12.15667200
_cell_angle_alpha   90.00000000
_cell_angle_beta   90.00000000
_cell_angle_gamma   90.00000000
_symmetry_Int_Tables_number   1
_chemical_formula_structural   YTm2Fe(Co4P3)2
_chemical_formula_sum   'Y2 Tm4 Fe2 Co16 P12'
_cell_volume   469.94071054
_cell_formula_units_Z   2
loop_
 _symmetry_equiv_pos_site_id
 _symmetry_equiv_pos_as_xyz
  1  'x, y, z'
loop_
 _atom_site_type_symbol
 _atom_site_label
 _atom_site_symmetry_multiplicity
 _atom_site_fract_x
 _atom_site_fract_y
 _atom_site_fract_z
 _atom_site_occupancy
  Y  Y0  1  0.000000  0.500000  0.522352  1
  Y  Y1  1  0.500000  0.000000  0.477648  1
  Tm  Tm2  1  0.500000  0.818152  0.205123  1
  Tm  Tm3  1  0.500000  0.181848  0.205123  1
  Tm  Tm4  1  0.000000  0.681848  0.794877  1
  Tm  Tm5  1  0.000000  0.318152  0.794877  1
  Fe  Fe6  1  0.500000  0.500000  0.157683  1
  Fe  Fe7  1  0.000000  0.000000  0.842317  1
  Co  Co8  1  0.500000  0.500000  0.703916  1
  Co  Co9  1  0.000000  0.000000  0.296084  1
  Co  Co10  1  0.000000  0.500000  0.986419  1
  Co  Co11  1  0.500000  0.000000  0.013581  1
  Co  Co12  1  0.500000  0.332845  0.994417  1
  Co  Co13  1  0.500000  0.667155  0.994417  1
  Co  Co14  1  0.000000  0.167155  0.005583  1
  Co  Co15  1  0.000000  0.832845  0.005583  1
  Co  Co16  1  0.500000  0.296808  0.430319  1
  Co  Co17  1  0.500000  0.703192  0.430319  1
  Co  Co18  1  0.000000  0.203192  0.569681  1
  Co  Co19  1  0.000000  0.796808  0.569681  1
  Co  Co20  1  0.500000  0.878337  0.709885  1
  Co  Co21  1  0.500000  0.121663  0.709885  1
  Co  Co22  1  0.000000  0.621663  0.290115  1
  Co  Co23  1  0.000000  0.378337  0.290115  1
  P  P24  1  0.500000  0.500000  0.882479  1
  P  P25  1  0.000000  0.000000  0.117521  1
  P  P26  1  0.500000  0.500000  0.343051  1
  P  P27  1  0.000000  0.000000  0.656949  1
  P  P28  1  0.500000  0.310656  0.617199  1
  P  P29  1  0.500000  0.689344  0.617199  1
  P  P30  1  0.000000  0.189344  0.382801  1
  P  P31  1  0.000000  0.810656  0.382801  1
  P  P32  1  0.500000  0.846696  0.892272  1
  P  P33  1  0.500000  0.153304  0.892272  1
  P  P34  1  0.000000  0.653304  0.107728  1
  P  P35  1  0.000000  0.346696  0.107728  1
