# generated using pymatgen
data_La2YbPa3(Ni3Sb4)2
_symmetry_space_group_name_H-M   'P 1'
_cell_length_a   8.22882535
_cell_length_b   8.23243005
_cell_length_c   8.23752836
_cell_angle_alpha   109.59755110
_cell_angle_beta   109.38603125
_cell_angle_gamma   109.47959473
_symmetry_Int_Tables_number   1
_chemical_formula_structural   La2YbPa3(Ni3Sb4)2
_chemical_formula_sum   'La2 Yb1 Pa3 Ni6 Sb8'
_cell_volume   429.31309666
_cell_formula_units_Z   1
loop_
 _symmetry_equiv_pos_site_id
 _symmetry_equiv_pos_as_xyz
  1  'x, y, z'
loop_
 _atom_site_type_symbol
 _atom_site_label
 _atom_site_symmetry_multiplicity
 _atom_site_fract_x
 _atom_site_fract_y
 _atom_site_fract_z
 _atom_site_occupancy
  La  La0  1  0.628122  0.749572  0.376436  1
  La  La1  1  0.250154  0.130109  0.880099  1
  Yb  Yb2  1  0.871940  0.248584  0.122303  1
  Pa  Pa3  1  0.750178  0.369611  0.619701  1
  Pa  Pa4  1  0.122110  0.873854  0.248167  1
  Pa  Pa5  1  0.376941  0.626749  0.750517  1
  Ni  Ni6  1  0.385078  0.255211  0.619431  1
  Ni  Ni7  1  0.114018  0.732712  0.868433  1
  Ni  Ni8  1  0.248489  0.626094  0.379286  1
  Ni  Ni9  1  0.753649  0.874446  0.121410  1
  Ni  Ni10  1  0.639035  0.373992  0.278757  1
  Ni  Ni11  1  0.860863  0.143912  0.741766  1
  Sb  Sb12  1  0.666536  0.502514  0.996842  1
  Sb  Sb13  1  0.493967  0.997135  0.658785  1
  Sb  Sb14  1  0.003858  0.657540  0.498552  1
  Sb  Sb15  1  0.837007  0.838450  0.840446  1
  Sb  Sb16  1  0.497689  0.993913  0.156011  1
  Sb  Sb17  1  0.159207  0.502868  0.004123  1
  Sb  Sb18  1  0.005781  0.165911  0.498695  1
  Sb  Sb19  1  0.335375  0.336822  0.340240  1
