# generated using pymatgen
data_Th2Re2C3
_symmetry_space_group_name_H-M   'P 1'
_cell_length_a   5.45679600
_cell_length_b   12.09842500
_cell_length_c   3.36539700
_cell_angle_alpha   90.00000000
_cell_angle_beta   90.00000000
_cell_angle_gamma   90.00000000
_symmetry_Int_Tables_number   1
_chemical_formula_structural   Th2Re2C3
_chemical_formula_sum   'Th4 Re4 C6'
_cell_volume   222.17892340
_cell_formula_units_Z   2
loop_
 _symmetry_equiv_pos_site_id
 _symmetry_equiv_pos_as_xyz
  1  'x, y, z'
loop_
 _atom_site_type_symbol
 _atom_site_label
 _atom_site_symmetry_multiplicity
 _atom_site_fract_x
 _atom_site_fract_y
 _atom_site_fract_z
 _atom_site_occupancy
  Th  Th0  1  0.340156  0.340525  0.000000  1
  Th  Th1  1  0.659845  0.659475  0.000000  1
  Th  Th2  1  0.840156  0.159475  0.499999  1
  Th  Th3  1  0.159845  0.840525  0.499999  1
  Re  Re4  1  0.325722  0.072108  0.000000  1
  Re  Re5  1  0.674279  0.927891  0.000000  1
  Re  Re6  1  0.825720  0.427892  0.499999  1
  Re  Re7  1  0.174278  0.572108  0.499999  1
  C  C8  1  0.000000  0.000000  0.000000  1
  C  C9  1  0.835681  0.326545  0.000000  1
  C  C10  1  0.164319  0.673455  0.000000  1
  C  C11  1  0.335681  0.173455  0.499999  1
  C  C12  1  0.500000  0.500000  0.499999  1
  C  C13  1  0.664318  0.826545  0.499999  1
