# generated using pymatgen
data_Lu3Sn3IrPd2
_symmetry_space_group_name_H-M   'P 1'
_cell_length_a   7.62519600
_cell_length_b   7.62519648
_cell_length_c   3.75297100
_cell_angle_alpha   90.00000000
_cell_angle_beta   90.00000000
_cell_angle_gamma   119.99999791
_symmetry_Int_Tables_number   1
_chemical_formula_structural   Lu3Sn3IrPd2
_chemical_formula_sum   'Lu3 Sn3 Ir1 Pd2'
_cell_volume   188.97654276
_cell_formula_units_Z   1
loop_
 _symmetry_equiv_pos_site_id
 _symmetry_equiv_pos_as_xyz
  1  'x, y, z'
loop_
 _atom_site_type_symbol
 _atom_site_label
 _atom_site_symmetry_multiplicity
 _atom_site_fract_x
 _atom_site_fract_y
 _atom_site_fract_z
 _atom_site_occupancy
  Lu  Lu0  1  0.405995  0.396412  0.500000  1
  Lu  Lu1  1  0.603588  0.009583  0.500000  1
  Lu  Lu2  1  0.990417  0.594005  0.500000  1
  Sn  Sn3  1  0.731134  0.733085  0.000000  1
  Sn  Sn4  1  0.266915  0.998049  0.000000  1
  Sn  Sn5  1  0.001951  0.268866  0.000000  1
  Ir  Ir6  1  0.666667  0.333333  0.000000  1
  Pd  Pd7  1  0.333333  0.666667  0.000000  1
  Pd  Pd8  1  0.000000  0.000000  0.500000  1
