# generated using pymatgen
data_Nd2YNi2Ir7
_symmetry_space_group_name_H-M   'P 1'
_cell_length_a   9.02335479
_cell_length_b   9.02335522
_cell_length_c   9.02335409
_cell_angle_alpha   34.31858583
_cell_angle_beta   34.31858321
_cell_angle_gamma   34.31859116
_symmetry_Int_Tables_number   1
_chemical_formula_structural   Nd2YNi2Ir7
_chemical_formula_sum   'Nd2 Y1 Ni2 Ir7'
_cell_volume   208.27504967
_cell_formula_units_Z   1
loop_
 _symmetry_equiv_pos_site_id
 _symmetry_equiv_pos_as_xyz
  1  'x, y, z'
loop_
 _atom_site_type_symbol
 _atom_site_label
 _atom_site_symmetry_multiplicity
 _atom_site_fract_x
 _atom_site_fract_y
 _atom_site_fract_z
 _atom_site_occupancy
  Nd  Nd0  1  0.140481  0.140481  0.140481  1
  Nd  Nd1  1  0.999785  0.999785  0.999785  1
  Y  Y2  1  0.860353  0.860353  0.860353  1
  Ni  Ni3  1  0.666630  0.666630  0.666630  1
  Ni  Ni4  1  0.333245  0.333245  0.333245  1
  Ir  Ir5  1  0.419882  0.921613  0.419882  1
  Ir  Ir6  1  0.419882  0.419882  0.921613  1
  Ir  Ir7  1  0.921613  0.419882  0.419882  1
  Ir  Ir8  1  0.579875  0.078154  0.579875  1
  Ir  Ir9  1  0.579875  0.579875  0.078154  1
  Ir  Ir10  1  0.078154  0.579875  0.579875  1
  Ir  Ir11  1  0.500226  0.500226  0.500226  1
