# generated using pymatgen
data_AcPa3F15
_symmetry_space_group_name_H-M   'P 1'
_cell_length_a   8.08930597
_cell_length_b   8.08930563
_cell_length_c   8.08930604
_cell_angle_alpha   112.73070774
_cell_angle_beta   112.73070312
_cell_angle_gamma   112.73072145
_symmetry_Int_Tables_number   1
_chemical_formula_structural   AcPa3F15
_chemical_formula_sum   'Ac1 Pa3 F15'
_cell_volume   349.80477443
_cell_formula_units_Z   1
loop_
 _symmetry_equiv_pos_site_id
 _symmetry_equiv_pos_as_xyz
  1  'x, y, z'
loop_
 _atom_site_type_symbol
 _atom_site_label
 _atom_site_symmetry_multiplicity
 _atom_site_fract_x
 _atom_site_fract_y
 _atom_site_fract_z
 _atom_site_occupancy
  Ac  Ac0  1  0.497123  0.497123  0.497123  1
  Pa  Pa1  1  0.858511  0.291477  0.858511  1
  Pa  Pa2  1  0.291477  0.858511  0.858511  1
  Pa  Pa3  1  0.858511  0.858511  0.291477  1
  F  F4  1  0.597976  0.927423  0.140349  1
  F  F5  1  0.927423  0.140349  0.597976  1
  F  F6  1  0.140349  0.597976  0.927423  1
  F  F7  1  0.927423  0.597976  0.140349  1
  F  F8  1  0.597139  0.597139  0.260193  1
  F  F9  1  0.260193  0.597139  0.597139  1
  F  F10  1  0.597139  0.260193  0.597139  1
  F  F11  1  0.139324  0.139324  0.359118  1
  F  F12  1  0.359118  0.139324  0.139324  1
  F  F13  1  0.139324  0.359118  0.139324  1
  F  F14  1  0.674628  0.674628  0.908554  1
  F  F15  1  0.908554  0.674628  0.674628  1
  F  F16  1  0.674628  0.908554  0.674628  1
  F  F17  1  0.140349  0.927423  0.597976  1
  F  F18  1  0.597976  0.140349  0.927423  1
