# generated using pymatgen
data_Tb9Y7(AgPt)4
_symmetry_space_group_name_H-M   'P 1'
_cell_length_a   9.64589522
_cell_length_b   9.64589504
_cell_length_c   9.64441000
_cell_angle_alpha   60.00509269
_cell_angle_beta   60.00509328
_cell_angle_gamma   60.09234224
_symmetry_Int_Tables_number   1
_chemical_formula_structural   Tb9Y7(AgPt)4
_chemical_formula_sum   'Tb9 Y7 Ag4 Pt4'
_cell_volume   635.01119356
_cell_formula_units_Z   1
loop_
 _symmetry_equiv_pos_site_id
 _symmetry_equiv_pos_as_xyz
  1  'x, y, z'
loop_
 _atom_site_type_symbol
 _atom_site_label
 _atom_site_symmetry_multiplicity
 _atom_site_fract_x
 _atom_site_fract_y
 _atom_site_fract_z
 _atom_site_occupancy
  Tb  Tb0  1  0.355001  0.355001  0.353922  1
  Tb  Tb1  1  0.355001  0.355001  0.936076  1
  Tb  Tb2  1  0.356845  0.933082  0.355036  1
  Tb  Tb3  1  0.933082  0.356845  0.355036  1
  Tb  Tb4  1  0.810652  0.189126  0.189795  1
  Tb  Tb5  1  0.189126  0.810652  0.810427  1
  Tb  Tb6  1  0.189126  0.810652  0.189795  1
  Tb  Tb7  1  0.810652  0.189126  0.810427  1
  Tb  Tb8  1  0.189201  0.189201  0.810799  1
  Y  Y9  1  0.810992  0.810992  0.189008  1
  Y  Y10  1  0.934380  0.565404  0.565316  1
  Y  Y11  1  0.565404  0.934380  0.934900  1
  Y  Y12  1  0.565404  0.934380  0.565316  1
  Y  Y13  1  0.934380  0.565404  0.934900  1
  Y  Y14  1  0.565118  0.565118  0.934882  1
  Y  Y15  1  0.934511  0.934511  0.565489  1
  Ag  Ag16  1  0.582846  0.582846  0.582204  1
  Ag  Ag17  1  0.582846  0.582846  0.252105  1
  Ag  Ag18  1  0.582666  0.252508  0.582413  1
  Ag  Ag19  1  0.252508  0.582666  0.582413  1
  Pt  Pt20  1  0.144211  0.144211  0.144953  1
  Pt  Pt21  1  0.144211  0.144211  0.566627  1
  Pt  Pt22  1  0.144480  0.567357  0.144082  1
  Pt  Pt23  1  0.567357  0.144480  0.144082  1
