# generated using pymatgen
data_Sc4Al18OsPt5
_symmetry_space_group_name_H-M   'P 1'
_cell_length_a   7.59560518
_cell_length_b   7.59551352
_cell_length_c   9.40753700
_cell_angle_alpha   89.90151369
_cell_angle_beta   89.90171101
_cell_angle_gamma   119.62022440
_symmetry_Int_Tables_number   1
_chemical_formula_structural   Sc4Al18OsPt5
_chemical_formula_sum   'Sc4 Al18 Os1 Pt5'
_cell_volume   471.81621061
_cell_formula_units_Z   1
loop_
 _symmetry_equiv_pos_site_id
 _symmetry_equiv_pos_as_xyz
  1  'x, y, z'
loop_
 _atom_site_type_symbol
 _atom_site_label
 _atom_site_symmetry_multiplicity
 _atom_site_fract_x
 _atom_site_fract_y
 _atom_site_fract_z
 _atom_site_occupancy
  Sc  Sc0  1  0.995214  0.671655  0.248072  1
  Sc  Sc1  1  0.004786  0.328345  0.751928  1
  Sc  Sc2  1  0.671637  0.995212  0.248073  1
  Sc  Sc3  1  0.328363  0.004788  0.751927  1
  Al  Al4  1  0.125059  0.125057  0.246993  1
  Al  Al5  1  0.874941  0.874943  0.753007  1
  Al  Al6  1  0.996333  0.329211  0.076123  1
  Al  Al7  1  0.003667  0.670789  0.923877  1
  Al  Al8  1  0.002698  0.664397  0.580544  1
  Al  Al9  1  0.335586  0.997300  0.419452  1
  Al  Al10  1  0.997302  0.335603  0.419456  1
  Al  Al11  1  0.664414  0.002700  0.580548  1
  Al  Al12  1  0.670805  0.003670  0.923872  1
  Al  Al13  1  0.329195  0.996330  0.076128  1
  Al  Al14  1  0.330432  0.330439  0.564122  1
  Al  Al15  1  0.669568  0.669561  0.435878  1
  Al  Al16  1  0.674334  0.674329  0.060388  1
  Al  Al17  1  0.325666  0.325671  0.939612  1
  Al  Al18  1  0.340086  0.550685  0.249189  1
  Al  Al19  1  0.659914  0.449315  0.750811  1
  Al  Al20  1  0.550699  0.340104  0.249190  1
  Al  Al21  1  0.449301  0.659896  0.750810  1
  Os  Os22  1  0.000000  0.000000  0.000000  1
  Pt  Pt23  1  0.672018  0.327972  0.000000  1
  Pt  Pt24  1  0.327982  0.672028  0.000000  1
  Pt  Pt25  1  0.328024  0.671984  0.500000  1
  Pt  Pt26  1  0.671976  0.328016  0.500000  1
  Pt  Pt27  1  0.000000  0.000000  0.500000  1
