# generated using pymatgen
data_NaI37
_symmetry_space_group_name_H-M   'P 1'
_cell_length_a   13.83138945
_cell_length_b   17.08020142
_cell_length_c   15.44890650
_cell_angle_alpha   96.64282405
_cell_angle_beta   49.54854932
_cell_angle_gamma   78.82736391
_symmetry_Int_Tables_number   1
_chemical_formula_structural   NaI37
_chemical_formula_sum   'Na1 I37'
_cell_volume   2578.24917253
_cell_formula_units_Z   1
loop_
 _symmetry_equiv_pos_site_id
 _symmetry_equiv_pos_as_xyz
  1  'x, y, z'
loop_
 _atom_site_type_symbol
 _atom_site_label
 _atom_site_symmetry_multiplicity
 _atom_site_fract_x
 _atom_site_fract_y
 _atom_site_fract_z
 _atom_site_occupancy
  Na  Na0  1  0.500000  0.000000  0.000000  1
  I  I1  1  0.827314  0.290420  0.129618  1
  I  I2  1  0.172686  0.709580  0.870382  1
  I  I3  1  0.760482  0.062622  0.331336  1
  I  I4  1  0.239518  0.937378  0.668664  1
  I  I5  1  0.108936  0.347408  0.191111  1
  I  I6  1  0.891064  0.652592  0.808889  1
  I  I7  1  0.794983  0.527332  0.258676  1
  I  I8  1  0.205017  0.472668  0.741324  1
  I  I9  1  0.685201  0.288583  0.495041  1
  I  I10  1  0.314799  0.711417  0.504959  1
  I  I11  1  0.982995  0.184050  0.493364  1
  I  I12  1  0.017005  0.815950  0.506636  1
  I  I13  1  0.992740  0.989558  0.296156  1
  I  I14  1  0.007260  0.010442  0.703844  1
  I  I15  1  0.934589  0.354617  0.601749  1
  I  I16  1  0.065411  0.645383  0.398251  1
  I  I17  1  0.583207  0.363239  0.179352  1
  I  I18  1  0.416793  0.636761  0.820648  1
  I  I19  1  0.173614  0.459229  0.291854  1
  I  I20  1  0.826386  0.540771  0.708146  1
  I  I21  1  0.000000  0.500000  0.000000  1
  I  I22  1  0.553347  0.959813  0.168110  1
  I  I23  1  0.446653  0.040187  0.831890  1
  I  I24  1  0.276566  0.072629  0.326219  1
  I  I25  1  0.723434  0.927371  0.673781  1
  I  I26  1  0.501582  0.139002  0.384888  1
  I  I27  1  0.498418  0.860998  0.615112  1
  I  I28  1  0.082879  0.213660  0.073282  1
  I  I29  1  0.917121  0.786340  0.926718  1
  I  I30  1  0.647866  0.703052  0.426710  1
  I  I31  1  0.352134  0.296948  0.573290  1
  I  I32  1  0.697390  0.117837  0.930582  1
  I  I33  1  0.302610  0.882163  0.069418  1
  I  I34  1  0.425280  0.218536  0.065781  1
  I  I35  1  0.574720  0.781464  0.934219  1
  I  I36  1  0.554938  0.455466  0.646931  1
  I  I37  1  0.445062  0.544534  0.353069  1
