# generated using pymatgen
data_DyU7Sb10
_symmetry_space_group_name_H-M   'P 1'
_cell_length_a   9.38651500
_cell_length_b   9.38651437
_cell_length_c   6.24214600
_cell_angle_alpha   90.00000000
_cell_angle_beta   90.00000000
_cell_angle_gamma   119.99999871
_symmetry_Int_Tables_number   1
_chemical_formula_structural   DyU7Sb10
_chemical_formula_sum   'Dy1 U7 Sb10'
_cell_volume   476.29200043
_cell_formula_units_Z   1
loop_
 _symmetry_equiv_pos_site_id
 _symmetry_equiv_pos_as_xyz
  1  'x, y, z'
loop_
 _atom_site_type_symbol
 _atom_site_label
 _atom_site_symmetry_multiplicity
 _atom_site_fract_x
 _atom_site_fract_y
 _atom_site_fract_z
 _atom_site_occupancy
  Dy  Dy0  1  0.000000  0.000000  0.000000  1
  U  U1  1  0.000000  0.000000  0.500000  1
  U  U2  1  0.385013  0.000000  0.747765  1
  U  U3  1  0.385013  0.385013  0.252235  1
  U  U4  1  0.000000  0.614987  0.252235  1
  U  U5  1  0.000000  0.385013  0.747765  1
  U  U6  1  0.614987  0.614987  0.747765  1
  U  U7  1  0.614987  0.000000  0.252235  1
  Sb  Sb8  1  0.666667  0.333333  0.500000  1
  Sb  Sb9  1  0.333333  0.666667  0.000000  1
  Sb  Sb10  1  0.719192  0.000000  0.750093  1
  Sb  Sb11  1  0.719192  0.719192  0.249907  1
  Sb  Sb12  1  0.333333  0.666667  0.500000  1
  Sb  Sb13  1  0.666667  0.333333  0.000000  1
  Sb  Sb14  1  0.280808  0.000000  0.249907  1
  Sb  Sb15  1  0.280808  0.280808  0.750093  1
  Sb  Sb16  1  0.000000  0.719192  0.750093  1
  Sb  Sb17  1  0.000000  0.280808  0.249907  1
