# generated using pymatgen
data_Tb5(C2Br)3
_symmetry_space_group_name_H-M   'P 1'
_cell_length_a   11.36514362
_cell_length_b   11.36514398
_cell_length_c   15.88053905
_cell_angle_alpha   55.55604158
_cell_angle_beta   124.44395919
_cell_angle_gamma   160.93192804
_symmetry_Int_Tables_number   1
_chemical_formula_structural   Tb5(C2Br)3
_chemical_formula_sum   'Tb10 C12 Br6'
_cell_volume   548.95592472
_cell_formula_units_Z   2
loop_
 _symmetry_equiv_pos_site_id
 _symmetry_equiv_pos_as_xyz
  1  'x, y, z'
loop_
 _atom_site_type_symbol
 _atom_site_label
 _atom_site_symmetry_multiplicity
 _atom_site_fract_x
 _atom_site_fract_y
 _atom_site_fract_z
 _atom_site_occupancy
  Tb  Tb0  1  0.499175  0.500824  0.396239  1
  Tb  Tb1  1  0.500824  0.499175  0.603760  1
  Tb  Tb2  1  0.160793  0.839206  0.152290  1
  Tb  Tb3  1  0.839206  0.160793  0.847709  1
  Tb  Tb4  1  0.500882  0.499117  0.103798  1
  Tb  Tb5  1  0.499118  0.500881  0.896203  1
  Tb  Tb6  1  0.837056  0.162943  0.401087  1
  Tb  Tb7  1  0.162942  0.837057  0.598912  1
  Tb  Tb8  1  0.175645  0.824354  0.387939  1
  Tb  Tb9  1  0.824354  0.175645  0.612062  1
  C  C10  1  0.036469  0.963530  0.037685  1
  C  C11  1  0.963529  0.036470  0.962314  1
  C  C12  1  0.629844  0.370155  0.237474  1
  C  C13  1  0.370154  0.629845  0.762525  1
  C  C14  1  0.625033  0.374966  0.465278  1
  C  C15  1  0.374966  0.625033  0.534723  1
  C  C16  1  0.963697  0.036302  0.477228  1
  C  C17  1  0.036302  0.963697  0.522773  1
  C  C18  1  0.701345  0.298654  0.287979  1
  C  C19  1  0.298654  0.701345  0.712022  1
  C  C20  1  0.303287  0.696712  0.486189  1
  C  C21  1  0.696712  0.303287  0.513811  1
  Br  Br22  1  0.665200  0.334799  0.015539  1
  Br  Br23  1  0.019179  0.980820  0.766055  1
  Br  Br24  1  0.980820  0.019179  0.233946  1
  Br  Br25  1  0.334799  0.665200  0.984461  1
  Br  Br26  1  0.328790  0.671209  0.248726  1
  Br  Br27  1  0.671209  0.328790  0.751275  1
