# generated using pymatgen
data_Sr4SnHgPd4
_symmetry_space_group_name_H-M   'P 1'
_cell_length_a   6.06953434
_cell_length_b   6.06953500
_cell_length_c   8.50465108
_cell_angle_alpha   78.00913522
_cell_angle_beta   78.00913646
_cell_angle_gamma   59.52031575
_symmetry_Int_Tables_number   1
_chemical_formula_structural   Sr4SnHgPd4
_chemical_formula_sum   'Sr4 Sn1 Hg1 Pd4'
_cell_volume   262.16285160
_cell_formula_units_Z   1
loop_
 _symmetry_equiv_pos_site_id
 _symmetry_equiv_pos_as_xyz
  1  'x, y, z'
loop_
 _atom_site_type_symbol
 _atom_site_label
 _atom_site_symmetry_multiplicity
 _atom_site_fract_x
 _atom_site_fract_y
 _atom_site_fract_z
 _atom_site_occupancy
  Sr  Sr0  1  0.509621  0.787560  0.349542  1
  Sr  Sr1  1  0.212440  0.490379  0.150458  1
  Sr  Sr2  1  0.495299  0.207677  0.645760  1
  Sr  Sr3  1  0.792323  0.504701  0.854240  1
  Sn  Sn4  1  0.861539  0.138461  0.250000  1
  Hg  Hg5  1  0.147189  0.852811  0.750000  1
  Pd  Pd6  1  0.724249  0.006783  0.005603  1
  Pd  Pd7  1  0.993217  0.275751  0.494397  1
  Pd  Pd8  1  0.267486  0.003363  0.001959  1
  Pd  Pd9  1  0.996637  0.732514  0.498041  1
