# generated using pymatgen
data_Tb8Ho2B2I15
_symmetry_space_group_name_H-M   'P 1'
_cell_length_a   9.62980540
_cell_length_b   10.36749226
_cell_length_c   11.33831313
_cell_angle_alpha   91.82772994
_cell_angle_beta   114.39481559
_cell_angle_gamma   110.38822868
_symmetry_Int_Tables_number   1
_chemical_formula_structural   Tb8Ho2B2I15
_chemical_formula_sum   'Tb8 Ho2 B2 I15'
_cell_volume   945.62804379
_cell_formula_units_Z   1
loop_
 _symmetry_equiv_pos_site_id
 _symmetry_equiv_pos_as_xyz
  1  'x, y, z'
loop_
 _atom_site_type_symbol
 _atom_site_label
 _atom_site_symmetry_multiplicity
 _atom_site_fract_x
 _atom_site_fract_y
 _atom_site_fract_z
 _atom_site_occupancy
  Tb  Tb0  1  0.784601  0.394051  0.267808  1
  Tb  Tb1  1  0.215399  0.605949  0.732192  1
  Tb  Tb2  1  0.663473  0.752169  0.826051  1
  Tb  Tb3  1  0.336527  0.247831  0.173949  1
  Tb  Tb4  1  0.523371  0.712246  0.086959  1
  Tb  Tb5  1  0.476629  0.287754  0.913041  1
  Tb  Tb6  1  0.580618  0.042290  0.309438  1
  Tb  Tb7  1  0.419382  0.957710  0.690562  1
  Ho  Ho8  1  0.705602  0.069468  0.045394  1
  Ho  Ho9  1  0.294398  0.930532  0.954606  1
  B  B10  1  0.468798  0.824403  0.881040  1
  B  B11  1  0.531202  0.175597  0.118960  1
  I  I12  1  0.000000  0.000000  0.000000  1
  I  I13  1  0.637992  0.882133  0.583029  1
  I  I14  1  0.362008  0.117867  0.416971  1
  I  I15  1  0.884070  0.299119  0.531037  1
  I  I16  1  0.115930  0.700881  0.468963  1
  I  I17  1  0.282431  0.760351  0.175270  1
  I  I18  1  0.717569  0.239649  0.824730  1
  I  I19  1  0.052382  0.338132  0.224118  1
  I  I20  1  0.158838  0.054411  0.703025  1
  I  I21  1  0.841162  0.945589  0.296975  1
  I  I22  1  0.228160  0.409641  0.941927  1
  I  I23  1  0.771840  0.590359  0.058073  1
  I  I24  1  0.409936  0.459358  0.660391  1
  I  I25  1  0.590064  0.540642  0.339609  1
  I  I26  1  0.947618  0.661868  0.775882  1
