# generated using pymatgen
data_Tc3HS4
_symmetry_space_group_name_H-M   'P 1'
_cell_length_a   10.12354800
_cell_length_b   6.35278595
_cell_length_c   9.83491900
_cell_angle_alpha   70.48410256
_cell_angle_beta   90.00000000
_cell_angle_gamma   90.00000000
_symmetry_Int_Tables_number   1
_chemical_formula_structural   Tc3HS4
_chemical_formula_sum   'Tc12 H4 S16'
_cell_volume   596.17205849
_cell_formula_units_Z   4
loop_
 _symmetry_equiv_pos_site_id
 _symmetry_equiv_pos_as_xyz
  1  'x, y, z'
loop_
 _atom_site_type_symbol
 _atom_site_label
 _atom_site_symmetry_multiplicity
 _atom_site_fract_x
 _atom_site_fract_y
 _atom_site_fract_z
 _atom_site_occupancy
  Tc  Tc0  1  0.623599  0.997529  0.365368  1
  Tc  Tc1  1  0.876401  0.997529  0.865368  1
  Tc  Tc2  1  0.376401  0.002471  0.634632  1
  Tc  Tc3  1  0.123599  0.002471  0.134632  1
  Tc  Tc4  1  0.367033  0.991970  0.376372  1
  Tc  Tc5  1  0.132967  0.991970  0.876372  1
  Tc  Tc6  1  0.632967  0.008030  0.623628  1
  Tc  Tc7  1  0.867033  0.008030  0.123628  1
  Tc  Tc8  1  0.502524  0.691208  0.572275  1
  Tc  Tc9  1  0.997476  0.691208  0.072275  1
  Tc  Tc10  1  0.497476  0.308792  0.427725  1
  Tc  Tc11  1  0.002524  0.308792  0.927725  1
  H  H12  1  0.222195  0.977546  0.284332  1
  H  H13  1  0.277805  0.977546  0.784332  1
  H  H14  1  0.777805  0.022454  0.715668  1
  H  H15  1  0.722195  0.022454  0.215668  1
  S  S16  1  0.493548  0.720364  0.312335  1
  S  S17  1  0.006452  0.720364  0.812335  1
  S  S18  1  0.506452  0.279636  0.687665  1
  S  S19  1  0.993548  0.279636  0.187665  1
  S  S20  1  0.266370  0.713512  0.575280  1
  S  S21  1  0.233630  0.713512  0.075280  1
  S  S22  1  0.733630  0.286488  0.424720  1
  S  S23  1  0.766370  0.286488  0.924720  1
  S  S24  1  0.489663  0.270079  0.194964  1
  S  S25  1  0.010337  0.270079  0.694964  1
  S  S26  1  0.510337  0.729921  0.805036  1
  S  S27  1  0.989663  0.729921  0.305036  1
  S  S28  1  0.738365  0.723414  0.556300  1
  S  S29  1  0.761635  0.723414  0.056300  1
  S  S30  1  0.261635  0.276586  0.443700  1
  S  S31  1  0.238365  0.276586  0.943700  1
