# generated using pymatgen
data_Pr3Ti(P3Rh4)2
_symmetry_space_group_name_H-M   'P 1'
_cell_length_a   3.98001200
_cell_length_b   11.31561800
_cell_length_c   13.01971600
_cell_angle_alpha   90.00000000
_cell_angle_beta   90.00000000
_cell_angle_gamma   90.00000000
_symmetry_Int_Tables_number   1
_chemical_formula_structural   Pr3Ti(P3Rh4)2
_chemical_formula_sum   'Pr6 Ti2 P12 Rh16'
_cell_volume   586.35977616
_cell_formula_units_Z   2
loop_
 _symmetry_equiv_pos_site_id
 _symmetry_equiv_pos_as_xyz
  1  'x, y, z'
loop_
 _atom_site_type_symbol
 _atom_site_label
 _atom_site_symmetry_multiplicity
 _atom_site_fract_x
 _atom_site_fract_y
 _atom_site_fract_z
 _atom_site_occupancy
  Pr  Pr0  1  0.000000  0.500000  0.520463  1
  Pr  Pr1  1  0.500000  0.000000  0.479537  1
  Pr  Pr2  1  0.500000  0.818922  0.202507  1
  Pr  Pr3  1  0.500000  0.181078  0.202507  1
  Pr  Pr4  1  0.000000  0.681078  0.797493  1
  Pr  Pr5  1  0.000000  0.318922  0.797493  1
  Ti  Ti6  1  0.500000  0.500000  0.155904  1
  Ti  Ti7  1  0.000000  0.000000  0.844096  1
  P  P8  1  0.500000  0.500000  0.882618  1
  P  P9  1  0.000000  0.000000  0.117382  1
  P  P10  1  0.500000  0.500000  0.345890  1
  P  P11  1  0.000000  0.000000  0.654110  1
  P  P12  1  0.500000  0.309356  0.615403  1
  P  P13  1  0.500000  0.690644  0.615403  1
  P  P14  1  0.000000  0.190644  0.384597  1
  P  P15  1  0.000000  0.809356  0.384597  1
  P  P16  1  0.500000  0.847064  0.890063  1
  P  P17  1  0.500000  0.152936  0.890063  1
  P  P18  1  0.000000  0.652936  0.109937  1
  P  P19  1  0.000000  0.347064  0.109937  1
  Rh  Rh20  1  0.500000  0.500000  0.701241  1
  Rh  Rh21  1  0.000000  0.000000  0.298759  1
  Rh  Rh22  1  0.000000  0.500000  0.987865  1
  Rh  Rh23  1  0.500000  0.000000  0.012135  1
  Rh  Rh24  1  0.500000  0.332303  0.993369  1
  Rh  Rh25  1  0.500000  0.667697  0.993369  1
  Rh  Rh26  1  0.000000  0.167697  0.006631  1
  Rh  Rh27  1  0.000000  0.832303  0.006631  1
  Rh  Rh28  1  0.500000  0.292398  0.431398  1
  Rh  Rh29  1  0.500000  0.707602  0.431398  1
  Rh  Rh30  1  0.000000  0.207602  0.568602  1
  Rh  Rh31  1  0.000000  0.792398  0.568602  1
  Rh  Rh32  1  0.500000  0.876379  0.708760  1
  Rh  Rh33  1  0.500000  0.123621  0.708760  1
  Rh  Rh34  1  0.000000  0.623621  0.291240  1
  Rh  Rh35  1  0.000000  0.376379  0.291240  1
