# generated using pymatgen
data_Ce2HoAl2InRu2
_symmetry_space_group_name_H-M   'P 1'
_cell_length_a   8.16558167
_cell_length_b   8.16558053
_cell_length_c   4.97933296
_cell_angle_alpha   82.08509486
_cell_angle_beta   82.08509519
_cell_angle_gamma   32.95245919
_symmetry_Int_Tables_number   1
_chemical_formula_structural   Ce2HoAl2InRu2
_chemical_formula_sum   'Ce2 Ho1 Al2 In1 Ru2'
_cell_volume   178.72043337
_cell_formula_units_Z   1
loop_
 _symmetry_equiv_pos_site_id
 _symmetry_equiv_pos_as_xyz
  1  'x, y, z'
loop_
 _atom_site_type_symbol
 _atom_site_label
 _atom_site_symmetry_multiplicity
 _atom_site_fract_x
 _atom_site_fract_y
 _atom_site_fract_z
 _atom_site_occupancy
  Ce  Ce0  1  0.831446  0.831446  0.575851  1
  Ce  Ce1  1  0.168554  0.168554  0.424149  1
  Ho  Ho2  1  0.000000  0.000000  0.000000  1
  Al  Al3  1  0.363419  0.363419  0.045183  1
  Al  Al4  1  0.636581  0.636581  0.954817  1
  In  In5  1  0.500000  0.500000  0.500000  1
  Ru  Ru6  1  0.794186  0.794186  0.114407  1
  Ru  Ru7  1  0.205814  0.205814  0.885593  1
