# generated using pymatgen
data_HoLu(Tc2Ge)4
_symmetry_space_group_name_H-M   'P 1'
_cell_length_a   7.37309520
_cell_length_b   7.37309520
_cell_length_c   4.26379100
_cell_angle_alpha   90.00000000
_cell_angle_beta   90.00000000
_cell_angle_gamma   89.40258402
_symmetry_Int_Tables_number   1
_chemical_formula_structural   HoLu(Tc2Ge)4
_chemical_formula_sum   'Ho1 Lu1 Tc8 Ge4'
_cell_volume   231.77787822
_cell_formula_units_Z   1
loop_
 _symmetry_equiv_pos_site_id
 _symmetry_equiv_pos_as_xyz
  1  'x, y, z'
loop_
 _atom_site_type_symbol
 _atom_site_label
 _atom_site_symmetry_multiplicity
 _atom_site_fract_x
 _atom_site_fract_y
 _atom_site_fract_z
 _atom_site_occupancy
  Ho  Ho0  1  0.500000  0.500000  0.000000  1
  Lu  Lu1  1  0.000000  0.000000  0.500000  1
  Tc  Tc2  1  0.147655  0.601437  0.500000  1
  Tc  Tc3  1  0.852345  0.398563  0.500000  1
  Tc  Tc4  1  0.348470  0.098416  0.000000  1
  Tc  Tc5  1  0.651530  0.901584  0.000000  1
  Tc  Tc6  1  0.601437  0.147655  0.500000  1
  Tc  Tc7  1  0.398563  0.852345  0.500000  1
  Tc  Tc8  1  0.098416  0.348470  0.000000  1
  Tc  Tc9  1  0.901584  0.651530  0.000000  1
  Ge  Ge10  1  0.706882  0.706882  0.500000  1
  Ge  Ge11  1  0.293118  0.293118  0.500000  1
  Ge  Ge12  1  0.795794  0.204206  0.000000  1
  Ge  Ge13  1  0.204206  0.795794  0.000000  1
