# generated using pymatgen
data_Er10Sn5BiSe2
_symmetry_space_group_name_H-M   'P 1'
_cell_length_a   9.06726540
_cell_length_b   9.06726454
_cell_length_c   6.63954800
_cell_angle_alpha   90.00000000
_cell_angle_beta   90.00000000
_cell_angle_gamma   120.06367281
_symmetry_Int_Tables_number   1
_chemical_formula_structural   Er10Sn5BiSe2
_chemical_formula_sum   'Er10 Sn5 Bi1 Se2'
_cell_volume   472.43575224
_cell_formula_units_Z   1
loop_
 _symmetry_equiv_pos_site_id
 _symmetry_equiv_pos_as_xyz
  1  'x, y, z'
loop_
 _atom_site_type_symbol
 _atom_site_label
 _atom_site_symmetry_multiplicity
 _atom_site_fract_x
 _atom_site_fract_y
 _atom_site_fract_z
 _atom_site_occupancy
  Er  Er0  1  0.670220  0.332100  0.002049  1
  Er  Er1  1  0.332100  0.670220  0.002049  1
  Er  Er2  1  0.332100  0.670220  0.497951  1
  Er  Er3  1  0.670220  0.332100  0.497951  1
  Er  Er4  1  0.748876  0.748876  0.750000  1
  Er  Er5  1  0.251275  0.993600  0.750000  1
  Er  Er6  1  0.993600  0.251275  0.750000  1
  Er  Er7  1  0.253095  0.253095  0.250000  1
  Er  Er8  1  0.745902  0.999723  0.250000  1
  Er  Er9  1  0.999723  0.745902  0.250000  1
  Sn  Sn10  1  0.603678  0.000019  0.750000  1
  Sn  Sn11  1  0.000019  0.603678  0.750000  1
  Sn  Sn12  1  0.605083  0.605083  0.250000  1
  Sn  Sn13  1  0.396128  0.000787  0.250000  1
  Sn  Sn14  1  0.000787  0.396128  0.250000  1
  Bi  Bi15  1  0.394685  0.394685  0.750000  1
  Se  Se16  1  0.001254  0.001254  0.999785  1
  Se  Se17  1  0.001254  0.001254  0.500215  1
