# generated using pymatgen
data_Tm8Sc2(IrPt)3
_symmetry_space_group_name_H-M   'P 1'
_cell_length_a   10.78610884
_cell_length_b   10.77941700
_cell_length_c   6.20645506
_cell_angle_alpha   90.00000000
_cell_angle_beta   90.06697279
_cell_angle_gamma   90.00000000
_symmetry_Int_Tables_number   1
_chemical_formula_structural   Tm8Sc2(IrPt)3
_chemical_formula_sum   'Tm16 Sc4 Ir6 Pt6'
_cell_volume   721.61140682
_cell_formula_units_Z   2
loop_
 _symmetry_equiv_pos_site_id
 _symmetry_equiv_pos_as_xyz
  1  'x, y, z'
loop_
 _atom_site_type_symbol
 _atom_site_label
 _atom_site_symmetry_multiplicity
 _atom_site_fract_x
 _atom_site_fract_y
 _atom_site_fract_z
 _atom_site_occupancy
  Tm  Tm0  1  0.292520  0.088212  0.374235  1
  Tm  Tm1  1  0.292520  0.911788  0.874235  1
  Tm  Tm2  1  0.707711  0.085615  0.874200  1
  Tm  Tm3  1  0.707711  0.914385  0.374200  1
  Tm  Tm4  1  0.582573  0.789393  0.874021  1
  Tm  Tm5  1  0.582573  0.210607  0.374021  1
  Tm  Tm6  1  0.412965  0.790248  0.378363  1
  Tm  Tm7  1  0.412965  0.209752  0.878363  1
  Tm  Tm8  1  0.211895  0.415903  0.623391  1
  Tm  Tm9  1  0.211895  0.584097  0.123391  1
  Tm  Tm10  1  0.791849  0.414225  0.124097  1
  Tm  Tm11  1  0.791849  0.585775  0.624097  1
  Tm  Tm12  1  0.915122  0.707854  0.125750  1
  Tm  Tm13  1  0.915122  0.292146  0.625750  1
  Tm  Tm14  1  0.088944  0.707386  0.625808  1
  Tm  Tm15  1  0.088944  0.292614  0.125808  1
  Sc  Sc16  1  0.000001  0.999938  0.499983  1
  Sc  Sc17  1  0.000001  0.000062  0.999983  1
  Sc  Sc18  1  0.495951  0.499264  0.999973  1
  Sc  Sc19  1  0.495951  0.500736  0.499973  1
  Ir  Ir20  1  0.351352  0.350627  0.250121  1
  Ir  Ir21  1  0.351352  0.649373  0.750121  1
  Ir  Ir22  1  0.500272  0.999806  0.122075  1
  Ir  Ir23  1  0.500272  0.000194  0.622075  1
  Ir  Ir24  1  0.999341  0.500147  0.878003  1
  Ir  Ir25  1  0.999341  0.499853  0.378003  1
  Pt  Pt26  1  0.850946  0.148965  0.250107  1
  Pt  Pt27  1  0.850946  0.851035  0.750107  1
  Pt  Pt28  1  0.148685  0.148722  0.749875  1
  Pt  Pt29  1  0.148685  0.851278  0.249875  1
  Pt  Pt30  1  0.649872  0.350658  0.749998  1
  Pt  Pt31  1  0.649872  0.649342  0.249998  1
