# generated using pymatgen
data_TmLuGa9Ir2Pt
_symmetry_space_group_name_H-M   'P 1'
_cell_length_a   7.59788604
_cell_length_b   7.59788672
_cell_length_c   9.42143800
_cell_angle_alpha   90.00000000
_cell_angle_beta   90.00000000
_cell_angle_gamma   119.95258472
_symmetry_Int_Tables_number   1
_chemical_formula_structural   TmLuGa9Ir2Pt
_chemical_formula_sum   'Tm2 Lu2 Ga18 Ir4 Pt2'
_cell_volume   471.23844906
_cell_formula_units_Z   2
loop_
 _symmetry_equiv_pos_site_id
 _symmetry_equiv_pos_as_xyz
  1  'x, y, z'
loop_
 _atom_site_type_symbol
 _atom_site_label
 _atom_site_symmetry_multiplicity
 _atom_site_fract_x
 _atom_site_fract_y
 _atom_site_fract_z
 _atom_site_occupancy
  Tm  Tm0  1  0.669303  0.996724  0.750000  1
  Tm  Tm1  1  0.330697  0.003276  0.250000  1
  Lu  Lu2  1  0.996760  0.669342  0.750000  1
  Lu  Lu3  1  0.003240  0.330658  0.250000  1
  Ga  Ga4  1  0.131264  0.131194  0.750000  1
  Ga  Ga5  1  0.868736  0.868806  0.250000  1
  Ga  Ga6  1  0.997817  0.337292  0.582805  1
  Ga  Ga7  1  0.002183  0.662708  0.417195  1
  Ga  Ga8  1  0.002183  0.662708  0.082805  1
  Ga  Ga9  1  0.337378  0.997851  0.917295  1
  Ga  Ga10  1  0.997817  0.337292  0.917195  1
  Ga  Ga11  1  0.662622  0.002149  0.082705  1
  Ga  Ga12  1  0.662622  0.002149  0.417295  1
  Ga  Ga13  1  0.337378  0.997851  0.582705  1
  Ga  Ga14  1  0.334738  0.334696  0.069839  1
  Ga  Ga15  1  0.665262  0.665304  0.930161  1
  Ga  Ga16  1  0.665262  0.665304  0.569839  1
  Ga  Ga17  1  0.334738  0.334696  0.430161  1
  Ga  Ga18  1  0.337656  0.546804  0.750000  1
  Ga  Ga19  1  0.662344  0.453196  0.250000  1
  Ga  Ga20  1  0.546636  0.337550  0.750000  1
  Ga  Ga21  1  0.453364  0.662450  0.250000  1
  Ir  Ir22  1  0.671832  0.328605  0.500016  1
  Ir  Ir23  1  0.328168  0.671395  0.499984  1
  Ir  Ir24  1  0.328168  0.671395  0.000016  1
  Ir  Ir25  1  0.671832  0.328605  0.999984  1
  Pt  Pt26  1  0.000000  0.000000  0.500000  1
  Pt  Pt27  1  0.000000  0.000000  0.000000  1
