# generated using pymatgen
data_Hf4Nb2Si3As
_symmetry_space_group_name_H-M   'P 1'
_cell_length_a   6.86850242
_cell_length_b   6.86850276
_cell_length_c   3.73172900
_cell_angle_alpha   90.00000000
_cell_angle_beta   90.00000000
_cell_angle_gamma   89.34632717
_symmetry_Int_Tables_number   1
_chemical_formula_structural   Hf4Nb2Si3As
_chemical_formula_sum   'Hf4 Nb2 Si3 As1'
_cell_volume   176.03781367
_cell_formula_units_Z   1
loop_
 _symmetry_equiv_pos_site_id
 _symmetry_equiv_pos_as_xyz
  1  'x, y, z'
loop_
 _atom_site_type_symbol
 _atom_site_label
 _atom_site_symmetry_multiplicity
 _atom_site_fract_x
 _atom_site_fract_y
 _atom_site_fract_z
 _atom_site_occupancy
  Hf  Hf0  1  0.822213  0.670825  0.500000  1
  Hf  Hf1  1  0.331194  0.831194  0.500000  1
  Hf  Hf2  1  0.170825  0.322213  0.500000  1
  Hf  Hf3  1  0.672889  0.172889  0.500000  1
  Nb  Nb4  1  0.503185  0.500865  0.000000  1
  Nb  Nb5  1  0.000865  0.003185  0.000000  1
  Si  Si6  1  0.627511  0.875379  0.000000  1
  Si  Si7  1  0.375379  0.127511  0.000000  1
  Si  Si8  1  0.867307  0.367307  0.000000  1
  As  As9  1  0.128632  0.628632  0.000000  1
