# generated using pymatgen
data_Tm4Co15As12Ru5
_symmetry_space_group_name_H-M   'P 1'
_cell_length_a   3.80990400
_cell_length_b   10.75476972
_cell_length_c   12.24458032
_cell_angle_alpha   90.14641857
_cell_angle_beta   90.00000000
_cell_angle_gamma   90.00000000
_symmetry_Int_Tables_number   1
_chemical_formula_structural   Tm4Co15As12Ru5
_chemical_formula_sum   'Tm4 Co15 As12 Ru5'
_cell_volume   501.71563473
_cell_formula_units_Z   1
loop_
 _symmetry_equiv_pos_site_id
 _symmetry_equiv_pos_as_xyz
  1  'x, y, z'
loop_
 _atom_site_type_symbol
 _atom_site_label
 _atom_site_symmetry_multiplicity
 _atom_site_fract_x
 _atom_site_fract_y
 _atom_site_fract_z
 _atom_site_occupancy
  Tm  Tm0  1  0.250000  0.584859  0.705448  1
  Tm  Tm1  1  0.250000  0.917184  0.202977  1
  Tm  Tm2  1  0.750000  0.417140  0.294408  1
  Tm  Tm3  1  0.750000  0.082785  0.796369  1
  Co  Co4  1  0.250000  0.092104  0.987254  1
  Co  Co5  1  0.750000  0.595959  0.514342  1
  Co  Co6  1  0.750000  0.907291  0.012138  1
  Co  Co7  1  0.250000  0.216176  0.175053  1
  Co  Co8  1  0.250000  0.280460  0.679336  1
  Co  Co9  1  0.750000  0.783477  0.823493  1
  Co  Co10  1  0.750000  0.717956  0.322669  1
  Co  Co11  1  0.250000  0.886451  0.700155  1
  Co  Co12  1  0.250000  0.617092  0.197724  1
  Co  Co13  1  0.750000  0.113610  0.298935  1
  Co  Co14  1  0.750000  0.384581  0.801912  1
  Co  Co15  1  0.250000  0.464899  0.931089  1
  Co  Co16  1  0.250000  0.033418  0.431363  1
  Co  Co17  1  0.750000  0.534942  0.068459  1
  Co  Co18  1  0.750000  0.964552  0.569062  1
  As  As19  1  0.250000  0.418026  0.114562  1
  As  As20  1  0.250000  0.081611  0.614488  1
  As  As21  1  0.750000  0.582493  0.885613  1
  As  As22  1  0.750000  0.917814  0.384997  1
  As  As23  1  0.250000  0.266175  0.868665  1
  As  As24  1  0.250000  0.228605  0.363883  1
  As  As25  1  0.750000  0.733531  0.132019  1
  As  As26  1  0.750000  0.767741  0.633773  1
  As  As27  1  0.250000  0.600018  0.385845  1
  As  As28  1  0.250000  0.904757  0.889111  1
  As  As29  1  0.750000  0.404353  0.615265  1
  As  As30  1  0.750000  0.094637  0.110087  1
  Ru  Ru31  1  0.250000  0.710940  0.988840  1
  Ru  Ru32  1  0.250000  0.789847  0.490764  1
  Ru  Ru33  1  0.750000  0.288525  0.010606  1
  Ru  Ru34  1  0.750000  0.208384  0.512147  1
  Ru  Ru35  1  0.250000  0.407606  0.487148  1
