# generated using pymatgen
data_Ca2Tb2Sn6Rh7
_symmetry_space_group_name_H-M   'P 1'
_cell_length_a   7.63609661
_cell_length_b   7.66727683
_cell_length_c   7.66727567
_cell_angle_alpha   109.63684593
_cell_angle_beta   109.47083292
_cell_angle_gamma   109.47083011
_symmetry_Int_Tables_number   1
_chemical_formula_structural   Ca2Tb2Sn6Rh7
_chemical_formula_sum   'Ca2 Tb2 Sn6 Rh7'
_cell_volume   344.86104111
_cell_formula_units_Z   1
loop_
 _symmetry_equiv_pos_site_id
 _symmetry_equiv_pos_as_xyz
  1  'x, y, z'
loop_
 _atom_site_type_symbol
 _atom_site_label
 _atom_site_symmetry_multiplicity
 _atom_site_fract_x
 _atom_site_fract_y
 _atom_site_fract_z
 _atom_site_occupancy
  Ca  Ca0  1  0.500000  0.000000  0.000000  1
  Ca  Ca1  1  0.500000  0.500000  0.500000  1
  Tb  Tb2  1  0.000000  0.500000  0.000000  1
  Tb  Tb3  1  0.000000  0.000000  0.500000  1
  Sn  Sn4  1  0.000000  0.317995  0.317995  1
  Sn  Sn5  1  0.678804  0.996823  0.681981  1
  Sn  Sn6  1  0.678804  0.681981  0.996823  1
  Sn  Sn7  1  0.000000  0.682005  0.682005  1
  Sn  Sn8  1  0.321196  0.003177  0.318019  1
  Sn  Sn9  1  0.321196  0.318019  0.003177  1
  Rh  Rh10  1  0.000000  0.000000  0.000000  1
  Rh  Rh11  1  0.500000  0.750000  0.250000  1
  Rh  Rh12  1  0.754892  0.504982  0.249910  1
  Rh  Rh13  1  0.245108  0.750090  0.495018  1
  Rh  Rh14  1  0.245108  0.495018  0.750090  1
  Rh  Rh15  1  0.500000  0.250000  0.750000  1
  Rh  Rh16  1  0.754892  0.249910  0.504982  1
