# generated using pymatgen
data_Lu(AlB14)2
_symmetry_space_group_name_H-M   'P 1'
_cell_length_a   7.19643363
_cell_length_b   7.19643383
_cell_length_c   5.83105260
_cell_angle_alpha   66.34035642
_cell_angle_beta   66.34036438
_cell_angle_gamma   92.18987772
_symmetry_Int_Tables_number   1
_chemical_formula_structural   Lu(AlB14)2
_chemical_formula_sum   'Lu1 Al2 B28'
_cell_volume   246.10080239
_cell_formula_units_Z   1
loop_
 _symmetry_equiv_pos_site_id
 _symmetry_equiv_pos_as_xyz
  1  'x, y, z'
loop_
 _atom_site_type_symbol
 _atom_site_label
 _atom_site_symmetry_multiplicity
 _atom_site_fract_x
 _atom_site_fract_y
 _atom_site_fract_z
 _atom_site_occupancy
  Lu  Lu0  1  0.889938  0.889938  0.345744  1
  Al  Al1  1  0.494828  0.494828  0.511609  1
  Al  Al2  1  0.154848  0.154848  0.504887  1
  B  B3  1  0.416981  0.735987  0.172397  1
  B  B4  1  0.585515  0.259498  0.833419  1
  B  B5  1  0.259498  0.585515  0.833419  1
  B  B6  1  0.735987  0.416981  0.172397  1
  B  B7  1  0.694173  0.860321  0.974700  1
  B  B8  1  0.305090  0.135409  0.034730  1
  B  B9  1  0.135409  0.305090  0.034730  1
  B  B10  1  0.860321  0.694173  0.974700  1
  B  B11  1  0.534087  0.872733  0.299639  1
  B  B12  1  0.468998  0.125044  0.205080  1
  B  B13  1  0.125044  0.468998  0.205080  1
  B  B14  1  0.872733  0.534087  0.299639  1
  B  B15  1  0.462806  0.121454  0.711899  1
  B  B16  1  0.533474  0.870376  0.800682  1
  B  B17  1  0.870376  0.533474  0.800682  1
  B  B18  1  0.121454  0.462806  0.711899  1
  B  B19  1  0.723909  0.100212  0.999613  1
  B  B20  1  0.277751  0.894115  0.325796  1
  B  B21  1  0.894115  0.277751  0.325796  1
  B  B22  1  0.100212  0.723909  0.999613  1
  B  B23  1  0.276306  0.896046  0.009594  1
  B  B24  1  0.721739  0.099904  0.684536  1
  B  B25  1  0.099904  0.721739  0.684536  1
  B  B26  1  0.896046  0.276306  0.009594  1
  B  B27  1  0.272049  0.472140  0.379620  1
  B  B28  1  0.718946  0.525326  0.637175  1
  B  B29  1  0.525326  0.718946  0.637175  1
  B  B30  1  0.472140  0.272049  0.379620  1
