# generated using pymatgen
data_Cu2S2F
_symmetry_space_group_name_H-M   'P 1'
_cell_length_a   3.70854757
_cell_length_b   3.70523134
_cell_length_c   7.76445326
_cell_angle_alpha   72.16176328
_cell_angle_beta   86.41712094
_cell_angle_gamma   60.90601844
_symmetry_Int_Tables_number   1
_chemical_formula_structural   Cu2S2F
_chemical_formula_sum   'Cu2 S2 F1'
_cell_volume   88.26687760
_cell_formula_units_Z   1
loop_
 _symmetry_equiv_pos_site_id
 _symmetry_equiv_pos_as_xyz
  1  'x, y, z'
loop_
 _atom_site_type_symbol
 _atom_site_label
 _atom_site_symmetry_multiplicity
 _atom_site_fract_x
 _atom_site_fract_y
 _atom_site_fract_z
 _atom_site_occupancy
  Cu  Cu0  1  0.414705  0.339343  0.002922  1
  Cu  Cu1  1  0.641787  0.041153  0.525343  1
  S  S2  1  0.995269  0.297082  0.622823  1
  S  S3  1  0.057970  0.078966  0.906075  1
  F  F4  1  0.496109  0.148681  0.268912  1
