# generated using pymatgen
data_Y5Er3ReOsBr8
_symmetry_space_group_name_H-M   'P 1'
_cell_length_a   8.99134243
_cell_length_b   8.96625108
_cell_length_c   6.55441213
_cell_angle_alpha   89.43084564
_cell_angle_beta   89.51739706
_cell_angle_gamma   89.17670502
_symmetry_Int_Tables_number   1
_chemical_formula_structural   Y5Er3ReOsBr8
_chemical_formula_sum   'Y5 Er3 Re1 Os1 Br8'
_cell_volume   528.30901549
_cell_formula_units_Z   1
loop_
 _symmetry_equiv_pos_site_id
 _symmetry_equiv_pos_as_xyz
  1  'x, y, z'
loop_
 _atom_site_type_symbol
 _atom_site_label
 _atom_site_symmetry_multiplicity
 _atom_site_fract_x
 _atom_site_fract_y
 _atom_site_fract_z
 _atom_site_occupancy
  Y  Y0  1  0.251261  0.899423  0.011536  1
  Y  Y1  1  0.748495  0.101989  0.989642  1
  Y  Y2  1  0.100111  0.749294  0.488661  1
  Y  Y3  1  0.899269  0.251634  0.509592  1
  Y  Y4  1  0.751826  0.903675  0.508137  1
  Er  Er5  1  0.243399  0.094924  0.491266  1
  Er  Er6  1  0.095216  0.243595  0.991593  1
  Er  Er7  1  0.905856  0.756731  0.008785  1
  Re  Re8  1  0.995821  0.005278  0.249349  1
  Os  Os9  1  0.005839  0.995380  0.749701  1
  Br  Br10  1  0.419570  0.816975  0.415055  1
  Br  Br11  1  0.579138  0.183961  0.588881  1
  Br  Br12  1  0.182156  0.579331  0.086591  1
  Br  Br13  1  0.819420  0.420907  0.910248  1
  Br  Br14  1  0.412121  0.189547  0.091144  1
  Br  Br15  1  0.589137  0.809738  0.912303  1
  Br  Br16  1  0.811191  0.586273  0.407295  1
  Br  Br17  1  0.190176  0.411345  0.590221  1
