# generated using pymatgen
data_Dy17Ho3Sn16
_symmetry_space_group_name_H-M   'P 1'
_cell_length_a   8.03947611
_cell_length_b   8.18040907
_cell_length_c   15.46415808
_cell_angle_alpha   90.00142362
_cell_angle_beta   89.98877821
_cell_angle_gamma   90.01488585
_symmetry_Int_Tables_number   1
_chemical_formula_structural   Dy17Ho3Sn16
_chemical_formula_sum   'Dy17 Ho3 Sn16'
_cell_volume   1017.01890902
_cell_formula_units_Z   1
loop_
 _symmetry_equiv_pos_site_id
 _symmetry_equiv_pos_as_xyz
  1  'x, y, z'
loop_
 _atom_site_type_symbol
 _atom_site_label
 _atom_site_symmetry_multiplicity
 _atom_site_fract_x
 _atom_site_fract_y
 _atom_site_fract_z
 _atom_site_occupancy
  Dy  Dy0  1  0.867990  0.662723  0.622379  1
  Dy  Dy1  1  0.632137  0.162607  0.377941  1
  Dy  Dy2  1  0.132185  0.337378  0.121719  1
  Dy  Dy3  1  0.632019  0.162634  0.122015  1
  Dy  Dy4  1  0.132112  0.337280  0.377934  1
  Dy  Dy5  1  0.367950  0.837374  0.622359  1
  Dy  Dy6  1  0.868137  0.662497  0.877994  1
  Dy  Dy7  1  0.520709  0.320605  0.902517  1
  Dy  Dy8  1  0.020747  0.179230  0.597677  1
  Dy  Dy9  1  0.479340  0.679252  0.402596  1
  Dy  Dy10  1  0.979200  0.820737  0.097407  1
  Dy  Dy11  1  0.479242  0.679429  0.097218  1
  Dy  Dy12  1  0.979339  0.820757  0.402556  1
  Dy  Dy13  1  0.520683  0.320770  0.597684  1
  Dy  Dy14  1  0.020652  0.179165  0.902393  1
  Dy  Dy15  1  0.800932  0.496856  0.250014  1
  Dy  Dy16  1  0.300912  0.003055  0.249808  1
  Ho  Ho17  1  0.367938  0.837436  0.877497  1
  Ho  Ho18  1  0.199245  0.503170  0.750163  1
  Ho  Ho19  1  0.699056  0.996885  0.750113  1
  Sn  Sn20  1  0.292599  0.036740  0.040921  1
  Sn  Sn21  1  0.792715  0.463139  0.458477  1
  Sn  Sn22  1  0.707491  0.963246  0.541994  1
  Sn  Sn23  1  0.208085  0.537335  0.957979  1
  Sn  Sn24  1  0.706650  0.962936  0.958084  1
  Sn  Sn25  1  0.207420  0.536766  0.541998  1
  Sn  Sn26  1  0.292620  0.036836  0.458385  1
  Sn  Sn27  1  0.792353  0.463260  0.041716  1
  Sn  Sn28  1  0.565303  0.618878  0.750233  1
  Sn  Sn29  1  0.065532  0.881410  0.750371  1
  Sn  Sn30  1  0.434112  0.381420  0.249908  1
  Sn  Sn31  1  0.934215  0.118471  0.249794  1
  Sn  Sn32  1  0.330132  0.148246  0.750123  1
  Sn  Sn33  1  0.829914  0.351573  0.750077  1
  Sn  Sn34  1  0.670109  0.851904  0.249983  1
  Sn  Sn35  1  0.170224  0.648002  0.249974  1
