# generated using pymatgen
data_K2Os(Cl2F)2
_symmetry_space_group_name_H-M   'P 1'
_cell_length_a   6.77638688
_cell_length_b   6.77638683
_cell_length_c   6.77638569
_cell_angle_alpha   116.53221046
_cell_angle_beta   116.53221513
_cell_angle_gamma   96.11926164
_symmetry_Int_Tables_number   1
_chemical_formula_structural   K2Os(Cl2F)2
_chemical_formula_sum   'K2 Os1 Cl4 F2'
_cell_volume   230.14038995
_cell_formula_units_Z   1
loop_
 _symmetry_equiv_pos_site_id
 _symmetry_equiv_pos_as_xyz
  1  'x, y, z'
loop_
 _atom_site_type_symbol
 _atom_site_label
 _atom_site_symmetry_multiplicity
 _atom_site_fract_x
 _atom_site_fract_y
 _atom_site_fract_z
 _atom_site_occupancy
  K  K0  1  0.750000  0.250000  0.500000  1
  K  K1  1  0.250000  0.750000  0.500000  1
  Os  Os2  1  0.000000  0.000000  0.000000  1
  Cl  Cl3  1  0.765316  0.765316  0.530632  1
  Cl  Cl4  1  0.234684  0.234684  0.469368  1
  Cl  Cl5  1  0.234684  0.765316  0.000000  1
  Cl  Cl6  1  0.765316  0.234684  0.000000  1
  F  F7  1  0.786621  0.786621  0.000000  1
  F  F8  1  0.213379  0.213379  0.000000  1
