# generated using pymatgen
data_DyHo5Al20(SiRu2)4
_symmetry_space_group_name_H-M   'P 1'
_cell_length_a   8.68171100
_cell_length_b   8.68150663
_cell_length_c   9.62510000
_cell_angle_alpha   90.00000000
_cell_angle_beta   90.00000000
_cell_angle_gamma   120.00078253
_symmetry_Int_Tables_number   1
_chemical_formula_structural   DyHo5Al20(SiRu2)4
_chemical_formula_sum   'Dy1 Ho5 Al20 Si4 Ru8'
_cell_volume   628.25055872
_cell_formula_units_Z   1
loop_
 _symmetry_equiv_pos_site_id
 _symmetry_equiv_pos_as_xyz
  1  'x, y, z'
loop_
 _atom_site_type_symbol
 _atom_site_label
 _atom_site_symmetry_multiplicity
 _atom_site_fract_x
 _atom_site_fract_y
 _atom_site_fract_z
 _atom_site_occupancy
  Dy  Dy0  1  0.195094  0.390191  0.250000  1
  Ho  Ho1  1  0.804616  0.609230  0.750000  1
  Ho  Ho2  1  0.609348  0.804745  0.250000  1
  Ho  Ho3  1  0.390788  0.195392  0.750000  1
  Ho  Ho4  1  0.195394  0.804745  0.250000  1
  Ho  Ho5  1  0.804606  0.195392  0.750000  1
  Al  Al6  1  0.164904  0.329809  0.577320  1
  Al  Al7  1  0.835087  0.670172  0.422757  1
  Al  Al8  1  0.670176  0.835089  0.577255  1
  Al  Al9  1  0.835087  0.670172  0.077243  1
  Al  Al10  1  0.329855  0.164868  0.422791  1
  Al  Al11  1  0.164904  0.329809  0.922680  1
  Al  Al12  1  0.164912  0.835089  0.577255  1
  Al  Al13  1  0.329855  0.164868  0.077209  1
  Al  Al14  1  0.835015  0.164868  0.422791  1
  Al  Al15  1  0.670176  0.835089  0.922745  1
  Al  Al16  1  0.835015  0.164868  0.077209  1
  Al  Al17  1  0.164912  0.835089  0.922745  1
  Al  Al18  1  0.563406  0.126811  0.250000  1
  Al  Al19  1  0.436585  0.873172  0.750000  1
  Al  Al20  1  0.873012  0.436600  0.250000  1
  Al  Al21  1  0.126831  0.563419  0.750000  1
  Al  Al22  1  0.563588  0.436600  0.250000  1
  Al  Al23  1  0.436588  0.563419  0.750000  1
  Al  Al24  1  0.999923  0.999845  0.250000  1
  Al  Al25  1  0.000002  0.000003  0.750000  1
  Si  Si26  1  0.333437  0.666874  0.037132  1
  Si  Si27  1  0.666673  0.333346  0.962732  1
  Si  Si28  1  0.666673  0.333346  0.537268  1
  Si  Si29  1  0.333437  0.666874  0.462868  1
  Ru  Ru30  1  0.500018  0.000035  0.999995  1
  Ru  Ru31  1  0.999951  0.500047  0.999937  1
  Ru  Ru32  1  0.500018  0.000035  0.500005  1
  Ru  Ru33  1  0.500096  0.500047  0.999937  1
  Ru  Ru34  1  0.999951  0.500047  0.500063  1
  Ru  Ru35  1  0.500096  0.500047  0.500063  1
  Ru  Ru36  1  0.999987  0.999973  0.999989  1
  Ru  Ru37  1  0.999987  0.999973  0.500011  1
