# generated using pymatgen
data_Tb10OsRu3
_symmetry_space_group_name_H-M   'P 1'
_cell_length_a   6.39861976
_cell_length_b   7.32693649
_cell_length_c   8.52279882
_cell_angle_alpha   96.71605888
_cell_angle_beta   112.06944148
_cell_angle_gamma   89.84142676
_symmetry_Int_Tables_number   1
_chemical_formula_structural   Tb10OsRu3
_chemical_formula_sum   'Tb10 Os1 Ru3'
_cell_volume   367.38239414
_cell_formula_units_Z   1
loop_
 _symmetry_equiv_pos_site_id
 _symmetry_equiv_pos_as_xyz
  1  'x, y, z'
loop_
 _atom_site_type_symbol
 _atom_site_label
 _atom_site_symmetry_multiplicity
 _atom_site_fract_x
 _atom_site_fract_y
 _atom_site_fract_z
 _atom_site_occupancy
  Tb  Tb0  1  0.520289  0.084497  0.813511  1
  Tb  Tb1  1  0.480345  0.917390  0.187314  1
  Tb  Tb2  1  0.707878  0.415962  0.187376  1
  Tb  Tb3  1  0.294452  0.584708  0.816147  1
  Tb  Tb4  1  0.293682  0.314857  0.433843  1
  Tb  Tb5  1  0.704133  0.684367  0.565296  1
  Tb  Tb6  1  0.860651  0.184810  0.566446  1
  Tb  Tb7  1  0.140578  0.814208  0.433145  1
  Tb  Tb8  1  0.078744  0.250685  0.000459  1
  Tb  Tb9  1  0.921828  0.749514  0.000003  1
  Os  Os10  1  0.322538  0.576996  0.218281  1
  Ru  Ru11  1  0.674737  0.422153  0.779069  1
  Ru  Ru12  1  0.103327  0.924120  0.777864  1
  Ru  Ru13  1  0.896817  0.075732  0.221247  1
