# generated using pymatgen
data_NaAl2Cl7
_symmetry_space_group_name_H-M   'P 1'
_cell_length_a   9.29366762
_cell_length_b   8.52570854
_cell_length_c   6.78563111
_cell_angle_alpha   76.21679000
_cell_angle_beta   47.31326863
_cell_angle_gamma   66.89326832
_symmetry_Int_Tables_number   1
_chemical_formula_structural   NaAl2Cl7
_chemical_formula_sum   'Na1 Al2 Cl7'
_cell_volume   363.20449172
_cell_formula_units_Z   1
loop_
 _symmetry_equiv_pos_site_id
 _symmetry_equiv_pos_as_xyz
  1  'x, y, z'
loop_
 _atom_site_type_symbol
 _atom_site_label
 _atom_site_symmetry_multiplicity
 _atom_site_fract_x
 _atom_site_fract_y
 _atom_site_fract_z
 _atom_site_occupancy
  Na  Na0  1  0.739947  0.802777  0.714390  1
  Al  Al1  1  0.270470  0.545673  0.394066  1
  Al  Al2  1  0.514393  0.072703  0.437112  1
  Cl  Cl3  1  0.510884  0.066773  0.128174  1
  Cl  Cl4  1  0.097902  0.514931  0.312830  1
  Cl  Cl5  1  0.285438  0.330499  0.661856  1
  Cl  Cl6  1  0.804016  0.051925  0.308799  1
  Cl  Cl7  1  0.585489  0.525641  0.055634  1
  Cl  Cl8  1  0.395059  0.893350  0.742768  1
  Cl  Cl9  1  0.089104  0.767867  0.651513  1
