# generated using pymatgen
data_PrGaCo2NiB
_symmetry_space_group_name_H-M   'P 1'
_cell_length_a   5.22647500
_cell_length_b   5.22647569
_cell_length_c   6.69468700
_cell_angle_alpha   90.00000000
_cell_angle_beta   90.00000000
_cell_angle_gamma   119.45829510
_symmetry_Int_Tables_number   1
_chemical_formula_structural   PrGaCo2NiB
_chemical_formula_sum   'Pr2 Ga2 Co4 Ni2 B2'
_cell_volume   159.22951184
_cell_formula_units_Z   2
loop_
 _symmetry_equiv_pos_site_id
 _symmetry_equiv_pos_as_xyz
  1  'x, y, z'
loop_
 _atom_site_type_symbol
 _atom_site_label
 _atom_site_symmetry_multiplicity
 _atom_site_fract_x
 _atom_site_fract_y
 _atom_site_fract_z
 _atom_site_occupancy
  Pr  Pr0  1  0.000000  0.000000  0.000000  1
  Pr  Pr1  1  0.000000  0.000000  0.500000  1
  Ga  Ga2  1  0.331292  0.668708  0.000000  1
  Ga  Ga3  1  0.668708  0.331292  0.000000  1
  Co  Co4  1  0.500000  0.000000  0.703168  1
  Co  Co5  1  0.000000  0.500000  0.296832  1
  Co  Co6  1  0.500000  0.000000  0.296832  1
  Co  Co7  1  0.000000  0.500000  0.703168  1
  Ni  Ni8  1  0.500000  0.500000  0.705654  1
  Ni  Ni9  1  0.500000  0.500000  0.294346  1
  B  B10  1  0.328174  0.671826  0.500000  1
  B  B11  1  0.671826  0.328174  0.500000  1
