# generated using pymatgen
data_Pr2Ga(Co2P)6
_symmetry_space_group_name_H-M   'P 1'
_cell_length_a   9.21424000
_cell_length_b   9.21424007
_cell_length_c   3.62487700
_cell_angle_alpha   90.00000000
_cell_angle_beta   90.00000000
_cell_angle_gamma   119.99999352
_symmetry_Int_Tables_number   1
_chemical_formula_structural   Pr2Ga(Co2P)6
_chemical_formula_sum   'Pr2 Ga1 Co12 P6'
_cell_volume   266.52808444
_cell_formula_units_Z   1
loop_
 _symmetry_equiv_pos_site_id
 _symmetry_equiv_pos_as_xyz
  1  'x, y, z'
loop_
 _atom_site_type_symbol
 _atom_site_label
 _atom_site_symmetry_multiplicity
 _atom_site_fract_x
 _atom_site_fract_y
 _atom_site_fract_z
 _atom_site_occupancy
  Pr  Pr0  1  0.333333  0.666667  0.000000  1
  Pr  Pr1  1  0.666667  0.333333  0.500000  1
  Ga  Ga2  1  0.000000  0.000000  0.000000  1
  Co  Co3  1  0.434942  0.058614  0.000000  1
  Co  Co4  1  0.941386  0.376327  0.000000  1
  Co  Co5  1  0.623673  0.565058  0.000000  1
  Co  Co6  1  0.385804  0.435771  0.500000  1
  Co  Co7  1  0.564229  0.950033  0.500000  1
  Co  Co8  1  0.049967  0.614196  0.500000  1
  Co  Co9  1  0.159069  0.288331  0.000000  1
  Co  Co10  1  0.711669  0.870738  0.000000  1
  Co  Co11  1  0.129262  0.840931  0.000000  1
  Co  Co12  1  0.252369  0.115019  0.500000  1
  Co  Co13  1  0.884981  0.137351  0.500000  1
  Co  Co14  1  0.862649  0.747631  0.500000  1
  P  P15  1  0.103200  0.395738  0.500000  1
  P  P16  1  0.604262  0.707464  0.500000  1
  P  P17  1  0.292536  0.896800  0.500000  1
  P  P18  1  0.398094  0.291847  0.000000  1
  P  P19  1  0.708153  0.106247  0.000000  1
  P  P20  1  0.893753  0.601906  0.000000  1
