# generated using pymatgen
data_Dy3Sn4IrRh
_symmetry_space_group_name_H-M   'P 1'
_cell_length_a   7.47696300
_cell_length_b   7.47696297
_cell_length_c   4.18325100
_cell_angle_alpha   90.00000000
_cell_angle_beta   90.00000000
_cell_angle_gamma   120.00001341
_symmetry_Int_Tables_number   1
_chemical_formula_structural   Dy3Sn4IrRh
_chemical_formula_sum   'Dy3 Sn4 Ir1 Rh1'
_cell_volume   202.53260928
_cell_formula_units_Z   1
loop_
 _symmetry_equiv_pos_site_id
 _symmetry_equiv_pos_as_xyz
  1  'x, y, z'
loop_
 _atom_site_type_symbol
 _atom_site_label
 _atom_site_symmetry_multiplicity
 _atom_site_fract_x
 _atom_site_fract_y
 _atom_site_fract_z
 _atom_site_occupancy
  Dy  Dy0  1  0.976091  0.394160  0.500000  1
  Dy  Dy1  1  0.605840  0.581933  0.500000  1
  Dy  Dy2  1  0.418067  0.023909  0.500000  1
  Sn  Sn3  1  0.982334  0.743992  0.000000  1
  Sn  Sn4  1  0.256008  0.238342  0.000000  1
  Sn  Sn5  1  0.761658  0.017666  0.000000  1
  Sn  Sn6  1  0.333333  0.666667  0.000000  1
  Ir  Ir7  1  0.666667  0.333333  0.000000  1
  Rh  Rh8  1  0.000000  0.000000  0.500000  1
