# generated using pymatgen
data_Pr20Si15Tc
_symmetry_space_group_name_H-M   'P 1'
_cell_length_a   7.93632723
_cell_length_b   7.93699573
_cell_length_c   15.27342460
_cell_angle_alpha   90.21492726
_cell_angle_beta   89.96164257
_cell_angle_gamma   90.04976980
_symmetry_Int_Tables_number   1
_chemical_formula_structural   Pr20Si15Tc
_chemical_formula_sum   'Pr20 Si15 Tc1'
_cell_volume   962.07476296
_cell_formula_units_Z   1
loop_
 _symmetry_equiv_pos_site_id
 _symmetry_equiv_pos_as_xyz
  1  'x, y, z'
loop_
 _atom_site_type_symbol
 _atom_site_label
 _atom_site_symmetry_multiplicity
 _atom_site_fract_x
 _atom_site_fract_y
 _atom_site_fract_z
 _atom_site_occupancy
  Pr  Pr0  1  0.306977  0.305980  0.997810  1
  Pr  Pr1  1  0.191695  0.809457  0.249972  1
  Pr  Pr2  1  0.821934  0.189865  0.749067  1
  Pr  Pr3  1  0.695290  0.689582  0.502242  1
  Pr  Pr4  1  0.371751  0.011731  0.451030  1
  Pr  Pr5  1  0.483779  0.881634  0.696185  1
  Pr  Pr6  1  0.510745  0.123781  0.199123  1
  Pr  Pr7  1  0.876030  0.488542  0.300616  1
  Pr  Pr8  1  0.127634  0.503790  0.798367  1
  Pr  Pr9  1  0.625941  0.988034  0.949209  1
  Pr  Pr10  1  0.008587  0.376610  0.551591  1
  Pr  Pr11  1  0.988489  0.625397  0.050534  1
  Pr  Pr12  1  0.131073  0.983668  0.872558  1
  Pr  Pr13  1  0.516469  0.629282  0.126229  1
  Pr  Pr14  1  0.472365  0.360568  0.628352  1
  Pr  Pr15  1  0.628027  0.516137  0.874980  1
  Pr  Pr16  1  0.374715  0.483543  0.374101  1
  Pr  Pr17  1  0.873022  0.019419  0.376245  1
  Pr  Pr18  1  0.982560  0.127246  0.124566  1
  Pr  Pr19  1  0.025030  0.881359  0.627388  1
  Si  Si20  1  0.333282  0.695683  0.951175  1
  Si  Si21  1  0.665490  0.301697  0.450606  1
  Si  Si22  1  0.697362  0.333925  0.050499  1
  Si  Si23  1  0.303123  0.668515  0.547404  1
  Si  Si24  1  0.804611  0.832454  0.202180  1
  Si  Si25  1  0.167903  0.197977  0.298667  1
  Si  Si26  1  0.831255  0.801557  0.800059  1
  Si  Si27  1  0.288770  0.922288  0.058425  1
  Si  Si28  1  0.579441  0.787677  0.310243  1
  Si  Si29  1  0.421973  0.211277  0.811927  1
  Si  Si30  1  0.780424  0.582629  0.691656  1
  Si  Si31  1  0.211678  0.421906  0.190604  1
  Si  Si32  1  0.705738  0.075539  0.558273  1
  Si  Si33  1  0.920078  0.288214  0.941761  1
  Si  Si34  1  0.078786  0.714144  0.440922  1
  Tc  Tc35  1  0.197971  0.168891  0.695434  1
