# generated using pymatgen
data_Mg4AlGa3Pt4
_symmetry_space_group_name_H-M   'P 1'
_cell_length_a   4.00342500
_cell_length_b   6.59681013
_cell_length_c   7.89627710
_cell_angle_alpha   90.17752941
_cell_angle_beta   90.00000000
_cell_angle_gamma   90.00000000
_symmetry_Int_Tables_number   1
_chemical_formula_structural   Mg4AlGa3Pt4
_chemical_formula_sum   'Mg4 Al1 Ga3 Pt4'
_cell_volume   208.53837100
_cell_formula_units_Z   1
loop_
 _symmetry_equiv_pos_site_id
 _symmetry_equiv_pos_as_xyz
  1  'x, y, z'
loop_
 _atom_site_type_symbol
 _atom_site_label
 _atom_site_symmetry_multiplicity
 _atom_site_fract_x
 _atom_site_fract_y
 _atom_site_fract_z
 _atom_site_occupancy
  Mg  Mg0  1  0.750000  0.468373  0.170098  1
  Mg  Mg1  1  0.250000  0.031504  0.667493  1
  Mg  Mg2  1  0.750000  0.965562  0.333554  1
  Mg  Mg3  1  0.250000  0.536675  0.832050  1
  Al  Al4  1  0.250000  0.147778  0.055810  1
  Ga  Ga5  1  0.750000  0.851905  0.942041  1
  Ga  Ga6  1  0.250000  0.648411  0.440891  1
  Ga  Ga7  1  0.750000  0.347356  0.557120  1
  Pt  Pt8  1  0.750000  0.728913  0.635503  1
  Pt  Pt9  1  0.750000  0.233638  0.868533  1
  Pt  Pt10  1  0.250000  0.265988  0.360994  1
  Pt  Pt11  1  0.250000  0.773897  0.135913  1
