# generated using pymatgen
data_YbLu3Ir8
_symmetry_space_group_name_H-M   'P 1'
_cell_length_a   5.31858800
_cell_length_b   5.31858859
_cell_length_c   8.64901400
_cell_angle_alpha   90.00000000
_cell_angle_beta   90.00000000
_cell_angle_gamma   119.99999634
_symmetry_Int_Tables_number   1
_chemical_formula_structural   YbLu3Ir8
_chemical_formula_sum   'Yb1 Lu3 Ir8'
_cell_volume   211.88001480
_cell_formula_units_Z   1
loop_
 _symmetry_equiv_pos_site_id
 _symmetry_equiv_pos_as_xyz
  1  'x, y, z'
loop_
 _atom_site_type_symbol
 _atom_site_label
 _atom_site_symmetry_multiplicity
 _atom_site_fract_x
 _atom_site_fract_y
 _atom_site_fract_z
 _atom_site_occupancy
  Yb  Yb0  1  0.666667  0.333334  0.065672  1
  Lu  Lu1  1  0.666667  0.333334  0.427979  1
  Lu  Lu2  1  0.333333  0.666666  0.567646  1
  Lu  Lu3  1  0.333333  0.666666  0.936179  1
  Ir  Ir4  1  0.000000  0.000000  0.000591  1
  Ir  Ir5  1  0.170439  0.340877  0.252089  1
  Ir  Ir6  1  0.170439  0.829560  0.252089  1
  Ir  Ir7  1  0.659122  0.829560  0.252089  1
  Ir  Ir8  1  0.000000  0.000000  0.499892  1
  Ir  Ir9  1  0.340757  0.170379  0.748592  1
  Ir  Ir10  1  0.829622  0.170379  0.748592  1
  Ir  Ir11  1  0.829622  0.659244  0.748592  1
