# generated using pymatgen
data_Mn3Si2Os3
_symmetry_space_group_name_H-M   'P 1'
_cell_length_a   4.16029000
_cell_length_b   4.16028986
_cell_length_c   7.21391999
_cell_angle_alpha   73.24070055
_cell_angle_beta   90.00000000
_cell_angle_gamma   120.00000112
_symmetry_Int_Tables_number   1
_chemical_formula_structural   Mn3Si2Os3
_chemical_formula_sum   'Mn3 Si2 Os3'
_cell_volume   101.96090120
_cell_formula_units_Z   1
loop_
 _symmetry_equiv_pos_site_id
 _symmetry_equiv_pos_as_xyz
  1  'x, y, z'
loop_
 _atom_site_type_symbol
 _atom_site_label
 _atom_site_symmetry_multiplicity
 _atom_site_fract_x
 _atom_site_fract_y
 _atom_site_fract_z
 _atom_site_occupancy
  Mn  Mn0  1  0.252275  0.504549  0.243177  1
  Mn  Mn1  1  0.747203  0.494405  0.758392  1
  Mn  Mn2  1  0.624980  0.249961  0.125059  1
  Si  Si3  1  0.997573  0.995145  0.007282  1
  Si  Si4  1  0.502744  0.005488  0.491767  1
  Os  Os5  1  0.125479  0.250959  0.623563  1
  Os  Os6  1  0.875482  0.750963  0.373554  1
  Os  Os7  1  0.374264  0.748529  0.877207  1
