# generated using pymatgen
data_Pr7Nd(GeI6)2
_symmetry_space_group_name_H-M   'P 1'
_cell_length_a   4.37804400
_cell_length_b   14.55886759
_cell_length_c   15.35040900
_cell_angle_alpha   90.04022036
_cell_angle_beta   90.00000000
_cell_angle_gamma   90.00000000
_symmetry_Int_Tables_number   1
_chemical_formula_structural   Pr7Nd(GeI6)2
_chemical_formula_sum   'Pr7 Nd1 Ge2 I12'
_cell_volume   978.42504864
_cell_formula_units_Z   1
loop_
 _symmetry_equiv_pos_site_id
 _symmetry_equiv_pos_as_xyz
  1  'x, y, z'
loop_
 _atom_site_type_symbol
 _atom_site_label
 _atom_site_symmetry_multiplicity
 _atom_site_fract_x
 _atom_site_fract_y
 _atom_site_fract_z
 _atom_site_occupancy
  Pr  Pr0  1  0.500000  0.115777  0.345163  1
  Pr  Pr1  1  0.500000  0.884227  0.654851  1
  Pr  Pr2  1  0.500000  0.615514  0.154501  1
  Pr  Pr3  1  0.000000  0.114571  0.576896  1
  Pr  Pr4  1  0.000000  0.885596  0.423236  1
  Pr  Pr5  1  0.000000  0.614227  0.923264  1
  Pr  Pr6  1  0.000000  0.385678  0.076579  1
  Nd  Nd7  1  0.500000  0.384575  0.845601  1
  Ge  Ge8  1  0.500000  0.000056  0.500043  1
  Ge  Ge9  1  0.500000  0.499646  0.999540  1
  I  I10  1  0.500000  0.244094  0.161925  1
  I  I11  1  0.500000  0.755851  0.837984  1
  I  I12  1  0.500000  0.743960  0.337906  1
  I  I13  1  0.500000  0.256429  0.662779  1
  I  I14  1  0.000000  0.258727  0.414638  1
  I  I15  1  0.000000  0.741250  0.585402  1
  I  I16  1  0.000000  0.758597  0.085406  1
  I  I17  1  0.000000  0.242770  0.913500  1
  I  I18  1  0.000000  0.998421  0.240351  1
  I  I19  1  0.000000  0.001590  0.759670  1
  I  I20  1  0.000000  0.498459  0.259529  1
  I  I21  1  0.000000  0.499986  0.741237  1
