# generated using pymatgen
data_Dy2Er2MoOsC4
_symmetry_space_group_name_H-M   'P 1'
_cell_length_a   5.07248000
_cell_length_b   6.58266148
_cell_length_c   9.86182211
_cell_angle_alpha   89.18730715
_cell_angle_beta   90.00000000
_cell_angle_gamma   90.00000000
_symmetry_Int_Tables_number   1
_chemical_formula_structural   Dy2Er2MoOsC4
_chemical_formula_sum   'Dy4 Er4 Mo2 Os2 C8'
_cell_volume   329.25724481
_cell_formula_units_Z   2
loop_
 _symmetry_equiv_pos_site_id
 _symmetry_equiv_pos_as_xyz
  1  'x, y, z'
loop_
 _atom_site_type_symbol
 _atom_site_label
 _atom_site_symmetry_multiplicity
 _atom_site_fract_x
 _atom_site_fract_y
 _atom_site_fract_z
 _atom_site_occupancy
  Dy  Dy0  1  0.250000  0.539027  0.217958  1
  Dy  Dy1  1  0.750000  0.460973  0.782042  1
  Dy  Dy2  1  0.750000  0.967974  0.715432  1
  Dy  Dy3  1  0.250000  0.032026  0.284568  1
  Er  Er4  1  0.250000  0.675985  0.558202  1
  Er  Er5  1  0.750000  0.324015  0.441798  1
  Er  Er6  1  0.750000  0.826460  0.058358  1
  Er  Er7  1  0.250000  0.173540  0.941642  1
  Mo  Mo8  1  0.250000  0.715754  0.867963  1
  Mo  Mo9  1  0.750000  0.284246  0.132037  1
  Os  Os10  1  0.750000  0.780471  0.366884  1
  Os  Os11  1  0.250000  0.219529  0.633116  1
  C  C12  1  0.250000  0.447884  0.757726  1
  C  C13  1  0.750000  0.552116  0.242274  1
  C  C14  1  0.750000  0.047835  0.260696  1
  C  C15  1  0.250000  0.952165  0.739304  1
  C  C16  1  0.250000  0.826295  0.052384  1
  C  C17  1  0.750000  0.173705  0.947616  1
  C  C18  1  0.750000  0.674861  0.549151  1
  C  C19  1  0.250000  0.325139  0.450849  1
