# generated using pymatgen
data_Li3Si3GeRu5
_symmetry_space_group_name_H-M   'P 1'
_cell_length_a   4.16262000
_cell_length_b   5.09026723
_cell_length_c   7.24805742
_cell_angle_alpha   87.81103736
_cell_angle_beta   90.00000000
_cell_angle_gamma   90.00000000
_symmetry_Int_Tables_number   1
_chemical_formula_structural   Li3Si3GeRu5
_chemical_formula_sum   'Li3 Si3 Ge1 Ru5'
_cell_volume   153.46592109
_cell_formula_units_Z   1
loop_
 _symmetry_equiv_pos_site_id
 _symmetry_equiv_pos_as_xyz
  1  'x, y, z'
loop_
 _atom_site_type_symbol
 _atom_site_label
 _atom_site_symmetry_multiplicity
 _atom_site_fract_x
 _atom_site_fract_y
 _atom_site_fract_z
 _atom_site_occupancy
  Li  Li0  1  0.750000  0.496905  0.750174  1
  Li  Li1  1  0.250000  0.501076  0.251079  1
  Li  Li2  1  0.750000  0.000489  0.748164  1
  Si  Si3  1  0.250000  0.223096  0.934435  1
  Si  Si4  1  0.250000  0.777039  0.564950  1
  Si  Si5  1  0.750000  0.189405  0.405931  1
  Ge  Ge6  1  0.750000  0.814268  0.090282  1
  Ru  Ru7  1  0.250000  0.003714  0.254430  1
  Ru  Ru8  1  0.250000  0.712319  0.896777  1
  Ru  Ru9  1  0.750000  0.327438  0.079492  1
  Ru  Ru10  1  0.250000  0.285477  0.599431  1
  Ru  Ru11  1  0.750000  0.668773  0.424853  1
