# generated using pymatgen
data_Ti2ZnCo3O8
_symmetry_space_group_name_H-M   'P 1'
_cell_length_a   6.05826202
_cell_length_b   6.06085400
_cell_length_c   8.47293004
_cell_angle_alpha   90.00000000
_cell_angle_beta   90.01028491
_cell_angle_gamma   90.00000000
_symmetry_Int_Tables_number   1
_chemical_formula_structural   Ti2ZnCo3O8
_chemical_formula_sum   'Ti4 Zn2 Co6 O16'
_cell_volume   311.11108729
_cell_formula_units_Z   2
loop_
 _symmetry_equiv_pos_site_id
 _symmetry_equiv_pos_as_xyz
  1  'x, y, z'
loop_
 _atom_site_type_symbol
 _atom_site_label
 _atom_site_symmetry_multiplicity
 _atom_site_fract_x
 _atom_site_fract_y
 _atom_site_fract_z
 _atom_site_occupancy
  Ti  Ti0  1  0.500000  0.237014  0.000000  1
  Ti  Ti1  1  0.762009  0.499482  0.250169  1
  Ti  Ti2  1  0.237991  0.499482  0.749831  1
  Ti  Ti3  1  0.500000  0.762304  0.500000  1
  Zn  Zn4  1  0.252215  0.747378  0.124729  1
  Zn  Zn5  1  0.747785  0.747378  0.875271  1
  Co  Co6  1  0.252463  0.252384  0.375091  1
  Co  Co7  1  0.747537  0.252384  0.624909  1
  Co  Co8  1  0.000000  0.249399  0.000000  1
  Co  Co9  1  0.751106  0.000787  0.249222  1
  Co  Co10  1  0.248894  0.000787  0.750778  1
  Co  Co11  1  0.000000  0.752025  0.500000  1
  O  O12  1  0.975143  0.734051  0.251697  1
  O  O13  1  0.265416  0.974846  0.500730  1
  O  O14  1  0.735043  0.024735  0.000585  1
  O  O15  1  0.974986  0.264414  0.249089  1
  O  O16  1  0.024857  0.734051  0.748303  1
  O  O17  1  0.025014  0.264414  0.750911  1
  O  O18  1  0.734584  0.974846  0.499270  1
  O  O19  1  0.264957  0.024735  0.999415  1
  O  O20  1  0.514889  0.266164  0.232822  1
  O  O21  1  0.734526  0.514758  0.482869  1
  O  O22  1  0.264715  0.484122  0.982944  1
  O  O23  1  0.515892  0.736507  0.266619  1
  O  O24  1  0.485111  0.266164  0.767178  1
  O  O25  1  0.484108  0.736507  0.733381  1
  O  O26  1  0.265474  0.514758  0.517131  1
  O  O27  1  0.735285  0.484122  0.017056  1
