# generated using pymatgen
data_MoRuSeBr12
_symmetry_space_group_name_H-M   'P 1'
_cell_length_a   9.57375974
_cell_length_b   9.57375940
_cell_length_c   7.25570271
_cell_angle_alpha   69.86506888
_cell_angle_beta   69.86506039
_cell_angle_gamma   82.84622533
_symmetry_Int_Tables_number   1
_chemical_formula_structural   MoRuSeBr12
_chemical_formula_sum   'Mo1 Ru1 Se1 Br12'
_cell_volume   586.21739328
_cell_formula_units_Z   1
loop_
 _symmetry_equiv_pos_site_id
 _symmetry_equiv_pos_as_xyz
  1  'x, y, z'
loop_
 _atom_site_type_symbol
 _atom_site_label
 _atom_site_symmetry_multiplicity
 _atom_site_fract_x
 _atom_site_fract_y
 _atom_site_fract_z
 _atom_site_occupancy
  Mo  Mo0  1  0.228629  0.228629  0.774483  1
  Ru  Ru1  1  0.023596  0.023596  0.976550  1
  Se  Se2  1  0.738663  0.738663  0.258803  1
  Br  Br3  1  0.964002  0.265973  0.730562  1
  Br  Br4  1  0.265973  0.964002  0.730562  1
  Br  Br5  1  0.046738  0.770790  0.229425  1
  Br  Br6  1  0.770790  0.046738  0.229425  1
  Br  Br7  1  0.197362  0.478084  0.806284  1
  Br  Br8  1  0.478084  0.197362  0.806284  1
  Br  Br9  1  0.783666  0.497572  0.211901  1
  Br  Br10  1  0.497572  0.783666  0.211901  1
  Br  Br11  1  0.127269  0.127269  0.180188  1
  Br  Br12  1  0.896030  0.896030  0.826195  1
  Br  Br13  1  0.652286  0.652286  0.634409  1
  Br  Br14  1  0.329341  0.329341  0.393030  1
