# generated using pymatgen
data_Nb10Si4Ge2C
_symmetry_space_group_name_H-M   'P 1'
_cell_length_a   7.63896127
_cell_length_b   7.62342814
_cell_length_c   5.32167103
_cell_angle_alpha   89.98791876
_cell_angle_beta   90.00603322
_cell_angle_gamma   119.93274934
_symmetry_Int_Tables_number   1
_chemical_formula_structural   Nb10Si4Ge2C
_chemical_formula_sum   'Nb10 Si4 Ge2 C1'
_cell_volume   268.56979739
_cell_formula_units_Z   1
loop_
 _symmetry_equiv_pos_site_id
 _symmetry_equiv_pos_as_xyz
  1  'x, y, z'
loop_
 _atom_site_type_symbol
 _atom_site_label
 _atom_site_symmetry_multiplicity
 _atom_site_fract_x
 _atom_site_fract_y
 _atom_site_fract_z
 _atom_site_occupancy
  Nb  Nb0  1  0.000000  0.758620  0.255151  1
  Nb  Nb1  1  0.239280  0.239411  0.256398  1
  Nb  Nb2  1  0.760720  0.000131  0.256398  1
  Nb  Nb3  1  0.000000  0.241938  0.743779  1
  Nb  Nb4  1  0.763241  0.759447  0.743715  1
  Nb  Nb5  1  0.236759  0.996205  0.743715  1
  Nb  Nb6  1  0.330846  0.666491  0.002528  1
  Nb  Nb7  1  0.669154  0.335644  0.002528  1
  Nb  Nb8  1  0.669969  0.335896  0.498379  1
  Nb  Nb9  1  0.330031  0.665928  0.498379  1
  Si  Si10  1  0.000000  0.398481  0.239692  1
  Si  Si11  1  0.601335  0.602306  0.241760  1
  Si  Si12  1  0.398665  0.000971  0.241760  1
  Si  Si13  1  0.000000  0.599380  0.760906  1
  Ge  Ge14  1  0.400033  0.399433  0.757455  1
  Ge  Ge15  1  0.599967  0.999400  0.757455  1
  C  C16  1  0.000000  0.000320  0.500003  1
