# generated using pymatgen
data_LaCe2DyCu24
_symmetry_space_group_name_H-M   'P 1'
_cell_length_a   5.06467000
_cell_length_b   8.04634549
_cell_length_c   10.06834402
_cell_angle_alpha   90.04180059
_cell_angle_beta   90.00000000
_cell_angle_gamma   90.00000000
_symmetry_Int_Tables_number   1
_chemical_formula_structural   LaCe2DyCu24
_chemical_formula_sum   'La1 Ce2 Dy1 Cu24'
_cell_volume   410.30589803
_cell_formula_units_Z   1
loop_
 _symmetry_equiv_pos_site_id
 _symmetry_equiv_pos_as_xyz
  1  'x, y, z'
loop_
 _atom_site_type_symbol
 _atom_site_label
 _atom_site_symmetry_multiplicity
 _atom_site_fract_x
 _atom_site_fract_y
 _atom_site_fract_z
 _atom_site_occupancy
  La  La0  1  0.000000  0.259935  0.313172  1
  Ce  Ce1  1  0.500000  0.241293  0.815855  1
  Ce  Ce2  1  0.500000  0.740224  0.183912  1
  Dy  Dy3  1  0.000000  0.758277  0.684854  1
  Cu  Cu4  1  0.500000  0.354765  0.105634  1
  Cu  Cu5  1  0.500000  0.853105  0.893207  1
  Cu  Cu6  1  0.000000  0.648937  0.394963  1
  Cu  Cu7  1  0.000000  0.144250  0.608410  1
  Cu  Cu8  1  0.500000  0.682925  0.495252  1
  Cu  Cu9  1  0.500000  0.182722  0.508335  1
  Cu  Cu10  1  0.000000  0.317117  0.004072  1
  Cu  Cu11  1  0.000000  0.817475  0.991329  1
  Cu  Cu12  1  0.500000  0.935535  0.656137  1
  Cu  Cu13  1  0.500000  0.440848  0.346038  1
  Cu  Cu14  1  0.000000  0.060608  0.843977  1
  Cu  Cu15  1  0.000000  0.566340  0.153131  1
  Cu  Cu16  1  0.500000  0.603534  0.733433  1
  Cu  Cu17  1  0.500000  0.095332  0.266442  1
  Cu  Cu18  1  0.000000  0.401981  0.765619  1
  Cu  Cu19  1  0.000000  0.896894  0.233235  1
  Cu  Cu20  1  0.743493  0.063736  0.057063  1
  Cu  Cu21  1  0.255483  0.564829  0.940377  1
  Cu  Cu22  1  0.244498  0.933583  0.443313  1
  Cu  Cu23  1  0.754769  0.436801  0.560743  1
  Cu  Cu24  1  0.755502  0.933583  0.443313  1
  Cu  Cu25  1  0.245231  0.436801  0.560743  1
  Cu  Cu26  1  0.256507  0.063736  0.057063  1
  Cu  Cu27  1  0.744517  0.564829  0.940377  1
