# generated using pymatgen
data_Dy12In2Tc3
_symmetry_space_group_name_H-M   'P 1'
_cell_length_a   8.47363367
_cell_length_b   8.47347262
_cell_length_c   8.47363495
_cell_angle_alpha   108.93956203
_cell_angle_beta   108.96935798
_cell_angle_gamma   110.51055006
_symmetry_Int_Tables_number   1
_chemical_formula_structural   Dy12In2Tc3
_chemical_formula_sum   'Dy12 In2 Tc3'
_cell_volume   468.23878699
_cell_formula_units_Z   1
loop_
 _symmetry_equiv_pos_site_id
 _symmetry_equiv_pos_as_xyz
  1  'x, y, z'
loop_
 _atom_site_type_symbol
 _atom_site_label
 _atom_site_symmetry_multiplicity
 _atom_site_fract_x
 _atom_site_fract_y
 _atom_site_fract_z
 _atom_site_occupancy
  Dy  Dy0  1  0.305423  0.305337  0.610758  1
  Dy  Dy1  1  0.694577  0.694663  0.389242  1
  Dy  Dy2  1  0.694581  0.305337  0.999914  1
  Dy  Dy3  1  0.305419  0.694663  0.000086  1
  Dy  Dy4  1  0.190246  0.430536  0.240290  1
  Dy  Dy5  1  0.809754  0.569464  0.759710  1
  Dy  Dy6  1  0.190242  0.949949  0.759708  1
  Dy  Dy7  1  0.949929  0.190185  0.759749  1
  Dy  Dy8  1  0.809758  0.050051  0.240292  1
  Dy  Dy9  1  0.050071  0.809815  0.240251  1
  Dy  Dy10  1  0.430436  0.190185  0.240253  1
  Dy  Dy11  1  0.569564  0.809815  0.759747  1
  In  In12  1  0.000000  0.500000  0.500000  1
  In  In13  1  0.500000  0.000000  0.500000  1
  Tc  Tc14  1  0.372583  0.372579  0.999996  1
  Tc  Tc15  1  0.627417  0.627421  0.000004  1
  Tc  Tc16  1  0.000000  0.000000  0.000000  1
