# generated using pymatgen
data_CdCoSnO4
_symmetry_space_group_name_H-M   'P 1'
_cell_length_a   6.39373322
_cell_length_b   6.39373250
_cell_length_c   6.39373260
_cell_angle_alpha   118.97230147
_cell_angle_beta   120.49229683
_cell_angle_gamma   90.46931051
_symmetry_Int_Tables_number   1
_chemical_formula_structural   CdCoSnO4
_chemical_formula_sum   'Cd2 Co2 Sn2 O8'
_cell_volume   185.52045213
_cell_formula_units_Z   2
loop_
 _symmetry_equiv_pos_site_id
 _symmetry_equiv_pos_as_xyz
  1  'x, y, z'
loop_
 _atom_site_type_symbol
 _atom_site_label
 _atom_site_symmetry_multiplicity
 _atom_site_fract_x
 _atom_site_fract_y
 _atom_site_fract_z
 _atom_site_occupancy
  Cd  Cd0  1  0.138971  0.888971  0.250000  1
  Cd  Cd1  1  0.861029  0.111029  0.750000  1
  Co  Co2  1  0.000000  0.500000  0.500000  1
  Co  Co3  1  0.500000  0.500000  0.000000  1
  Sn  Sn4  1  0.500000  0.000000  0.000000  1
  Sn  Sn5  1  0.500000  0.500000  0.500000  1
  O  O6  1  0.728642  0.262406  0.033763  1
  O  O7  1  0.724346  0.256408  0.467939  1
  O  O8  1  0.728642  0.694880  0.466237  1
  O  O9  1  0.288467  0.256408  0.032061  1
  O  O10  1  0.711533  0.743592  0.967939  1
  O  O11  1  0.275654  0.743592  0.532061  1
  O  O12  1  0.271358  0.305120  0.533763  1
  O  O13  1  0.271358  0.737594  0.966237  1
