# generated using pymatgen
data_La9Ce(Mg2Ru3)2
_symmetry_space_group_name_H-M   'P 1'
_cell_length_a   8.67799500
_cell_length_b   8.79597231
_cell_length_c   8.79597300
_cell_angle_alpha   109.74132066
_cell_angle_beta   109.19974749
_cell_angle_gamma   109.19974578
_symmetry_Int_Tables_number   1
_chemical_formula_structural   La9Ce(Mg2Ru3)2
_chemical_formula_sum   'La9 Ce1 Mg4 Ru6'
_cell_volume   518.57234564
_cell_formula_units_Z   1
loop_
 _symmetry_equiv_pos_site_id
 _symmetry_equiv_pos_as_xyz
  1  'x, y, z'
loop_
 _atom_site_type_symbol
 _atom_site_label
 _atom_site_symmetry_multiplicity
 _atom_site_fract_x
 _atom_site_fract_y
 _atom_site_fract_z
 _atom_site_occupancy
  La  La0  1  0.256751  0.321113  0.070810  1
  La  La1  1  0.708761  0.717967  0.211551  1
  La  La2  1  0.185942  0.929190  0.250303  1
  La  La3  1  0.990793  0.493584  0.282034  1
  La  La4  1  0.748652  0.179205  0.424082  1
  La  La5  1  0.497212  0.788451  0.506418  1
  La  La6  1  0.935638  0.749697  0.678887  1
  La  La7  1  0.324569  0.575918  0.755123  1
  La  La8  1  0.569446  0.244877  0.820794  1
  Ce  Ce9  1  0.812702  0.000000  0.000000  1
  Mg  Mg10  1  0.413589  0.000000  0.000000  1
  Mg  Mg11  1  0.495870  0.402601  0.498316  1
  Mg  Mg12  1  0.093267  0.095714  0.597399  1
  Mg  Mg13  1  0.997553  0.501684  0.904286  1
  Ru  Ru14  1  0.383473  0.753696  0.137622  1
  Ru  Ru15  1  0.629776  0.383926  0.246304  1
  Ru  Ru16  1  0.091800  0.222812  0.342432  1
  Ru  Ru17  1  0.245851  0.862378  0.616075  1
  Ru  Ru18  1  0.868989  0.119620  0.777188  1
  Ru  Ru19  1  0.749368  0.657568  0.880380  1
