# generated using pymatgen
data_Li3Tm3InGaAs
_symmetry_space_group_name_H-M   'P 1'
_cell_length_a   7.09442800
_cell_length_b   7.09442774
_cell_length_c   4.24944000
_cell_angle_alpha   90.00000000
_cell_angle_beta   90.00000000
_cell_angle_gamma   120.00001052
_symmetry_Int_Tables_number   1
_chemical_formula_structural   Li3Tm3InGaAs
_chemical_formula_sum   'Li3 Tm3 In1 Ga1 As1'
_cell_volume   185.22390779
_cell_formula_units_Z   1
loop_
 _symmetry_equiv_pos_site_id
 _symmetry_equiv_pos_as_xyz
  1  'x, y, z'
loop_
 _atom_site_type_symbol
 _atom_site_label
 _atom_site_symmetry_multiplicity
 _atom_site_fract_x
 _atom_site_fract_y
 _atom_site_fract_z
 _atom_site_occupancy
  Li  Li0  1  0.248299  0.997792  0.500000  1
  Li  Li1  1  0.002208  0.250507  0.500000  1
  Li  Li2  1  0.749493  0.751701  0.500000  1
  Tm  Tm3  1  0.561391  0.004492  0.000000  1
  Tm  Tm4  1  0.995508  0.556899  0.000000  1
  Tm  Tm5  1  0.443101  0.438609  0.000000  1
  In  In6  1  0.000000  0.000000  0.000000  1
  Ga  Ga7  1  0.666667  0.333333  0.500000  1
  As  As8  1  0.333333  0.666667  0.500000  1
