# generated using pymatgen
data_Sr(Ti3S4)4
_symmetry_space_group_name_H-M   'P 1'
_cell_length_a   6.83648887
_cell_length_b   9.44162158
_cell_length_c   10.03519823
_cell_angle_alpha   118.06963398
_cell_angle_beta   109.89507808
_cell_angle_gamma   90.03074905
_symmetry_Int_Tables_number   1
_chemical_formula_structural   Sr(Ti3S4)4
_chemical_formula_sum   'Sr1 Ti12 S16'
_cell_volume   527.27298135
_cell_formula_units_Z   1
loop_
 _symmetry_equiv_pos_site_id
 _symmetry_equiv_pos_as_xyz
  1  'x, y, z'
loop_
 _atom_site_type_symbol
 _atom_site_label
 _atom_site_symmetry_multiplicity
 _atom_site_fract_x
 _atom_site_fract_y
 _atom_site_fract_z
 _atom_site_occupancy
  Sr  Sr0  1  0.000000  0.000000  0.000000  1
  Ti  Ti1  1  0.556851  0.355669  0.866693  1
  Ti  Ti2  1  0.060472  0.358703  0.868038  1
  Ti  Ti3  1  0.371400  0.132147  0.488955  1
  Ti  Ti4  1  0.868298  0.133265  0.490127  1
  Ti  Ti5  1  0.444940  0.509971  0.643376  1
  Ti  Ti6  1  0.948256  0.511254  0.643366  1
  Ti  Ti7  1  0.939528  0.641297  0.131962  1
  Ti  Ti8  1  0.443149  0.644331  0.133307  1
  Ti  Ti9  1  0.131702  0.866735  0.509873  1
  Ti  Ti10  1  0.628600  0.867853  0.511045  1
  Ti  Ti11  1  0.051744  0.488746  0.356634  1
  Ti  Ti12  1  0.555060  0.490029  0.356624  1
  S  S13  1  0.974247  0.049656  0.697363  1
  S  S14  1  0.472272  0.049891  0.695792  1
  S  S15  1  0.801369  0.303936  0.354091  1
  S  S16  1  0.301483  0.302828  0.352065  1
  S  S17  1  0.101288  0.649442  0.951460  1
  S  S18  1  0.599807  0.645551  0.949923  1
  S  S19  1  0.527728  0.950109  0.304208  1
  S  S20  1  0.025753  0.950344  0.302637  1
  S  S21  1  0.698517  0.697172  0.647935  1
  S  S22  1  0.198631  0.696064  0.645909  1
  S  S23  1  0.400193  0.354449  0.050077  1
  S  S24  1  0.898712  0.350558  0.048540  1
  S  S25  1  0.792263  0.667562  0.334116  1
  S  S26  1  0.291396  0.665947  0.332932  1
  S  S27  1  0.708604  0.334053  0.667068  1
  S  S28  1  0.207737  0.332438  0.665884  1
