# generated using pymatgen
data_Dy8In3Tc
_symmetry_space_group_name_H-M   'P 1'
_cell_length_a   10.43008300
_cell_length_b   10.43007298
_cell_length_c   7.05456100
_cell_angle_alpha   90.00000000
_cell_angle_beta   90.00000000
_cell_angle_gamma   119.99995784
_symmetry_Int_Tables_number   1
_chemical_formula_structural   Dy8In3Tc
_chemical_formula_sum   'Dy16 In6 Tc2'
_cell_volume   664.62384858
_cell_formula_units_Z   2
loop_
 _symmetry_equiv_pos_site_id
 _symmetry_equiv_pos_as_xyz
  1  'x, y, z'
loop_
 _atom_site_type_symbol
 _atom_site_label
 _atom_site_symmetry_multiplicity
 _atom_site_fract_x
 _atom_site_fract_y
 _atom_site_fract_z
 _atom_site_occupancy
  Dy  Dy0  1  0.531759  0.063530  0.796691  1
  Dy  Dy1  1  0.936484  0.468243  0.796699  1
  Dy  Dy2  1  0.531759  0.468229  0.796691  1
  Dy  Dy3  1  0.468241  0.936470  0.296691  1
  Dy  Dy4  1  0.063516  0.531757  0.296699  1
  Dy  Dy5  1  0.468241  0.531771  0.296691  1
  Dy  Dy6  1  0.822841  0.645678  0.499695  1
  Dy  Dy7  1  0.354325  0.177162  0.499688  1
  Dy  Dy8  1  0.822841  0.177164  0.499695  1
  Dy  Dy9  1  0.177159  0.354322  0.999695  1
  Dy  Dy10  1  0.645675  0.822838  0.999688  1
  Dy  Dy11  1  0.177159  0.822836  0.999695  1
  Dy  Dy12  1  0.666666  0.333332  0.168350  1
  Dy  Dy13  1  0.333334  0.666668  0.668350  1
  Dy  Dy14  1  0.999987  0.999993  0.776208  1
  Dy  Dy15  1  0.000013  0.000007  0.276208  1
  In  In16  1  0.837110  0.674207  0.038009  1
  In  In17  1  0.325781  0.162891  0.038002  1
  In  In18  1  0.837110  0.162904  0.038009  1
  In  In19  1  0.162890  0.325793  0.538009  1
  In  In20  1  0.674219  0.837109  0.538002  1
  In  In21  1  0.162890  0.837096  0.538009  1
  Tc  Tc22  1  0.666673  0.333336  0.570216  1
  Tc  Tc23  1  0.333327  0.666664  0.070216  1
