# generated using pymatgen
data_Y8CdInPd23
_symmetry_space_group_name_H-M   'P 1'
_cell_length_a   8.32903200
_cell_length_b   8.41979000
_cell_length_c   8.41979000
_cell_angle_alpha   90.00000000
_cell_angle_beta   90.00000000
_cell_angle_gamma   90.00000000
_symmetry_Int_Tables_number   1
_chemical_formula_structural   Y8CdInPd23
_chemical_formula_sum   'Y8 Cd1 In1 Pd23'
_cell_volume   590.46892986
_cell_formula_units_Z   1
loop_
 _symmetry_equiv_pos_site_id
 _symmetry_equiv_pos_as_xyz
  1  'x, y, z'
loop_
 _atom_site_type_symbol
 _atom_site_label
 _atom_site_symmetry_multiplicity
 _atom_site_fract_x
 _atom_site_fract_y
 _atom_site_fract_z
 _atom_site_occupancy
  Y  Y0  1  0.250411  0.241050  0.241050  1
  Y  Y1  1  0.748432  0.747799  0.747799  1
  Y  Y2  1  0.748432  0.747799  0.252201  1
  Y  Y3  1  0.748432  0.252201  0.747799  1
  Y  Y4  1  0.250411  0.241050  0.758950  1
  Y  Y5  1  0.250411  0.758950  0.241050  1
  Y  Y6  1  0.250411  0.758950  0.758950  1
  Y  Y7  1  0.748432  0.252201  0.252201  1
  Cd  Cd8  1  0.258125  0.500000  0.500000  1
  In  In9  1  0.998965  0.000000  0.000000  1
  Pd  Pd10  1  0.263937  0.500000  0.000000  1
  Pd  Pd11  1  0.734483  0.500000  0.000000  1
  Pd  Pd12  1  0.004097  0.264290  0.500000  1
  Pd  Pd13  1  0.501715  0.267774  0.000000  1
  Pd  Pd14  1  0.004097  0.735710  0.500000  1
  Pd  Pd15  1  0.501715  0.732226  0.000000  1
  Pd  Pd16  1  0.501715  0.000000  0.267774  1
  Pd  Pd17  1  0.263937  0.000000  0.500000  1
  Pd  Pd18  1  0.501715  0.000000  0.732226  1
  Pd  Pd19  1  0.734483  0.000000  0.500000  1
  Pd  Pd20  1  0.004097  0.500000  0.264290  1
  Pd  Pd21  1  0.004097  0.500000  0.735710  1
  Pd  Pd22  1  0.746150  0.500000  0.500000  1
  Pd  Pd23  1  0.496543  0.252790  0.500000  1
  Pd  Pd24  1  0.496543  0.747210  0.500000  1
  Pd  Pd25  1  0.496543  0.500000  0.252790  1
  Pd  Pd26  1  0.496543  0.500000  0.747210  1
  Pd  Pd27  1  0.315239  0.000000  0.000000  1
  Pd  Pd28  1  0.687315  0.000000  0.000000  1
  Pd  Pd29  1  0.998143  0.308881  0.000000  1
  Pd  Pd30  1  0.998143  0.691119  0.000000  1
  Pd  Pd31  1  0.998143  0.000000  0.308881  1
  Pd  Pd32  1  0.998143  0.000000  0.691119  1
