# generated using pymatgen
data_TbEr2Cd3Pd2
_symmetry_space_group_name_H-M   'P 1'
_cell_length_a   7.60171300
_cell_length_b   7.62331766
_cell_length_c   3.68793600
_cell_angle_alpha   90.00000000
_cell_angle_beta   90.00000000
_cell_angle_gamma   119.90629112
_symmetry_Int_Tables_number   1
_chemical_formula_structural   TbEr2Cd3Pd2
_chemical_formula_sum   'Tb1 Er2 Cd3 Pd2'
_cell_volume   185.25878522
_cell_formula_units_Z   1
loop_
 _symmetry_equiv_pos_site_id
 _symmetry_equiv_pos_as_xyz
  1  'x, y, z'
loop_
 _atom_site_type_symbol
 _atom_site_label
 _atom_site_symmetry_multiplicity
 _atom_site_fract_x
 _atom_site_fract_y
 _atom_site_fract_z
 _atom_site_occupancy
  Tb  Tb0  1  0.581122  0.000000  0.500000  1
  Er  Er1  1  0.419208  0.418564  0.500000  1
  Er  Er2  1  0.000644  0.581436  0.500000  1
  Cd  Cd3  1  0.230264  0.000000  0.000000  1
  Cd  Cd4  1  0.001271  0.232968  0.000000  1
  Cd  Cd5  1  0.768303  0.767032  0.000000  1
  Pd  Pd6  1  0.667905  0.336624  0.000000  1
  Pd  Pd7  1  0.331282  0.663376  0.000000  1
