# generated using pymatgen
data_Tb5LuSi24OsRu7
_symmetry_space_group_name_H-M   'P 1'
_cell_length_a   10.11488006
_cell_length_b   10.11487992
_cell_length_c   8.15263350
_cell_angle_alpha   90.01420565
_cell_angle_beta   90.01420479
_cell_angle_gamma   132.47296434
_symmetry_Int_Tables_number   1
_chemical_formula_structural   Tb5LuSi24OsRu7
_chemical_formula_sum   'Tb5 Lu1 Si24 Os1 Ru7'
_cell_volume   615.23053454
_cell_formula_units_Z   1
loop_
 _symmetry_equiv_pos_site_id
 _symmetry_equiv_pos_as_xyz
  1  'x, y, z'
loop_
 _atom_site_type_symbol
 _atom_site_label
 _atom_site_symmetry_multiplicity
 _atom_site_fract_x
 _atom_site_fract_y
 _atom_site_fract_z
 _atom_site_occupancy
  Tb  Tb0  1  0.000037  0.999963  0.000000  1
  Tb  Tb1  1  0.502380  0.002168  0.749887  1
  Tb  Tb2  1  0.997832  0.497620  0.250113  1
  Tb  Tb3  1  0.497760  0.997557  0.249964  1
  Tb  Tb4  1  0.002443  0.502240  0.750036  1
  Lu  Lu5  1  0.500046  0.499954  0.500000  1
  Si  Si6  1  0.795015  0.204985  0.500000  1
  Si  Si7  1  0.294857  0.705143  0.000000  1
  Si  Si8  1  0.205597  0.794403  0.500000  1
  Si  Si9  1  0.705281  0.294719  0.000000  1
  Si  Si10  1  0.331771  0.332079  0.833097  1
  Si  Si11  1  0.667921  0.668229  0.166903  1
  Si  Si12  1  0.167339  0.167194  0.332432  1
  Si  Si13  1  0.832806  0.832661  0.667568  1
  Si  Si14  1  0.121263  0.887027  0.728306  1
  Si  Si15  1  0.112973  0.878737  0.271694  1
  Si  Si16  1  0.611717  0.378424  0.227577  1
  Si  Si17  1  0.621576  0.388283  0.772423  1
  Si  Si18  1  0.877954  0.112031  0.271190  1
  Si  Si19  1  0.887969  0.122046  0.728810  1
  Si  Si20  1  0.388222  0.622084  0.771348  1
  Si  Si21  1  0.377916  0.611778  0.228652  1
  Si  Si22  1  0.343984  0.111148  0.504867  1
  Si  Si23  1  0.888852  0.656016  0.495133  1
  Si  Si24  1  0.387838  0.154430  0.004295  1
  Si  Si25  1  0.845570  0.612162  0.995705  1
  Si  Si26  1  0.654069  0.887491  0.493906  1
  Si  Si27  1  0.112509  0.345931  0.506094  1
  Si  Si28  1  0.611992  0.845360  0.995672  1
  Si  Si29  1  0.154640  0.388008  0.004328  1
  Os  Os30  1  0.668130  0.331870  0.500000  1
  Ru  Ru31  1  0.169092  0.830908  0.000000  1
  Ru  Ru32  1  0.331922  0.668078  0.500000  1
  Ru  Ru33  1  0.830923  0.169077  0.000000  1
  Ru  Ru34  1  0.127747  0.127995  0.625143  1
  Ru  Ru35  1  0.872005  0.872253  0.374857  1
  Ru  Ru36  1  0.375374  0.375318  0.128694  1
  Ru  Ru37  1  0.624682  0.624626  0.871306  1
