# generated using pymatgen
data_DyY3(SiPt2)4
_symmetry_space_group_name_H-M   'P 1'
_cell_length_a   5.53272203
_cell_length_b   6.97674800
_cell_length_c   7.36427904
_cell_angle_alpha   90.00000000
_cell_angle_beta   89.98749757
_cell_angle_gamma   90.00000000
_symmetry_Int_Tables_number   1
_chemical_formula_structural   DyY3(SiPt2)4
_chemical_formula_sum   'Dy1 Y3 Si4 Pt8'
_cell_volume   284.26416437
_cell_formula_units_Z   1
loop_
 _symmetry_equiv_pos_site_id
 _symmetry_equiv_pos_as_xyz
  1  'x, y, z'
loop_
 _atom_site_type_symbol
 _atom_site_label
 _atom_site_symmetry_multiplicity
 _atom_site_fract_x
 _atom_site_fract_y
 _atom_site_fract_z
 _atom_site_occupancy
  Dy  Dy0  1  0.363253  0.750000  0.028114  1
  Y  Y1  1  0.136021  0.750000  0.528111  1
  Y  Y2  1  0.636097  0.250000  0.971794  1
  Y  Y3  1  0.863955  0.250000  0.471850  1
  Si  Si4  1  0.637340  0.750000  0.379966  1
  Si  Si5  1  0.862458  0.750000  0.880139  1
  Si  Si6  1  0.362618  0.250000  0.619942  1
  Si  Si7  1  0.137201  0.250000  0.120002  1
  Pt  Pt8  1  0.907331  0.550753  0.180516  1
  Pt  Pt9  1  0.592880  0.949281  0.680763  1
  Pt  Pt10  1  0.093471  0.050227  0.819738  1
  Pt  Pt11  1  0.406847  0.449699  0.319025  1
  Pt  Pt12  1  0.093471  0.449773  0.819738  1
  Pt  Pt13  1  0.406847  0.050301  0.319025  1
  Pt  Pt14  1  0.907331  0.949247  0.180516  1
  Pt  Pt15  1  0.592880  0.550719  0.680763  1
