# generated using pymatgen
data_Tm4B16Mo2IrRh
_symmetry_space_group_name_H-M   'P 1'
_cell_length_a   3.56946200
_cell_length_b   5.97011990
_cell_length_c   11.55391528
_cell_angle_alpha   90.36029720
_cell_angle_beta   90.00000000
_cell_angle_gamma   90.00000000
_symmetry_Int_Tables_number   1
_chemical_formula_structural   Tm4B16Mo2IrRh
_chemical_formula_sum   'Tm4 B16 Mo2 Ir1 Rh1'
_cell_volume   246.21040826
_cell_formula_units_Z   1
loop_
 _symmetry_equiv_pos_site_id
 _symmetry_equiv_pos_as_xyz
  1  'x, y, z'
loop_
 _atom_site_type_symbol
 _atom_site_label
 _atom_site_symmetry_multiplicity
 _atom_site_fract_x
 _atom_site_fract_y
 _atom_site_fract_z
 _atom_site_occupancy
  Tm  Tm0  1  0.000000  0.128689  0.650295  1
  Tm  Tm1  1  0.000000  0.871391  0.349462  1
  Tm  Tm2  1  0.000000  0.630406  0.851923  1
  Tm  Tm3  1  0.000000  0.369770  0.147994  1
  B  B4  1  0.500000  0.792629  0.687959  1
  B  B5  1  0.500000  0.207245  0.311893  1
  B  B6  1  0.500000  0.290458  0.814342  1
  B  B7  1  0.500000  0.709849  0.185498  1
  B  B8  1  0.500000  0.868190  0.531931  1
  B  B9  1  0.500000  0.131853  0.468017  1
  B  B10  1  0.500000  0.365083  0.969976  1
  B  B11  1  0.500000  0.635055  0.030302  1
  B  B12  1  0.500000  0.022115  0.192253  1
  B  B13  1  0.500000  0.977449  0.807972  1
  B  B14  1  0.500000  0.523066  0.304579  1
  B  B15  1  0.500000  0.477294  0.695265  1
  B  B16  1  0.500000  0.113626  0.047430  1
  B  B17  1  0.500000  0.886816  0.952156  1
  B  B18  1  0.500000  0.614962  0.452615  1
  B  B19  1  0.500000  0.385148  0.547416  1
  Mo  Mo20  1  0.000000  0.629372  0.586407  1
  Mo  Mo21  1  0.000000  0.370537  0.414012  1
  Ir  Ir22  1  0.000000  0.143942  0.906006  1
  Rh  Rh23  1  0.000000  0.855057  0.094300  1
