# generated using pymatgen
data_Hf2Ta3Os
_symmetry_space_group_name_H-M   'P 1'
_cell_length_a   5.60457900
_cell_length_b   5.60457806
_cell_length_c   8.52610300
_cell_angle_alpha   90.00000000
_cell_angle_beta   90.00000000
_cell_angle_gamma   119.99999962
_symmetry_Int_Tables_number   1
_chemical_formula_structural   Hf2Ta3Os
_chemical_formula_sum   'Hf4 Ta6 Os2'
_cell_volume   231.93544626
_cell_formula_units_Z   2
loop_
 _symmetry_equiv_pos_site_id
 _symmetry_equiv_pos_as_xyz
  1  'x, y, z'
loop_
 _atom_site_type_symbol
 _atom_site_label
 _atom_site_symmetry_multiplicity
 _atom_site_fract_x
 _atom_site_fract_y
 _atom_site_fract_z
 _atom_site_occupancy
  Hf  Hf0  1  0.333333  0.666667  0.438585  1
  Hf  Hf1  1  0.666667  0.333333  0.561415  1
  Hf  Hf2  1  0.666667  0.333333  0.938585  1
  Hf  Hf3  1  0.333333  0.666667  0.061415  1
  Ta  Ta4  1  0.831622  0.168378  0.250000  1
  Ta  Ta5  1  0.831622  0.663244  0.250000  1
  Ta  Ta6  1  0.336756  0.168378  0.250000  1
  Ta  Ta7  1  0.168378  0.831622  0.750000  1
  Ta  Ta8  1  0.168378  0.336756  0.750000  1
  Ta  Ta9  1  0.663244  0.831622  0.750000  1
  Os  Os10  1  0.000000  0.000000  0.500000  1
  Os  Os11  1  0.000000  0.000000  0.000000  1
