# generated using pymatgen
data_Ac2SeO5
_symmetry_space_group_name_H-M   'P 1'
_cell_length_a   9.17588717
_cell_length_b   9.17588650
_cell_length_c   11.74046900
_cell_angle_alpha   90.00000000
_cell_angle_beta   90.00000000
_cell_angle_gamma   142.28596587
_symmetry_Int_Tables_number   1
_chemical_formula_structural   Ac2SeO5
_chemical_formula_sum   'Ac8 Se4 O20'
_cell_volume   604.69281696
_cell_formula_units_Z   4
loop_
 _symmetry_equiv_pos_site_id
 _symmetry_equiv_pos_as_xyz
  1  'x, y, z'
loop_
 _atom_site_type_symbol
 _atom_site_label
 _atom_site_symmetry_multiplicity
 _atom_site_fract_x
 _atom_site_fract_y
 _atom_site_fract_z
 _atom_site_occupancy
  Ac  Ac0  1  0.759737  0.259737  0.611530  1
  Ac  Ac1  1  0.259737  0.759737  0.388470  1
  Ac  Ac2  1  0.250207  0.750207  0.883385  1
  Ac  Ac3  1  0.750207  0.250207  0.116615  1
  Ac  Ac4  1  0.907056  0.077314  0.386515  1
  Ac  Ac5  1  0.077314  0.907056  0.613485  1
  Ac  Ac6  1  0.407056  0.577314  0.613485  1
  Ac  Ac7  1  0.577314  0.407056  0.386515  1
  Se  Se8  1  0.388742  0.572925  0.133918  1
  Se  Se9  1  0.572925  0.388742  0.866082  1
  Se  Se10  1  0.888742  0.072925  0.866082  1
  Se  Se11  1  0.072925  0.888742  0.133918  1
  O  O12  1  0.138201  0.442050  0.206398  1
  O  O13  1  0.442050  0.138201  0.793602  1
  O  O14  1  0.638201  0.942050  0.793602  1
  O  O15  1  0.942050  0.638201  0.206398  1
  O  O16  1  0.583809  0.912029  0.506255  1
  O  O17  1  0.912029  0.583809  0.493745  1
  O  O18  1  0.083809  0.412029  0.493745  1
  O  O19  1  0.412029  0.083809  0.506255  1
  O  O20  1  0.136261  0.636261  0.706045  1
  O  O21  1  0.636261  0.136261  0.293955  1
  O  O22  1  0.498652  0.816732  0.067493  1
  O  O23  1  0.816732  0.498652  0.932507  1
  O  O24  1  0.193185  0.080628  0.244855  1
  O  O25  1  0.080628  0.193185  0.755145  1
  O  O26  1  0.693185  0.580628  0.755145  1
  O  O27  1  0.580628  0.693185  0.244855  1
  O  O28  1  0.244992  0.244992  0.500000  1
  O  O29  1  0.744992  0.744992  0.500000  1
  O  O30  1  0.316732  0.998652  0.067493  1
  O  O31  1  0.998652  0.316732  0.932507  1
