# generated using pymatgen
data_Ba5Tb3Y5Ni4O21
_symmetry_space_group_name_H-M   'P 1'
_cell_length_a   10.22351538
_cell_length_b   10.22351481
_cell_length_c   10.22452200
_cell_angle_alpha   94.53739478
_cell_angle_beta   94.53865409
_cell_angle_gamma   147.32464099
_symmetry_Int_Tables_number   1
_chemical_formula_structural   Ba5Tb3Y5Ni4O21
_chemical_formula_sum   'Ba5 Tb3 Y5 Ni4 O21'
_cell_volume   553.65932592
_cell_formula_units_Z   1
loop_
 _symmetry_equiv_pos_site_id
 _symmetry_equiv_pos_as_xyz
  1  'x, y, z'
loop_
 _atom_site_type_symbol
 _atom_site_label
 _atom_site_symmetry_multiplicity
 _atom_site_fract_x
 _atom_site_fract_y
 _atom_site_fract_z
 _atom_site_occupancy
  Ba  Ba0  1  0.000001  0.999990  0.999991  1
  Ba  Ba1  1  0.138268  0.534830  0.673098  1
  Ba  Ba2  1  0.861727  0.465165  0.326893  1
  Ba  Ba3  1  0.465171  0.138264  0.603435  1
  Ba  Ba4  1  0.534817  0.861732  0.396550  1
  Tb  Tb5  1  0.166797  0.249804  0.416601  1
  Tb  Tb6  1  0.833210  0.750197  0.583408  1
  Tb  Tb7  1  0.750201  0.166804  0.917006  1
  Y  Y8  1  0.249866  0.833191  0.083057  1
  Y  Y9  1  0.357641  0.410630  0.768271  1
  Y  Y10  1  0.642363  0.589368  0.231731  1
  Y  Y11  1  0.589377  0.357631  0.947008  1
  Y  Y12  1  0.410609  0.642379  0.052988  1
  Ni  Ni13  1  0.246438  0.040937  0.287376  1
  Ni  Ni14  1  0.753555  0.959078  0.712631  1
  Ni  Ni15  1  0.959077  0.246457  0.205535  1
  Ni  Ni16  1  0.040941  0.753571  0.794511  1
  O  O17  1  0.500008  0.500000  0.000008  1
  O  O18  1  0.963039  0.630074  0.593113  1
  O  O19  1  0.036949  0.369926  0.406876  1
  O  O20  1  0.369895  0.963017  0.332914  1
  O  O21  1  0.630067  0.036954  0.667019  1
  O  O22  1  0.295356  0.427606  0.225720  1
  O  O23  1  0.201893  0.069643  0.774278  1
  O  O24  1  0.069634  0.295356  0.867751  1
  O  O25  1  0.427543  0.201748  0.132233  1
  O  O26  1  0.704634  0.572385  0.774278  1
  O  O27  1  0.798115  0.930365  0.225720  1
  O  O28  1  0.930487  0.704690  0.132233  1
  O  O29  1  0.572395  0.798116  0.867751  1
  O  O30  1  0.496702  0.607672  0.595125  1
  O  O31  1  0.012539  0.901573  0.404871  1
  O  O32  1  0.901678  0.496806  0.889056  1
  O  O33  1  0.607519  0.012471  0.110955  1
  O  O34  1  0.503299  0.392333  0.404871  1
  O  O35  1  0.987453  0.098422  0.595125  1
  O  O36  1  0.098484  0.503436  0.110955  1
  O  O37  1  0.392250  0.987378  0.889056  1
