# generated using pymatgen
data_Pr6Al21Si3Os8
_symmetry_space_group_name_H-M   'P 1'
_cell_length_a   8.84463900
_cell_length_b   8.84463783
_cell_length_c   9.73037700
_cell_angle_alpha   90.00000000
_cell_angle_beta   90.00000000
_cell_angle_gamma   120.00000063
_symmetry_Int_Tables_number   1
_chemical_formula_structural   Pr6Al21Si3Os8
_chemical_formula_sum   'Pr6 Al21 Si3 Os8'
_cell_volume   659.20495307
_cell_formula_units_Z   1
loop_
 _symmetry_equiv_pos_site_id
 _symmetry_equiv_pos_as_xyz
  1  'x, y, z'
loop_
 _atom_site_type_symbol
 _atom_site_label
 _atom_site_symmetry_multiplicity
 _atom_site_fract_x
 _atom_site_fract_y
 _atom_site_fract_z
 _atom_site_occupancy
  Pr  Pr0  1  0.192622  0.385243  0.247082  1
  Pr  Pr1  1  0.806152  0.612304  0.753126  1
  Pr  Pr2  1  0.614757  0.807378  0.247082  1
  Pr  Pr3  1  0.387696  0.193848  0.753126  1
  Pr  Pr4  1  0.192622  0.807378  0.247082  1
  Pr  Pr5  1  0.806152  0.193848  0.753126  1
  Al  Al6  1  0.333333  0.666667  0.489021  1
  Al  Al7  1  0.163513  0.327025  0.571236  1
  Al  Al8  1  0.835926  0.671852  0.426146  1
  Al  Al9  1  0.672975  0.836487  0.571236  1
  Al  Al10  1  0.835784  0.671569  0.073926  1
  Al  Al11  1  0.328148  0.164074  0.426146  1
  Al  Al12  1  0.164407  0.328814  0.926607  1
  Al  Al13  1  0.163513  0.836487  0.571236  1
  Al  Al14  1  0.328431  0.164216  0.073926  1
  Al  Al15  1  0.835926  0.164074  0.426146  1
  Al  Al16  1  0.671186  0.835593  0.926607  1
  Al  Al17  1  0.835784  0.164216  0.073926  1
  Al  Al18  1  0.164407  0.835593  0.926607  1
  Al  Al19  1  0.564617  0.129234  0.248553  1
  Al  Al20  1  0.435936  0.871873  0.748628  1
  Al  Al21  1  0.870766  0.435383  0.248553  1
  Al  Al22  1  0.128127  0.564064  0.748628  1
  Al  Al23  1  0.564617  0.435383  0.248553  1
  Al  Al24  1  0.435936  0.564064  0.748628  1
  Al  Al25  1  0.000000  0.000000  0.249324  1
  Al  Al26  1  0.000000  0.000000  0.749718  1
  Si  Si27  1  0.333333  0.666667  0.025026  1
  Si  Si28  1  0.666667  0.333333  0.974405  1
  Si  Si29  1  0.666667  0.333333  0.527212  1
  Os  Os30  1  0.499456  0.998911  0.999130  1
  Os  Os31  1  0.001089  0.500544  0.999130  1
  Os  Os32  1  0.504426  0.008852  0.501043  1
  Os  Os33  1  0.499456  0.500544  0.999130  1
  Os  Os34  1  0.991148  0.495574  0.501043  1
  Os  Os35  1  0.504426  0.495574  0.501043  1
  Os  Os36  1  0.000000  0.000000  0.999421  1
  Os  Os37  1  0.000000  0.000000  0.499439  1
