# generated using pymatgen
data_Tb3Al11CoSiOs3
_symmetry_space_group_name_H-M   'P 1'
_cell_length_a   8.73552400
_cell_length_b   8.73552513
_cell_length_c   9.53372300
_cell_angle_alpha   90.00000000
_cell_angle_beta   90.00000000
_cell_angle_gamma   119.99999573
_symmetry_Int_Tables_number   1
_chemical_formula_structural   Tb3Al11CoSiOs3
_chemical_formula_sum   'Tb6 Al22 Co2 Si2 Os6'
_cell_volume   630.04440361
_cell_formula_units_Z   2
loop_
 _symmetry_equiv_pos_site_id
 _symmetry_equiv_pos_as_xyz
  1  'x, y, z'
loop_
 _atom_site_type_symbol
 _atom_site_label
 _atom_site_symmetry_multiplicity
 _atom_site_fract_x
 _atom_site_fract_y
 _atom_site_fract_z
 _atom_site_occupancy
  Tb  Tb0  1  0.194808  0.389616  0.247181  1
  Tb  Tb1  1  0.805192  0.610384  0.752819  1
  Tb  Tb2  1  0.610384  0.805192  0.247181  1
  Tb  Tb3  1  0.389616  0.194808  0.752819  1
  Tb  Tb4  1  0.194808  0.805192  0.247181  1
  Tb  Tb5  1  0.805192  0.194808  0.752819  1
  Al  Al6  1  0.666667  0.333333  0.516317  1
  Al  Al7  1  0.333333  0.666667  0.483683  1
  Al  Al8  1  0.159481  0.318962  0.574691  1
  Al  Al9  1  0.840519  0.681038  0.425309  1
  Al  Al10  1  0.681038  0.840519  0.574691  1
  Al  Al11  1  0.839164  0.678328  0.076572  1
  Al  Al12  1  0.318962  0.159481  0.425309  1
  Al  Al13  1  0.160836  0.321672  0.923428  1
  Al  Al14  1  0.159481  0.840519  0.574691  1
  Al  Al15  1  0.321672  0.160836  0.076572  1
  Al  Al16  1  0.840519  0.159481  0.425309  1
  Al  Al17  1  0.678328  0.839164  0.923428  1
  Al  Al18  1  0.839164  0.160836  0.076572  1
  Al  Al19  1  0.160836  0.839164  0.923428  1
  Al  Al20  1  0.562765  0.125530  0.249933  1
  Al  Al21  1  0.437235  0.874470  0.750067  1
  Al  Al22  1  0.874470  0.437235  0.249933  1
  Al  Al23  1  0.125530  0.562765  0.750067  1
  Al  Al24  1  0.562765  0.437235  0.249933  1
  Al  Al25  1  0.437235  0.562765  0.750067  1
  Al  Al26  1  0.000000  0.000000  0.249782  1
  Al  Al27  1  0.000000  0.000000  0.750218  1
  Co  Co28  1  0.000000  0.000000  0.000000  1
  Co  Co29  1  0.000000  0.000000  0.500000  1
  Si  Si30  1  0.333333  0.666667  0.030779  1
  Si  Si31  1  0.666667  0.333333  0.969221  1
  Os  Os32  1  0.500000  0.000000  0.000000  1
  Os  Os33  1  0.000000  0.500000  0.000000  1
  Os  Os34  1  0.500000  0.000000  0.500000  1
  Os  Os35  1  0.500000  0.500000  0.000000  1
  Os  Os36  1  0.000000  0.500000  0.500000  1
  Os  Os37  1  0.500000  0.500000  0.500000  1
