# generated using pymatgen
data_Tm3Zn2GaC
_symmetry_space_group_name_H-M   'P 1'
_cell_length_a   9.06916277
_cell_length_b   9.04282068
_cell_length_c   9.04282095
_cell_angle_alpha   59.78208996
_cell_angle_beta   59.90358790
_cell_angle_gamma   59.90358837
_symmetry_Int_Tables_number   1
_chemical_formula_structural   Tm3Zn2GaC
_chemical_formula_sum   'Tm12 Zn8 Ga4 C4'
_cell_volume   522.76605984
_cell_formula_units_Z   4
loop_
 _symmetry_equiv_pos_site_id
 _symmetry_equiv_pos_as_xyz
  1  'x, y, z'
loop_
 _atom_site_type_symbol
 _atom_site_label
 _atom_site_symmetry_multiplicity
 _atom_site_fract_x
 _atom_site_fract_y
 _atom_site_fract_z
 _atom_site_occupancy
  Tm  Tm0  1  0.444784  0.445774  0.054601  1
  Tm  Tm1  1  0.054841  0.445774  0.054601  1
  Tm  Tm2  1  0.445746  0.054254  0.054254  1
  Tm  Tm3  1  0.054841  0.054601  0.445774  1
  Tm  Tm4  1  0.444784  0.054601  0.445774  1
  Tm  Tm5  1  0.055904  0.444096  0.444096  1
  Tm  Tm6  1  0.804432  0.804534  0.195249  1
  Tm  Tm7  1  0.195785  0.804534  0.195249  1
  Tm  Tm8  1  0.804094  0.195906  0.195906  1
  Tm  Tm9  1  0.195785  0.195249  0.804534  1
  Tm  Tm10  1  0.804432  0.195249  0.804534  1
  Tm  Tm11  1  0.195069  0.804931  0.804931  1
  Zn  Zn12  1  0.513393  0.827529  0.827529  1
  Zn  Zn13  1  0.831550  0.827529  0.827529  1
  Zn  Zn14  1  0.420838  0.425355  0.732969  1
  Zn  Zn15  1  0.420838  0.732969  0.425355  1
  Zn  Zn16  1  0.734137  0.423267  0.423267  1
  Zn  Zn17  1  0.419327  0.423267  0.423267  1
  Zn  Zn18  1  0.127165  0.624864  0.624864  1
  Zn  Zn19  1  0.623107  0.624864  0.624864  1
  Ga  Ga20  1  0.830589  0.826431  0.512391  1
  Ga  Ga21  1  0.830589  0.512391  0.826431  1
  Ga  Ga22  1  0.623798  0.626128  0.126276  1
  Ga  Ga23  1  0.623798  0.126276  0.626128  1
  C  C24  1  0.125073  0.124950  0.624904  1
  C  C25  1  0.125073  0.624904  0.124950  1
  C  C26  1  0.625086  0.124886  0.124886  1
  C  C27  1  0.125141  0.124886  0.124886  1
