# generated using pymatgen
data_Zr2Mn3Tc
_symmetry_space_group_name_H-M   'P 1'
_cell_length_a   5.02725103
_cell_length_b   5.02725097
_cell_length_c   5.02724989
_cell_angle_alpha   61.20742127
_cell_angle_beta   61.20741862
_cell_angle_gamma   61.20741706
_symmetry_Int_Tables_number   1
_chemical_formula_structural   Zr2Mn3Tc
_chemical_formula_sum   'Zr2 Mn3 Tc1'
_cell_volume   92.28138213
_cell_formula_units_Z   1
loop_
 _symmetry_equiv_pos_site_id
 _symmetry_equiv_pos_as_xyz
  1  'x, y, z'
loop_
 _atom_site_type_symbol
 _atom_site_label
 _atom_site_symmetry_multiplicity
 _atom_site_fract_x
 _atom_site_fract_y
 _atom_site_fract_z
 _atom_site_occupancy
  Zr  Zr0  1  0.750105  0.750105  0.750105  1
  Zr  Zr1  1  0.499895  0.499895  0.499895  1
  Mn  Mn2  1  0.125000  0.625000  0.125000  1
  Mn  Mn3  1  0.125000  0.125000  0.625000  1
  Mn  Mn4  1  0.625000  0.125000  0.125000  1
  Tc  Tc5  1  0.125000  0.125000  0.125000  1
