# generated using pymatgen
data_Nd3Sb2Te
_symmetry_space_group_name_H-M   'P 1'
_cell_length_a   4.53864900
_cell_length_b   11.05213941
_cell_length_c   7.81813308
_cell_angle_alpha   89.89010210
_cell_angle_beta   90.00000000
_cell_angle_gamma   90.00000000
_symmetry_Int_Tables_number   1
_chemical_formula_structural   Nd3Sb2Te
_chemical_formula_sum   'Nd6 Sb4 Te2'
_cell_volume   392.17076173
_cell_formula_units_Z   2
loop_
 _symmetry_equiv_pos_site_id
 _symmetry_equiv_pos_as_xyz
  1  'x, y, z'
loop_
 _atom_site_type_symbol
 _atom_site_label
 _atom_site_symmetry_multiplicity
 _atom_site_fract_x
 _atom_site_fract_y
 _atom_site_fract_z
 _atom_site_occupancy
  Nd  Nd0  1  0.250000  0.500457  0.249606  1
  Nd  Nd1  1  0.750000  0.499543  0.750394  1
  Nd  Nd2  1  0.250000  0.825840  0.916257  1
  Nd  Nd3  1  0.750000  0.174160  0.083743  1
  Nd  Nd4  1  0.750000  0.825119  0.417025  1
  Nd  Nd5  1  0.250000  0.174881  0.582975  1
  Sb  Sb6  1  0.250000  0.666709  0.583650  1
  Sb  Sb7  1  0.750000  0.333291  0.416350  1
  Sb  Sb8  1  0.750000  0.667439  0.082949  1
  Sb  Sb9  1  0.250000  0.332561  0.917051  1
  Te  Te10  1  0.750000  0.000363  0.749640  1
  Te  Te11  1  0.250000  0.999637  0.250360  1
