# generated using pymatgen
data_YbGe2(AsRh3)2
_symmetry_space_group_name_H-M   'P 1'
_cell_length_a   7.30677600
_cell_length_b   7.24546133
_cell_length_c   3.80325200
_cell_angle_alpha   90.00000000
_cell_angle_beta   90.00000000
_cell_angle_gamma   120.28032493
_symmetry_Int_Tables_number   1
_chemical_formula_structural   YbGe2(AsRh3)2
_chemical_formula_sum   'Yb1 Ge2 As2 Rh6'
_cell_volume   173.87768848
_cell_formula_units_Z   1
loop_
 _symmetry_equiv_pos_site_id
 _symmetry_equiv_pos_as_xyz
  1  'x, y, z'
loop_
 _atom_site_type_symbol
 _atom_site_label
 _atom_site_symmetry_multiplicity
 _atom_site_fract_x
 _atom_site_fract_y
 _atom_site_fract_z
 _atom_site_occupancy
  Yb  Yb0  1  0.998591  0.997181  0.000000  1
  Ge  Ge1  1  0.808981  0.617961  0.500000  1
  Ge  Ge2  1  0.332685  0.665372  0.000000  1
  As  As3  1  0.381709  0.192638  0.500000  1
  As  As4  1  0.810929  0.192638  0.500000  1
  Rh  Rh5  1  0.535583  0.071166  0.000000  1
  Rh  Rh6  1  0.602042  0.801945  0.500000  1
  Rh  Rh7  1  0.198466  0.396933  0.500000  1
  Rh  Rh8  1  0.535734  0.464444  0.000000  1
  Rh  Rh9  1  0.199903  0.801945  0.500000  1
  Rh  Rh10  1  0.928709  0.464444  0.000000  1
