# generated using pymatgen
data_Y2Lu4IrRh17
_symmetry_space_group_name_H-M   'P 1'
_cell_length_a   5.23700901
_cell_length_b   5.23645987
_cell_length_c   17.47671800
_cell_angle_alpha   89.99928366
_cell_angle_beta   90.00187852
_cell_angle_gamma   119.99872595
_symmetry_Int_Tables_number   1
_chemical_formula_structural   Y2Lu4IrRh17
_chemical_formula_sum   'Y2 Lu4 Ir1 Rh17'
_cell_volume   415.06602462
_cell_formula_units_Z   1
loop_
 _symmetry_equiv_pos_site_id
 _symmetry_equiv_pos_as_xyz
  1  'x, y, z'
loop_
 _atom_site_type_symbol
 _atom_site_label
 _atom_site_symmetry_multiplicity
 _atom_site_fract_x
 _atom_site_fract_y
 _atom_site_fract_z
 _atom_site_occupancy
  Y  Y0  1  0.333329  0.666675  0.749913  1
  Y  Y1  1  0.666671  0.333325  0.250087  1
  Lu  Lu2  1  0.333317  0.666658  0.958529  1
  Lu  Lu3  1  0.666683  0.333342  0.041471  1
  Lu  Lu4  1  0.666679  0.333336  0.458905  1
  Lu  Lu5  1  0.333321  0.666664  0.541095  1
  Ir  Ir6  1  0.000000  0.000000  0.500000  1
  Rh  Rh7  1  0.167478  0.832481  0.375591  1
  Rh  Rh8  1  0.167505  0.335015  0.375590  1
  Rh  Rh9  1  0.665009  0.832481  0.375586  1
  Rh  Rh10  1  0.832522  0.167519  0.624409  1
  Rh  Rh11  1  0.832495  0.664985  0.624410  1
  Rh  Rh12  1  0.334991  0.167519  0.624414  1
  Rh  Rh13  1  0.832389  0.167588  0.875751  1
  Rh  Rh14  1  0.832379  0.664798  0.875744  1
  Rh  Rh15  1  0.335208  0.167621  0.875745  1
  Rh  Rh16  1  0.167611  0.832412  0.124249  1
  Rh  Rh17  1  0.167621  0.335202  0.124256  1
  Rh  Rh18  1  0.664792  0.832379  0.124255  1
  Rh  Rh19  1  0.333416  0.666718  0.249620  1
  Rh  Rh20  1  0.666584  0.333282  0.750380  1
  Rh  Rh21  1  0.999959  0.999989  0.249706  1
  Rh  Rh22  1  0.000041  0.000011  0.750294  1
  Rh  Rh23  1  0.000000  0.000000  0.000000  1
