# generated using pymatgen
data_Sc8TaTi11Si16
_symmetry_space_group_name_H-M   'P 1'
_cell_length_a   6.87646210
_cell_length_b   6.87646224
_cell_length_c   12.60613780
_cell_angle_alpha   89.97960127
_cell_angle_beta   89.97959876
_cell_angle_gamma   89.97527012
_symmetry_Int_Tables_number   1
_chemical_formula_structural   Sc8TaTi11Si16
_chemical_formula_sum   'Sc8 Ta1 Ti11 Si16'
_cell_volume   596.09032198
_cell_formula_units_Z   1
loop_
 _symmetry_equiv_pos_site_id
 _symmetry_equiv_pos_as_xyz
  1  'x, y, z'
loop_
 _atom_site_type_symbol
 _atom_site_label
 _atom_site_symmetry_multiplicity
 _atom_site_fract_x
 _atom_site_fract_y
 _atom_site_fract_z
 _atom_site_occupancy
  Sc  Sc0  1  0.999237  0.659804  0.032477  1
  Sc  Sc1  1  0.999854  0.341655  0.533810  1
  Sc  Sc2  1  0.340196  0.000763  0.467523  1
  Sc  Sc3  1  0.157812  0.499976  0.782784  1
  Sc  Sc4  1  0.841228  0.498671  0.282958  1
  Sc  Sc5  1  0.501329  0.158772  0.217042  1
  Sc  Sc6  1  0.500024  0.842188  0.717216  1
  Sc  Sc7  1  0.658345  0.000146  0.966190  1
  Ta  Ta8  1  0.827777  0.172223  0.750000  1
  Ti  Ti9  1  0.672074  0.672259  0.500222  1
  Ti  Ti10  1  0.172565  0.827435  0.250000  1
  Ti  Ti11  1  0.327741  0.327926  0.999778  1
  Ti  Ti12  1  0.992548  0.850244  0.625862  1
  Ti  Ti13  1  0.006690  0.148558  0.125094  1
  Ti  Ti14  1  0.851442  0.993310  0.374906  1
  Ti  Ti15  1  0.350294  0.506316  0.375213  1
  Ti  Ti16  1  0.650742  0.493904  0.875675  1
  Ti  Ti17  1  0.506096  0.349258  0.624325  1
  Ti  Ti18  1  0.493684  0.649706  0.124787  1
  Ti  Ti19  1  0.149756  0.007452  0.874138  1
  Si  Si20  1  0.045801  0.702407  0.435499  1
  Si  Si21  1  0.636490  0.295234  0.429595  1
  Si  Si22  1  0.363354  0.704950  0.929615  1
  Si  Si23  1  0.205345  0.135884  0.679168  1
  Si  Si24  1  0.295050  0.636646  0.570385  1
  Si  Si25  1  0.704766  0.363510  0.070405  1
  Si  Si26  1  0.795462  0.863092  0.179899  1
  Si  Si27  1  0.136908  0.204538  0.320101  1
  Si  Si28  1  0.955744  0.298597  0.936568  1
  Si  Si29  1  0.701403  0.044256  0.563432  1
  Si  Si30  1  0.203245  0.453837  0.185199  1
  Si  Si31  1  0.795848  0.546718  0.685565  1
  Si  Si32  1  0.453282  0.204152  0.814435  1
  Si  Si33  1  0.546163  0.796755  0.314801  1
  Si  Si34  1  0.297593  0.954199  0.064501  1
  Si  Si35  1  0.864116  0.794655  0.820832  1
