# generated using pymatgen
data_Lu3Ni6B2Ir
_symmetry_space_group_name_H-M   'P 1'
_cell_length_a   5.01737700
_cell_length_b   5.01737780
_cell_length_c   14.56396500
_cell_angle_alpha   90.00000000
_cell_angle_beta   90.00000000
_cell_angle_gamma   120.00001451
_symmetry_Int_Tables_number   1
_chemical_formula_structural   Lu3Ni6B2Ir
_chemical_formula_sum   'Lu6 Ni12 B4 Ir2'
_cell_volume   317.51462445
_cell_formula_units_Z   2
loop_
 _symmetry_equiv_pos_site_id
 _symmetry_equiv_pos_as_xyz
  1  'x, y, z'
loop_
 _atom_site_type_symbol
 _atom_site_label
 _atom_site_symmetry_multiplicity
 _atom_site_fract_x
 _atom_site_fract_y
 _atom_site_fract_z
 _atom_site_occupancy
  Lu  Lu0  1  0.333333  0.666667  0.532438  1
  Lu  Lu1  1  0.666667  0.333333  0.032438  1
  Lu  Lu2  1  0.666667  0.333333  0.467562  1
  Lu  Lu3  1  0.333333  0.666667  0.967562  1
  Lu  Lu4  1  0.333333  0.666667  0.750000  1
  Lu  Lu5  1  0.666667  0.333333  0.250000  1
  Ni  Ni6  1  0.165400  0.330801  0.150782  1
  Ni  Ni7  1  0.834600  0.669199  0.650782  1
  Ni  Ni8  1  0.669199  0.834600  0.150782  1
  Ni  Ni9  1  0.165400  0.834600  0.150782  1
  Ni  Ni10  1  0.834600  0.165400  0.650782  1
  Ni  Ni11  1  0.330801  0.165400  0.650782  1
  Ni  Ni12  1  0.834600  0.669199  0.849218  1
  Ni  Ni13  1  0.834600  0.165400  0.849218  1
  Ni  Ni14  1  0.330801  0.165400  0.849218  1
  Ni  Ni15  1  0.669199  0.834600  0.349218  1
  Ni  Ni16  1  0.165400  0.834600  0.349218  1
  Ni  Ni17  1  0.165400  0.330801  0.349218  1
  B  B18  1  0.333333  0.666667  0.250000  1
  B  B19  1  0.666667  0.333333  0.750000  1
  B  B20  1  0.000000  0.000000  0.250000  1
  B  B21  1  0.000000  0.000000  0.750000  1
  Ir  Ir22  1  0.000000  0.000000  0.000000  1
  Ir  Ir23  1  0.000000  0.000000  0.500000  1
