# generated using pymatgen
data_AcNd2Sn3IrPt2
_symmetry_space_group_name_H-M   'P 1'
_cell_length_a   7.74318600
_cell_length_b   7.71795964
_cell_length_c   4.18083200
_cell_angle_alpha   90.00000000
_cell_angle_beta   90.00000000
_cell_angle_gamma   120.10818105
_symmetry_Int_Tables_number   1
_chemical_formula_structural   AcNd2Sn3IrPt2
_chemical_formula_sum   'Ac1 Nd2 Sn3 Ir1 Pt2'
_cell_volume   216.14295449
_cell_formula_units_Z   1
loop_
 _symmetry_equiv_pos_site_id
 _symmetry_equiv_pos_as_xyz
  1  'x, y, z'
loop_
 _atom_site_type_symbol
 _atom_site_label
 _atom_site_symmetry_multiplicity
 _atom_site_fract_x
 _atom_site_fract_y
 _atom_site_fract_z
 _atom_site_occupancy
  Ac  Ac0  1  0.586212  0.000000  0.000000  1
  Nd  Nd1  1  0.000532  0.591468  0.000000  1
  Nd  Nd2  1  0.409064  0.408532  0.000000  1
  Sn  Sn3  1  0.240783  0.000000  0.500000  1
  Sn  Sn4  1  0.006861  0.252432  0.500000  1
  Sn  Sn5  1  0.754428  0.747568  0.500000  1
  Ir  Ir6  1  0.002364  0.000000  0.000000  1
  Pt  Pt7  1  0.330333  0.660910  0.500000  1
  Pt  Pt8  1  0.669424  0.339090  0.500000  1
