# generated using pymatgen
data_Cs2Nd(SbSe2)5
_symmetry_space_group_name_H-M   'P 1'
_cell_length_a   4.14170400
_cell_length_b   12.46395600
_cell_length_c   22.90982900
_cell_angle_alpha   90.00000000
_cell_angle_beta   90.00000000
_cell_angle_gamma   90.00000000
_symmetry_Int_Tables_number   1
_chemical_formula_structural   Cs2Nd(SbSe2)5
_chemical_formula_sum   'Cs4 Nd2 Sb10 Se20'
_cell_volume   1182.65156884
_cell_formula_units_Z   2
loop_
 _symmetry_equiv_pos_site_id
 _symmetry_equiv_pos_as_xyz
  1  'x, y, z'
loop_
 _atom_site_type_symbol
 _atom_site_label
 _atom_site_symmetry_multiplicity
 _atom_site_fract_x
 _atom_site_fract_y
 _atom_site_fract_z
 _atom_site_occupancy
  Cs  Cs0  1  0.250000  0.990158  0.287123  1
  Cs  Cs1  1  0.750000  0.490785  0.213133  1
  Cs  Cs2  1  0.750000  0.009215  0.713133  1
  Cs  Cs3  1  0.250000  0.509842  0.787123  1
  Nd  Nd4  1  0.750000  0.363034  0.022991  1
  Nd  Nd5  1  0.750000  0.136966  0.522991  1
  Sb  Sb6  1  0.750000  0.808761  0.119305  1
  Sb  Sb7  1  0.250000  0.407469  0.571444  1
  Sb  Sb8  1  0.250000  0.189450  0.879808  1
  Sb  Sb9  1  0.750000  0.595084  0.430080  1
  Sb  Sb10  1  0.250000  0.092531  0.071444  1
  Sb  Sb11  1  0.250000  0.635297  0.976673  1
  Sb  Sb12  1  0.250000  0.310550  0.379808  1
  Sb  Sb13  1  0.250000  0.864703  0.476673  1
  Sb  Sb14  1  0.750000  0.904916  0.930080  1
  Sb  Sb15  1  0.750000  0.691239  0.619305  1
  Se  Se16  1  0.250000  0.746059  0.692655  1
  Se  Se17  1  0.750000  0.138537  0.982038  1
  Se  Se18  1  0.250000  0.297782  0.110349  1
  Se  Se19  1  0.750000  0.588239  0.059999  1
  Se  Se20  1  0.250000  0.078733  0.437414  1
  Se  Se21  1  0.750000  0.911761  0.559999  1
  Se  Se22  1  0.250000  0.421267  0.937414  1
  Se  Se23  1  0.250000  0.860149  0.018132  1
  Se  Se24  1  0.750000  0.361463  0.482038  1
  Se  Se25  1  0.750000  0.244184  0.806804  1
  Se  Se26  1  0.250000  0.522832  0.348962  1
  Se  Se27  1  0.250000  0.977168  0.848962  1
  Se  Se28  1  0.750000  0.799636  0.392102  1
  Se  Se29  1  0.750000  0.475488  0.650988  1
  Se  Se30  1  0.250000  0.202218  0.610349  1
  Se  Se31  1  0.250000  0.753941  0.192655  1
  Se  Se32  1  0.750000  0.024512  0.150988  1
  Se  Se33  1  0.750000  0.255816  0.306804  1
  Se  Se34  1  0.750000  0.700364  0.892102  1
  Se  Se35  1  0.250000  0.639851  0.518132  1
