# generated using pymatgen
data_Lu4Al16Si2Ir5Rh
_symmetry_space_group_name_H-M   'P 1'
_cell_length_a   7.51773247
_cell_length_b   7.51773289
_cell_length_c   9.29395703
_cell_angle_alpha   90.00466778
_cell_angle_beta   90.00467004
_cell_angle_gamma   119.65412871
_symmetry_Int_Tables_number   1
_chemical_formula_structural   Lu4Al16Si2Ir5Rh
_chemical_formula_sum   'Lu4 Al16 Si2 Ir5 Rh1'
_cell_volume   456.46568261
_cell_formula_units_Z   1
loop_
 _symmetry_equiv_pos_site_id
 _symmetry_equiv_pos_as_xyz
  1  'x, y, z'
loop_
 _atom_site_type_symbol
 _atom_site_label
 _atom_site_symmetry_multiplicity
 _atom_site_fract_x
 _atom_site_fract_y
 _atom_site_fract_z
 _atom_site_occupancy
  Lu  Lu0  1  0.995352  0.674172  0.250060  1
  Lu  Lu1  1  0.004648  0.325828  0.749940  1
  Lu  Lu2  1  0.674172  0.995352  0.250060  1
  Lu  Lu3  1  0.325828  0.004648  0.749940  1
  Al  Al4  1  0.000606  0.335619  0.077099  1
  Al  Al5  1  0.999394  0.664381  0.922901  1
  Al  Al6  1  0.999451  0.664182  0.577013  1
  Al  Al7  1  0.335818  0.000549  0.422987  1
  Al  Al8  1  0.000549  0.335818  0.422987  1
  Al  Al9  1  0.664182  0.999451  0.577013  1
  Al  Al10  1  0.664381  0.999394  0.922901  1
  Al  Al11  1  0.335619  0.000606  0.077099  1
  Al  Al12  1  0.334791  0.334791  0.559099  1
  Al  Al13  1  0.665209  0.665209  0.440901  1
  Al  Al14  1  0.665371  0.665371  0.059128  1
  Al  Al15  1  0.334629  0.334629  0.940872  1
  Al  Al16  1  0.335564  0.548475  0.250017  1
  Al  Al17  1  0.664436  0.451525  0.749983  1
  Al  Al18  1  0.548475  0.335564  0.250017  1
  Al  Al19  1  0.451525  0.664436  0.749983  1
  Si  Si20  1  0.127164  0.127164  0.249764  1
  Si  Si21  1  0.872836  0.872836  0.750236  1
  Ir  Ir22  1  0.672245  0.327755  0.000000  1
  Ir  Ir23  1  0.327755  0.672245  0.000000  1
  Ir  Ir24  1  0.327807  0.672193  0.500000  1
  Ir  Ir25  1  0.672193  0.327807  0.500000  1
  Ir  Ir26  1  0.000000  0.000000  0.500000  1
  Rh  Rh27  1  0.000000  0.000000  0.000000  1
