# generated using pymatgen
data_TaV(PO4)3
_symmetry_space_group_name_H-M   'P 1'
_cell_length_a   8.63067184
_cell_length_b   8.60495071
_cell_length_c   8.93886704
_cell_angle_alpha   90.16372091
_cell_angle_beta   118.69225496
_cell_angle_gamma   119.79047986
_symmetry_Int_Tables_number   1
_chemical_formula_structural   TaV(PO4)3
_chemical_formula_sum   'Ta2 V2 P6 O24'
_cell_volume   479.30766126
_cell_formula_units_Z   2
loop_
 _symmetry_equiv_pos_site_id
 _symmetry_equiv_pos_as_xyz
  1  'x, y, z'
loop_
 _atom_site_type_symbol
 _atom_site_label
 _atom_site_symmetry_multiplicity
 _atom_site_fract_x
 _atom_site_fract_y
 _atom_site_fract_z
 _atom_site_occupancy
  Ta  Ta0  1  0.218456  0.860375  0.078611  1
  Ta  Ta1  1  0.216234  0.360019  0.573841  1
  V  V2  1  0.792740  0.644386  0.434840  1
  V  V3  1  0.788117  0.142579  0.930235  1
  P  P4  1  0.985664  0.960667  0.246175  1
  P  P5  1  0.991306  0.028081  0.750509  1
  P  P6  1  0.721148  0.256974  0.252510  1
  P  P7  1  0.286552  0.761968  0.744596  1
  P  P8  1  0.284311  0.524643  0.247545  1
  P  P9  1  0.724870  0.464089  0.748953  1
  O  O10  1  0.136923  0.009441  0.926617  1
  O  O11  1  0.261807  0.504820  0.410352  1
  O  O12  1  0.856157  0.993467  0.073339  1
  O  O13  1  0.511372  0.089985  0.228427  1
  O  O14  1  0.843414  0.064405  0.765116  1
  O  O15  1  0.734978  0.441117  0.285506  1
  O  O16  1  0.141028  0.143494  0.407890  1
  O  O17  1  0.745421  0.485552  0.589588  1
  O  O18  1  0.718819  0.222536  0.084855  1
  O  O19  1  0.274202  0.574836  0.720789  1
  O  O20  1  0.100684  0.746808  0.576009  1
  O  O21  1  0.295785  0.708054  0.217526  1
  O  O22  1  0.488511  0.547654  0.290419  1
  O  O23  1  0.143837  0.196109  0.715414  1
  O  O24  1  0.131204  0.918701  0.225219  1
  O  O25  1  0.713676  0.286856  0.789244  1
  O  O26  1  0.497291  0.922330  0.775370  1
  O  O27  1  0.090054  0.357706  0.077711  1
  O  O28  1  0.907808  0.268221  0.421109  1
  O  O29  1  0.279822  0.789935  0.912592  1
  O  O30  1  0.854375  0.845738  0.593047  1
  O  O31  1  0.831429  0.797896  0.277296  1
  O  O32  1  0.914843  0.638225  0.918314  1
  O  O33  1  0.517162  0.442333  0.710435  1
