# generated using pymatgen
data_Nd8TcOsI8
_symmetry_space_group_name_H-M   'P 1'
_cell_length_a   10.40014882
_cell_length_b   10.40014803
_cell_length_c   6.58102984
_cell_angle_alpha   89.27650974
_cell_angle_beta   89.27650850
_cell_angle_gamma   89.68593919
_symmetry_Int_Tables_number   1
_chemical_formula_structural   Nd8TcOsI8
_chemical_formula_sum   'Nd8 Tc1 Os1 I8'
_cell_volume   711.70092923
_cell_formula_units_Z   1
loop_
 _symmetry_equiv_pos_site_id
 _symmetry_equiv_pos_as_xyz
  1  'x, y, z'
loop_
 _atom_site_type_symbol
 _atom_site_label
 _atom_site_symmetry_multiplicity
 _atom_site_fract_x
 _atom_site_fract_y
 _atom_site_fract_z
 _atom_site_occupancy
  Nd  Nd0  1  0.774284  0.088237  0.000492  1
  Nd  Nd1  1  0.088313  0.774396  0.500966  1
  Nd  Nd2  1  0.087888  0.226958  0.993257  1
  Nd  Nd3  1  0.227176  0.088044  0.493745  1
  Nd  Nd4  1  0.911956  0.772824  0.006255  1
  Nd  Nd5  1  0.911763  0.225716  0.499508  1
  Nd  Nd6  1  0.225604  0.911687  0.999034  1
  Nd  Nd7  1  0.773042  0.912112  0.506743  1
  Tc  Tc8  1  0.999969  0.000031  0.250000  1
  Os  Os9  1  0.000037  0.999963  0.750000  1
  I  I10  1  0.608706  0.177846  0.515815  1
  I  I11  1  0.826338  0.608712  0.477397  1
  I  I12  1  0.391288  0.173662  0.022603  1
  I  I13  1  0.173855  0.391353  0.521251  1
  I  I14  1  0.608647  0.826145  0.978749  1
  I  I15  1  0.391155  0.822176  0.484928  1
  I  I16  1  0.177824  0.608845  0.015072  1
  I  I17  1  0.822154  0.391294  0.984185  1
