# generated using pymatgen
data_Lu4Hf2Pb5
_symmetry_space_group_name_H-M   'P 1'
_cell_length_a   6.22009389
_cell_length_b   9.29176425
_cell_length_c   11.40545011
_cell_angle_alpha   114.03776806
_cell_angle_beta   105.82385170
_cell_angle_gamma   90.00000050
_symmetry_Int_Tables_number   1
_chemical_formula_structural   Lu4Hf2Pb5
_chemical_formula_sum   'Lu8 Hf4 Pb10'
_cell_volume   574.55872970
_cell_formula_units_Z   2
loop_
 _symmetry_equiv_pos_site_id
 _symmetry_equiv_pos_as_xyz
  1  'x, y, z'
loop_
 _atom_site_type_symbol
 _atom_site_label
 _atom_site_symmetry_multiplicity
 _atom_site_fract_x
 _atom_site_fract_y
 _atom_site_fract_z
 _atom_site_occupancy
  Lu  Lu0  1  0.438716  0.671492  0.877432  1
  Lu  Lu1  1  0.561284  0.328508  0.122568  1
  Lu  Lu2  1  0.938716  0.205940  0.877432  1
  Lu  Lu3  1  0.061284  0.794060  0.122568  1
  Lu  Lu4  1  0.146527  0.257604  0.293054  1
  Lu  Lu5  1  0.853473  0.742396  0.706946  1
  Lu  Lu6  1  0.646527  0.035450  0.293054  1
  Lu  Lu7  1  0.353473  0.964550  0.706946  1
  Hf  Hf8  1  0.556016  0.306016  0.612032  1
  Hf  Hf9  1  0.443984  0.693984  0.387968  1
  Hf  Hf10  1  0.943984  0.693984  0.387968  1
  Hf  Hf11  1  0.056016  0.306016  0.612032  1
  Pb  Pb12  1  0.290502  0.591015  0.581004  1
  Pb  Pb13  1  0.709498  0.408985  0.418996  1
  Pb  Pb14  1  0.790502  0.989989  0.581004  1
  Pb  Pb15  1  0.209498  0.010011  0.418996  1
  Pb  Pb16  1  0.250000  0.000000  0.000000  1
  Pb  Pb17  1  0.750000  0.000000  0.000000  1
  Pb  Pb18  1  0.075649  0.472228  0.151300  1
  Pb  Pb19  1  0.924351  0.527772  0.848700  1
  Pb  Pb20  1  0.575649  0.679072  0.151300  1
  Pb  Pb21  1  0.424351  0.320928  0.848700  1
