# generated using pymatgen
data_Hf8NbSi16Ru11
_symmetry_space_group_name_H-M   'P 1'
_cell_length_a   5.34703229
_cell_length_b   9.90566486
_cell_length_c   11.03557945
_cell_angle_alpha   78.84456224
_cell_angle_beta   104.02785650
_cell_angle_gamma   105.24317754
_symmetry_Int_Tables_number   1
_chemical_formula_structural   Hf8NbSi16Ru11
_chemical_formula_sum   'Hf8 Nb1 Si16 Ru11'
_cell_volume   541.84653571
_cell_formula_units_Z   1
loop_
 _symmetry_equiv_pos_site_id
 _symmetry_equiv_pos_as_xyz
  1  'x, y, z'
loop_
 _atom_site_type_symbol
 _atom_site_label
 _atom_site_symmetry_multiplicity
 _atom_site_fract_x
 _atom_site_fract_y
 _atom_site_fract_z
 _atom_site_occupancy
  Hf  Hf0  1  0.966708  0.532018  0.140734  1
  Hf  Hf1  1  0.703413  0.999024  0.145588  1
  Hf  Hf2  1  0.561052  0.503343  0.343824  1
  Hf  Hf3  1  0.296028  0.971202  0.362419  1
  Hf  Hf4  1  0.706368  0.030597  0.635803  1
  Hf  Hf5  1  0.442574  0.499756  0.648287  1
  Hf  Hf6  1  0.296466  0.997412  0.855283  1
  Hf  Hf7  1  0.040685  0.467592  0.865554  1
  Nb  Nb8  1  0.509564  0.695499  0.063021  1
  Si  Si9  1  0.915225  0.279122  0.066919  1
  Si  Si10  1  0.386661  0.424281  0.100820  1
  Si  Si11  1  0.255462  0.121258  0.107388  1
  Si  Si12  1  0.387815  0.753904  0.254874  1
  Si  Si13  1  0.879013  0.752602  0.254021  1
  Si  Si14  1  0.031211  0.380019  0.393741  1
  Si  Si15  1  0.856127  0.073568  0.396056  1
  Si  Si16  1  0.571712  0.223805  0.433987  1
  Si  Si17  1  0.428564  0.778503  0.565118  1
  Si  Si18  1  0.146503  0.927371  0.605110  1
  Si  Si19  1  0.974543  0.620340  0.608541  1
  Si  Si20  1  0.123239  0.249755  0.748423  1
  Si  Si21  1  0.618294  0.248623  0.749130  1
  Si  Si22  1  0.745762  0.885112  0.888838  1
  Si  Si23  1  0.605011  0.562565  0.897435  1
  Si  Si24  1  0.058911  0.719921  0.932122  1
  Ru  Ru25  1  0.100688  0.876534  0.083683  1
  Ru  Ru26  1  0.647019  0.257474  0.219335  1
  Ru  Ru27  1  0.169700  0.240030  0.282753  1
  Ru  Ru28  1  0.145126  0.624667  0.419727  1
  Ru  Ru29  1  0.772251  0.815525  0.436893  1
  Ru  Ru30  1  0.239946  0.187729  0.569631  1
  Ru  Ru31  1  0.854967  0.374513  0.583064  1
  Ru  Ru32  1  0.828377  0.758125  0.718520  1
  Ru  Ru33  1  0.350651  0.742406  0.779689  1
  Ru  Ru34  1  0.904986  0.127519  0.916282  1
  Ru  Ru35  1  0.479379  0.298285  0.927388  1
