# generated using pymatgen
data_SmErSbTe
_symmetry_space_group_name_H-M   'P 1'
_cell_length_a   7.63140138
_cell_length_b   7.63140229
_cell_length_c   7.63140100
_cell_angle_alpha   33.47162984
_cell_angle_beta   33.47161954
_cell_angle_gamma   33.47162208
_symmetry_Int_Tables_number   1
_chemical_formula_structural   SmErSbTe
_chemical_formula_sum   'Sm1 Er1 Sb1 Te1'
_cell_volume   120.39915686
_cell_formula_units_Z   1
loop_
 _symmetry_equiv_pos_site_id
 _symmetry_equiv_pos_as_xyz
  1  'x, y, z'
loop_
 _atom_site_type_symbol
 _atom_site_label
 _atom_site_symmetry_multiplicity
 _atom_site_fract_x
 _atom_site_fract_y
 _atom_site_fract_z
 _atom_site_occupancy
  Sm  Sm0  1  0.253985  0.253985  0.253985  1
  Er  Er1  1  0.745940  0.745940  0.745940  1
  Sb  Sb2  1  0.003156  0.003156  0.003156  1
  Te  Te3  1  0.496919  0.496919  0.496919  1
