# generated using pymatgen
data_La3Pr13Cd2(HgIr2)2
_symmetry_space_group_name_H-M   'P 1'
_cell_length_a   10.04439443
_cell_length_b   10.05708825
_cell_length_c   10.07028700
_cell_angle_alpha   59.95658052
_cell_angle_beta   59.91469322
_cell_angle_gamma   59.91195887
_symmetry_Int_Tables_number   1
_chemical_formula_structural   La3Pr13Cd2(HgIr2)2
_chemical_formula_sum   'La3 Pr13 Cd2 Hg2 Ir4'
_cell_volume   718.14200112
_cell_formula_units_Z   1
loop_
 _symmetry_equiv_pos_site_id
 _symmetry_equiv_pos_as_xyz
  1  'x, y, z'
loop_
 _atom_site_type_symbol
 _atom_site_label
 _atom_site_symmetry_multiplicity
 _atom_site_fract_x
 _atom_site_fract_y
 _atom_site_fract_z
 _atom_site_occupancy
  La  La0  1  0.347287  0.347991  0.347547  1
  La  La1  1  0.347287  0.347991  0.957174  1
  La  La2  1  0.348233  0.954670  0.348548  1
  Pr  Pr3  1  0.951476  0.349747  0.349388  1
  Pr  Pr4  1  0.809942  0.189508  0.191123  1
  Pr  Pr5  1  0.189391  0.809471  0.809809  1
  Pr  Pr6  1  0.189391  0.809471  0.191327  1
  Pr  Pr7  1  0.809942  0.189508  0.809426  1
  Pr  Pr8  1  0.189195  0.189298  0.810753  1
  Pr  Pr9  1  0.808890  0.808226  0.191442  1
  Pr  Pr10  1  0.938739  0.560468  0.561538  1
  Pr  Pr11  1  0.561032  0.938306  0.938514  1
  Pr  Pr12  1  0.561032  0.938306  0.562148  1
  Pr  Pr13  1  0.938739  0.560468  0.939255  1
  Pr  Pr14  1  0.561404  0.561549  0.938524  1
  Pr  Pr15  1  0.938610  0.938857  0.561266  1
  Cd  Cd16  1  0.579577  0.261267  0.579578  1
  Cd  Cd17  1  0.261027  0.579022  0.579976  1
  Hg  Hg18  1  0.583293  0.582486  0.584568  1
  Hg  Hg19  1  0.583293  0.582486  0.249652  1
  Ir  Ir20  1  0.143089  0.142058  0.141191  1
  Ir  Ir21  1  0.143089  0.142058  0.573662  1
  Ir  Ir22  1  0.143146  0.573902  0.141477  1
  Ir  Ir23  1  0.572896  0.142883  0.142111  1
