# generated using pymatgen
data_Rb4CuAg3Se4
_symmetry_space_group_name_H-M   'P 1'
_cell_length_a   5.99835534
_cell_length_b   6.72302750
_cell_length_c   11.26176800
_cell_angle_alpha   90.98767480
_cell_angle_beta   88.22587816
_cell_angle_gamma   88.52790019
_symmetry_Int_Tables_number   1
_chemical_formula_structural   Rb4CuAg3Se4
_chemical_formula_sum   'Rb4 Cu1 Ag3 Se4'
_cell_volume   453.71310568
_cell_formula_units_Z   1
loop_
 _symmetry_equiv_pos_site_id
 _symmetry_equiv_pos_as_xyz
  1  'x, y, z'
loop_
 _atom_site_type_symbol
 _atom_site_label
 _atom_site_symmetry_multiplicity
 _atom_site_fract_x
 _atom_site_fract_y
 _atom_site_fract_z
 _atom_site_occupancy
  Rb  Rb0  1  0.748431  0.533580  0.849444  1
  Rb  Rb1  1  0.250243  0.031235  0.656367  1
  Rb  Rb2  1  0.749757  0.968765  0.343633  1
  Rb  Rb3  1  0.251569  0.466420  0.150556  1
  Cu  Cu4  1  0.000000  0.000000  0.000000  1
  Ag  Ag5  1  0.500000  0.000000  0.000000  1
  Ag  Ag6  1  0.500000  0.500000  0.500000  1
  Ag  Ag7  1  0.000000  0.500000  0.500000  1
  Se  Se8  1  0.767420  0.232962  0.091049  1
  Se  Se9  1  0.750227  0.254226  0.598165  1
  Se  Se10  1  0.232580  0.767038  0.908951  1
  Se  Se11  1  0.249773  0.745774  0.401835  1
