# generated using pymatgen
data_AuS23
_symmetry_space_group_name_H-M   'P 1'
_cell_length_a   5.47256296
_cell_length_b   9.73577933
_cell_length_c   15.92074399
_cell_angle_alpha   91.37251072
_cell_angle_beta   85.84132011
_cell_angle_gamma   90.50202912
_symmetry_Int_Tables_number   1
_chemical_formula_structural   AuS23
_chemical_formula_sum   'Au1 S23'
_cell_volume   845.75477693
_cell_formula_units_Z   1
loop_
 _symmetry_equiv_pos_site_id
 _symmetry_equiv_pos_as_xyz
  1  'x, y, z'
loop_
 _atom_site_type_symbol
 _atom_site_label
 _atom_site_symmetry_multiplicity
 _atom_site_fract_x
 _atom_site_fract_y
 _atom_site_fract_z
 _atom_site_occupancy
  Au  Au0  1  0.500659  0.225204  0.400247  1
  S  S1  1  0.497103  0.803205  0.395912  1
  S  S2  1  0.997922  0.298817  0.110139  1
  S  S3  1  0.737793  0.204108  0.512234  1
  S  S4  1  0.295442  0.760120  0.507235  1
  S  S5  1  0.198027  0.253520  0.997965  1
  S  S6  1  0.795628  0.744856  0.003235  1
  S  S7  1  0.261727  0.380522  0.338493  1
  S  S8  1  0.684767  0.627413  0.356163  1
  S  S9  1  0.793412  0.127544  0.145755  1
  S  S10  1  0.203543  0.873458  0.131224  1
  S  S11  1  0.710260  0.631622  0.629411  1
  S  S12  1  0.314988  0.369285  0.639441  1
  S  S13  1  0.206857  0.875020  0.860298  1
  S  S14  1  0.791498  0.125226  0.869422  1
  S  S15  1  0.997108  0.701455  0.104023  1
  S  S16  1  0.506088  0.802838  0.607390  1
  S  S17  1  0.493411  0.184748  0.614671  1
  S  S18  1  0.004023  0.701665  0.892384  1
  S  S19  1  0.993632  0.298057  0.898050  1
  S  S20  1  0.502536  0.505869  0.272124  1
  S  S21  1  0.001146  0.001254  0.214528  1
  S  S22  1  0.508328  0.505565  0.711359  1
  S  S23  1  0.004101  0.998630  0.788298  1
