# generated using pymatgen
data_Hf4TiNb(B2Ru5)2
_symmetry_space_group_name_H-M   'P 1'
_cell_length_a   9.42419200
_cell_length_b   9.42419200
_cell_length_c   3.10070500
_cell_angle_alpha   90.00000000
_cell_angle_beta   90.00000000
_cell_angle_gamma   90.00000000
_symmetry_Int_Tables_number   1
_chemical_formula_structural   Hf4TiNb(B2Ru5)2
_chemical_formula_sum   'Hf4 Ti1 Nb1 B4 Ru10'
_cell_volume   275.39033890
_cell_formula_units_Z   1
loop_
 _symmetry_equiv_pos_site_id
 _symmetry_equiv_pos_as_xyz
  1  'x, y, z'
loop_
 _atom_site_type_symbol
 _atom_site_label
 _atom_site_symmetry_multiplicity
 _atom_site_fract_x
 _atom_site_fract_y
 _atom_site_fract_z
 _atom_site_occupancy
  Hf  Hf0  1  0.821796  0.673965  0.000000  1
  Hf  Hf1  1  0.178204  0.326035  0.000000  1
  Hf  Hf2  1  0.326035  0.821796  0.000000  1
  Hf  Hf3  1  0.673965  0.178204  0.000000  1
  Ti  Ti4  1  0.500000  0.500000  0.000000  1
  Nb  Nb5  1  0.000000  0.000000  0.000000  1
  B  B6  1  0.619573  0.875129  0.000000  1
  B  B7  1  0.380427  0.124871  0.000000  1
  B  B8  1  0.124871  0.619573  0.000000  1
  B  B9  1  0.875129  0.380427  0.000000  1
  Ru  Ru10  1  0.570450  0.715815  0.500000  1
  Ru  Ru11  1  0.429550  0.284185  0.500000  1
  Ru  Ru12  1  0.070894  0.781572  0.500000  1
  Ru  Ru13  1  0.929106  0.218428  0.500000  1
  Ru  Ru14  1  0.284185  0.570450  0.500000  1
  Ru  Ru15  1  0.715815  0.429550  0.500000  1
  Ru  Ru16  1  0.218428  0.070894  0.500000  1
  Ru  Ru17  1  0.781572  0.929106  0.500000  1
  Ru  Ru18  1  0.500000  0.000000  0.500000  1
  Ru  Ru19  1  0.000000  0.500000  0.500000  1
