# generated using pymatgen
data_Dy8Zr9Nb3Si16
_symmetry_space_group_name_H-M   'P 1'
_cell_length_a   7.30139775
_cell_length_b   7.30139781
_cell_length_c   13.41811200
_cell_angle_alpha   90.02600574
_cell_angle_beta   90.02601358
_cell_angle_gamma   90.04305381
_symmetry_Int_Tables_number   1
_chemical_formula_structural   Dy8Zr9Nb3Si16
_chemical_formula_sum   'Dy8 Zr9 Nb3 Si16'
_cell_volume   715.32469722
_cell_formula_units_Z   1
loop_
 _symmetry_equiv_pos_site_id
 _symmetry_equiv_pos_as_xyz
  1  'x, y, z'
loop_
 _atom_site_type_symbol
 _atom_site_label
 _atom_site_symmetry_multiplicity
 _atom_site_fract_x
 _atom_site_fract_y
 _atom_site_fract_z
 _atom_site_occupancy
  Dy  Dy0  1  0.998763  0.346390  0.213905  1
  Dy  Dy1  1  0.003035  0.654842  0.713291  1
  Dy  Dy2  1  0.153772  0.498866  0.462822  1
  Dy  Dy3  1  0.501134  0.846228  0.037178  1
  Dy  Dy4  1  0.846666  0.502557  0.965759  1
  Dy  Dy5  1  0.497443  0.153334  0.534241  1
  Dy  Dy6  1  0.345158  0.996965  0.786709  1
  Dy  Dy7  1  0.653610  0.001237  0.286095  1
  Zr  Zr8  1  0.676142  0.323858  0.750000  1
  Zr  Zr9  1  0.146410  0.994065  0.374903  1
  Zr  Zr10  1  0.854881  0.004102  0.876401  1
  Zr  Zr11  1  0.505693  0.647852  0.622627  1
  Zr  Zr12  1  0.352148  0.494307  0.877373  1
  Zr  Zr13  1  0.493511  0.353584  0.125648  1
  Zr  Zr14  1  0.646416  0.506489  0.374352  1
  Zr  Zr15  1  0.995898  0.145119  0.623599  1
  Zr  Zr16  1  0.005935  0.853590  0.125097  1
  Nb  Nb17  1  0.176499  0.176047  0.001032  1
  Nb  Nb18  1  0.823953  0.823501  0.498968  1
  Nb  Nb19  1  0.323412  0.676588  0.250000  1
  Si  Si20  1  0.360029  0.296462  0.316277  1
  Si  Si21  1  0.639358  0.705304  0.816503  1
  Si  Si22  1  0.203050  0.859499  0.565440  1
  Si  Si23  1  0.140501  0.796950  0.934560  1
  Si  Si24  1  0.796379  0.140038  0.066840  1
  Si  Si25  1  0.859962  0.203621  0.433160  1
  Si  Si26  1  0.294696  0.360642  0.683497  1
  Si  Si27  1  0.703538  0.639971  0.183723  1
  Si  Si28  1  0.295753  0.050274  0.185704  1
  Si  Si29  1  0.704545  0.947121  0.684150  1
  Si  Si30  1  0.449232  0.796404  0.434196  1
  Si  Si31  1  0.203596  0.550768  0.065804  1
  Si  Si32  1  0.548516  0.202240  0.937662  1
  Si  Si33  1  0.797760  0.451484  0.562338  1
  Si  Si34  1  0.052879  0.295455  0.815850  1
  Si  Si35  1  0.949726  0.704247  0.314296  1
