# generated using pymatgen
data_CeNdDy6(CdRu)2
_symmetry_space_group_name_H-M   'P 1'
_cell_length_a   9.77051415
_cell_length_b   9.65269232
_cell_length_c   9.64804172
_cell_angle_alpha   59.58620587
_cell_angle_beta   59.57918662
_cell_angle_gamma   59.59538924
_symmetry_Int_Tables_number   1
_chemical_formula_structural   CeNdDy6(CdRu)2
_chemical_formula_sum   'Ce2 Nd2 Dy12 Cd4 Ru4'
_cell_volume   637.37203356
_cell_formula_units_Z   2
loop_
 _symmetry_equiv_pos_site_id
 _symmetry_equiv_pos_as_xyz
  1  'x, y, z'
loop_
 _atom_site_type_symbol
 _atom_site_label
 _atom_site_symmetry_multiplicity
 _atom_site_fract_x
 _atom_site_fract_y
 _atom_site_fract_z
 _atom_site_occupancy
  Ce  Ce0  1  0.972697  0.340191  0.341290  1
  Ce  Ce1  1  0.345821  0.340191  0.341290  1
  Nd  Nd2  1  0.561729  0.562057  0.937800  1
  Nd  Nd3  1  0.938415  0.562057  0.937800  1
  Dy  Dy4  1  0.560621  0.941438  0.937320  1
  Dy  Dy5  1  0.937412  0.939743  0.559720  1
  Dy  Dy6  1  0.563126  0.939743  0.559720  1
  Dy  Dy7  1  0.940647  0.560981  0.557724  1
  Dy  Dy8  1  0.190063  0.187389  0.811784  1
  Dy  Dy9  1  0.810764  0.187389  0.811784  1
  Dy  Dy10  1  0.187703  0.813089  0.811503  1
  Dy  Dy11  1  0.809694  0.812787  0.189449  1
  Dy  Dy12  1  0.188070  0.812786  0.189448  1
  Dy  Dy13  1  0.811474  0.185933  0.191120  1
  Dy  Dy14  1  0.349067  0.347252  0.954614  1
  Dy  Dy15  1  0.348962  0.952967  0.349108  1
  Cd  Cd16  1  0.579901  0.579734  0.260464  1
  Cd  Cd17  1  0.581806  0.256511  0.579876  1
  Cd  Cd18  1  0.260213  0.580204  0.578278  1
  Cd  Cd19  1  0.581303  0.580204  0.578278  1
  Ru  Ru20  1  0.137760  0.153001  0.571479  1
  Ru  Ru21  1  0.136860  0.572549  0.153731  1
  Ru  Ru22  1  0.574011  0.145902  0.148209  1
  Ru  Ru23  1  0.131878  0.145902  0.148209  1
