# generated using pymatgen
data_CsTb9Sm(C2Br9)2
_symmetry_space_group_name_H-M   'P 1'
_cell_length_a   10.75974963
_cell_length_b   10.84031680
_cell_length_c   10.95829729
_cell_angle_alpha   113.27881856
_cell_angle_beta   87.58087979
_cell_angle_gamma   118.85610525
_symmetry_Int_Tables_number   1
_chemical_formula_structural   CsTb9Sm(C2Br9)2
_chemical_formula_sum   'Cs1 Tb9 Sm1 C4 Br18'
_cell_volume   1010.65498941
_cell_formula_units_Z   1
loop_
 _symmetry_equiv_pos_site_id
 _symmetry_equiv_pos_as_xyz
  1  'x, y, z'
loop_
 _atom_site_type_symbol
 _atom_site_label
 _atom_site_symmetry_multiplicity
 _atom_site_fract_x
 _atom_site_fract_y
 _atom_site_fract_z
 _atom_site_occupancy
  Cs  Cs0  1  0.499954  0.999884  0.500172  1
  Tb  Tb1  1  0.661551  0.716032  0.701378  1
  Tb  Tb2  1  0.282265  0.365019  0.013120  1
  Tb  Tb3  1  0.093871  0.407907  0.302014  1
  Tb  Tb4  1  0.961487  0.037720  0.333847  1
  Tb  Tb5  1  0.906725  0.591047  0.697427  1
  Tb  Tb6  1  0.111501  0.942218  0.000887  1
  Tb  Tb7  1  0.039211  0.961914  0.666152  1
  Tb  Tb8  1  0.339903  0.284278  0.299129  1
  Tb  Tb9  1  0.718324  0.634587  0.986828  1
  Sm  Sm10  1  0.885211  0.058936  0.999227  1
  C  C11  1  0.159141  0.229669  0.126225  1
  C  C12  1  0.843009  0.769116  0.873717  1
  C  C13  1  0.920951  0.847713  0.793913  1
  C  C14  1  0.081245  0.151212  0.206156  1
  Br  Br15  1  0.451789  0.530641  0.833230  1
  Br  Br16  1  0.382574  0.039195  0.160153  1
  Br  Br17  1  0.777144  0.856762  0.501378  1
  Br  Br18  1  0.838427  0.317873  0.159208  1
  Br  Br19  1  0.548765  0.469726  0.166817  1
  Br  Br20  1  0.223196  0.143176  0.498927  1
  Br  Br21  1  0.313163  0.099360  0.830506  1
  Br  Br22  1  0.685527  0.898953  0.171302  1
  Br  Br23  1  0.975583  0.762452  0.172298  1
  Br  Br24  1  0.932248  0.301629  0.500421  1
  Br  Br25  1  0.026749  0.239225  0.825827  1
  Br  Br26  1  0.068092  0.698250  0.499402  1
  Br  Br27  1  0.260384  0.623281  0.187850  1
  Br  Br28  1  0.739382  0.376074  0.811949  1
  Br  Br29  1  0.638101  0.432830  0.499110  1
  Br  Br30  1  0.161528  0.688982  0.845661  1
  Br  Br31  1  0.611249  0.957296  0.834958  1
  Br  Br32  1  0.361751  0.567044  0.500811  1
