# generated using pymatgen
data_Fe3Hg(NO3)8
_symmetry_space_group_name_H-M   'P 1'
_cell_length_a   7.80871775
_cell_length_b   7.80871770
_cell_length_c   7.80871783
_cell_angle_alpha   88.35261943
_cell_angle_beta   88.35261495
_cell_angle_gamma   88.35262174
_symmetry_Int_Tables_number   1
_chemical_formula_structural   Fe3Hg(NO3)8
_chemical_formula_sum   'Fe3 Hg1 N8 O24'
_cell_volume   475.56563129
_cell_formula_units_Z   1
loop_
 _symmetry_equiv_pos_site_id
 _symmetry_equiv_pos_as_xyz
  1  'x, y, z'
loop_
 _atom_site_type_symbol
 _atom_site_label
 _atom_site_symmetry_multiplicity
 _atom_site_fract_x
 _atom_site_fract_y
 _atom_site_fract_z
 _atom_site_occupancy
  Fe  Fe0  1  0.500000  0.500000  0.000000  1
  Fe  Fe1  1  0.000000  0.500000  0.500000  1
  Fe  Fe2  1  0.500000  0.000000  0.500000  1
  Hg  Hg3  1  0.000000  0.000000  0.000000  1
  N  N4  1  0.343746  0.187961  0.831164  1
  N  N5  1  0.831164  0.343746  0.187961  1
  N  N6  1  0.187961  0.831164  0.343746  1
  N  N7  1  0.674567  0.674567  0.674567  1
  N  N8  1  0.656254  0.812039  0.168836  1
  N  N9  1  0.168836  0.656254  0.812039  1
  N  N10  1  0.812039  0.168836  0.656254  1
  N  N11  1  0.325433  0.325433  0.325433  1
  O  O12  1  0.463930  0.294570  0.823967  1
  O  O13  1  0.823967  0.463930  0.294570  1
  O  O14  1  0.294570  0.823967  0.463930  1
  O  O15  1  0.228530  0.201189  0.947731  1
  O  O16  1  0.339484  0.070873  0.723686  1
  O  O17  1  0.723686  0.339484  0.070873  1
  O  O18  1  0.680924  0.555191  0.787339  1
  O  O19  1  0.201189  0.947731  0.228530  1
  O  O20  1  0.787339  0.680924  0.555191  1
  O  O21  1  0.947731  0.228530  0.201189  1
  O  O22  1  0.555191  0.787339  0.680924  1
  O  O23  1  0.070873  0.723686  0.339484  1
  O  O24  1  0.536070  0.705430  0.176033  1
  O  O25  1  0.176033  0.536070  0.705430  1
  O  O26  1  0.705430  0.176033  0.536070  1
  O  O27  1  0.771470  0.798811  0.052269  1
  O  O28  1  0.660516  0.929127  0.276314  1
  O  O29  1  0.276314  0.660516  0.929127  1
  O  O30  1  0.319076  0.444809  0.212661  1
  O  O31  1  0.798811  0.052269  0.771470  1
  O  O32  1  0.212661  0.319076  0.444809  1
  O  O33  1  0.052269  0.771470  0.798811  1
  O  O34  1  0.444809  0.212661  0.319076  1
  O  O35  1  0.929127  0.276314  0.660516  1
