# generated using pymatgen
data_Dy3Y(Si3Ni5)4
_symmetry_space_group_name_H-M   'P 1'
_cell_length_a   3.79802800
_cell_length_b   6.58004701
_cell_length_c   18.75811302
_cell_angle_alpha   90.00557589
_cell_angle_beta   90.00000000
_cell_angle_gamma   90.00000000
_symmetry_Int_Tables_number   1
_chemical_formula_structural   Dy3Y(Si3Ni5)4
_chemical_formula_sum   'Dy3 Y1 Si12 Ni20'
_cell_volume   468.78780403
_cell_formula_units_Z   1
loop_
 _symmetry_equiv_pos_site_id
 _symmetry_equiv_pos_as_xyz
  1  'x, y, z'
loop_
 _atom_site_type_symbol
 _atom_site_label
 _atom_site_symmetry_multiplicity
 _atom_site_fract_x
 _atom_site_fract_y
 _atom_site_fract_z
 _atom_site_occupancy
  Dy  Dy0  1  0.250000  0.623573  0.643832  1
  Dy  Dy1  1  0.750000  0.376195  0.356265  1
  Dy  Dy2  1  0.750000  0.123750  0.856065  1
  Y  Y3  1  0.250000  0.876484  0.143740  1
  Si  Si4  1  0.250000  0.843749  0.925756  1
  Si  Si5  1  0.750000  0.157053  0.074153  1
  Si  Si6  1  0.750000  0.343540  0.574161  1
  Si  Si7  1  0.250000  0.656322  0.425927  1
  Si  Si8  1  0.750000  0.619914  0.762570  1
  Si  Si9  1  0.250000  0.379942  0.237576  1
  Si  Si10  1  0.250000  0.420866  0.913590  1
  Si  Si11  1  0.750000  0.578687  0.086135  1
  Si  Si12  1  0.750000  0.920814  0.586292  1
  Si  Si13  1  0.250000  0.079005  0.413850  1
  Si  Si14  1  0.250000  0.120063  0.737354  1
  Si  Si15  1  0.750000  0.879998  0.262696  1
  Ni  Ni16  1  0.250000  0.134650  0.994376  1
  Ni  Ni17  1  0.750000  0.385306  0.983974  1
  Ni  Ni18  1  0.750000  0.114346  0.484243  1
  Ni  Ni19  1  0.250000  0.613999  0.015582  1
  Ni  Ni20  1  0.250000  0.355225  0.115832  1
  Ni  Ni21  1  0.750000  0.645315  0.884222  1
  Ni  Ni22  1  0.750000  0.854559  0.384356  1
  Ni  Ni23  1  0.250000  0.145211  0.615713  1
  Ni  Ni24  1  0.250000  0.070796  0.293320  1
  Ni  Ni25  1  0.750000  0.929119  0.706879  1
  Ni  Ni26  1  0.750000  0.570655  0.206966  1
  Ni  Ni27  1  0.250000  0.429103  0.793052  1
  Ni  Ni28  1  0.750000  0.634367  0.505612  1
  Ni  Ni29  1  0.250000  0.365500  0.494465  1
  Ni  Ni30  1  0.250000  0.813824  0.800704  1
  Ni  Ni31  1  0.750000  0.186807  0.199410  1
  Ni  Ni32  1  0.750000  0.313879  0.699175  1
  Ni  Ni33  1  0.250000  0.686022  0.300936  1
  Ni  Ni34  1  0.250000  0.885491  0.515851  1
  Ni  Ni35  1  0.750000  0.865873  0.005372  1
