# generated using pymatgen
data_TmZn6Sn5Rh12
_symmetry_space_group_name_H-M   'P 1'
_cell_length_a   4.43887700
_cell_length_b   6.34041000
_cell_length_c   13.35126700
_cell_angle_alpha   90.00000000
_cell_angle_beta   89.99976367
_cell_angle_gamma   90.00000000
_symmetry_Int_Tables_number   1
_chemical_formula_structural   TmZn6Sn5Rh12
_chemical_formula_sum   'Tm1 Zn6 Sn5 Rh12'
_cell_volume   375.76206542
_cell_formula_units_Z   1
loop_
 _symmetry_equiv_pos_site_id
 _symmetry_equiv_pos_as_xyz
  1  'x, y, z'
loop_
 _atom_site_type_symbol
 _atom_site_label
 _atom_site_symmetry_multiplicity
 _atom_site_fract_x
 _atom_site_fract_y
 _atom_site_fract_z
 _atom_site_occupancy
  Tm  Tm0  1  0.000000  0.500000  0.000000  1
  Zn  Zn1  1  0.000000  0.000000  0.000000  1
  Zn  Zn2  1  0.500021  0.500000  0.161053  1
  Zn  Zn3  1  0.000019  0.000000  0.335992  1
  Zn  Zn4  1  0.500000  0.500000  0.500000  1
  Zn  Zn5  1  0.999982  0.000000  0.664008  1
  Zn  Zn6  1  0.499980  0.500000  0.838947  1
  Sn  Sn7  1  0.500040  0.000000  0.168955  1
  Sn  Sn8  1  0.999980  0.500000  0.333545  1
  Sn  Sn9  1  0.500000  0.000000  0.500000  1
  Sn  Sn10  1  0.000020  0.500000  0.666454  1
  Sn  Sn11  1  0.499961  0.000000  0.831045  1
  Rh  Rh12  1  0.500000  0.235180  0.000000  1
  Rh  Rh13  1  0.500000  0.764820  0.000000  1
  Rh  Rh14  1  0.000044  0.245865  0.172432  1
  Rh  Rh15  1  0.000044  0.754134  0.172432  1
  Rh  Rh16  1  0.500028  0.250619  0.335405  1
  Rh  Rh17  1  0.500028  0.749380  0.335405  1
  Rh  Rh18  1  0.000000  0.250677  0.500000  1
  Rh  Rh19  1  0.000000  0.749322  0.500000  1
  Rh  Rh20  1  0.499973  0.250619  0.664595  1
  Rh  Rh21  1  0.499973  0.749380  0.664595  1
  Rh  Rh22  1  0.999956  0.245865  0.827568  1
  Rh  Rh23  1  0.999956  0.754134  0.827568  1
