# generated using pymatgen
data_Tm4Al6TcOs
_symmetry_space_group_name_H-M   'P 1'
_cell_length_a   5.43254500
_cell_length_b   5.43254527
_cell_length_c   8.84948000
_cell_angle_alpha   90.00000000
_cell_angle_beta   90.00000000
_cell_angle_gamma   120.00000445
_symmetry_Int_Tables_number   1
_chemical_formula_structural   Tm4Al6TcOs
_chemical_formula_sum   'Tm4 Al6 Tc1 Os1'
_cell_volume   226.18044322
_cell_formula_units_Z   1
loop_
 _symmetry_equiv_pos_site_id
 _symmetry_equiv_pos_as_xyz
  1  'x, y, z'
loop_
 _atom_site_type_symbol
 _atom_site_label
 _atom_site_symmetry_multiplicity
 _atom_site_fract_x
 _atom_site_fract_y
 _atom_site_fract_z
 _atom_site_occupancy
  Tm  Tm0  1  0.666665  0.333332  0.053025  1
  Tm  Tm1  1  0.666665  0.333332  0.447659  1
  Tm  Tm2  1  0.333333  0.666667  0.552341  1
  Tm  Tm3  1  0.333333  0.666667  0.946975  1
  Al  Al4  1  0.162835  0.325670  0.251275  1
  Al  Al5  1  0.162835  0.837165  0.251275  1
  Al  Al6  1  0.674331  0.837165  0.251275  1
  Al  Al7  1  0.325670  0.162834  0.748727  1
  Al  Al8  1  0.837164  0.162834  0.748727  1
  Al  Al9  1  0.837163  0.674329  0.748727  1
  Tc  Tc10  1  0.000000  0.000000  0.000000  1
  Os  Os11  1  0.000000  0.000000  0.500000  1
