# generated using pymatgen
data_BiPd6ClO8
_symmetry_space_group_name_H-M   'P 1'
_cell_length_a   6.92834408
_cell_length_b   6.92834314
_cell_length_c   6.92834400
_cell_angle_alpha   59.99999587
_cell_angle_beta   60.00000037
_cell_angle_gamma   59.99999299
_symmetry_Int_Tables_number   1
_chemical_formula_structural   BiPd6ClO8
_chemical_formula_sum   'Bi1 Pd6 Cl1 O8'
_cell_volume   235.16530340
_cell_formula_units_Z   1
loop_
 _symmetry_equiv_pos_site_id
 _symmetry_equiv_pos_as_xyz
  1  'x, y, z'
loop_
 _atom_site_type_symbol
 _atom_site_label
 _atom_site_symmetry_multiplicity
 _atom_site_fract_x
 _atom_site_fract_y
 _atom_site_fract_z
 _atom_site_occupancy
  Bi  Bi0  1  0.000000  0.000000  0.000000  1
  Pd  Pd1  1  0.000000  0.000000  0.500000  1
  Pd  Pd2  1  0.500000  0.000000  0.500000  1
  Pd  Pd3  1  0.000000  0.500000  0.500000  1
  Pd  Pd4  1  0.500000  0.500000  0.000000  1
  Pd  Pd5  1  0.000000  0.500000  0.000000  1
  Pd  Pd6  1  0.500000  0.000000  0.000000  1
  Cl  Cl7  1  0.500000  0.500000  0.500000  1
  O  O8  1  0.858208  0.858208  0.425377  1
  O  O9  1  0.858208  0.425377  0.858208  1
  O  O10  1  0.425377  0.858208  0.858208  1
  O  O11  1  0.858208  0.858208  0.858208  1
  O  O12  1  0.141792  0.141792  0.574623  1
  O  O13  1  0.141792  0.574623  0.141792  1
  O  O14  1  0.574623  0.141792  0.141792  1
  O  O15  1  0.141792  0.141792  0.141792  1
