# generated using pymatgen
data_HoEr13(TmBi2)6
_symmetry_space_group_name_H-M   'P 1'
_cell_length_a   8.19586701
_cell_length_b   9.45984900
_cell_length_c   11.94217101
_cell_angle_alpha   89.99830577
_cell_angle_beta   90.00419865
_cell_angle_gamma   89.99834532
_symmetry_Int_Tables_number   1
_chemical_formula_structural   HoEr13(TmBi2)6
_chemical_formula_sum   'Ho1 Er13 Tm6 Bi12'
_cell_volume   925.89639080
_cell_formula_units_Z   1
loop_
 _symmetry_equiv_pos_site_id
 _symmetry_equiv_pos_as_xyz
  1  'x, y, z'
loop_
 _atom_site_type_symbol
 _atom_site_label
 _atom_site_symmetry_multiplicity
 _atom_site_fract_x
 _atom_site_fract_y
 _atom_site_fract_z
 _atom_site_occupancy
  Ho  Ho0  1  0.185927  0.750082  0.718025  1
  Er  Er1  1  0.353509  0.750038  0.216701  1
  Er  Er2  1  0.853523  0.749985  0.283297  1
  Er  Er3  1  0.646578  0.249934  0.783278  1
  Er  Er4  1  0.146593  0.250058  0.716665  1
  Er  Er5  1  0.692059  0.935161  0.059092  1
  Er  Er6  1  0.191994  0.564782  0.440896  1
  Er  Er7  1  0.476826  0.249941  0.488929  1
  Er  Er8  1  0.976781  0.250061  0.011055  1
  Er  Er9  1  0.523544  0.750121  0.511115  1
  Er  Er10  1  0.023366  0.749899  0.988880  1
  Er  Er11  1  0.314056  0.250008  0.217808  1
  Er  Er12  1  0.814086  0.249983  0.282203  1
  Er  Er13  1  0.686006  0.749917  0.782123  1
  Tm  Tm14  1  0.692030  0.565270  0.059127  1
  Tm  Tm15  1  0.192014  0.934742  0.440843  1
  Tm  Tm16  1  0.308010  0.065324  0.940935  1
  Tm  Tm17  1  0.808048  0.434694  0.559076  1
  Tm  Tm18  1  0.307864  0.434710  0.940861  1
  Tm  Tm19  1  0.807886  0.065278  0.559163  1
  Bi  Bi20  1  0.405243  0.749795  0.957430  1
  Bi  Bi21  1  0.904940  0.750202  0.542480  1
  Bi  Bi22  1  0.594583  0.250682  0.042438  1
  Bi  Bi23  1  0.094607  0.249328  0.457564  1
  Bi  Bi24  1  0.566112  0.996153  0.325654  1
  Bi  Bi25  1  0.066148  0.503858  0.174323  1
  Bi  Bi26  1  0.433906  0.495992  0.674398  1
  Bi  Bi27  1  0.933640  0.003955  0.825633  1
  Bi  Bi28  1  0.433907  0.004050  0.674333  1
  Bi  Bi29  1  0.933643  0.496004  0.825701  1
  Bi  Bi30  1  0.566268  0.503864  0.325611  1
  Bi  Bi31  1  0.066298  0.996130  0.174362  1
