# generated using pymatgen
data_LiYbSm3Al17Pd6
_symmetry_space_group_name_H-M   'P 1'
_cell_length_a   7.66919556
_cell_length_b   7.65620242
_cell_length_c   9.53694100
_cell_angle_alpha   90.00000000
_cell_angle_beta   90.00000000
_cell_angle_gamma   119.24461392
_symmetry_Int_Tables_number   1
_chemical_formula_structural   LiYbSm3Al17Pd6
_chemical_formula_sum   'Li1 Yb1 Sm3 Al17 Pd6'
_cell_volume   488.60580759
_cell_formula_units_Z   1
loop_
 _symmetry_equiv_pos_site_id
 _symmetry_equiv_pos_as_xyz
  1  'x, y, z'
loop_
 _atom_site_type_symbol
 _atom_site_label
 _atom_site_symmetry_multiplicity
 _atom_site_fract_x
 _atom_site_fract_y
 _atom_site_fract_z
 _atom_site_occupancy
  Li  Li0  1  0.129274  0.130513  0.250000  1
  Yb  Yb1  1  0.007592  0.326631  0.750000  1
  Sm  Sm2  1  0.994849  0.662936  0.250000  1
  Sm  Sm3  1  0.666786  0.997240  0.250000  1
  Sm  Sm4  1  0.326968  0.006250  0.750000  1
  Al  Al5  1  0.864718  0.863363  0.750000  1
  Al  Al6  1  0.003529  0.329187  0.077975  1
  Al  Al7  1  0.998310  0.662176  0.923416  1
  Al  Al8  1  0.998310  0.662176  0.576584  1
  Al  Al9  1  0.328674  0.003031  0.418570  1
  Al  Al10  1  0.003529  0.329187  0.422025  1
  Al  Al11  1  0.666423  0.000744  0.576607  1
  Al  Al12  1  0.666423  0.000744  0.923393  1
  Al  Al13  1  0.328674  0.003031  0.081430  1
  Al  Al14  1  0.335906  0.336840  0.542262  1
  Al  Al15  1  0.671315  0.671346  0.442134  1
  Al  Al16  1  0.671315  0.671346  0.057866  1
  Al  Al17  1  0.335906  0.336840  0.957738  1
  Al  Al18  1  0.340297  0.541862  0.250000  1
  Al  Al19  1  0.655319  0.451053  0.750000  1
  Al  Al20  1  0.540317  0.341892  0.250000  1
  Al  Al21  1  0.452809  0.658696  0.750000  1
  Pd  Pd22  1  0.675112  0.330105  0.000628  1
  Pd  Pd23  1  0.330842  0.676318  0.000173  1
  Pd  Pd24  1  0.330842  0.676318  0.499827  1
  Pd  Pd25  1  0.675112  0.330105  0.499372  1
  Pd  Pd26  1  0.000427  0.000037  0.993075  1
  Pd  Pd27  1  0.000427  0.000037  0.506925  1
