# generated using pymatgen
data_Dy5Be3P9Ir19
_symmetry_space_group_name_H-M   'P 1'
_cell_length_a   12.62829500
_cell_length_b   12.62829451
_cell_length_c   3.94913100
_cell_angle_alpha   90.00000000
_cell_angle_beta   90.00000000
_cell_angle_gamma   119.99999866
_symmetry_Int_Tables_number   1
_chemical_formula_structural   Dy5Be3P9Ir19
_chemical_formula_sum   'Dy5 Be3 P9 Ir19'
_cell_volume   545.40811845
_cell_formula_units_Z   1
loop_
 _symmetry_equiv_pos_site_id
 _symmetry_equiv_pos_as_xyz
  1  'x, y, z'
loop_
 _atom_site_type_symbol
 _atom_site_label
 _atom_site_symmetry_multiplicity
 _atom_site_fract_x
 _atom_site_fract_y
 _atom_site_fract_z
 _atom_site_occupancy
  Dy  Dy0  1  0.666667  0.333333  0.000000  1
  Dy  Dy1  1  0.333333  0.666667  0.000000  1
  Dy  Dy2  1  0.815543  0.809244  0.500000  1
  Dy  Dy3  1  0.190756  0.006300  0.500000  1
  Dy  Dy4  1  0.993700  0.184457  0.500000  1
  Be  Be5  1  0.683201  0.162413  0.500000  1
  Be  Be6  1  0.837587  0.520788  0.500000  1
  Be  Be7  1  0.479212  0.316799  0.500000  1
  P  P8  1  0.177856  0.696555  0.500000  1
  P  P9  1  0.518699  0.822144  0.500000  1
  P  P10  1  0.303445  0.481301  0.500000  1
  P  P11  1  0.639675  0.626788  0.000000  1
  P  P12  1  0.373212  0.012887  0.000000  1
  P  P13  1  0.987113  0.360325  0.000000  1
  P  P14  1  0.178698  0.181408  0.000000  1
  P  P15  1  0.818592  0.997291  0.000000  1
  P  P16  1  0.002709  0.821302  0.000000  1
  Ir  Ir17  1  0.801629  0.175427  0.000000  1
  Ir  Ir18  1  0.824573  0.626202  0.000000  1
  Ir  Ir19  1  0.373798  0.198371  0.000000  1
  Ir  Ir20  1  0.190266  0.812888  0.000000  1
  Ir  Ir21  1  0.622622  0.809734  0.000000  1
  Ir  Ir22  1  0.187112  0.377378  0.000000  1
  Ir  Ir23  1  0.455149  0.446493  0.000000  1
  Ir  Ir24  1  0.553507  0.008656  0.000000  1
  Ir  Ir25  1  0.991344  0.544851  0.000000  1
  Ir  Ir26  1  0.280679  0.287862  0.500000  1
  Ir  Ir27  1  0.712138  0.992817  0.500000  1
  Ir  Ir28  1  0.007183  0.719321  0.500000  1
  Ir  Ir29  1  0.870858  0.354470  0.500000  1
  Ir  Ir30  1  0.645530  0.516389  0.500000  1
  Ir  Ir31  1  0.483611  0.129142  0.500000  1
  Ir  Ir32  1  0.369375  0.870827  0.500000  1
  Ir  Ir33  1  0.501454  0.630625  0.500000  1
  Ir  Ir34  1  0.129173  0.498546  0.500000  1
  Ir  Ir35  1  0.000000  0.000000  0.000000  1
