# generated using pymatgen
data_Sc3Pa(ZnRh2)4
_symmetry_space_group_name_H-M   'P 1'
_cell_length_a   5.99638700
_cell_length_b   5.99660300
_cell_length_c   6.96665500
_cell_angle_alpha   90.00000000
_cell_angle_beta   90.00000000
_cell_angle_gamma   90.00000000
_symmetry_Int_Tables_number   1
_chemical_formula_structural   Sc3Pa(ZnRh2)4
_chemical_formula_sum   'Sc3 Pa1 Zn4 Rh8'
_cell_volume   250.50664799
_cell_formula_units_Z   1
loop_
 _symmetry_equiv_pos_site_id
 _symmetry_equiv_pos_as_xyz
  1  'x, y, z'
loop_
 _atom_site_type_symbol
 _atom_site_label
 _atom_site_symmetry_multiplicity
 _atom_site_fract_x
 _atom_site_fract_y
 _atom_site_fract_z
 _atom_site_occupancy
  Sc  Sc0  1  0.249956  0.750000  0.000000  1
  Sc  Sc1  1  0.749886  0.250000  0.499998  1
  Sc  Sc2  1  0.250108  0.750000  0.500001  1
  Pa  Pa3  1  0.750046  0.250000  0.000000  1
  Zn  Zn4  1  0.250012  0.250000  0.000000  1
  Zn  Zn5  1  0.750035  0.750000  0.000000  1
  Zn  Zn6  1  0.250019  0.250000  0.499996  1
  Zn  Zn7  1  0.749982  0.750000  0.500004  1
  Rh  Rh8  1  0.500958  0.000958  0.251412  1
  Rh  Rh9  1  0.500958  0.499038  0.251412  1
  Rh  Rh10  1  0.999029  0.000974  0.251524  1
  Rh  Rh11  1  0.999029  0.499030  0.251524  1
  Rh  Rh12  1  0.999029  0.000974  0.748476  1
  Rh  Rh13  1  0.999029  0.499022  0.748476  1
  Rh  Rh14  1  0.500960  0.000958  0.748588  1
  Rh  Rh15  1  0.500960  0.499046  0.748588  1
