# generated using pymatgen
data_Y6Zn23Se
_symmetry_space_group_name_H-M   'P 1'
_cell_length_a   9.07631357
_cell_length_b   9.07631367
_cell_length_c   9.07631500
_cell_angle_alpha   59.99999879
_cell_angle_beta   59.99999843
_cell_angle_gamma   59.99999931
_symmetry_Int_Tables_number   1
_chemical_formula_structural   Y6Zn23Se
_chemical_formula_sum   'Y6 Zn23 Se1'
_cell_volume   528.70514725
_cell_formula_units_Z   1
loop_
 _symmetry_equiv_pos_site_id
 _symmetry_equiv_pos_as_xyz
  1  'x, y, z'
loop_
 _atom_site_type_symbol
 _atom_site_label
 _atom_site_symmetry_multiplicity
 _atom_site_fract_x
 _atom_site_fract_y
 _atom_site_fract_z
 _atom_site_occupancy
  Y  Y0  1  0.718045  0.281955  0.281955  1
  Y  Y1  1  0.718045  0.281955  0.718045  1
  Y  Y2  1  0.718045  0.718045  0.281955  1
  Y  Y3  1  0.281955  0.718045  0.718045  1
  Y  Y4  1  0.281955  0.718045  0.281955  1
  Y  Y5  1  0.281955  0.281955  0.718045  1
  Zn  Zn6  1  0.622480  0.125840  0.125840  1
  Zn  Zn7  1  0.125840  0.622480  0.125840  1
  Zn  Zn8  1  0.125840  0.125840  0.622480  1
  Zn  Zn9  1  0.125840  0.125840  0.125840  1
  Zn  Zn10  1  0.377520  0.874160  0.874160  1
  Zn  Zn11  1  0.874160  0.377520  0.874160  1
  Zn  Zn12  1  0.874160  0.874160  0.377520  1
  Zn  Zn13  1  0.874160  0.874160  0.874160  1
  Zn  Zn14  1  0.500000  0.000000  0.000000  1
  Zn  Zn15  1  0.500000  0.000000  0.500000  1
  Zn  Zn16  1  0.500000  0.500000  0.000000  1
  Zn  Zn17  1  0.000000  0.500000  0.500000  1
  Zn  Zn18  1  0.000000  0.500000  0.000000  1
  Zn  Zn19  1  0.000000  0.000000  0.500000  1
  Zn  Zn20  1  0.000000  0.000000  0.000000  1
  Zn  Zn21  1  0.012338  0.329220  0.329220  1
  Zn  Zn22  1  0.329220  0.012338  0.329220  1
  Zn  Zn23  1  0.329220  0.329220  0.012338  1
  Zn  Zn24  1  0.329220  0.329220  0.329220  1
  Zn  Zn25  1  0.987662  0.670780  0.670780  1
  Zn  Zn26  1  0.670780  0.987662  0.670780  1
  Zn  Zn27  1  0.670780  0.670780  0.987662  1
  Zn  Zn28  1  0.670780  0.670780  0.670780  1
  Se  Se29  1  0.500000  0.500000  0.500000  1
