# generated using pymatgen
data_YbSiAsRu2
_symmetry_space_group_name_H-M   'P 1'
_cell_length_a   5.74450366
_cell_length_b   5.74450420
_cell_length_c   5.74450416
_cell_angle_alpha   137.05684315
_cell_angle_beta   137.05684282
_cell_angle_gamma   62.35059471
_symmetry_Int_Tables_number   1
_chemical_formula_structural   YbSiAsRu2
_chemical_formula_sum   'Yb1 Si1 As1 Ru2'
_cell_volume   86.92372026
_cell_formula_units_Z   1
loop_
 _symmetry_equiv_pos_site_id
 _symmetry_equiv_pos_as_xyz
  1  'x, y, z'
loop_
 _atom_site_type_symbol
 _atom_site_label
 _atom_site_symmetry_multiplicity
 _atom_site_fract_x
 _atom_site_fract_y
 _atom_site_fract_z
 _atom_site_occupancy
  Yb  Yb0  1  0.000341  0.000341  0.000000  1
  Si  Si1  1  0.364091  0.364091  0.000000  1
  As  As2  1  0.627959  0.627959  0.000000  1
  Ru  Ru3  1  0.253804  0.753804  0.500000  1
  Ru  Ru4  1  0.753804  0.253804  0.500000  1
