# generated using pymatgen
data_Ac5Sc3(As3Rh4)4
_symmetry_space_group_name_H-M   'P 1'
_cell_length_a   13.63673800
_cell_length_b   13.63673890
_cell_length_c   4.11348300
_cell_angle_alpha   90.00000000
_cell_angle_beta   90.00000000
_cell_angle_gamma   120.00000266
_symmetry_Int_Tables_number   1
_chemical_formula_structural   Ac5Sc3(As3Rh4)4
_chemical_formula_sum   'Ac5 Sc3 As12 Rh16'
_cell_volume   662.46257568
_cell_formula_units_Z   1
loop_
 _symmetry_equiv_pos_site_id
 _symmetry_equiv_pos_as_xyz
  1  'x, y, z'
loop_
 _atom_site_type_symbol
 _atom_site_label
 _atom_site_symmetry_multiplicity
 _atom_site_fract_x
 _atom_site_fract_y
 _atom_site_fract_z
 _atom_site_occupancy
  Ac  Ac0  1  0.188661  0.188661  0.500000  1
  Ac  Ac1  1  0.811339  0.000000  0.500000  1
  Ac  Ac2  1  0.000000  0.811339  0.500000  1
  Ac  Ac3  1  0.333333  0.666667  0.000000  1
  Ac  Ac4  1  0.666667  0.333333  0.000000  1
  Sc  Sc5  1  0.562956  0.562956  0.000000  1
  Sc  Sc6  1  0.437044  0.000000  0.000000  1
  Sc  Sc7  1  0.000000  0.437044  0.000000  1
  As  As8  1  0.818495  0.818495  0.000000  1
  As  As9  1  0.181505  0.000000  0.000000  1
  As  As10  1  0.000000  0.181505  0.000000  1
  As  As11  1  0.166630  0.481115  0.500000  1
  As  As12  1  0.518885  0.685515  0.500000  1
  As  As13  1  0.314485  0.833370  0.500000  1
  As  As14  1  0.685515  0.518885  0.500000  1
  As  As15  1  0.833370  0.314485  0.500000  1
  As  As16  1  0.481115  0.166630  0.500000  1
  As  As17  1  0.365284  0.365284  0.000000  1
  As  As18  1  0.634716  0.000000  0.000000  1
  As  As19  1  0.000000  0.634716  0.000000  1
  Rh  Rh20  1  0.714621  0.714621  0.500000  1
  Rh  Rh21  1  0.285379  0.000000  0.500000  1
  Rh  Rh22  1  0.000000  0.285379  0.500000  1
  Rh  Rh23  1  0.176829  0.378071  0.000000  1
  Rh  Rh24  1  0.621929  0.798758  0.000000  1
  Rh  Rh25  1  0.201242  0.823171  0.000000  1
  Rh  Rh26  1  0.798758  0.621929  0.000000  1
  Rh  Rh27  1  0.823171  0.201242  0.000000  1
  Rh  Rh28  1  0.378071  0.176829  0.000000  1
  Rh  Rh29  1  0.353884  0.479395  0.500000  1
  Rh  Rh30  1  0.520605  0.874490  0.500000  1
  Rh  Rh31  1  0.125510  0.646116  0.500000  1
  Rh  Rh32  1  0.874490  0.520605  0.500000  1
  Rh  Rh33  1  0.646116  0.125510  0.500000  1
  Rh  Rh34  1  0.479395  0.353884  0.500000  1
  Rh  Rh35  1  0.000000  0.000000  0.000000  1
