# generated using pymatgen
data_Gd10Al4Ir5Ru
_symmetry_space_group_name_H-M   'P 1'
_cell_length_a   8.49601979
_cell_length_b   8.49602009
_cell_length_c   8.47585300
_cell_angle_alpha   109.29045458
_cell_angle_beta   109.63446408
_cell_angle_gamma   109.58509674
_symmetry_Int_Tables_number   1
_chemical_formula_structural   Gd10Al4Ir5Ru
_chemical_formula_sum   'Gd10 Al4 Ir5 Ru1'
_cell_volume   470.40467852
_cell_formula_units_Z   1
loop_
 _symmetry_equiv_pos_site_id
 _symmetry_equiv_pos_as_xyz
  1  'x, y, z'
loop_
 _atom_site_type_symbol
 _atom_site_label
 _atom_site_symmetry_multiplicity
 _atom_site_fract_x
 _atom_site_fract_y
 _atom_site_fract_z
 _atom_site_occupancy
  Gd  Gd0  1  0.251972  0.680793  0.435759  1
  Gd  Gd1  1  0.745035  0.816214  0.064242  1
  Gd  Gd2  1  0.432993  0.248759  0.681437  1
  Gd  Gd3  1  0.682064  0.432065  0.250000  1
  Gd  Gd4  1  0.067322  0.751556  0.818563  1
  Gd  Gd5  1  0.818248  0.068248  0.750000  1
  Gd  Gd6  1  0.213811  0.213765  0.214220  1
  Gd  Gd7  1  0.499546  0.999591  0.285780  1
  Gd  Gd8  1  0.287686  0.502059  0.998564  1
  Gd  Gd9  1  0.003495  0.289122  0.501437  1
  Al  Al10  1  0.498628  0.000276  0.905746  1
  Al  Al11  1  0.594530  0.592881  0.594254  1
  Al  Al12  1  0.904732  0.500226  0.000736  1
  Al  Al13  1  0.999489  0.903996  0.499265  1
  Ir  Ir14  1  0.249980  0.125288  0.873396  1
  Ir  Ir15  1  0.751892  0.376584  0.626603  1
  Ir  Ir16  1  0.870788  0.250115  0.121301  1
  Ir  Ir17  1  0.121200  0.871200  0.250001  1
  Ir  Ir18  1  0.628812  0.749487  0.378698  1
  Ru  Ru19  1  0.377779  0.627779  0.750000  1
