# generated using pymatgen
data_Ba4YErPa2O12
_symmetry_space_group_name_H-M   'P 1'
_cell_length_a   6.23882180
_cell_length_b   6.10047313
_cell_length_c   10.64826300
_cell_angle_alpha   54.90400731
_cell_angle_beta   90.35358580
_cell_angle_gamma   90.04159280
_symmetry_Int_Tables_number   1
_chemical_formula_structural   Ba4YErPa2O12
_chemical_formula_sum   'Ba4 Y1 Er1 Pa2 O12'
_cell_volume   331.57986177
_cell_formula_units_Z   1
loop_
 _symmetry_equiv_pos_site_id
 _symmetry_equiv_pos_as_xyz
  1  'x, y, z'
loop_
 _atom_site_type_symbol
 _atom_site_label
 _atom_site_symmetry_multiplicity
 _atom_site_fract_x
 _atom_site_fract_y
 _atom_site_fract_z
 _atom_site_occupancy
  Ba  Ba0  1  0.472950  0.258347  0.748623  1
  Ba  Ba1  1  0.971718  0.744012  0.748737  1
  Ba  Ba2  1  0.028282  0.255988  0.251263  1
  Ba  Ba3  1  0.527050  0.741653  0.251377  1
  Y  Y4  1  0.000000  0.000000  0.000000  1
  Er  Er5  1  0.500000  0.000000  0.500000  1
  Pa  Pa6  1  0.000000  0.500000  0.500000  1
  Pa  Pa7  1  0.500000  0.500000  0.000000  1
  O  O8  1  0.215668  0.742440  0.535337  1
  O  O9  1  0.710829  0.256737  0.963761  1
  O  O10  1  0.784332  0.257560  0.464663  1
  O  O11  1  0.289171  0.743263  0.036239  1
  O  O12  1  0.723582  0.678189  0.537621  1
  O  O13  1  0.221679  0.327448  0.961526  1
  O  O14  1  0.276418  0.321811  0.462379  1
  O  O15  1  0.778321  0.672552  0.038474  1
  O  O16  1  0.017530  0.184956  0.744934  1
  O  O17  1  0.517051  0.815849  0.753315  1
  O  O18  1  0.982470  0.815044  0.255066  1
  O  O19  1  0.482949  0.184151  0.246685  1
