# generated using pymatgen
data_Th2Hg(AsRh2)6
_symmetry_space_group_name_H-M   'P 1'
_cell_length_a   10.08875300
_cell_length_b   10.08875328
_cell_length_c   4.04215400
_cell_angle_alpha   90.00000000
_cell_angle_beta   90.00000000
_cell_angle_gamma   119.99999581
_symmetry_Int_Tables_number   1
_chemical_formula_structural   Th2Hg(AsRh2)6
_chemical_formula_sum   'Th2 Hg1 As6 Rh12'
_cell_volume   356.30219380
_cell_formula_units_Z   1
loop_
 _symmetry_equiv_pos_site_id
 _symmetry_equiv_pos_as_xyz
  1  'x, y, z'
loop_
 _atom_site_type_symbol
 _atom_site_label
 _atom_site_symmetry_multiplicity
 _atom_site_fract_x
 _atom_site_fract_y
 _atom_site_fract_z
 _atom_site_occupancy
  Th  Th0  1  0.333333  0.666667  0.756875  1
  Th  Th1  1  0.666667  0.333333  0.245134  1
  Hg  Hg2  1  0.000000  0.000000  0.575392  1
  As  As3  1  0.886369  0.599277  0.744753  1
  As  As4  1  0.400723  0.287092  0.744753  1
  As  As5  1  0.712908  0.113631  0.744753  1
  As  As6  1  0.111788  0.398907  0.257834  1
  As  As7  1  0.601093  0.712881  0.257834  1
  As  As8  1  0.287119  0.888212  0.257834  1
  Rh  Rh9  1  0.616486  0.548435  0.749786  1
  Rh  Rh10  1  0.451565  0.068051  0.749786  1
  Rh  Rh11  1  0.931949  0.383514  0.749786  1
  Rh  Rh12  1  0.387359  0.452826  0.253957  1
  Rh  Rh13  1  0.547174  0.934535  0.253957  1
  Rh  Rh14  1  0.065465  0.612641  0.253957  1
  Rh  Rh15  1  0.132777  0.834833  0.762100  1
  Rh  Rh16  1  0.165167  0.297944  0.762100  1
  Rh  Rh17  1  0.702056  0.867223  0.762100  1
  Rh  Rh18  1  0.870191  0.155316  0.240528  1
  Rh  Rh19  1  0.844684  0.714875  0.240528  1
  Rh  Rh20  1  0.285125  0.129809  0.240528  1
