# generated using pymatgen
data_Zr2Ni10Mo2P7
_symmetry_space_group_name_H-M   'P 1'
_cell_length_a   9.07063425
_cell_length_b   9.11179454
_cell_length_c   3.65002700
_cell_angle_alpha   90.00000000
_cell_angle_beta   90.00000000
_cell_angle_gamma   119.87764889
_symmetry_Int_Tables_number   1
_chemical_formula_structural   Zr2Ni10Mo2P7
_chemical_formula_sum   'Zr2 Ni10 Mo2 P7'
_cell_volume   261.57871447
_cell_formula_units_Z   1
loop_
 _symmetry_equiv_pos_site_id
 _symmetry_equiv_pos_as_xyz
  1  'x, y, z'
loop_
 _atom_site_type_symbol
 _atom_site_label
 _atom_site_symmetry_multiplicity
 _atom_site_fract_x
 _atom_site_fract_y
 _atom_site_fract_z
 _atom_site_occupancy
  Zr  Zr0  1  0.998145  0.002492  0.000000  1
  Zr  Zr1  1  0.332427  0.667562  0.500000  1
  Ni  Ni2  1  0.293991  0.396387  0.000000  1
  Ni  Ni3  1  0.101426  0.706800  0.000000  1
  Ni  Ni4  1  0.383054  0.169208  0.000000  1
  Ni  Ni5  1  0.791937  0.623002  0.000000  1
  Ni  Ni6  1  0.825317  0.207643  0.000000  1
  Ni  Ni7  1  0.231003  0.945561  0.500000  1
  Ni  Ni8  1  0.055710  0.279406  0.500000  1
  Ni  Ni9  1  0.719553  0.775976  0.500000  1
  Ni  Ni10  1  0.571526  0.111539  0.500000  1
  Ni  Ni11  1  0.602450  0.897349  0.000000  1
  Mo  Mo12  1  0.885131  0.456008  0.500000  1
  Mo  Mo13  1  0.544728  0.429942  0.500000  1
  P  P14  1  0.663984  0.328625  0.000000  1
  P  P15  1  0.082253  0.452055  0.000000  1
  P  P16  1  0.253695  0.207729  0.500000  1
  P  P17  1  0.785223  0.045094  0.500000  1
  P  P18  1  0.958102  0.747668  0.500000  1
  P  P19  1  0.549310  0.631819  0.000000  1
  P  P20  1  0.371033  0.918137  0.000000  1
