# generated using pymatgen
data_Y20Mg2CdRu2Au3
_symmetry_space_group_name_H-M   'P 1'
_cell_length_a   9.69364290
_cell_length_b   9.71052409
_cell_length_c   9.65108700
_cell_angle_alpha   90.00000000
_cell_angle_beta   90.00000000
_cell_angle_gamma   120.05763539
_symmetry_Int_Tables_number   1
_chemical_formula_structural   Y20Mg2CdRu2Au3
_chemical_formula_sum   'Y20 Mg2 Cd1 Ru2 Au3'
_cell_volume   786.29231355
_cell_formula_units_Z   1
loop_
 _symmetry_equiv_pos_site_id
 _symmetry_equiv_pos_as_xyz
  1  'x, y, z'
loop_
 _atom_site_type_symbol
 _atom_site_label
 _atom_site_symmetry_multiplicity
 _atom_site_fract_x
 _atom_site_fract_y
 _atom_site_fract_z
 _atom_site_occupancy
  Y  Y0  1  0.998552  0.999276  0.455315  1
  Y  Y1  1  0.998552  0.999276  0.044685  1
  Y  Y2  1  0.208915  0.791521  0.438415  1
  Y  Y3  1  0.208915  0.417395  0.438415  1
  Y  Y4  1  0.582427  0.791214  0.439742  1
  Y  Y5  1  0.791803  0.208924  0.557151  1
  Y  Y6  1  0.791803  0.582876  0.557151  1
  Y  Y7  1  0.419534  0.209766  0.555906  1
  Y  Y8  1  0.791803  0.208924  0.942849  1
  Y  Y9  1  0.791803  0.582876  0.942849  1
  Y  Y10  1  0.419534  0.209766  0.944094  1
  Y  Y11  1  0.208915  0.791521  0.061585  1
  Y  Y12  1  0.208915  0.417395  0.061585  1
  Y  Y13  1  0.582427  0.791214  0.060258  1
  Y  Y14  1  0.539541  0.460853  0.250000  1
  Y  Y15  1  0.539541  0.078687  0.250000  1
  Y  Y16  1  0.920082  0.460041  0.250000  1
  Y  Y17  1  0.463384  0.543615  0.750000  1
  Y  Y18  1  0.463384  0.919770  0.750000  1
  Y  Y19  1  0.081832  0.540917  0.750000  1
  Mg  Mg20  1  0.103431  0.892408  0.750000  1
  Mg  Mg21  1  0.103431  0.211022  0.750000  1
  Cd  Cd22  1  0.781897  0.890948  0.750000  1
  Ru  Ru23  1  0.332385  0.666193  0.250000  1
  Ru  Ru24  1  0.669137  0.334568  0.750000  1
  Au  Au25  1  0.867421  0.130912  0.250000  1
  Au  Au26  1  0.867421  0.736509  0.250000  1
  Au  Au27  1  0.263219  0.131609  0.250000  1
