# generated using pymatgen
data_Sc2Co3P7Ru9
_symmetry_space_group_name_H-M   'P 1'
_cell_length_a   9.26753400
_cell_length_b   9.26753361
_cell_length_c   3.78346700
_cell_angle_alpha   90.00000000
_cell_angle_beta   90.00000000
_cell_angle_gamma   120.00000044
_symmetry_Int_Tables_number   1
_chemical_formula_structural   Sc2Co3P7Ru9
_chemical_formula_sum   'Sc2 Co3 P7 Ru9'
_cell_volume   281.41609851
_cell_formula_units_Z   1
loop_
 _symmetry_equiv_pos_site_id
 _symmetry_equiv_pos_as_xyz
  1  'x, y, z'
loop_
 _atom_site_type_symbol
 _atom_site_label
 _atom_site_symmetry_multiplicity
 _atom_site_fract_x
 _atom_site_fract_y
 _atom_site_fract_z
 _atom_site_occupancy
  Sc  Sc0  1  0.666667  0.333333  0.500000  1
  Sc  Sc1  1  0.333333  0.666667  0.000000  1
  Co  Co2  1  0.728147  0.887770  0.000000  1
  Co  Co3  1  0.112230  0.840375  0.000000  1
  Co  Co4  1  0.159625  0.271853  0.000000  1
  P  P5  1  0.596904  0.715868  0.500000  1
  P  P6  1  0.000000  0.000000  0.000000  1
  P  P7  1  0.284132  0.881035  0.500000  1
  P  P8  1  0.118965  0.403096  0.500000  1
  P  P9  1  0.887561  0.584832  0.000000  1
  P  P10  1  0.415168  0.302729  0.000000  1
  P  P11  1  0.697271  0.112439  0.000000  1
  Ru  Ru12  1  0.560763  0.945201  0.500000  1
  Ru  Ru13  1  0.384439  0.439237  0.500000  1
  Ru  Ru14  1  0.914589  0.120440  0.500000  1
  Ru  Ru15  1  0.205851  0.085411  0.500000  1
  Ru  Ru16  1  0.879560  0.794149  0.500000  1
  Ru  Ru17  1  0.427139  0.064545  0.000000  1
  Ru  Ru18  1  0.935455  0.362595  0.000000  1
  Ru  Ru19  1  0.637405  0.572861  0.000000  1
  Ru  Ru20  1  0.054799  0.615561  0.500000  1
