# generated using pymatgen
data_Dy2Y2MoRu7
_symmetry_space_group_name_H-M   'P 1'
_cell_length_a   5.47748155
_cell_length_b   5.19805571
_cell_length_c   9.05464401
_cell_angle_alpha   89.99468885
_cell_angle_beta   90.00311617
_cell_angle_gamma   122.00396262
_symmetry_Int_Tables_number   1
_chemical_formula_structural   Dy2Y2MoRu7
_chemical_formula_sum   'Dy2 Y2 Mo1 Ru7'
_cell_volume   218.62254483
_cell_formula_units_Z   1
loop_
 _symmetry_equiv_pos_site_id
 _symmetry_equiv_pos_as_xyz
  1  'x, y, z'
loop_
 _atom_site_type_symbol
 _atom_site_label
 _atom_site_symmetry_multiplicity
 _atom_site_fract_x
 _atom_site_fract_y
 _atom_site_fract_z
 _atom_site_occupancy
  Dy  Dy0  1  0.334869  0.669913  0.067996  1
  Dy  Dy1  1  0.672344  0.345620  0.936860  1
  Y  Y2  1  0.672177  0.345274  0.563668  1
  Y  Y3  1  0.334734  0.669564  0.431552  1
  Mo  Mo4  1  0.159291  0.319881  0.750215  1
  Ru  Ru5  1  0.008935  0.018022  0.498205  1
  Ru  Ru6  1  0.009255  0.018675  0.001761  1
  Ru  Ru7  1  0.171778  0.820808  0.750499  1
  Ru  Ru8  1  0.650354  0.821202  0.750509  1
  Ru  Ru9  1  0.822346  0.644566  0.249582  1
  Ru  Ru10  1  0.831976  0.162952  0.249570  1
  Ru  Ru11  1  0.331941  0.163522  0.249583  1
