# generated using pymatgen
data_Ba18Sr2Si11Hg
_symmetry_space_group_name_H-M   'P 1'
_cell_length_a   8.45267700
_cell_length_b   8.45267700
_cell_length_c   16.89733700
_cell_angle_alpha   90.00000000
_cell_angle_beta   90.00000000
_cell_angle_gamma   90.00000000
_symmetry_Int_Tables_number   1
_chemical_formula_structural   Ba18Sr2Si11Hg
_chemical_formula_sum   'Ba18 Sr2 Si11 Hg1'
_cell_volume   1207.27668373
_cell_formula_units_Z   1
loop_
 _symmetry_equiv_pos_site_id
 _symmetry_equiv_pos_as_xyz
  1  'x, y, z'
loop_
 _atom_site_type_symbol
 _atom_site_label
 _atom_site_symmetry_multiplicity
 _atom_site_fract_x
 _atom_site_fract_y
 _atom_site_fract_z
 _atom_site_occupancy
  Ba  Ba0  1  0.319129  0.678524  0.110915  1
  Ba  Ba1  1  0.178524  0.180871  0.110915  1
  Ba  Ba2  1  0.328258  0.692238  0.393633  1
  Ba  Ba3  1  0.663025  0.698797  0.888839  1
  Ba  Ba4  1  0.192238  0.171742  0.393633  1
  Ba  Ba5  1  0.671742  0.307762  0.393633  1
  Ba  Ba6  1  0.172474  0.809861  0.606072  1
  Ba  Ba7  1  0.336975  0.301203  0.888839  1
  Ba  Ba8  1  0.198797  0.836975  0.888839  1
  Ba  Ba9  1  0.827526  0.190139  0.606072  1
  Ba  Ba10  1  0.309861  0.327526  0.606072  1
  Ba  Ba11  1  0.807762  0.828258  0.393633  1
  Ba  Ba12  1  0.801203  0.163025  0.888839  1
  Ba  Ba13  1  0.821476  0.819129  0.110915  1
  Ba  Ba14  1  0.000000  0.500000  0.271418  1
  Ba  Ba15  1  0.000000  0.500000  0.764934  1
  Ba  Ba16  1  0.680871  0.321476  0.110915  1
  Ba  Ba17  1  0.690139  0.672474  0.606072  1
  Sr  Sr18  1  0.500000  0.000000  0.721935  1
  Sr  Sr19  1  0.500000  0.000000  0.237426  1
  Si  Si20  1  0.103949  0.100984  0.748381  1
  Si  Si21  1  0.399016  0.603949  0.748381  1
  Si  Si22  1  0.599669  0.604715  0.251480  1
  Si  Si23  1  0.500000  0.000000  0.016680  1
  Si  Si24  1  0.104715  0.900331  0.251480  1
  Si  Si25  1  0.600984  0.396051  0.748381  1
  Si  Si26  1  0.896051  0.899016  0.748381  1
  Si  Si27  1  0.400331  0.395285  0.251480  1
  Si  Si28  1  0.895285  0.099669  0.251480  1
  Si  Si29  1  0.500000  0.000000  0.513866  1
  Si  Si30  1  0.000000  0.500000  0.487533  1
  Hg  Hg31  1  0.000000  0.500000  0.988926  1
