# generated using pymatgen
data_HoCo(BRu)2
_symmetry_space_group_name_H-M   'P 1'
_cell_length_a   5.26100427
_cell_length_b   5.48940682
_cell_length_c   3.03053500
_cell_angle_alpha   90.00000000
_cell_angle_beta   90.00000000
_cell_angle_gamma   121.44681976
_symmetry_Int_Tables_number   1
_chemical_formula_structural   HoCo(BRu)2
_chemical_formula_sum   'Ho1 Co1 B2 Ru2'
_cell_volume   74.66652248
_cell_formula_units_Z   1
loop_
 _symmetry_equiv_pos_site_id
 _symmetry_equiv_pos_as_xyz
  1  'x, y, z'
loop_
 _atom_site_type_symbol
 _atom_site_label
 _atom_site_symmetry_multiplicity
 _atom_site_fract_x
 _atom_site_fract_y
 _atom_site_fract_z
 _atom_site_occupancy
  Ho  Ho0  1  0.000000  0.000000  0.000000  1
  Co  Co1  1  0.000000  0.500000  0.500000  1
  B  B2  1  0.682942  0.341470  0.000000  1
  B  B3  1  0.317058  0.658530  0.000000  1
  Ru  Ru4  1  0.500000  0.000000  0.500000  1
  Ru  Ru5  1  0.500000  0.500000  0.500000  1
