# generated using pymatgen
data_La6Sm3Dy(Sn3Cl)2
_symmetry_space_group_name_H-M   'P 1'
_cell_length_a   9.53903400
_cell_length_b   9.53903283
_cell_length_c   6.78799600
_cell_angle_alpha   90.00000000
_cell_angle_beta   90.00000000
_cell_angle_gamma   119.99999712
_symmetry_Int_Tables_number   1
_chemical_formula_structural   La6Sm3Dy(Sn3Cl)2
_chemical_formula_sum   'La6 Sm3 Dy1 Sn6 Cl2'
_cell_volume   534.91030221
_cell_formula_units_Z   1
loop_
 _symmetry_equiv_pos_site_id
 _symmetry_equiv_pos_as_xyz
  1  'x, y, z'
loop_
 _atom_site_type_symbol
 _atom_site_label
 _atom_site_symmetry_multiplicity
 _atom_site_fract_x
 _atom_site_fract_y
 _atom_site_fract_z
 _atom_site_occupancy
  La  La0  1  0.738275  0.000155  0.750226  1
  La  La1  1  0.738275  0.738120  0.249774  1
  La  La2  1  0.999845  0.261725  0.249774  1
  La  La3  1  0.999845  0.738120  0.750226  1
  La  La4  1  0.261880  0.261725  0.750226  1
  La  La5  1  0.261880  0.000155  0.249774  1
  Sm  Sm6  1  0.333333  0.666667  0.500000  1
  Sm  Sm7  1  0.666667  0.333333  0.500000  1
  Sm  Sm8  1  0.333333  0.666667  0.000000  1
  Dy  Dy9  1  0.666667  0.333333  0.000000  1
  Sn  Sn10  1  0.610427  0.609698  0.750482  1
  Sn  Sn11  1  0.999271  0.609698  0.249518  1
  Sn  Sn12  1  0.610427  0.000729  0.249518  1
  Sn  Sn13  1  0.390302  0.000729  0.750482  1
  Sn  Sn14  1  0.999271  0.389573  0.750482  1
  Sn  Sn15  1  0.390302  0.389573  0.249518  1
  Cl  Cl16  1  0.000000  0.000000  0.500000  1
  Cl  Cl17  1  0.000000  0.000000  0.000000  1
