# generated using pymatgen
data_Tm12Ni4SnAu
_symmetry_space_group_name_H-M   'P 1'
_cell_length_a   8.26211781
_cell_length_b   8.26208737
_cell_length_c   8.26209074
_cell_angle_alpha   106.77673856
_cell_angle_beta   109.27437788
_cell_angle_gamma   112.41192430
_symmetry_Int_Tables_number   1
_chemical_formula_structural   Tm12Ni4SnAu
_chemical_formula_sum   'Tm12 Ni4 Sn1 Au1'
_cell_volume   433.10230933
_cell_formula_units_Z   1
loop_
 _symmetry_equiv_pos_site_id
 _symmetry_equiv_pos_as_xyz
  1  'x, y, z'
loop_
 _atom_site_type_symbol
 _atom_site_label
 _atom_site_symmetry_multiplicity
 _atom_site_fract_x
 _atom_site_fract_y
 _atom_site_fract_z
 _atom_site_occupancy
  Tm  Tm0  1  0.699261  0.276070  0.975329  1
  Tm  Tm1  1  0.300729  0.723957  0.024689  1
  Tm  Tm2  1  0.699260  0.723907  0.423167  1
  Tm  Tm3  1  0.300731  0.276024  0.576756  1
  Tm  Tm4  1  0.807052  0.132084  0.325018  1
  Tm  Tm5  1  0.807064  0.482050  0.674974  1
  Tm  Tm6  1  0.192926  0.867907  0.674976  1
  Tm  Tm7  1  0.192938  0.517964  0.325019  1
  Tm  Tm8  1  0.610909  0.791308  0.819587  1
  Tm  Tm9  1  0.971715  0.791316  0.180389  1
  Tm  Tm10  1  0.028266  0.208671  0.819577  1
  Tm  Tm11  1  0.389069  0.208675  0.180379  1
  Ni  Ni12  1  0.858065  0.500005  0.358058  1
  Ni  Ni13  1  0.142062  0.500004  0.642050  1
  Ni  Ni14  1  0.999985  0.125516  0.125493  1
  Ni  Ni15  1  0.000001  0.874598  0.874596  1
  Sn  Sn16  1  0.500007  0.999956  0.500000  1
  Au  Au17  1  0.499958  0.499989  0.999941  1
