# generated using pymatgen
data_LaTh7Zn8Ru7Rh
_symmetry_space_group_name_H-M   'P 1'
_cell_length_a   3.92506900
_cell_length_b   7.52238471
_cell_length_c   16.51837894
_cell_angle_alpha   89.71331613
_cell_angle_beta   90.00000000
_cell_angle_gamma   90.00000000
_symmetry_Int_Tables_number   1
_chemical_formula_structural   LaTh7Zn8Ru7Rh
_chemical_formula_sum   'La1 Th7 Zn8 Ru7 Rh1'
_cell_volume   487.71355286
_cell_formula_units_Z   1
loop_
 _symmetry_equiv_pos_site_id
 _symmetry_equiv_pos_as_xyz
  1  'x, y, z'
loop_
 _atom_site_type_symbol
 _atom_site_label
 _atom_site_symmetry_multiplicity
 _atom_site_fract_x
 _atom_site_fract_y
 _atom_site_fract_z
 _atom_site_occupancy
  La  La0  1  0.750000  0.942646  0.286172  1
  Th  Th1  1  0.750000  0.329431  0.440938  1
  Th  Th2  1  0.250000  0.058337  0.715466  1
  Th  Th3  1  0.250000  0.557543  0.784381  1
  Th  Th4  1  0.250000  0.677134  0.560773  1
  Th  Th5  1  0.750000  0.824154  0.057767  1
  Th  Th6  1  0.250000  0.173565  0.939241  1
  Th  Th7  1  0.750000  0.435129  0.216493  1
  Zn  Zn8  1  0.250000  0.113617  0.151428  1
  Zn  Zn9  1  0.250000  0.998515  0.442668  1
  Zn  Zn10  1  0.750000  0.885595  0.849023  1
  Zn  Zn11  1  0.750000  0.005829  0.558248  1
  Zn  Zn12  1  0.250000  0.490978  0.057161  1
  Zn  Zn13  1  0.750000  0.385711  0.650997  1
  Zn  Zn14  1  0.750000  0.502602  0.941799  1
  Zn  Zn15  1  0.250000  0.615567  0.350279  1
  Ru  Ru16  1  0.750000  0.262690  0.812004  1
  Ru  Ru17  1  0.250000  0.254811  0.313582  1
  Ru  Ru18  1  0.250000  0.753333  0.938459  1
  Ru  Ru19  1  0.250000  0.256087  0.561507  1
  Ru  Ru20  1  0.750000  0.745330  0.440436  1
  Ru  Ru21  1  0.750000  0.240666  0.060405  1
  Ru  Ru22  1  0.750000  0.764627  0.688397  1
  Rh  Rh23  1  0.250000  0.726103  0.182373  1
