# generated using pymatgen
data_Ta6V5GeN2
_symmetry_space_group_name_H-M   'P 1'
_cell_length_a   8.24766601
_cell_length_b   8.20983993
_cell_length_c   8.29687600
_cell_angle_alpha   90.00000000
_cell_angle_beta   59.80243154
_cell_angle_gamma   119.84840346
_symmetry_Int_Tables_number   1
_chemical_formula_structural   Ta6V5GeN2
_chemical_formula_sum   'Ta12 V10 Ge2 N4'
_cell_volume   396.97144570
_cell_formula_units_Z   2
loop_
 _symmetry_equiv_pos_site_id
 _symmetry_equiv_pos_as_xyz
  1  'x, y, z'
loop_
 _atom_site_type_symbol
 _atom_site_label
 _atom_site_symmetry_multiplicity
 _atom_site_fract_x
 _atom_site_fract_y
 _atom_site_fract_z
 _atom_site_occupancy
  Ta  Ta0  1  0.624846  0.812424  0.437576  1
  Ta  Ta1  1  0.871495  0.435748  0.814252  1
  Ta  Ta2  1  0.250819  0.812010  0.814140  1
  Ta  Ta3  1  0.250819  0.438809  0.435042  1
  Ta  Ta4  1  0.250819  0.438809  0.814140  1
  Ta  Ta5  1  0.250819  0.812010  0.435042  1
  Ta  Ta6  1  0.375154  0.187576  0.562424  1
  Ta  Ta7  1  0.128505  0.564252  0.185748  1
  Ta  Ta8  1  0.749181  0.187990  0.185860  1
  Ta  Ta9  1  0.749181  0.561191  0.564958  1
  Ta  Ta10  1  0.749181  0.561191  0.185860  1
  Ta  Ta11  1  0.749181  0.187990  0.564958  1
  V  V12  1  0.097174  0.882884  0.201414  1
  V  V13  1  0.097174  0.214289  0.201414  1
  V  V14  1  0.417944  0.208972  0.877612  1
  V  V15  1  0.417944  0.208972  0.204444  1
  V  V16  1  0.902826  0.117116  0.798586  1
  V  V17  1  0.902826  0.785711  0.798586  1
  V  V18  1  0.582056  0.791028  0.122388  1
  V  V19  1  0.582056  0.791028  0.795556  1
  V  V20  1  0.500000  0.500000  0.000000  1
  V  V21  1  0.500000  0.000000  0.000000  1
  Ge  Ge22  1  0.000000  0.000000  0.500000  1
  Ge  Ge23  1  0.000000  0.000000  0.000000  1
  N  N24  1  0.500000  0.000000  0.500000  1
  N  N25  1  0.500000  0.500000  0.500000  1
  N  N26  1  0.000000  0.500000  0.000000  1
  N  N27  1  0.000000  0.500000  0.500000  1
