# generated using pymatgen
data_LuBi5(RuO6)3
_symmetry_space_group_name_H-M   'P 1'
_cell_length_a   9.22784430
_cell_length_b   9.22625325
_cell_length_c   5.17814442
_cell_angle_alpha   89.99999989
_cell_angle_beta   90.06040890
_cell_angle_gamma   119.99429025
_symmetry_Int_Tables_number   1
_chemical_formula_structural   LuBi5(RuO6)3
_chemical_formula_sum   'Lu1 Bi5 Ru3 O18'
_cell_volume   381.81684339
_cell_formula_units_Z   1
loop_
 _symmetry_equiv_pos_site_id
 _symmetry_equiv_pos_as_xyz
  1  'x, y, z'
loop_
 _atom_site_type_symbol
 _atom_site_label
 _atom_site_symmetry_multiplicity
 _atom_site_fract_x
 _atom_site_fract_y
 _atom_site_fract_z
 _atom_site_occupancy
  Lu  Lu0  1  0.000000  0.373469  0.500000  1
  Bi  Bi1  1  0.284775  0.289567  0.001028  1
  Bi  Bi2  1  0.000000  0.704057  0.000000  1
  Bi  Bi3  1  0.625455  0.626344  0.497885  1
  Bi  Bi4  1  0.374545  0.000890  0.502115  1
  Bi  Bi5  1  0.715225  0.004793  0.998972  1
  Ru  Ru6  1  0.000000  0.001477  0.500000  1
  Ru  Ru7  1  0.332101  0.665114  0.999536  1
  Ru  Ru8  1  0.667899  0.333012  0.000464  1
  O  O9  1  0.078972  0.205872  0.709360  1
  O  O10  1  0.218956  0.462709  0.220454  1
  O  O11  1  0.129457  0.582882  0.779521  1
  O  O12  1  0.405022  0.538717  0.788664  1
  O  O13  1  0.237254  0.772082  0.214559  1
  O  O14  1  0.120032  0.923767  0.718065  1
  O  O15  1  0.535029  0.761494  0.214035  1
  O  O16  1  0.199436  0.080036  0.286570  1
  O  O17  1  0.458358  0.864338  0.788204  1
  O  O18  1  0.800564  0.880602  0.713430  1
  O  O19  1  0.464971  0.226465  0.785965  1
  O  O20  1  0.594978  0.133695  0.211336  1
  O  O21  1  0.541642  0.405980  0.211796  1
  O  O22  1  0.781044  0.243753  0.779546  1
  O  O23  1  0.921028  0.126899  0.290640  1
  O  O24  1  0.762746  0.534828  0.785441  1
  O  O25  1  0.870543  0.453425  0.220479  1
  O  O26  1  0.879968  0.803735  0.281935  1
