# generated using pymatgen
data_TbDy2MgCd2Ga3
_symmetry_space_group_name_H-M   'P 1'
_cell_length_a   7.27687813
_cell_length_b   7.27687837
_cell_length_c   4.44305000
_cell_angle_alpha   90.00000000
_cell_angle_beta   90.00000000
_cell_angle_gamma   120.04642028
_symmetry_Int_Tables_number   1
_chemical_formula_structural   TbDy2MgCd2Ga3
_chemical_formula_sum   'Tb1 Dy2 Mg1 Cd2 Ga3'
_cell_volume   203.65670528
_cell_formula_units_Z   1
loop_
 _symmetry_equiv_pos_site_id
 _symmetry_equiv_pos_as_xyz
  1  'x, y, z'
loop_
 _atom_site_type_symbol
 _atom_site_label
 _atom_site_symmetry_multiplicity
 _atom_site_fract_x
 _atom_site_fract_y
 _atom_site_fract_z
 _atom_site_occupancy
  Tb  Tb0  1  0.424353  0.424353  0.500000  1
  Dy  Dy1  1  0.572900  0.001511  0.500000  1
  Dy  Dy2  1  0.001511  0.572900  0.500000  1
  Mg  Mg3  1  0.759492  0.759492  0.000000  1
  Cd  Cd4  1  0.246904  0.998248  0.000000  1
  Cd  Cd5  1  0.998248  0.246904  0.000000  1
  Ga  Ga6  1  0.665485  0.336953  0.000000  1
  Ga  Ga7  1  0.336953  0.665485  0.000000  1
  Ga  Ga8  1  0.994153  0.994153  0.500000  1
