# generated using pymatgen
data_Tb16Zr4Ir11Rh
_symmetry_space_group_name_H-M   'P 1'
_cell_length_a   10.90739600
_cell_length_b   10.90739600
_cell_length_c   6.25881000
_cell_angle_alpha   90.00000000
_cell_angle_beta   90.00000000
_cell_angle_gamma   90.00000000
_symmetry_Int_Tables_number   1
_chemical_formula_structural   Tb16Zr4Ir11Rh
_chemical_formula_sum   'Tb16 Zr4 Ir11 Rh1'
_cell_volume   744.61868392
_cell_formula_units_Z   1
loop_
 _symmetry_equiv_pos_site_id
 _symmetry_equiv_pos_as_xyz
  1  'x, y, z'
loop_
 _atom_site_type_symbol
 _atom_site_label
 _atom_site_symmetry_multiplicity
 _atom_site_fract_x
 _atom_site_fract_y
 _atom_site_fract_z
 _atom_site_occupancy
  Tb  Tb0  1  0.288869  0.086956  0.374975  1
  Tb  Tb1  1  0.288425  0.912773  0.872597  1
  Tb  Tb2  1  0.711575  0.087227  0.872597  1
  Tb  Tb3  1  0.711131  0.913044  0.374975  1
  Tb  Tb4  1  0.587227  0.788425  0.872597  1
  Tb  Tb5  1  0.586956  0.211131  0.374975  1
  Tb  Tb6  1  0.413044  0.788869  0.374975  1
  Tb  Tb7  1  0.412773  0.211575  0.872597  1
  Tb  Tb8  1  0.210931  0.412741  0.626166  1
  Tb  Tb9  1  0.210913  0.587656  0.126359  1
  Tb  Tb10  1  0.789087  0.412344  0.126359  1
  Tb  Tb11  1  0.789069  0.587259  0.626166  1
  Tb  Tb12  1  0.912344  0.710913  0.126359  1
  Tb  Tb13  1  0.912741  0.289069  0.626166  1
  Tb  Tb14  1  0.087259  0.710931  0.626166  1
  Tb  Tb15  1  0.087656  0.289087  0.126359  1
  Zr  Zr16  1  0.000000  0.000000  0.499855  1
  Zr  Zr17  1  0.000000  0.000000  0.000019  1
  Zr  Zr18  1  0.500000  0.500000  0.000019  1
  Zr  Zr19  1  0.500000  0.500000  0.499855  1
  Ir  Ir20  1  0.854764  0.143989  0.249706  1
  Ir  Ir21  1  0.855239  0.855657  0.749829  1
  Ir  Ir22  1  0.144761  0.144343  0.749829  1
  Ir  Ir23  1  0.145236  0.856011  0.249706  1
  Ir  Ir24  1  0.644343  0.355239  0.749829  1
  Ir  Ir25  1  0.643989  0.645236  0.249706  1
  Ir  Ir26  1  0.356011  0.354764  0.249706  1
  Ir  Ir27  1  0.355657  0.644761  0.749829  1
  Ir  Ir28  1  0.500000  0.000000  0.619246  1
  Ir  Ir29  1  0.000000  0.500000  0.882879  1
  Ir  Ir30  1  0.000000  0.500000  0.382332  1
  Rh  Rh31  1  0.500000  0.000000  0.117270  1
