# generated using pymatgen
data_Y5Si12Ni16Mo3
_symmetry_space_group_name_H-M   'P 1'
_cell_length_a   12.42500400
_cell_length_b   12.42500491
_cell_length_c   3.80747200
_cell_angle_alpha   90.00000000
_cell_angle_beta   90.00000000
_cell_angle_gamma   120.00000823
_symmetry_Int_Tables_number   1
_chemical_formula_structural   Y5Si12Ni16Mo3
_chemical_formula_sum   'Y5 Si12 Ni16 Mo3'
_cell_volume   509.04997457
_cell_formula_units_Z   1
loop_
 _symmetry_equiv_pos_site_id
 _symmetry_equiv_pos_as_xyz
  1  'x, y, z'
loop_
 _atom_site_type_symbol
 _atom_site_label
 _atom_site_symmetry_multiplicity
 _atom_site_fract_x
 _atom_site_fract_y
 _atom_site_fract_z
 _atom_site_occupancy
  Y  Y0  1  0.187236  0.187236  0.500000  1
  Y  Y1  1  0.812764  0.000000  0.500000  1
  Y  Y2  1  0.000000  0.812764  0.500000  1
  Y  Y3  1  0.333333  0.666667  0.000000  1
  Y  Y4  1  0.666667  0.333333  0.000000  1
  Si  Si5  1  0.817916  0.817916  0.000000  1
  Si  Si6  1  0.182084  0.000000  0.000000  1
  Si  Si7  1  0.000000  0.182084  0.000000  1
  Si  Si8  1  0.163919  0.476823  0.500000  1
  Si  Si9  1  0.523177  0.687095  0.500000  1
  Si  Si10  1  0.312905  0.836081  0.500000  1
  Si  Si11  1  0.687095  0.523177  0.500000  1
  Si  Si12  1  0.836081  0.312905  0.500000  1
  Si  Si13  1  0.476823  0.163919  0.500000  1
  Si  Si14  1  0.366878  0.366878  0.000000  1
  Si  Si15  1  0.633122  0.000000  0.000000  1
  Si  Si16  1  0.000000  0.633122  0.000000  1
  Ni  Ni17  1  0.723156  0.723156  0.500000  1
  Ni  Ni18  1  0.276844  0.000000  0.500000  1
  Ni  Ni19  1  0.000000  0.276844  0.500000  1
  Ni  Ni20  1  0.182812  0.377445  0.000000  1
  Ni  Ni21  1  0.622555  0.805367  0.000000  1
  Ni  Ni22  1  0.194633  0.817188  0.000000  1
  Ni  Ni23  1  0.805367  0.622555  0.000000  1
  Ni  Ni24  1  0.817188  0.194633  0.000000  1
  Ni  Ni25  1  0.377445  0.182812  0.000000  1
  Ni  Ni26  1  0.357382  0.480246  0.500000  1
  Ni  Ni27  1  0.519754  0.877136  0.500000  1
  Ni  Ni28  1  0.122864  0.642618  0.500000  1
  Ni  Ni29  1  0.877136  0.519754  0.500000  1
  Ni  Ni30  1  0.642618  0.122864  0.500000  1
  Ni  Ni31  1  0.480246  0.357382  0.500000  1
  Ni  Ni32  1  0.000000  0.000000  0.000000  1
  Mo  Mo33  1  0.563767  0.563767  0.000000  1
  Mo  Mo34  1  0.436233  0.000000  0.000000  1
  Mo  Mo35  1  0.000000  0.436233  0.000000  1
