# generated using pymatgen
data_LaYb3(MgPt)4
_symmetry_space_group_name_H-M   'P 1'
_cell_length_a   4.22414500
_cell_length_b   7.29796028
_cell_length_c   8.61323477
_cell_angle_alpha   89.99158616
_cell_angle_beta   90.00000000
_cell_angle_gamma   90.00000000
_symmetry_Int_Tables_number   1
_chemical_formula_structural   LaYb3(MgPt)4
_chemical_formula_sum   'La1 Yb3 Mg4 Pt4'
_cell_volume   265.52571871
_cell_formula_units_Z   1
loop_
 _symmetry_equiv_pos_site_id
 _symmetry_equiv_pos_as_xyz
  1  'x, y, z'
loop_
 _atom_site_type_symbol
 _atom_site_label
 _atom_site_symmetry_multiplicity
 _atom_site_fract_x
 _atom_site_fract_y
 _atom_site_fract_z
 _atom_site_occupancy
  La  La0  1  0.750000  0.461882  0.823980  1
  Yb  Yb1  1  0.250000  0.036482  0.325328  1
  Yb  Yb2  1  0.250000  0.539594  0.180389  1
  Yb  Yb3  1  0.750000  0.961927  0.671179  1
  Mg  Mg4  1  0.250000  0.130725  0.942369  1
  Mg  Mg5  1  0.250000  0.642301  0.555352  1
  Mg  Mg6  1  0.750000  0.864631  0.065350  1
  Mg  Mg7  1  0.750000  0.362218  0.435827  1
  Pt  Pt8  1  0.250000  0.259739  0.627342  1
  Pt  Pt9  1  0.250000  0.760494  0.873545  1
  Pt  Pt10  1  0.750000  0.739743  0.373153  1
  Pt  Pt11  1  0.750000  0.240264  0.126188  1
