# generated using pymatgen
data_Pr4HoEr5Pb6
_symmetry_space_group_name_H-M   'P 1'
_cell_length_a   9.15064700
_cell_length_b   9.15064739
_cell_length_c   6.71848800
_cell_angle_alpha   90.00000000
_cell_angle_beta   90.00000000
_cell_angle_gamma   119.25163131
_symmetry_Int_Tables_number   1
_chemical_formula_structural   Pr4HoEr5Pb6
_chemical_formula_sum   'Pr4 Ho1 Er5 Pb6'
_cell_volume   490.83066911
_cell_formula_units_Z   1
loop_
 _symmetry_equiv_pos_site_id
 _symmetry_equiv_pos_as_xyz
  1  'x, y, z'
loop_
 _atom_site_type_symbol
 _atom_site_label
 _atom_site_symmetry_multiplicity
 _atom_site_fract_x
 _atom_site_fract_y
 _atom_site_fract_z
 _atom_site_occupancy
  Pr  Pr0  1  0.237407  0.002265  0.750000  1
  Pr  Pr1  1  0.002265  0.237407  0.750000  1
  Pr  Pr2  1  0.762945  0.998185  0.250000  1
  Pr  Pr3  1  0.998185  0.762945  0.250000  1
  Ho  Ho4  1  0.244224  0.244224  0.250000  1
  Er  Er5  1  0.667082  0.332735  0.000035  1
  Er  Er6  1  0.332735  0.667082  0.000035  1
  Er  Er7  1  0.332735  0.667082  0.499965  1
  Er  Er8  1  0.667082  0.332735  0.499965  1
  Er  Er9  1  0.755058  0.755058  0.750000  1
  Pb  Pb10  1  0.404532  0.404532  0.750000  1
  Pb  Pb11  1  0.602958  0.996281  0.750000  1
  Pb  Pb12  1  0.996281  0.602958  0.750000  1
  Pb  Pb13  1  0.595409  0.595409  0.250000  1
  Pb  Pb14  1  0.397259  0.003843  0.250000  1
  Pb  Pb15  1  0.003843  0.397259  0.250000  1
