# generated using pymatgen
data_Dy5Be4P8Ir19
_symmetry_space_group_name_H-M   'P 1'
_cell_length_a   12.63433048
_cell_length_b   12.53757346
_cell_length_c   3.94891600
_cell_angle_alpha   90.00000000
_cell_angle_beta   90.00000000
_cell_angle_gamma   120.04106319
_symmetry_Int_Tables_number   1
_chemical_formula_structural   Dy5Be4P8Ir19
_chemical_formula_sum   'Dy5 Be4 P8 Ir19'
_cell_volume   541.49493598
_cell_formula_units_Z   1
loop_
 _symmetry_equiv_pos_site_id
 _symmetry_equiv_pos_as_xyz
  1  'x, y, z'
loop_
 _atom_site_type_symbol
 _atom_site_label
 _atom_site_symmetry_multiplicity
 _atom_site_fract_x
 _atom_site_fract_y
 _atom_site_fract_z
 _atom_site_occupancy
  Dy  Dy0  1  0.334095  0.666890  0.500000  1
  Dy  Dy1  1  0.676961  0.331627  0.500000  1
  Dy  Dy2  1  0.183520  0.191352  0.000000  1
  Dy  Dy3  1  0.808791  0.999907  0.000000  1
  Dy  Dy4  1  0.004790  0.815046  0.000000  1
  Be  Be5  1  0.314352  0.835898  0.000000  1
  Be  Be6  1  0.163951  0.477519  0.000000  1
  Be  Be7  1  0.521551  0.684693  0.000000  1
  Be  Be8  1  0.831193  0.307847  0.000000  1
  P  P9  1  0.484948  0.176287  0.000000  1
  P  P10  1  0.697596  0.517948  0.000000  1
  P  P11  1  0.361868  0.374539  0.500000  1
  P  P12  1  0.625966  0.993370  0.500000  1
  P  P13  1  0.007599  0.631226  0.500000  1
  P  P14  1  0.817718  0.819749  0.500000  1
  P  P15  1  0.182080  0.002334  0.500000  1
  P  P16  1  0.995703  0.181200  0.500000  1
  Ir  Ir17  1  0.194860  0.820492  0.500000  1
  Ir  Ir18  1  0.177437  0.376070  0.500000  1
  Ir  Ir19  1  0.624480  0.804685  0.500000  1
  Ir  Ir20  1  0.811126  0.187370  0.500000  1
  Ir  Ir21  1  0.377757  0.190607  0.500000  1
  Ir  Ir22  1  0.808203  0.622721  0.500000  1
  Ir  Ir23  1  0.127141  0.641119  0.000000  1
  Ir  Ir24  1  0.357044  0.483484  0.000000  1
  Ir  Ir25  1  0.512730  0.869060  0.000000  1
  Ir  Ir26  1  0.633376  0.127134  0.000000  1
  Ir  Ir27  1  0.500243  0.368529  0.000000  1
  Ir  Ir28  1  0.875859  0.510688  0.000000  1
  Ir  Ir29  1  0.546776  0.554103  0.500000  1
  Ir  Ir30  1  0.443296  0.991113  0.500000  1
  Ir  Ir31  1  0.995560  0.443217  0.500000  1
  Ir  Ir32  1  0.718552  0.714289  0.000000  1
  Ir  Ir33  1  0.287090  0.007026  0.000000  1
  Ir  Ir34  1  0.995885  0.280781  0.000000  1
  Ir  Ir35  1  0.999899  0.000080  0.500000  1
