# generated using pymatgen
data_Er4Lu8In2Fe2Ru
_symmetry_space_group_name_H-M   'P 1'
_cell_length_a   8.21224859
_cell_length_b   8.21226570
_cell_length_c   8.21225003
_cell_angle_alpha   108.56005696
_cell_angle_beta   108.55857230
_cell_angle_gamma   111.31075582
_symmetry_Int_Tables_number   1
_chemical_formula_structural   Er4Lu8In2Fe2Ru
_chemical_formula_sum   'Er4 Lu8 In2 Fe2 Ru1'
_cell_volume   426.01875237
_cell_formula_units_Z   1
loop_
 _symmetry_equiv_pos_site_id
 _symmetry_equiv_pos_as_xyz
  1  'x, y, z'
loop_
 _atom_site_type_symbol
 _atom_site_label
 _atom_site_symmetry_multiplicity
 _atom_site_fract_x
 _atom_site_fract_y
 _atom_site_fract_z
 _atom_site_occupancy
  Er  Er0  1  0.306371  0.306371  0.612751  1
  Er  Er1  1  0.693629  0.693629  0.387249  1
  Er  Er2  1  0.693620  0.306371  0.000000  1
  Er  Er3  1  0.306380  0.693629  0.000000  1
  Lu  Lu4  1  0.192221  0.430262  0.238040  1
  Lu  Lu5  1  0.807779  0.569738  0.761960  1
  Lu  Lu6  1  0.192212  0.954179  0.761968  1
  Lu  Lu7  1  0.954175  0.192216  0.761958  1
  Lu  Lu8  1  0.807788  0.045821  0.238032  1
  Lu  Lu9  1  0.045825  0.807784  0.238042  1
  Lu  Lu10  1  0.430260  0.192216  0.238041  1
  Lu  Lu11  1  0.569740  0.807784  0.761959  1
  In  In12  1  0.000000  0.500000  0.500000  1
  In  In13  1  0.500000  0.000000  0.500000  1
  Fe  Fe14  1  0.383021  0.383014  0.999993  1
  Fe  Fe15  1  0.616979  0.616986  0.000007  1
  Ru  Ru16  1  0.000000  0.000000  0.000000  1
