# generated using pymatgen
data_Dy8Ho4Fe2I17
_symmetry_space_group_name_H-M   'P 1'
_cell_length_a   9.70617445
_cell_length_b   11.66149607
_cell_length_c   11.68449807
_cell_angle_alpha   93.56178743
_cell_angle_beta   104.74049038
_cell_angle_gamma   114.03047671
_symmetry_Int_Tables_number   1
_chemical_formula_structural   Dy8Ho4Fe2I17
_chemical_formula_sum   'Dy8 Ho4 Fe2 I17'
_cell_volume   1147.41936845
_cell_formula_units_Z   1
loop_
 _symmetry_equiv_pos_site_id
 _symmetry_equiv_pos_as_xyz
  1  'x, y, z'
loop_
 _atom_site_type_symbol
 _atom_site_label
 _atom_site_symmetry_multiplicity
 _atom_site_fract_x
 _atom_site_fract_y
 _atom_site_fract_z
 _atom_site_occupancy
  Dy  Dy0  1  0.052367  0.502966  0.319593  1
  Dy  Dy1  1  0.992502  0.807944  0.589918  1
  Dy  Dy2  1  0.657181  0.241662  0.279759  1
  Dy  Dy3  1  0.008091  0.190855  0.411708  1
  Dy  Dy4  1  0.218426  0.671832  0.981474  1
  Dy  Dy5  1  0.253702  0.976764  0.888297  1
  Dy  Dy6  1  0.345869  0.758490  0.719027  1
  Dy  Dy7  1  0.948790  0.498841  0.681063  1
  Ho  Ho8  1  0.746153  0.023258  0.111615  1
  Ho  Ho9  1  0.137384  0.286149  0.154074  1
  Ho  Ho10  1  0.780891  0.328050  0.017713  1
  Ho  Ho11  1  0.858925  0.713424  0.846218  1
  Fe  Fe12  1  0.104354  0.738122  0.786038  1
  Fe  Fe13  1  0.896112  0.262552  0.213908  1
  I  I14  1  0.784042  0.528183  0.417358  1
  I  I15  1  0.644861  0.419809  0.763447  1
  I  I16  1  0.843211  0.896099  0.326599  1
  I  I17  1  0.326883  0.214101  0.367055  1
  I  I18  1  0.155800  0.103573  0.672580  1
  I  I19  1  0.586287  0.053323  0.843179  1
  I  I20  1  0.758796  0.188970  0.538294  1
  I  I21  1  0.553189  0.712292  0.955227  1
  I  I22  1  0.354669  0.578763  0.237175  1
  I  I23  1  0.216417  0.471227  0.582305  1
  I  I24  1  0.055758  0.367361  0.897609  1
  I  I25  1  0.448376  0.288562  0.045470  1
  I  I26  1  0.000234  0.000657  0.000731  1
  I  I27  1  0.240934  0.811282  0.460865  1
  I  I28  1  0.415322  0.947262  0.156916  1
  I  I29  1  0.671650  0.785682  0.632071  1
  I  I30  1  0.942826  0.631945  0.102717  1
