# generated using pymatgen
data_Tb4Tm4B24Ir3Rh
_symmetry_space_group_name_H-M   'P 1'
_cell_length_a   3.63782700
_cell_length_b   9.15337654
_cell_length_c   11.51693222
_cell_angle_alpha   90.02208062
_cell_angle_beta   90.00000000
_cell_angle_gamma   90.00000000
_symmetry_Int_Tables_number   1
_chemical_formula_structural   Tb4Tm4B24Ir3Rh
_chemical_formula_sum   'Tb4 Tm4 B24 Ir3 Rh1'
_cell_volume   383.49539101
_cell_formula_units_Z   1
loop_
 _symmetry_equiv_pos_site_id
 _symmetry_equiv_pos_as_xyz
  1  'x, y, z'
loop_
 _atom_site_type_symbol
 _atom_site_label
 _atom_site_symmetry_multiplicity
 _atom_site_fract_x
 _atom_site_fract_y
 _atom_site_fract_z
 _atom_site_occupancy
  Tb  Tb0  1  0.500000  0.322764  0.412864  1
  Tb  Tb1  1  0.500000  0.677495  0.586249  1
  Tb  Tb2  1  0.500000  0.178258  0.913342  1
  Tb  Tb3  1  0.500000  0.821743  0.087535  1
  Tm  Tm4  1  0.500000  0.445025  0.126133  1
  Tm  Tm5  1  0.500000  0.555684  0.874820  1
  Tm  Tm6  1  0.500000  0.055522  0.625068  1
  Tm  Tm7  1  0.500000  0.943343  0.374195  1
  B  B8  1  0.000000  0.107964  0.470233  1
  B  B9  1  0.000000  0.891646  0.529430  1
  B  B10  1  0.000000  0.392184  0.970683  1
  B  B11  1  0.000000  0.608268  0.029604  1
  B  B12  1  0.000000  0.131475  0.315647  1
  B  B13  1  0.000000  0.868347  0.683863  1
  B  B14  1  0.000000  0.368533  0.816163  1
  B  B15  1  0.000000  0.631891  0.184142  1
  B  B16  1  0.000000  0.053986  0.066749  1
  B  B17  1  0.000000  0.946301  0.933290  1
  B  B18  1  0.000000  0.446025  0.566663  1
  B  B19  1  0.000000  0.553585  0.433496  1
  B  B20  1  0.000000  0.482405  0.286562  1
  B  B21  1  0.000000  0.517521  0.713920  1
  B  B22  1  0.000000  0.017782  0.786231  1
  B  B23  1  0.000000  0.982167  0.213665  1
  B  B24  1  0.000000  0.250866  0.079947  1
  B  B25  1  0.000000  0.749482  0.920190  1
  B  B26  1  0.000000  0.249635  0.579627  1
  B  B27  1  0.000000  0.750010  0.420035  1
  B  B28  1  0.000000  0.293734  0.234138  1
  B  B29  1  0.000000  0.706554  0.765836  1
  B  B30  1  0.000000  0.206491  0.734020  1
  B  B31  1  0.000000  0.793546  0.265472  1
  Ir  Ir32  1  0.500000  0.139121  0.179181  1
  Ir  Ir33  1  0.500000  0.861327  0.820542  1
  Ir  Ir34  1  0.500000  0.360324  0.680352  1
  Rh  Rh35  1  0.500000  0.638999  0.320112  1
