# generated using pymatgen
data_Ta2NbRe3SiB2
_symmetry_space_group_name_H-M   'P 1'
_cell_length_a   6.64238212
_cell_length_b   6.63383658
_cell_length_c   3.17171900
_cell_angle_alpha   90.00000000
_cell_angle_beta   90.00000000
_cell_angle_gamma   119.76029130
_symmetry_Int_Tables_number   1
_chemical_formula_structural   Ta2NbRe3SiB2
_chemical_formula_sum   'Ta2 Nb1 Re3 Si1 B2'
_cell_volume   121.32712968
_cell_formula_units_Z   1
loop_
 _symmetry_equiv_pos_site_id
 _symmetry_equiv_pos_as_xyz
  1  'x, y, z'
loop_
 _atom_site_type_symbol
 _atom_site_label
 _atom_site_symmetry_multiplicity
 _atom_site_fract_x
 _atom_site_fract_y
 _atom_site_fract_z
 _atom_site_occupancy
  Ta  Ta0  1  0.388808  0.973963  0.500000  1
  Ta  Ta1  1  0.027240  0.415238  0.500000  1
  Nb  Nb2  1  0.584890  0.610058  0.500000  1
  Re  Re3  1  0.752526  0.000236  0.000000  1
  Re  Re4  1  0.002019  0.753704  0.000000  1
  Re  Re5  1  0.245670  0.246725  0.000000  1
  Si  Si6  1  0.666648  0.333490  0.000000  1
  B  B7  1  0.332434  0.666703  0.000000  1
  B  B8  1  0.999766  0.999882  0.500000  1
