# generated using pymatgen
data_Nd2TmCd3(IrO7)2
_symmetry_space_group_name_H-M   'P 1'
_cell_length_a   6.43868588
_cell_length_b   6.57865049
_cell_length_c   7.61839800
_cell_angle_alpha   90.00000000
_cell_angle_beta   90.00000000
_cell_angle_gamma   112.13442405
_symmetry_Int_Tables_number   1
_chemical_formula_structural   Nd2TmCd3(IrO7)2
_chemical_formula_sum   'Nd2 Tm1 Cd3 Ir2 O14'
_cell_volume   298.91692752
_cell_formula_units_Z   1
loop_
 _symmetry_equiv_pos_site_id
 _symmetry_equiv_pos_as_xyz
  1  'x, y, z'
loop_
 _atom_site_type_symbol
 _atom_site_label
 _atom_site_symmetry_multiplicity
 _atom_site_fract_x
 _atom_site_fract_y
 _atom_site_fract_z
 _atom_site_occupancy
  Nd  Nd0  1  0.998785  0.999360  0.000140  1
  Nd  Nd1  1  0.998785  0.999360  0.499860  1
  Tm  Tm2  1  0.049932  0.508768  0.250000  1
  Cd  Cd3  1  0.487797  0.991398  0.750000  1
  Cd  Cd4  1  0.514356  0.017681  0.250000  1
  Cd  Cd5  1  0.971031  0.492927  0.750000  1
  Ir  Ir6  1  0.501368  0.500479  0.999443  1
  Ir  Ir7  1  0.501368  0.500479  0.500557  1
  O  O8  1  0.587934  0.505923  0.750000  1
  O  O9  1  0.407230  0.495361  0.250000  1
  O  O10  1  0.851710  0.132568  0.750000  1
  O  O11  1  0.153346  0.867660  0.250000  1
  O  O12  1  0.119980  0.852062  0.750000  1
  O  O13  1  0.876715  0.149127  0.250000  1
  O  O14  1  0.425974  0.189674  0.001431  1
  O  O15  1  0.571301  0.809856  0.503939  1
  O  O16  1  0.180046  0.429325  0.977584  1
  O  O17  1  0.812509  0.564570  0.450270  1
  O  O18  1  0.425974  0.189674  0.498569  1
  O  O19  1  0.571301  0.809856  0.996061  1
  O  O20  1  0.812509  0.564570  0.049730  1
  O  O21  1  0.180046  0.429325  0.522416  1
