# generated using pymatgen
data_Tb2B6Ir7Rh2
_symmetry_space_group_name_H-M   'P 1'
_cell_length_a   5.64492732
_cell_length_b   5.64492696
_cell_length_c   8.64956800
_cell_angle_alpha   90.00000000
_cell_angle_beta   90.00000000
_cell_angle_gamma   120.03863821
_symmetry_Int_Tables_number   1
_chemical_formula_structural   Tb2B6Ir7Rh2
_chemical_formula_sum   'Tb2 B6 Ir7 Rh2'
_cell_volume   238.60113680
_cell_formula_units_Z   1
loop_
 _symmetry_equiv_pos_site_id
 _symmetry_equiv_pos_as_xyz
  1  'x, y, z'
loop_
 _atom_site_type_symbol
 _atom_site_label
 _atom_site_symmetry_multiplicity
 _atom_site_fract_x
 _atom_site_fract_y
 _atom_site_fract_z
 _atom_site_occupancy
  Tb  Tb0  1  0.000000  0.000000  0.701962  1
  Tb  Tb1  1  0.000000  0.000000  0.298279  1
  B  B2  1  0.666783  0.333217  0.999937  1
  B  B3  1  0.333217  0.666783  0.999937  1
  B  B4  1  0.666546  0.333454  0.667621  1
  B  B5  1  0.333454  0.666546  0.667621  1
  B  B6  1  0.333368  0.666632  0.332073  1
  B  B7  1  0.666632  0.333368  0.332073  1
  Ir  Ir8  1  0.500000  0.500000  0.836804  1
  Ir  Ir9  1  0.500000  0.000000  0.837130  1
  Ir  Ir10  1  0.000000  0.500000  0.837130  1
  Ir  Ir11  1  0.500000  0.500000  0.163837  1
  Ir  Ir12  1  0.500000  0.500000  0.499557  1
  Ir  Ir13  1  0.500000  0.000000  0.498870  1
  Ir  Ir14  1  0.000000  0.500000  0.498870  1
  Rh  Rh15  1  0.500000  0.000000  0.164149  1
  Rh  Rh16  1  0.000000  0.500000  0.164149  1
