# generated using pymatgen
data_Ho12TlNi4Au
_symmetry_space_group_name_H-M   'P 1'
_cell_length_a   8.34133387
_cell_length_b   8.34133356
_cell_length_c   8.34133300
_cell_angle_alpha   112.72977079
_cell_angle_beta   109.23767729
_cell_angle_gamma   106.50668238
_symmetry_Int_Tables_number   1
_chemical_formula_structural   Ho12TlNi4Au
_chemical_formula_sum   'Ho12 Tl1 Ni4 Au1'
_cell_volume   445.44148737
_cell_formula_units_Z   1
loop_
 _symmetry_equiv_pos_site_id
 _symmetry_equiv_pos_as_xyz
  1  'x, y, z'
loop_
 _atom_site_type_symbol
 _atom_site_label
 _atom_site_symmetry_multiplicity
 _atom_site_fract_x
 _atom_site_fract_y
 _atom_site_fract_z
 _atom_site_occupancy
  Ho  Ho0  1  0.421469  0.223877  0.197593  1
  Ho  Ho1  1  0.578531  0.776123  0.802407  1
  Ho  Ho2  1  0.026283  0.223877  0.802409  1
  Ho  Ho3  1  0.973717  0.776123  0.197591  1
  Ho  Ho4  1  0.180328  0.291944  0.472273  1
  Ho  Ho5  1  0.819672  0.708056  0.527727  1
  Ho  Ho6  1  0.180329  0.708056  0.888385  1
  Ho  Ho7  1  0.819671  0.291944  0.111615  1
  Ho  Ho8  1  0.324289  0.632419  0.308130  1
  Ho  Ho9  1  0.675711  0.367581  0.691870  1
  Ho  Ho10  1  0.324285  0.016164  0.691879  1
  Ho  Ho11  1  0.675715  0.983836  0.308121  1
  Tl  Tl12  1  0.500000  0.500000  0.000000  1
  Ni  Ni13  1  0.358878  0.000000  0.358878  1
  Ni  Ni14  1  0.641122  0.000000  0.641122  1
  Ni  Ni15  1  0.124318  0.624248  0.499930  1
  Ni  Ni16  1  0.875682  0.375752  0.500070  1
  Au  Au17  1  0.000000  0.000000  0.000000  1
