# generated using pymatgen
data_Ba8Ho4FeCo3O20
_symmetry_space_group_name_H-M   'P 1'
_cell_length_a   6.14392721
_cell_length_b   7.96462253
_cell_length_c   12.53726161
_cell_angle_alpha   91.22087573
_cell_angle_beta   89.92422862
_cell_angle_gamma   90.01298186
_symmetry_Int_Tables_number   1
_chemical_formula_structural   Ba8Ho4FeCo3O20
_chemical_formula_sum   'Ba8 Ho4 Fe1 Co3 O20'
_cell_volume   613.35930397
_cell_formula_units_Z   1
loop_
 _symmetry_equiv_pos_site_id
 _symmetry_equiv_pos_as_xyz
  1  'x, y, z'
loop_
 _atom_site_type_symbol
 _atom_site_label
 _atom_site_symmetry_multiplicity
 _atom_site_fract_x
 _atom_site_fract_y
 _atom_site_fract_z
 _atom_site_occupancy
  Ba  Ba0  1  0.759790  0.488231  0.357394  1
  Ba  Ba1  1  0.742529  0.992421  0.861733  1
  Ba  Ba2  1  0.237340  0.506130  0.640799  1
  Ba  Ba3  1  0.259813  0.007695  0.137491  1
  Ba  Ba4  1  0.756673  0.997094  0.378846  1
  Ba  Ba5  1  0.746022  0.495149  0.881312  1
  Ba  Ba6  1  0.242717  0.007941  0.619984  1
  Ba  Ba7  1  0.256145  0.506019  0.117281  1
  Ho  Ho8  1  0.747685  0.261116  0.630534  1
  Ho  Ho9  1  0.753028  0.760810  0.128881  1
  Ho  Ho10  1  0.251868  0.738987  0.369698  1
  Ho  Ho11  1  0.248373  0.239307  0.871332  1
  Fe  Fe12  1  0.735972  0.745052  0.587545  1
  Co  Co13  1  0.760170  0.246156  0.090481  1
  Co  Co14  1  0.260772  0.253837  0.409256  1
  Co  Co15  1  0.241138  0.754121  0.909151  1
  O  O16  1  0.762266  0.970448  0.641112  1
  O  O17  1  0.742142  0.470117  0.135077  1
  O  O18  1  0.241162  0.030327  0.363707  1
  O  O19  1  0.258996  0.530120  0.865847  1
  O  O20  1  0.737823  0.051795  0.166421  1
  O  O21  1  0.766405  0.552133  0.670940  1
  O  O22  1  0.263519  0.948674  0.834170  1
  O  O23  1  0.238610  0.447403  0.332765  1
  O  O24  1  0.546294  0.746951  0.272497  1
  O  O25  1  0.958164  0.248049  0.772182  1
  O  O26  1  0.454963  0.253258  0.728578  1
  O  O27  1  0.045824  0.752448  0.226966  1
  O  O28  1  0.532609  0.232420  0.986123  1
  O  O29  1  0.955781  0.731009  0.479244  1
  O  O30  1  0.467400  0.767886  0.015114  1
  O  O31  1  0.033629  0.267491  0.515175  1
  O  O32  1  0.034402  0.237087  0.019829  1
  O  O33  1  0.457951  0.737260  0.521078  1
  O  O34  1  0.966883  0.763246  0.980797  1
  O  O35  1  0.535141  0.261811  0.480660  1
