# generated using pymatgen
data_Li4CaNd3Si8
_symmetry_space_group_name_H-M   'P 1'
_cell_length_a   3.85482200
_cell_length_b   7.82516357
_cell_length_c   10.53023441
_cell_angle_alpha   89.90746023
_cell_angle_beta   90.00000000
_cell_angle_gamma   90.00000000
_symmetry_Int_Tables_number   1
_chemical_formula_structural   Li4CaNd3Si8
_chemical_formula_sum   'Li4 Ca1 Nd3 Si8'
_cell_volume   317.64002811
_cell_formula_units_Z   1
loop_
 _symmetry_equiv_pos_site_id
 _symmetry_equiv_pos_as_xyz
  1  'x, y, z'
loop_
 _atom_site_type_symbol
 _atom_site_label
 _atom_site_symmetry_multiplicity
 _atom_site_fract_x
 _atom_site_fract_y
 _atom_site_fract_z
 _atom_site_occupancy
  Li  Li0  1  0.250000  0.997705  0.391024  1
  Li  Li1  1  0.750000  0.005480  0.609778  1
  Li  Li2  1  0.250000  0.493820  0.111962  1
  Li  Li3  1  0.750000  0.504547  0.890139  1
  Ca  Ca4  1  0.750000  0.364943  0.365223  1
  Nd  Nd5  1  0.250000  0.133387  0.863980  1
  Nd  Nd6  1  0.750000  0.866300  0.134493  1
  Nd  Nd7  1  0.250000  0.633229  0.634453  1
  Si  Si8  1  0.750000  0.270271  0.068624  1
  Si  Si9  1  0.250000  0.727826  0.930798  1
  Si  Si10  1  0.750000  0.773336  0.431075  1
  Si  Si11  1  0.250000  0.231913  0.568825  1
  Si  Si12  1  0.750000  0.832868  0.821291  1
  Si  Si13  1  0.250000  0.163792  0.175322  1
  Si  Si14  1  0.750000  0.333973  0.679079  1
  Si  Si15  1  0.250000  0.666611  0.323933  1
