# generated using pymatgen
data_Ho12Th8Si15Sn
_symmetry_space_group_name_H-M   'P 1'
_cell_length_a   7.62197313
_cell_length_b   7.75628279
_cell_length_c   14.73131368
_cell_angle_alpha   89.94867980
_cell_angle_beta   89.98070688
_cell_angle_gamma   89.99275003
_symmetry_Int_Tables_number   1
_chemical_formula_structural   Ho12Th8Si15Sn
_chemical_formula_sum   'Ho12 Th8 Si15 Sn1'
_cell_volume   870.88803357
_cell_formula_units_Z   1
loop_
 _symmetry_equiv_pos_site_id
 _symmetry_equiv_pos_as_xyz
  1  'x, y, z'
loop_
 _atom_site_type_symbol
 _atom_site_label
 _atom_site_symmetry_multiplicity
 _atom_site_fract_x
 _atom_site_fract_y
 _atom_site_fract_z
 _atom_site_occupancy
  Ho  Ho0  1  0.364839  0.829112  0.878430  1
  Ho  Ho1  1  0.863738  0.667475  0.621080  1
  Ho  Ho2  1  0.636096  0.167654  0.379921  1
  Ho  Ho3  1  0.148685  0.330092  0.124964  1
  Ho  Ho4  1  0.631335  0.157333  0.123968  1
  Ho  Ho5  1  0.136540  0.332252  0.379736  1
  Ho  Ho6  1  0.364366  0.831772  0.619911  1
  Ho  Ho7  1  0.867146  0.677747  0.870976  1
  Ho  Ho8  1  0.191874  0.493894  0.747998  1
  Ho  Ho9  1  0.690740  0.006583  0.748565  1
  Ho  Ho10  1  0.809025  0.504982  0.254979  1
  Ho  Ho11  1  0.306143  0.993501  0.253308  1
  Th  Th12  1  0.503026  0.315280  0.897887  1
  Th  Th13  1  0.011971  0.183284  0.597032  1
  Th  Th14  1  0.487756  0.682410  0.402758  1
  Th  Th15  1  0.989737  0.826752  0.100575  1
  Th  Th16  1  0.478864  0.688742  0.101901  1
  Th  Th17  1  0.987926  0.818256  0.403387  1
  Th  Th18  1  0.511848  0.316993  0.597956  1
  Th  Th19  1  0.014526  0.177561  0.899192  1
  Si  Si20  1  0.296657  0.037360  0.041255  1
  Si  Si21  1  0.796323  0.462539  0.458510  1
  Si  Si22  1  0.704458  0.963382  0.542970  1
  Si  Si23  1  0.197929  0.536091  0.957757  1
  Si  Si24  1  0.703065  0.964997  0.956376  1
  Si  Si25  1  0.203840  0.536183  0.542854  1
  Si  Si26  1  0.296878  0.036637  0.457509  1
  Si  Si27  1  0.567845  0.609693  0.748712  1
  Si  Si28  1  0.070520  0.891361  0.747284  1
  Si  Si29  1  0.434699  0.391511  0.251634  1
  Si  Si30  1  0.930517  0.111975  0.251279  1
  Si  Si31  1  0.307820  0.124167  0.748011  1
  Si  Si32  1  0.807785  0.372739  0.749296  1
  Si  Si33  1  0.692332  0.871391  0.251914  1
  Si  Si34  1  0.189042  0.627466  0.251788  1
  Sn  Sn35  1  0.804109  0.460830  0.038327  1
