# generated using pymatgen
data_Hf9Ta3(Ga2Sn)4
_symmetry_space_group_name_H-M   'P 1'
_cell_length_a   5.62518213
_cell_length_b   8.71405420
_cell_length_c   9.31224300
_cell_angle_alpha   90.00000000
_cell_angle_beta   90.00000000
_cell_angle_gamma   90.02442313
_symmetry_Int_Tables_number   1
_chemical_formula_structural   Hf9Ta3(Ga2Sn)4
_chemical_formula_sum   'Hf9 Ta3 Ga8 Sn4'
_cell_volume   456.46880763
_cell_formula_units_Z   1
loop_
 _symmetry_equiv_pos_site_id
 _symmetry_equiv_pos_as_xyz
  1  'x, y, z'
loop_
 _atom_site_type_symbol
 _atom_site_label
 _atom_site_symmetry_multiplicity
 _atom_site_fract_x
 _atom_site_fract_y
 _atom_site_fract_z
 _atom_site_occupancy
  Hf  Hf0  1  0.500000  0.750000  0.120458  1
  Hf  Hf1  1  0.751745  0.467590  0.612577  1
  Hf  Hf2  1  0.249736  0.530751  0.388561  1
  Hf  Hf3  1  0.750264  0.969249  0.388561  1
  Hf  Hf4  1  0.248255  0.032410  0.612577  1
  Hf  Hf5  1  0.749626  0.374008  0.195232  1
  Hf  Hf6  1  0.250390  0.625008  0.803438  1
  Hf  Hf7  1  0.749610  0.874992  0.803438  1
  Hf  Hf8  1  0.250374  0.125992  0.195232  1
  Ta  Ta9  1  0.000000  0.750000  0.119796  1
  Ta  Ta10  1  0.500000  0.250000  0.880429  1
  Ta  Ta11  1  0.000000  0.250000  0.879410  1
  Ga  Ga12  1  0.000000  0.750000  0.572082  1
  Ga  Ga13  1  0.500000  0.250000  0.428884  1
  Ga  Ga14  1  0.000000  0.250000  0.428038  1
  Ga  Ga15  1  0.500000  0.750000  0.570266  1
  Ga  Ga16  1  0.749269  0.138723  0.648398  1
  Ga  Ga17  1  0.245879  0.862472  0.353353  1
  Ga  Ga18  1  0.754121  0.637528  0.353353  1
  Ga  Ga19  1  0.250731  0.361277  0.648398  1
  Sn  Sn20  1  0.752451  0.051602  0.082194  1
  Sn  Sn21  1  0.247803  0.950702  0.916565  1
  Sn  Sn22  1  0.752197  0.549298  0.916565  1
  Sn  Sn23  1  0.247549  0.448398  0.082194  1
