# generated using pymatgen
data_Tb8Er11Tm(CoBi2)4
_symmetry_space_group_name_H-M   'P 1'
_cell_length_a   7.97549610
_cell_length_b   8.88649007
_cell_length_c   12.38784318
_cell_angle_alpha   89.98859636
_cell_angle_beta   90.01604361
_cell_angle_gamma   89.99133687
_symmetry_Int_Tables_number   1
_chemical_formula_structural   Tb8Er11Tm(CoBi2)4
_chemical_formula_sum   'Tb8 Er11 Tm1 Co4 Bi8'
_cell_volume   877.97800341
_cell_formula_units_Z   1
loop_
 _symmetry_equiv_pos_site_id
 _symmetry_equiv_pos_as_xyz
  1  'x, y, z'
loop_
 _atom_site_type_symbol
 _atom_site_label
 _atom_site_symmetry_multiplicity
 _atom_site_fract_x
 _atom_site_fract_y
 _atom_site_fract_z
 _atom_site_occupancy
  Tb  Tb0  1  0.653612  0.750008  0.699061  1
  Tb  Tb1  1  0.346332  0.249969  0.300964  1
  Tb  Tb2  1  0.153451  0.250147  0.801091  1
  Tb  Tb3  1  0.846361  0.749904  0.199055  1
  Tb  Tb4  1  0.121476  0.749788  0.812435  1
  Tb  Tb5  1  0.878016  0.250329  0.187465  1
  Tb  Tb6  1  0.621726  0.249893  0.687770  1
  Tb  Tb7  1  0.378238  0.750048  0.312297  1
  Er  Er8  1  0.553162  0.749696  0.996679  1
  Er  Er9  1  0.448090  0.250177  0.003244  1
  Er  Er10  1  0.052516  0.250023  0.503193  1
  Er  Er11  1  0.947376  0.749996  0.496756  1
  Er  Er12  1  0.173950  0.536374  0.063342  1
  Er  Er13  1  0.326136  0.536427  0.563424  1
  Er  Er14  1  0.173970  0.963834  0.063254  1
  Er  Er15  1  0.673844  0.463726  0.436631  1
  Er  Er16  1  0.825980  0.036422  0.936595  1
  Er  Er17  1  0.673873  0.036300  0.436653  1
  Er  Er18  1  0.326102  0.963578  0.563389  1
  Tm  Tm19  1  0.827201  0.463486  0.936544  1
  Co  Co20  1  0.937128  0.749716  0.992316  1
  Co  Co21  1  0.061758  0.250345  0.007509  1
  Co  Co22  1  0.437464  0.250010  0.507753  1
  Co  Co23  1  0.562483  0.749991  0.492303  1
  Bi  Bi24  1  0.932820  0.007177  0.672032  1
  Bi  Bi25  1  0.067028  0.992899  0.327846  1
  Bi  Bi26  1  0.432726  0.992801  0.828081  1
  Bi  Bi27  1  0.067148  0.507145  0.327945  1
  Bi  Bi28  1  0.567077  0.007109  0.172001  1
  Bi  Bi29  1  0.932688  0.492779  0.672097  1
  Bi  Bi30  1  0.566879  0.492872  0.172150  1
  Bi  Bi31  1  0.433388  0.507032  0.828123  1
