# generated using pymatgen
data_HfSb16
_symmetry_space_group_name_H-M   'P 1'
_cell_length_a   7.63479372
_cell_length_b   7.63479266
_cell_length_c   12.99994000
_cell_angle_alpha   56.36391433
_cell_angle_beta   56.36391960
_cell_angle_gamma   67.07034652
_symmetry_Int_Tables_number   1
_chemical_formula_structural   HfSb16
_chemical_formula_sum   'Hf1 Sb16'
_cell_volume   521.50820770
_cell_formula_units_Z   1
loop_
 _symmetry_equiv_pos_site_id
 _symmetry_equiv_pos_as_xyz
  1  'x, y, z'
loop_
 _atom_site_type_symbol
 _atom_site_label
 _atom_site_symmetry_multiplicity
 _atom_site_fract_x
 _atom_site_fract_y
 _atom_site_fract_z
 _atom_site_occupancy
  Hf  Hf0  1  0.702439  0.702439  0.583139  1
  Sb  Sb1  1  0.874915  0.874915  0.857374  1
  Sb  Sb2  1  0.356594  0.356594  0.878910  1
  Sb  Sb3  1  0.663265  0.170013  0.123209  1
  Sb  Sb4  1  0.170013  0.663265  0.123209  1
  Sb  Sb5  1  0.009753  0.009753  0.344826  1
  Sb  Sb6  1  0.494802  0.494802  0.361066  1
  Sb  Sb7  1  0.516196  0.074598  0.629069  1
  Sb  Sb8  1  0.074598  0.516196  0.629069  1
  Sb  Sb9  1  0.218791  0.218791  0.375270  1
  Sb  Sb10  1  0.738640  0.738640  0.338801  1
  Sb  Sb11  1  0.257943  0.786051  0.631163  1
  Sb  Sb12  1  0.786051  0.257943  0.631163  1
  Sb  Sb13  1  0.085219  0.085219  0.883263  1
  Sb  Sb14  1  0.582029  0.582029  0.879436  1
  Sb  Sb15  1  0.390735  0.889314  0.132716  1
  Sb  Sb16  1  0.889314  0.390735  0.132716  1
