# generated using pymatgen
data_SmGd(NiAs)4
_symmetry_space_group_name_H-M   'P 1'
_cell_length_a   4.19195500
_cell_length_b   4.19195500
_cell_length_c   9.36956300
_cell_angle_alpha   90.00000000
_cell_angle_beta   90.00000000
_cell_angle_gamma   90.00000000
_symmetry_Int_Tables_number   1
_chemical_formula_structural   SmGd(NiAs)4
_chemical_formula_sum   'Sm1 Gd1 Ni4 As4'
_cell_volume   164.64652141
_cell_formula_units_Z   1
loop_
 _symmetry_equiv_pos_site_id
 _symmetry_equiv_pos_as_xyz
  1  'x, y, z'
loop_
 _atom_site_type_symbol
 _atom_site_label
 _atom_site_symmetry_multiplicity
 _atom_site_fract_x
 _atom_site_fract_y
 _atom_site_fract_z
 _atom_site_occupancy
  Sm  Sm0  1  0.500000  0.000000  0.752516  1
  Gd  Gd1  1  0.000000  0.500000  0.246883  1
  Ni  Ni2  1  0.000000  0.000000  0.001008  1
  Ni  Ni3  1  0.500000  0.500000  0.001008  1
  Ni  Ni4  1  0.000000  0.500000  0.619125  1
  Ni  Ni5  1  0.500000  0.000000  0.380206  1
  As  As6  1  0.000000  0.000000  0.499240  1
  As  As7  1  0.500000  0.500000  0.499240  1
  As  As8  1  0.000000  0.500000  0.870997  1
  As  As9  1  0.500000  0.000000  0.129776  1
