# generated using pymatgen
data_Ac4Tm3Lu3Si8
_symmetry_space_group_name_H-M   'P 1'
_cell_length_a   7.88111100
_cell_length_b   7.88070960
_cell_length_c   14.47879200
_cell_angle_alpha   89.95349862
_cell_angle_beta   90.00000000
_cell_angle_gamma   90.00000000
_symmetry_Int_Tables_number   1
_chemical_formula_structural   Ac4Tm3Lu3Si8
_chemical_formula_sum   'Ac8 Tm6 Lu6 Si16'
_cell_volume   899.25933420
_cell_formula_units_Z   2
loop_
 _symmetry_equiv_pos_site_id
 _symmetry_equiv_pos_as_xyz
  1  'x, y, z'
loop_
 _atom_site_type_symbol
 _atom_site_label
 _atom_site_symmetry_multiplicity
 _atom_site_fract_x
 _atom_site_fract_y
 _atom_site_fract_z
 _atom_site_occupancy
  Ac  Ac0  1  0.647446  0.990892  0.461591  1
  Ac  Ac1  1  0.352292  0.009072  0.961505  1
  Ac  Ac2  1  0.990935  0.647895  0.538488  1
  Ac  Ac3  1  0.490935  0.852105  0.211512  1
  Ac  Ac4  1  0.509413  0.147285  0.711402  1
  Ac  Ac5  1  0.852292  0.490928  0.788495  1
  Ac  Ac6  1  0.147446  0.509108  0.288409  1
  Ac  Ac7  1  0.009413  0.352715  0.038598  1
  Tm  Tm8  1  0.857713  0.003727  0.875588  1
  Tm  Tm9  1  0.142325  0.996534  0.375449  1
  Tm  Tm10  1  0.503503  0.642046  0.625584  1
  Tm  Tm11  1  0.357713  0.496273  0.874412  1
  Tm  Tm12  1  0.642325  0.503466  0.374551  1
  Tm  Tm13  1  0.003503  0.857954  0.124416  1
  Lu  Lu14  1  0.496702  0.357987  0.125552  1
  Lu  Lu15  1  0.996702  0.142013  0.624448  1
  Lu  Lu16  1  0.318943  0.319093  0.499887  1
  Lu  Lu17  1  0.180236  0.819737  0.749824  1
  Lu  Lu18  1  0.818943  0.180907  0.250113  1
  Lu  Lu19  1  0.680236  0.680263  0.000176  1
  Si  Si20  1  0.285167  0.938979  0.564368  1
  Si  Si21  1  0.713909  0.062469  0.064360  1
  Si  Si22  1  0.938589  0.285361  0.436379  1
  Si  Si23  1  0.438589  0.214639  0.313621  1
  Si  Si24  1  0.561614  0.785624  0.814317  1
  Si  Si25  1  0.213909  0.437531  0.685640  1
  Si  Si26  1  0.785167  0.561021  0.185632  1
  Si  Si27  1  0.061614  0.714376  0.935683  1
  Si  Si28  1  0.796888  0.854987  0.690848  1
  Si  Si29  1  0.204595  0.146096  0.190908  1
  Si  Si30  1  0.854349  0.796768  0.308917  1
  Si  Si31  1  0.354349  0.703232  0.441083  1
  Si  Si32  1  0.645380  0.296426  0.941774  1
  Si  Si33  1  0.704595  0.353904  0.559092  1
  Si  Si34  1  0.296888  0.645013  0.059152  1
  Si  Si35  1  0.145380  0.203574  0.808226  1
