# generated using pymatgen
data_Dy3Lu2Sc(Si3Ru)8
_symmetry_space_group_name_H-M   'P 1'
_cell_length_a   10.07417131
_cell_length_b   10.07372049
_cell_length_c   8.10133559
_cell_angle_alpha   89.88529169
_cell_angle_beta   90.04835171
_cell_angle_gamma   132.54869439
_symmetry_Int_Tables_number   1
_chemical_formula_structural   Dy3Lu2Sc(Si3Ru)8
_chemical_formula_sum   'Dy3 Lu2 Sc1 Si24 Ru8'
_cell_volume   605.68561149
_cell_formula_units_Z   1
loop_
 _symmetry_equiv_pos_site_id
 _symmetry_equiv_pos_as_xyz
  1  'x, y, z'
loop_
 _atom_site_type_symbol
 _atom_site_label
 _atom_site_symmetry_multiplicity
 _atom_site_fract_x
 _atom_site_fract_y
 _atom_site_fract_z
 _atom_site_occupancy
  Dy  Dy0  1  0.997358  0.497366  0.250063  1
  Dy  Dy1  1  0.497836  0.997877  0.250098  1
  Dy  Dy2  1  0.002021  0.502033  0.749896  1
  Lu  Lu3  1  0.999973  0.000040  0.999960  1
  Lu  Lu4  1  0.502357  0.002271  0.749855  1
  Sc  Sc5  1  0.500036  0.499973  0.500036  1
  Si  Si6  1  0.794360  0.204920  0.500989  1
  Si  Si7  1  0.295092  0.705206  0.999121  1
  Si  Si8  1  0.205539  0.794843  0.500898  1
  Si  Si9  1  0.704704  0.294724  0.999074  1
  Si  Si10  1  0.333578  0.333655  0.830633  1
  Si  Si11  1  0.666362  0.666360  0.169559  1
  Si  Si12  1  0.170302  0.170440  0.334317  1
  Si  Si13  1  0.829688  0.829567  0.665520  1
  Si  Si14  1  0.121873  0.887811  0.728141  1
  Si  Si15  1  0.111514  0.876954  0.271272  1
  Si  Si16  1  0.612599  0.380033  0.230444  1
  Si  Si17  1  0.620481  0.388420  0.770689  1
  Si  Si18  1  0.879468  0.114031  0.271238  1
  Si  Si19  1  0.887152  0.121203  0.727655  1
  Si  Si20  1  0.389056  0.621065  0.770288  1
  Si  Si21  1  0.377804  0.610260  0.230509  1
  Si  Si22  1  0.345072  0.113772  0.505388  1
  Si  Si23  1  0.884750  0.652519  0.495079  1
  Si  Si24  1  0.388837  0.156290  0.003597  1
  Si  Si25  1  0.846394  0.612438  0.995395  1
  Si  Si26  1  0.655334  0.886251  0.496737  1
  Si  Si27  1  0.115133  0.347324  0.504151  1
  Si  Si28  1  0.611221  0.844244  0.993995  1
  Si  Si29  1  0.153464  0.387499  0.005404  1
  Ru  Ru30  1  0.665710  0.328757  0.501578  1
  Ru  Ru31  1  0.171727  0.834046  0.998845  1
  Ru  Ru32  1  0.334355  0.671309  0.501210  1
  Ru  Ru33  1  0.828381  0.166055  0.998383  1
  Ru  Ru34  1  0.125292  0.125572  0.628672  1
  Ru  Ru35  1  0.874765  0.874851  0.371008  1
  Ru  Ru36  1  0.372497  0.372405  0.126488  1
  Ru  Ru37  1  0.627914  0.627614  0.873814  1
