# generated using pymatgen
data_Dy3BiRuRh3O14
_symmetry_space_group_name_H-M   'P 1'
_cell_length_a   7.27925363
_cell_length_b   7.27925456
_cell_length_c   7.27925411
_cell_angle_alpha   59.53828087
_cell_angle_beta   59.53828824
_cell_angle_gamma   59.53827688
_symmetry_Int_Tables_number   1
_chemical_formula_structural   Dy3BiRuRh3O14
_chemical_formula_sum   'Dy3 Bi1 Ru1 Rh3 O14'
_cell_volume   269.87471828
_cell_formula_units_Z   1
loop_
 _symmetry_equiv_pos_site_id
 _symmetry_equiv_pos_as_xyz
  1  'x, y, z'
loop_
 _atom_site_type_symbol
 _atom_site_label
 _atom_site_symmetry_multiplicity
 _atom_site_fract_x
 _atom_site_fract_y
 _atom_site_fract_z
 _atom_site_occupancy
  Dy  Dy0  1  0.125000  0.625000  0.125000  1
  Dy  Dy1  1  0.625000  0.125000  0.125000  1
  Dy  Dy2  1  0.125000  0.125000  0.625000  1
  Bi  Bi3  1  0.125000  0.125000  0.125000  1
  Ru  Ru4  1  0.625000  0.625000  0.625000  1
  Rh  Rh5  1  0.625000  0.625000  0.125000  1
  Rh  Rh6  1  0.125000  0.625000  0.625000  1
  Rh  Rh7  1  0.625000  0.125000  0.625000  1
  O  O8  1  0.253131  0.253131  0.253131  1
  O  O9  1  0.286868  0.705769  0.286868  1
  O  O10  1  0.963132  0.963132  0.544231  1
  O  O11  1  0.541874  0.955733  0.541874  1
  O  O12  1  0.708126  0.708126  0.294267  1
  O  O13  1  0.955733  0.541874  0.541874  1
  O  O14  1  0.708126  0.294267  0.708126  1
  O  O15  1  0.286868  0.286868  0.705769  1
  O  O16  1  0.705769  0.286868  0.286868  1
  O  O17  1  0.294267  0.708126  0.708126  1
  O  O18  1  0.963132  0.544231  0.963132  1
  O  O19  1  0.541874  0.541874  0.955733  1
  O  O20  1  0.996869  0.996869  0.996869  1
  O  O21  1  0.544231  0.963132  0.963132  1
