# generated using pymatgen
data_TbSc2Fe8Co
_symmetry_space_group_name_H-M   'P 1'
_cell_length_a   8.45558376
_cell_length_b   8.45558384
_cell_length_c   8.45558480
_cell_angle_alpha   34.39961252
_cell_angle_beta   34.39961117
_cell_angle_gamma   34.39961209
_symmetry_Int_Tables_number   1
_chemical_formula_structural   TbSc2Fe8Co
_chemical_formula_sum   'Tb1 Sc2 Fe8 Co1'
_cell_volume   172.11542648
_cell_formula_units_Z   1
loop_
 _symmetry_equiv_pos_site_id
 _symmetry_equiv_pos_as_xyz
  1  'x, y, z'
loop_
 _atom_site_type_symbol
 _atom_site_label
 _atom_site_symmetry_multiplicity
 _atom_site_fract_x
 _atom_site_fract_y
 _atom_site_fract_z
 _atom_site_occupancy
  Tb  Tb0  1  0.000000  0.000000  0.000000  1
  Sc  Sc1  1  0.143374  0.143374  0.143374  1
  Sc  Sc2  1  0.856626  0.856626  0.856626  1
  Fe  Fe3  1  0.332760  0.332760  0.332760  1
  Fe  Fe4  1  0.667240  0.667240  0.667240  1
  Fe  Fe5  1  0.082710  0.585323  0.585323  1
  Fe  Fe6  1  0.585323  0.585323  0.082710  1
  Fe  Fe7  1  0.585323  0.082710  0.585323  1
  Fe  Fe8  1  0.414677  0.917290  0.414677  1
  Fe  Fe9  1  0.917290  0.414677  0.414677  1
  Fe  Fe10  1  0.414677  0.414677  0.917290  1
  Co  Co11  1  0.500000  0.500000  0.500000  1
