# generated using pymatgen
data_ZrFe4P3W
_symmetry_space_group_name_H-M   'P 1'
_cell_length_a   3.64317500
_cell_length_b   10.28536300
_cell_length_c   11.86334000
_cell_angle_alpha   90.00000000
_cell_angle_beta   90.00000000
_cell_angle_gamma   90.00000000
_symmetry_Int_Tables_number   1
_chemical_formula_structural   ZrFe4P3W
_chemical_formula_sum   'Zr4 Fe16 P12 W4'
_cell_volume   444.53568974
_cell_formula_units_Z   4
loop_
 _symmetry_equiv_pos_site_id
 _symmetry_equiv_pos_as_xyz
  1  'x, y, z'
loop_
 _atom_site_type_symbol
 _atom_site_label
 _atom_site_symmetry_multiplicity
 _atom_site_fract_x
 _atom_site_fract_y
 _atom_site_fract_z
 _atom_site_occupancy
  Zr  Zr0  1  0.250000  0.580670  0.706600  1
  Zr  Zr1  1  0.250000  0.919330  0.206600  1
  Zr  Zr2  1  0.750000  0.419330  0.293400  1
  Zr  Zr3  1  0.750000  0.080670  0.793400  1
  Fe  Fe4  1  0.250000  0.407279  0.486965  1
  Fe  Fe5  1  0.250000  0.092721  0.986965  1
  Fe  Fe6  1  0.750000  0.592721  0.513035  1
  Fe  Fe7  1  0.750000  0.907279  0.013035  1
  Fe  Fe8  1  0.250000  0.220790  0.175212  1
  Fe  Fe9  1  0.250000  0.279210  0.675212  1
  Fe  Fe10  1  0.750000  0.779210  0.824788  1
  Fe  Fe11  1  0.750000  0.720790  0.324788  1
  Fe  Fe12  1  0.250000  0.882746  0.700559  1
  Fe  Fe13  1  0.250000  0.617254  0.200559  1
  Fe  Fe14  1  0.750000  0.117254  0.299441  1
  Fe  Fe15  1  0.750000  0.382746  0.799441  1
  Fe  Fe16  1  0.250000  0.463514  0.932998  1
  Fe  Fe17  1  0.250000  0.036486  0.432998  1
  Fe  Fe18  1  0.750000  0.536486  0.067002  1
  Fe  Fe19  1  0.750000  0.963514  0.567002  1
  P  P20  1  0.250000  0.423431  0.118023  1
  P  P21  1  0.250000  0.076569  0.618023  1
  P  P22  1  0.750000  0.576569  0.881977  1
  P  P23  1  0.750000  0.923431  0.381977  1
  P  P24  1  0.250000  0.264665  0.860815  1
  P  P25  1  0.250000  0.235335  0.360815  1
  P  P26  1  0.750000  0.735335  0.139185  1
  P  P27  1  0.750000  0.764665  0.639185  1
  P  P28  1  0.250000  0.592076  0.387585  1
  P  P29  1  0.250000  0.907924  0.887585  1
  P  P30  1  0.750000  0.407924  0.612415  1
  P  P31  1  0.750000  0.092076  0.112415  1
  W  W32  1  0.250000  0.703961  0.990952  1
  W  W33  1  0.250000  0.796039  0.490952  1
  W  W34  1  0.750000  0.296039  0.009048  1
  W  W35  1  0.750000  0.203961  0.509048  1
