# generated using pymatgen
data_Pr8Zn3CoSi12
_symmetry_space_group_name_H-M   'P 1'
_cell_length_a   8.19444800
_cell_length_b   8.19444838
_cell_length_c   8.66691600
_cell_angle_alpha   90.00000000
_cell_angle_beta   90.00000000
_cell_angle_gamma   120.00000654
_symmetry_Int_Tables_number   1
_chemical_formula_structural   Pr8Zn3CoSi12
_chemical_formula_sum   'Pr8 Zn3 Co1 Si12'
_cell_volume   504.00473661
_cell_formula_units_Z   1
loop_
 _symmetry_equiv_pos_site_id
 _symmetry_equiv_pos_as_xyz
  1  'x, y, z'
loop_
 _atom_site_type_symbol
 _atom_site_label
 _atom_site_symmetry_multiplicity
 _atom_site_fract_x
 _atom_site_fract_y
 _atom_site_fract_z
 _atom_site_occupancy
  Pr  Pr0  1  0.501511  0.498489  0.747717  1
  Pr  Pr1  1  0.501994  0.498006  0.252385  1
  Pr  Pr2  1  0.996978  0.498489  0.747717  1
  Pr  Pr3  1  0.996011  0.498006  0.252385  1
  Pr  Pr4  1  0.501511  0.003022  0.747717  1
  Pr  Pr5  1  0.501994  0.003989  0.252385  1
  Pr  Pr6  1  0.000000  0.000000  0.749178  1
  Pr  Pr7  1  0.000000  0.000000  0.250818  1
  Zn  Zn8  1  0.666667  0.333333  0.997694  1
  Zn  Zn9  1  0.333333  0.666667  0.001773  1
  Zn  Zn10  1  0.333333  0.666667  0.499256  1
  Co  Co11  1  0.666667  0.333333  0.499842  1
  Si  Si12  1  0.833497  0.166503  0.000825  1
  Si  Si13  1  0.166140  0.833860  0.999357  1
  Si  Si14  1  0.333004  0.166503  0.000825  1
  Si  Si15  1  0.162394  0.837606  0.499644  1
  Si  Si16  1  0.667721  0.833860  0.999357  1
  Si  Si17  1  0.824110  0.175890  0.500553  1
  Si  Si18  1  0.833497  0.666996  0.000825  1
  Si  Si19  1  0.675212  0.837606  0.499644  1
  Si  Si20  1  0.166140  0.332279  0.999357  1
  Si  Si21  1  0.351780  0.175890  0.500553  1
  Si  Si22  1  0.162394  0.324788  0.499644  1
  Si  Si23  1  0.824110  0.648220  0.500553  1
