# generated using pymatgen
data_Ce8Si13Sn
_symmetry_space_group_name_H-M   'P 1'
_cell_length_a   8.01961517
_cell_length_b   7.88864410
_cell_length_c   8.55093100
_cell_angle_alpha   90.00000000
_cell_angle_beta   90.00000000
_cell_angle_gamma   120.57181845
_symmetry_Int_Tables_number   1
_chemical_formula_structural   Ce8Si13Sn
_chemical_formula_sum   'Ce8 Si13 Sn1'
_cell_volume   465.76683514
_cell_formula_units_Z   1
loop_
 _symmetry_equiv_pos_site_id
 _symmetry_equiv_pos_as_xyz
  1  'x, y, z'
loop_
 _atom_site_type_symbol
 _atom_site_label
 _atom_site_symmetry_multiplicity
 _atom_site_fract_x
 _atom_site_fract_y
 _atom_site_fract_z
 _atom_site_occupancy
  Ce  Ce0  1  0.266580  0.255984  0.990512  1
  Ce  Ce1  1  0.746698  0.751147  0.001400  1
  Ce  Ce2  1  0.746698  0.751147  0.498600  1
  Ce  Ce3  1  0.266580  0.255984  0.509488  1
  Ce  Ce4  1  0.253007  0.748687  0.496349  1
  Ce  Ce5  1  0.738704  0.253952  0.512725  1
  Ce  Ce6  1  0.738704  0.253952  0.987275  1
  Ce  Ce7  1  0.253007  0.748687  0.003651  1
  Si  Si8  1  0.940706  0.631449  0.750000  1
  Si  Si9  1  0.586607  0.421793  0.250000  1
  Si  Si10  1  0.414766  0.584666  0.750000  1
  Si  Si11  1  0.413225  0.590542  0.250000  1
  Si  Si12  1  0.593761  0.421680  0.750000  1
  Si  Si13  1  0.069211  0.938763  0.250000  1
  Si  Si14  1  0.934026  0.070325  0.750000  1
  Si  Si15  1  0.621856  0.941155  0.250000  1
  Si  Si16  1  0.386915  0.065510  0.750000  1
  Si  Si17  1  0.927470  0.590549  0.250000  1
  Si  Si18  1  0.071982  0.416547  0.750000  1
  Si  Si19  1  0.413421  0.076073  0.250000  1
  Si  Si20  1  0.590246  0.927298  0.750000  1
  Sn  Sn21  1  0.025833  0.304105  0.250000  1
