# generated using pymatgen
data_Y2TmTh(Ga3Ir)6
_symmetry_space_group_name_H-M   'P 1'
_cell_length_a   7.61850095
_cell_length_b   7.62425500
_cell_length_c   9.48975900
_cell_angle_alpha   90.00000000
_cell_angle_beta   90.00000000
_cell_angle_gamma   119.76355202
_symmetry_Int_Tables_number   1
_chemical_formula_structural   Y2TmTh(Ga3Ir)6
_chemical_formula_sum   'Y2 Tm1 Th1 Ga18 Ir6'
_cell_volume   478.50070784
_cell_formula_units_Z   1
loop_
 _symmetry_equiv_pos_site_id
 _symmetry_equiv_pos_as_xyz
  1  'x, y, z'
loop_
 _atom_site_type_symbol
 _atom_site_label
 _atom_site_symmetry_multiplicity
 _atom_site_fract_x
 _atom_site_fract_y
 _atom_site_fract_z
 _atom_site_occupancy
  Y  Y0  1  0.002029  0.330917  0.250000  1
  Y  Y1  1  0.670008  0.997060  0.750000  1
  Tm  Tm2  1  0.330030  0.001760  0.250000  1
  Th  Th3  1  0.996878  0.669059  0.750000  1
  Ga  Ga4  1  0.129658  0.131390  0.750000  1
  Ga  Ga5  1  0.873955  0.875295  0.250000  1
  Ga  Ga6  1  0.999714  0.329230  0.577710  1
  Ga  Ga7  1  0.001594  0.666214  0.413368  1
  Ga  Ga8  1  0.001594  0.666214  0.086632  1
  Ga  Ga9  1  0.340253  0.004504  0.922907  1
  Ga  Ga10  1  0.999714  0.329230  0.922290  1
  Ga  Ga11  1  0.664583  0.001560  0.082187  1
  Ga  Ga12  1  0.664583  0.001560  0.417813  1
  Ga  Ga13  1  0.340253  0.004504  0.577093  1
  Ga  Ga14  1  0.331223  0.330203  0.068015  1
  Ga  Ga15  1  0.663004  0.668004  0.939276  1
  Ga  Ga16  1  0.663004  0.668004  0.560724  1
  Ga  Ga17  1  0.331223  0.330203  0.431985  1
  Ga  Ga18  1  0.341958  0.546156  0.750000  1
  Ga  Ga19  1  0.658558  0.451027  0.250000  1
  Ga  Ga20  1  0.541953  0.336445  0.750000  1
  Ga  Ga21  1  0.452564  0.661767  0.250000  1
  Ir  Ir22  1  0.673795  0.331474  0.500585  1
  Ir  Ir23  1  0.326369  0.670841  0.500381  1
  Ir  Ir24  1  0.326369  0.670841  0.999619  1
  Ir  Ir25  1  0.673795  0.331474  0.999415  1
  Ir  Ir26  1  0.000671  0.997532  0.500690  1
  Ir  Ir27  1  0.000671  0.997532  0.999310  1
