# generated using pymatgen
data_Ho7Lu3(SiSn3)2
_symmetry_space_group_name_H-M   'P 1'
_cell_length_a   9.13017500
_cell_length_b   9.13017532
_cell_length_c   6.40011700
_cell_angle_alpha   90.00000000
_cell_angle_beta   90.00000000
_cell_angle_gamma   120.00000969
_symmetry_Int_Tables_number   1
_chemical_formula_structural   Ho7Lu3(SiSn3)2
_chemical_formula_sum   'Ho7 Lu3 Si2 Sn6'
_cell_volume   462.03696427
_cell_formula_units_Z   1
loop_
 _symmetry_equiv_pos_site_id
 _symmetry_equiv_pos_as_xyz
  1  'x, y, z'
loop_
 _atom_site_type_symbol
 _atom_site_label
 _atom_site_symmetry_multiplicity
 _atom_site_fract_x
 _atom_site_fract_y
 _atom_site_fract_z
 _atom_site_occupancy
  Ho  Ho0  1  0.666667  0.333333  0.000000  1
  Ho  Ho1  1  0.746321  0.746484  0.750399  1
  Ho  Ho2  1  0.253516  0.999837  0.750399  1
  Ho  Ho3  1  0.000163  0.253679  0.750399  1
  Ho  Ho4  1  0.253516  0.253679  0.249601  1
  Ho  Ho5  1  0.746321  0.999837  0.249601  1
  Ho  Ho6  1  0.000163  0.746484  0.249601  1
  Lu  Lu7  1  0.333333  0.666667  0.000000  1
  Lu  Lu8  1  0.333333  0.666667  0.500000  1
  Lu  Lu9  1  0.666667  0.333333  0.500000  1
  Si  Si10  1  0.000000  0.000000  0.000000  1
  Si  Si11  1  0.000000  0.000000  0.500000  1
  Sn  Sn12  1  0.392557  0.393501  0.749580  1
  Sn  Sn13  1  0.606499  0.999057  0.749580  1
  Sn  Sn14  1  0.000943  0.607443  0.749580  1
  Sn  Sn15  1  0.606499  0.607443  0.250420  1
  Sn  Sn16  1  0.392557  0.999057  0.250420  1
  Sn  Sn17  1  0.000943  0.393501  0.250420  1
