# generated using pymatgen
data_La4Nd6Si5Ag
_symmetry_space_group_name_H-M   'P 1'
_cell_length_a   7.80508200
_cell_length_b   7.80508344
_cell_length_c   9.09484400
_cell_angle_alpha   115.41006487
_cell_angle_beta   115.41006177
_cell_angle_gamma   90.00000277
_symmetry_Int_Tables_number   1
_chemical_formula_structural   La4Nd6Si5Ag
_chemical_formula_sum   'La4 Nd6 Si5 Ag1'
_cell_volume   440.37769586
_cell_formula_units_Z   1
loop_
 _symmetry_equiv_pos_site_id
 _symmetry_equiv_pos_as_xyz
  1  'x, y, z'
loop_
 _atom_site_type_symbol
 _atom_site_label
 _atom_site_symmetry_multiplicity
 _atom_site_fract_x
 _atom_site_fract_y
 _atom_site_fract_z
 _atom_site_occupancy
  La  La0  1  0.033187  0.178381  0.712537  1
  La  La1  1  0.679350  0.534155  0.712537  1
  La  La2  1  0.178381  0.679350  0.712537  1
  La  La3  1  0.534155  0.033187  0.712537  1
  Nd  Nd4  1  0.483202  0.483202  0.966404  1
  Nd  Nd5  1  0.018102  0.018102  0.036205  1
  Nd  Nd6  1  0.964498  0.820185  0.284824  1
  Nd  Nd7  1  0.320326  0.464639  0.284824  1
  Nd  Nd8  1  0.820185  0.320326  0.284824  1
  Nd  Nd9  1  0.464639  0.964498  0.284824  1
  Si  Si10  1  0.247427  0.247427  0.494854  1
  Si  Si11  1  0.616551  0.887915  0.004562  1
  Si  Si12  1  0.388011  0.116647  0.004562  1
  Si  Si13  1  0.887915  0.388011  0.004562  1
  Si  Si14  1  0.116647  0.616551  0.004562  1
  Ag  Ag15  1  0.747423  0.747423  0.494844  1
