# generated using pymatgen
data_Ca8YbErIr4
_symmetry_space_group_name_H-M   'P 1'
_cell_length_a   6.47721353
_cell_length_b   7.54819690
_cell_length_c   8.56774000
_cell_angle_alpha   97.39230338
_cell_angle_beta   112.20986525
_cell_angle_gamma   90.00000136
_symmetry_Int_Tables_number   1
_chemical_formula_structural   Ca8YbErIr4
_chemical_formula_sum   'Ca8 Yb1 Er1 Ir4'
_cell_volume   384.04538276
_cell_formula_units_Z   1
loop_
 _symmetry_equiv_pos_site_id
 _symmetry_equiv_pos_as_xyz
  1  'x, y, z'
loop_
 _atom_site_type_symbol
 _atom_site_label
 _atom_site_symmetry_multiplicity
 _atom_site_fract_x
 _atom_site_fract_y
 _atom_site_fract_z
 _atom_site_occupancy
  Ca  Ca0  1  0.967082  0.920590  0.171722  1
  Ca  Ca1  1  0.795360  0.579410  0.828278  1
  Ca  Ca2  1  0.027417  0.080127  0.826157  1
  Ca  Ca3  1  0.201261  0.419873  0.173843  1
  Ca  Ca4  1  0.637752  0.822536  0.434548  1
  Ca  Ca5  1  0.203205  0.677464  0.565452  1
  Ca  Ca6  1  0.361443  0.178132  0.562598  1
  Ca  Ca7  1  0.798845  0.321868  0.437402  1
  Yb  Yb8  1  0.427995  0.750000  0.000000  1
  Er  Er9  1  0.566189  0.250000  0.000000  1
  Ir  Ir10  1  0.811562  0.569917  0.210047  1
  Ir  Ir11  1  0.601514  0.930083  0.789953  1
  Ir  Ir12  1  0.194486  0.417417  0.788596  1
  Ir  Ir13  1  0.405889  0.082583  0.211404  1
