# generated using pymatgen
data_Dy4Lu4Re3TcC8
_symmetry_space_group_name_H-M   'P 1'
_cell_length_a   5.04583900
_cell_length_b   6.55616582
_cell_length_c   9.74323141
_cell_angle_alpha   90.03710623
_cell_angle_beta   90.00000000
_cell_angle_gamma   90.00000000
_symmetry_Int_Tables_number   1
_chemical_formula_structural   Dy4Lu4Re3TcC8
_chemical_formula_sum   'Dy4 Lu4 Re3 Tc1 C8'
_cell_volume   322.31925075
_cell_formula_units_Z   1
loop_
 _symmetry_equiv_pos_site_id
 _symmetry_equiv_pos_as_xyz
  1  'x, y, z'
loop_
 _atom_site_type_symbol
 _atom_site_label
 _atom_site_symmetry_multiplicity
 _atom_site_fract_x
 _atom_site_fract_y
 _atom_site_fract_z
 _atom_site_occupancy
  Dy  Dy0  1  0.250000  0.465295  0.214377  1
  Dy  Dy1  1  0.250000  0.965555  0.285297  1
  Dy  Dy2  1  0.750000  0.533643  0.786559  1
  Dy  Dy3  1  0.750000  0.034118  0.714846  1
  Lu  Lu4  1  0.250000  0.827441  0.941547  1
  Lu  Lu5  1  0.250000  0.325628  0.558859  1
  Lu  Lu6  1  0.750000  0.173320  0.058933  1
  Lu  Lu7  1  0.750000  0.674065  0.441904  1
  Re  Re8  1  0.250000  0.780204  0.632076  1
  Re  Re9  1  0.750000  0.720154  0.132436  1
  Re  Re10  1  0.750000  0.220479  0.367998  1
  Tc  Tc11  1  0.250000  0.279873  0.867666  1
  C  C12  1  0.250000  0.048361  0.738819  1
  C  C13  1  0.250000  0.549993  0.759254  1
  C  C14  1  0.750000  0.951176  0.260773  1
  C  C15  1  0.750000  0.451660  0.239889  1
  C  C16  1  0.250000  0.670210  0.448207  1
  C  C17  1  0.250000  0.169818  0.050239  1
  C  C18  1  0.750000  0.329602  0.551638  1
  C  C19  1  0.750000  0.829403  0.948681  1
