# generated using pymatgen
data_Rb2PuSe3
_symmetry_space_group_name_H-M   'P 1'
_cell_length_a   7.71568704
_cell_length_b   7.71568703
_cell_length_c   8.44723149
_cell_angle_alpha   81.10235717
_cell_angle_beta   81.10236554
_cell_angle_gamma   119.38328674
_symmetry_Int_Tables_number   1
_chemical_formula_structural   Rb2PuSe3
_chemical_formula_sum   'Rb4 Pu2 Se6'
_cell_volume   417.09942012
_cell_formula_units_Z   2
loop_
 _symmetry_equiv_pos_site_id
 _symmetry_equiv_pos_as_xyz
  1  'x, y, z'
loop_
 _atom_site_type_symbol
 _atom_site_label
 _atom_site_symmetry_multiplicity
 _atom_site_fract_x
 _atom_site_fract_y
 _atom_site_fract_z
 _atom_site_occupancy
  Rb  Rb0  1  0.500000  0.500000  0.000000  1
  Rb  Rb1  1  0.654111  0.345889  0.500000  1
  Rb  Rb2  1  0.345889  0.654111  0.500000  1
  Rb  Rb3  1  0.000000  0.000000  0.500000  1
  Pu  Pu4  1  0.831912  0.168088  0.000000  1
  Pu  Pu5  1  0.168088  0.831912  0.000000  1
  Se  Se6  1  0.818206  0.818206  0.194942  1
  Se  Se7  1  0.181794  0.181794  0.805058  1
  Se  Se8  1  0.431715  0.045663  0.198760  1
  Se  Se9  1  0.568285  0.954337  0.801240  1
  Se  Se10  1  0.954337  0.568285  0.801240  1
  Se  Se11  1  0.045663  0.431715  0.198760  1
