# generated using pymatgen
data_Y2B2Ru5W
_symmetry_space_group_name_H-M   'P 1'
_cell_length_a   9.63688800
_cell_length_b   9.63688800
_cell_length_c   3.12530300
_cell_angle_alpha   90.00000000
_cell_angle_beta   90.00000000
_cell_angle_gamma   90.00000000
_symmetry_Int_Tables_number   1
_chemical_formula_structural   Y2B2Ru5W
_chemical_formula_sum   'Y4 B4 Ru10 W2'
_cell_volume   290.24567176
_cell_formula_units_Z   2
loop_
 _symmetry_equiv_pos_site_id
 _symmetry_equiv_pos_as_xyz
  1  'x, y, z'
loop_
 _atom_site_type_symbol
 _atom_site_label
 _atom_site_symmetry_multiplicity
 _atom_site_fract_x
 _atom_site_fract_y
 _atom_site_fract_z
 _atom_site_occupancy
  Y  Y0  1  0.675512  0.175512  0.000000  1
  Y  Y1  1  0.324488  0.824488  0.000000  1
  Y  Y2  1  0.175512  0.324488  0.000000  1
  Y  Y3  1  0.824488  0.675512  0.000000  1
  B  B4  1  0.120190  0.620190  0.000000  1
  B  B5  1  0.879810  0.379810  0.000000  1
  B  B6  1  0.620190  0.879810  0.000000  1
  B  B7  1  0.379810  0.120190  0.000000  1
  Ru  Ru8  1  0.216106  0.069450  0.500000  1
  Ru  Ru9  1  0.783894  0.930550  0.500000  1
  Ru  Ru10  1  0.069450  0.783894  0.500000  1
  Ru  Ru11  1  0.716106  0.430550  0.500000  1
  Ru  Ru12  1  0.930550  0.216106  0.500000  1
  Ru  Ru13  1  0.283894  0.569450  0.500000  1
  Ru  Ru14  1  0.569450  0.716106  0.500000  1
  Ru  Ru15  1  0.430550  0.283894  0.500000  1
  Ru  Ru16  1  0.500000  0.000000  0.500000  1
  Ru  Ru17  1  0.000000  0.500000  0.500000  1
  W  W18  1  0.000000  0.000000  0.000000  1
  W  W19  1  0.500000  0.500000  0.000000  1
