# generated using pymatgen
data_Sr5PrTiCo4O15
_symmetry_space_group_name_H-M   'P 1'
_cell_length_a   6.87407821
_cell_length_b   6.91864858
_cell_length_c   6.91864814
_cell_angle_alpha   87.58397921
_cell_angle_beta   87.63967247
_cell_angle_gamma   87.63967882
_symmetry_Int_Tables_number   1
_chemical_formula_structural   Sr5PrTiCo4O15
_chemical_formula_sum   'Sr5 Pr1 Ti1 Co4 O15'
_cell_volume   328.21830311
_cell_formula_units_Z   1
loop_
 _symmetry_equiv_pos_site_id
 _symmetry_equiv_pos_as_xyz
  1  'x, y, z'
loop_
 _atom_site_type_symbol
 _atom_site_label
 _atom_site_symmetry_multiplicity
 _atom_site_fract_x
 _atom_site_fract_y
 _atom_site_fract_z
 _atom_site_occupancy
  Sr  Sr0  1  0.135567  0.500087  0.859620  1
  Sr  Sr1  1  0.864433  0.140380  0.499913  1
  Sr  Sr2  1  0.000000  0.666080  0.333920  1
  Sr  Sr3  1  0.324354  0.001941  0.672600  1
  Sr  Sr4  1  0.675646  0.327400  0.998059  1
  Pr  Pr5  1  0.500000  0.860103  0.139897  1
  Ti  Ti6  1  0.500000  0.500210  0.499790  1
  Co  Co7  1  0.704173  0.710598  0.707120  1
  Co  Co8  1  0.295827  0.292880  0.289402  1
  Co  Co9  1  0.905667  0.905226  0.908278  1
  Co  Co10  1  0.094333  0.091722  0.094774  1
  O  O11  1  0.382781  0.554085  0.237997  1
  O  O12  1  0.243593  0.381563  0.545084  1
  O  O13  1  0.552993  0.246439  0.377095  1
  O  O14  1  0.617219  0.762003  0.445915  1
  O  O15  1  0.447007  0.622905  0.753561  1
  O  O16  1  0.756407  0.454916  0.618437  1
  O  O17  1  0.209223  0.026407  0.338692  1
  O  O18  1  0.346379  0.189907  0.029627  1
  O  O19  1  0.031170  0.338967  0.197563  1
  O  O20  1  0.790777  0.661308  0.973593  1
  O  O21  1  0.968830  0.802437  0.661033  1
  O  O22  1  0.160187  0.841358  0.003506  1
  O  O23  1  0.839813  0.996494  0.158642  1
  O  O24  1  0.000000  0.154211  0.845789  1
  O  O25  1  0.653621  0.970373  0.810093  1
