# generated using pymatgen
data_Ho2(AlAu3)3
_symmetry_space_group_name_H-M   'P 1'
_cell_length_a   7.94445518
_cell_length_b   7.94445577
_cell_length_c   10.76563910
_cell_angle_alpha   68.42187318
_cell_angle_beta   68.42186995
_cell_angle_gamma   59.76797964
_symmetry_Int_Tables_number   1
_chemical_formula_structural   Ho2(AlAu3)3
_chemical_formula_sum   'Ho4 Al6 Au18'
_cell_volume   531.62686923
_cell_formula_units_Z   2
loop_
 _symmetry_equiv_pos_site_id
 _symmetry_equiv_pos_as_xyz
  1  'x, y, z'
loop_
 _atom_site_type_symbol
 _atom_site_label
 _atom_site_symmetry_multiplicity
 _atom_site_fract_x
 _atom_site_fract_y
 _atom_site_fract_z
 _atom_site_occupancy
  Ho  Ho0  1  0.414318  0.248370  0.748766  1
  Ho  Ho1  1  0.585682  0.751630  0.251234  1
  Ho  Ho2  1  0.751630  0.585682  0.751234  1
  Ho  Ho3  1  0.248370  0.414318  0.248766  1
  Al  Al4  1  0.650182  0.176361  0.998579  1
  Al  Al5  1  0.823639  0.349818  0.501421  1
  Al  Al6  1  0.349818  0.823639  0.001421  1
  Al  Al7  1  0.000000  0.500000  0.000000  1
  Al  Al8  1  0.176361  0.650182  0.498579  1
  Al  Al9  1  0.500000  0.000000  0.500000  1
  Au  Au10  1  0.479347  0.640577  0.572198  1
  Au  Au11  1  0.359423  0.520653  0.927802  1
  Au  Au12  1  0.856905  0.688831  0.432290  1
  Au  Au13  1  0.851344  0.148656  0.750000  1
  Au  Au14  1  0.520653  0.359423  0.427802  1
  Au  Au15  1  0.688831  0.856905  0.932290  1
  Au  Au16  1  0.918020  0.306175  0.254728  1
  Au  Au17  1  0.977801  0.798012  0.075582  1
  Au  Au18  1  0.306175  0.918020  0.754728  1
  Au  Au19  1  0.143095  0.311169  0.567710  1
  Au  Au20  1  0.798012  0.977801  0.575582  1
  Au  Au21  1  0.311169  0.143095  0.067710  1
  Au  Au22  1  0.148656  0.851344  0.250000  1
  Au  Au23  1  0.022199  0.201988  0.924418  1
  Au  Au24  1  0.081980  0.693825  0.745272  1
  Au  Au25  1  0.640577  0.479347  0.072198  1
  Au  Au26  1  0.201988  0.022199  0.424418  1
  Au  Au27  1  0.693825  0.081980  0.245272  1
