# generated using pymatgen
data_LiSmDy5Co17P12
_symmetry_space_group_name_H-M   'P 1'
_cell_length_a   3.72024000
_cell_length_b   10.56661200
_cell_length_c   12.21445400
_cell_angle_alpha   90.00000000
_cell_angle_beta   90.00000000
_cell_angle_gamma   90.00000000
_symmetry_Int_Tables_number   1
_chemical_formula_structural   LiSmDy5Co17P12
_chemical_formula_sum   'Li1 Sm1 Dy5 Co17 P12'
_cell_volume   480.15424960
_cell_formula_units_Z   1
loop_
 _symmetry_equiv_pos_site_id
 _symmetry_equiv_pos_as_xyz
  1  'x, y, z'
loop_
 _atom_site_type_symbol
 _atom_site_label
 _atom_site_symmetry_multiplicity
 _atom_site_fract_x
 _atom_site_fract_y
 _atom_site_fract_z
 _atom_site_occupancy
  Li  Li0  1  0.000000  0.000000  0.847613  1
  Sm  Sm1  1  0.000000  0.500000  0.521663  1
  Dy  Dy2  1  0.500000  0.000000  0.477550  1
  Dy  Dy3  1  0.500000  0.817796  0.205730  1
  Dy  Dy4  1  0.500000  0.182204  0.205730  1
  Dy  Dy5  1  0.000000  0.681046  0.794205  1
  Dy  Dy6  1  0.000000  0.318954  0.794205  1
  Co  Co7  1  0.500000  0.500000  0.157926  1
  Co  Co8  1  0.500000  0.500000  0.705016  1
  Co  Co9  1  0.000000  0.000000  0.295817  1
  Co  Co10  1  0.000000  0.500000  0.988049  1
  Co  Co11  1  0.500000  0.000000  0.014417  1
  Co  Co12  1  0.500000  0.334841  0.996698  1
  Co  Co13  1  0.500000  0.665159  0.996698  1
  Co  Co14  1  0.000000  0.168663  0.004866  1
  Co  Co15  1  0.000000  0.831337  0.004866  1
  Co  Co16  1  0.500000  0.295813  0.429234  1
  Co  Co17  1  0.500000  0.704187  0.429234  1
  Co  Co18  1  0.000000  0.202316  0.568559  1
  Co  Co19  1  0.000000  0.797684  0.568559  1
  Co  Co20  1  0.500000  0.878436  0.707894  1
  Co  Co21  1  0.500000  0.121564  0.707894  1
  Co  Co22  1  0.000000  0.620464  0.289474  1
  Co  Co23  1  0.000000  0.379536  0.289474  1
  P  P24  1  0.500000  0.500000  0.883954  1
  P  P25  1  0.000000  0.000000  0.115752  1
  P  P26  1  0.500000  0.500000  0.341350  1
  P  P27  1  0.000000  0.000000  0.654553  1
  P  P28  1  0.500000  0.308153  0.615733  1
  P  P29  1  0.500000  0.691847  0.615733  1
  P  P30  1  0.000000  0.189912  0.383397  1
  P  P31  1  0.000000  0.810088  0.383397  1
  P  P32  1  0.500000  0.843211  0.894952  1
  P  P33  1  0.500000  0.156789  0.894952  1
  P  P34  1  0.000000  0.653022  0.107428  1
  P  P35  1  0.000000  0.346978  0.107428  1
