# generated using pymatgen
data_Tm3Lu(ScPt)4
_symmetry_space_group_name_H-M   'P 1'
_cell_length_a   4.57700400
_cell_length_b   6.90964925
_cell_length_c   8.39443801
_cell_angle_alpha   89.96882619
_cell_angle_beta   90.00000000
_cell_angle_gamma   90.00000000
_symmetry_Int_Tables_number   1
_chemical_formula_structural   Tm3Lu(ScPt)4
_chemical_formula_sum   'Tm3 Lu1 Sc4 Pt4'
_cell_volume   265.47819476
_cell_formula_units_Z   1
loop_
 _symmetry_equiv_pos_site_id
 _symmetry_equiv_pos_as_xyz
  1  'x, y, z'
loop_
 _atom_site_type_symbol
 _atom_site_label
 _atom_site_symmetry_multiplicity
 _atom_site_fract_x
 _atom_site_fract_y
 _atom_site_fract_z
 _atom_site_occupancy
  Tm  Tm0  1  0.250000  0.519847  0.174269  1
  Tm  Tm1  1  0.750000  0.480485  0.826221  1
  Tm  Tm2  1  0.750000  0.980207  0.673426  1
  Lu  Lu3  1  0.250000  0.020124  0.326522  1
  Sc  Sc4  1  0.250000  0.641661  0.570778  1
  Sc  Sc5  1  0.750000  0.358082  0.428796  1
  Sc  Sc6  1  0.750000  0.858799  0.071981  1
  Sc  Sc7  1  0.250000  0.141452  0.929183  1
  Pt  Pt8  1  0.250000  0.752665  0.895438  1
  Pt  Pt9  1  0.750000  0.246774  0.104892  1
  Pt  Pt10  1  0.750000  0.747739  0.395030  1
  Pt  Pt11  1  0.250000  0.252163  0.603464  1
