# generated using pymatgen
data_Be6Si6TcRh11
_symmetry_space_group_name_H-M   'P 1'
_cell_length_a   4.05365200
_cell_length_b   5.76382300
_cell_length_c   12.18863600
_cell_angle_alpha   90.00000000
_cell_angle_beta   90.00129888
_cell_angle_gamma   90.00000000
_symmetry_Int_Tables_number   1
_chemical_formula_structural   Be6Si6TcRh11
_chemical_formula_sum   'Be6 Si6 Tc1 Rh11'
_cell_volume   284.78178352
_cell_formula_units_Z   1
loop_
 _symmetry_equiv_pos_site_id
 _symmetry_equiv_pos_as_xyz
  1  'x, y, z'
loop_
 _atom_site_type_symbol
 _atom_site_label
 _atom_site_symmetry_multiplicity
 _atom_site_fract_x
 _atom_site_fract_y
 _atom_site_fract_z
 _atom_site_occupancy
  Be  Be0  1  0.000000  0.497676  0.999998  1
  Be  Be1  1  0.499641  0.002546  0.163776  1
  Be  Be2  1  0.999654  0.499533  0.332063  1
  Be  Be3  1  0.500001  0.999766  0.500000  1
  Be  Be4  1  0.000341  0.499534  0.667938  1
  Be  Be5  1  0.500360  0.002545  0.836224  1
  Si  Si6  1  0.000000  0.007489  0.000000  1
  Si  Si7  1  0.499744  0.495990  0.162705  1
  Si  Si8  1  0.999740  0.999487  0.333071  1
  Si  Si9  1  0.500000  0.500659  0.500000  1
  Si  Si10  1  0.000260  0.999486  0.666929  1
  Si  Si11  1  0.500257  0.495989  0.837294  1
  Tc  Tc12  1  0.500000  0.249405  0.000000  1
  Rh  Rh13  1  0.500000  0.750987  0.000000  1
  Rh  Rh14  1  0.999822  0.250226  0.173108  1
  Rh  Rh15  1  0.999826  0.750220  0.169113  1
  Rh  Rh16  1  0.499842  0.250203  0.336633  1
  Rh  Rh17  1  0.499830  0.749083  0.334004  1
  Rh  Rh18  1  0.000000  0.249543  0.500000  1
  Rh  Rh19  1  0.999999  0.749909  0.500000  1
  Rh  Rh20  1  0.500158  0.250202  0.663367  1
  Rh  Rh21  1  0.500170  0.749082  0.665996  1
  Rh  Rh22  1  0.000178  0.250223  0.826892  1
  Rh  Rh23  1  0.000175  0.750219  0.830886  1
