# generated using pymatgen
data_RbGa3Cl8
_symmetry_space_group_name_H-M   'P 1'
_cell_length_a   7.41951200
_cell_length_b   10.34297581
_cell_length_c   10.04760339
_cell_angle_alpha   94.49554756
_cell_angle_beta   90.00000000
_cell_angle_gamma   90.00000000
_symmetry_Int_Tables_number   1
_chemical_formula_structural   RbGa3Cl8
_chemical_formula_sum   'Rb2 Ga6 Cl16'
_cell_volume   768.67921250
_cell_formula_units_Z   2
loop_
 _symmetry_equiv_pos_site_id
 _symmetry_equiv_pos_as_xyz
  1  'x, y, z'
loop_
 _atom_site_type_symbol
 _atom_site_label
 _atom_site_symmetry_multiplicity
 _atom_site_fract_x
 _atom_site_fract_y
 _atom_site_fract_z
 _atom_site_occupancy
  Rb  Rb0  1  0.817858  0.750000  0.250000  1
  Rb  Rb1  1  0.182142  0.250000  0.750000  1
  Ga  Ga2  1  0.749068  0.993174  0.817510  1
  Ga  Ga3  1  0.250932  0.493174  0.317510  1
  Ga  Ga4  1  0.250932  0.006826  0.182490  1
  Ga  Ga5  1  0.650837  0.250000  0.250000  1
  Ga  Ga6  1  0.749068  0.506826  0.682490  1
  Ga  Ga7  1  0.349163  0.750000  0.750000  1
  Cl  Cl8  1  0.333256  0.329865  0.433807  1
  Cl  Cl9  1  0.487004  0.523063  0.187928  1
  Cl  Cl10  1  0.666744  0.670135  0.566193  1
  Cl  Cl11  1  0.333256  0.170135  0.066193  1
  Cl  Cl12  1  0.011495  0.050509  0.307110  1
  Cl  Cl13  1  0.666744  0.829865  0.933807  1
  Cl  Cl14  1  0.815769  0.332109  0.552186  1
  Cl  Cl15  1  0.988505  0.550509  0.807110  1
  Cl  Cl16  1  0.184231  0.667891  0.447814  1
  Cl  Cl17  1  0.011495  0.449491  0.192890  1
  Cl  Cl18  1  0.487004  0.976937  0.312072  1
  Cl  Cl19  1  0.815769  0.167891  0.947814  1
  Cl  Cl20  1  0.184231  0.832109  0.052186  1
  Cl  Cl21  1  0.988505  0.949491  0.692890  1
  Cl  Cl22  1  0.512996  0.476937  0.812072  1
  Cl  Cl23  1  0.512996  0.023063  0.687928  1
