# generated using pymatgen
data_NaEu4Mg3Fe3H22
_symmetry_space_group_name_H-M   'P 1'
_cell_length_a   6.83350880
_cell_length_b   6.83350880
_cell_length_c   6.83350880
_cell_angle_alpha   89.46296460
_cell_angle_beta   89.46296460
_cell_angle_gamma   90.53703540
_symmetry_Int_Tables_number   1
_chemical_formula_structural   NaEu4Mg3Fe3H22
_chemical_formula_sum   'Na1 Eu4 Mg3 Fe3 H22'
_cell_volume   319.06096815
_cell_formula_units_Z   1
loop_
 _symmetry_equiv_pos_site_id
 _symmetry_equiv_pos_as_xyz
  1  'x, y, z'
loop_
 _atom_site_type_symbol
 _atom_site_label
 _atom_site_symmetry_multiplicity
 _atom_site_fract_x
 _atom_site_fract_y
 _atom_site_fract_z
 _atom_site_occupancy
  Na  Na0  1  0.788998  0.788998  0.211002  1
  Eu  Eu1  1  0.289378  0.289378  0.710622  1
  Eu  Eu2  1  0.289727  0.709787  0.290213  1
  Eu  Eu3  1  0.709787  0.289727  0.290213  1
  Eu  Eu4  1  0.709787  0.709787  0.710273  1
  Mg  Mg5  1  0.790005  0.209958  0.790042  1
  Mg  Mg6  1  0.209958  0.790005  0.790042  1
  Mg  Mg7  1  0.209958  0.209958  0.209995  1
  Fe  Fe8  1  0.006608  0.006608  0.509219  1
  Fe  Fe9  1  0.006608  0.490781  0.993392  1
  Fe  Fe10  1  0.490781  0.006608  0.993392  1
  H  H11  1  0.003414  0.496273  0.227252  1
  H  H12  1  0.496273  0.772748  0.996586  1
  H  H13  1  0.772748  0.003414  0.503727  1
  H  H14  1  0.003414  0.772748  0.503727  1
  H  H15  1  0.496273  0.003414  0.227252  1
  H  H16  1  0.772748  0.496273  0.996586  1
  H  H17  1  0.002195  0.496841  0.760707  1
  H  H18  1  0.496841  0.239293  0.997805  1
  H  H19  1  0.002195  0.239293  0.503159  1
  H  H20  1  0.496841  0.002195  0.760707  1
  H  H21  1  0.239293  0.002195  0.503159  1
  H  H22  1  0.239293  0.496841  0.997805  1
  H  H23  1  0.006607  0.006607  0.276951  1
  H  H24  1  0.006607  0.723049  0.993393  1
  H  H25  1  0.723049  0.006607  0.993393  1
  H  H26  1  0.000737  0.000737  0.741611  1
  H  H27  1  0.000737  0.258389  0.999263  1
  H  H28  1  0.258389  0.000737  0.999263  1
  H  H29  1  0.613697  0.613697  0.386303  1
  H  H30  1  0.630607  0.368223  0.631777  1
  H  H31  1  0.368223  0.630607  0.631777  1
  H  H32  1  0.368223  0.368223  0.369393  1
