# generated using pymatgen
data_Tm10Cd3Co
_symmetry_space_group_name_H-M   'P 1'
_cell_length_a   9.47651000
_cell_length_b   9.47650129
_cell_length_c   9.62326400
_cell_angle_alpha   90.00000000
_cell_angle_beta   90.00000000
_cell_angle_gamma   119.99982291
_symmetry_Int_Tables_number   1
_chemical_formula_structural   Tm10Cd3Co
_chemical_formula_sum   'Tm20 Cd6 Co2'
_cell_volume   748.42839851
_cell_formula_units_Z   2
loop_
 _symmetry_equiv_pos_site_id
 _symmetry_equiv_pos_as_xyz
  1  'x, y, z'
loop_
 _atom_site_type_symbol
 _atom_site_label
 _atom_site_symmetry_multiplicity
 _atom_site_fract_x
 _atom_site_fract_y
 _atom_site_fract_z
 _atom_site_occupancy
  Tm  Tm0  1  0.000000  0.000000  0.500000  1
  Tm  Tm1  1  0.000000  0.000000  0.000000  1
  Tm  Tm2  1  0.542268  0.457733  0.250000  1
  Tm  Tm3  1  0.542268  0.084536  0.250000  1
  Tm  Tm4  1  0.915464  0.457733  0.250000  1
  Tm  Tm5  1  0.457732  0.542267  0.750000  1
  Tm  Tm6  1  0.457732  0.915464  0.750000  1
  Tm  Tm7  1  0.084536  0.542267  0.750000  1
  Tm  Tm8  1  0.212139  0.787861  0.436893  1
  Tm  Tm9  1  0.212139  0.424278  0.436893  1
  Tm  Tm10  1  0.575722  0.787861  0.436893  1
  Tm  Tm11  1  0.787861  0.212139  0.563107  1
  Tm  Tm12  1  0.787861  0.575722  0.563107  1
  Tm  Tm13  1  0.424278  0.212139  0.563107  1
  Tm  Tm14  1  0.787861  0.212139  0.936893  1
  Tm  Tm15  1  0.787861  0.575722  0.936893  1
  Tm  Tm16  1  0.424278  0.212139  0.936893  1
  Tm  Tm17  1  0.212139  0.787861  0.063107  1
  Tm  Tm18  1  0.212139  0.424278  0.063107  1
  Tm  Tm19  1  0.575722  0.787861  0.063107  1
  Cd  Cd20  1  0.885098  0.114902  0.250000  1
  Cd  Cd21  1  0.885098  0.770196  0.250000  1
  Cd  Cd22  1  0.229804  0.114902  0.250000  1
  Cd  Cd23  1  0.114902  0.885098  0.750000  1
  Cd  Cd24  1  0.114902  0.229804  0.750000  1
  Cd  Cd25  1  0.770196  0.885098  0.750000  1
  Co  Co26  1  0.333333  0.666667  0.250000  1
  Co  Co27  1  0.666667  0.333333  0.750000  1
