# generated using pymatgen
data_NaPr(S2O7)2
_symmetry_space_group_name_H-M   'P 1'
_cell_length_a   5.49496614
_cell_length_b   7.30091750
_cell_length_c   9.59311300
_cell_angle_alpha   91.40819302
_cell_angle_beta   96.22321320
_cell_angle_gamma   106.35079812
_symmetry_Int_Tables_number   1
_chemical_formula_structural   NaPr(S2O7)2
_chemical_formula_sum   'Na1 Pr1 S4 O14'
_cell_volume   366.50511730
_cell_formula_units_Z   1
loop_
 _symmetry_equiv_pos_site_id
 _symmetry_equiv_pos_as_xyz
  1  'x, y, z'
loop_
 _atom_site_type_symbol
 _atom_site_label
 _atom_site_symmetry_multiplicity
 _atom_site_fract_x
 _atom_site_fract_y
 _atom_site_fract_z
 _atom_site_occupancy
  Na  Na0  1  0.000000  0.500000  0.000000  1
  Pr  Pr1  1  0.500000  0.000000  0.500000  1
  S  S2  1  0.474233  0.636538  0.770478  1
  S  S3  1  0.525767  0.363462  0.229522  1
  S  S4  1  0.136126  0.256522  0.694712  1
  S  S5  1  0.863874  0.743478  0.305288  1
  O  O6  1  0.662885  0.546533  0.825916  1
  O  O7  1  0.337115  0.453467  0.174084  1
  O  O8  1  0.317053  0.691385  0.864861  1
  O  O9  1  0.682947  0.308615  0.135139  1
  O  O10  1  0.566803  0.781537  0.668667  1
  O  O11  1  0.433197  0.218463  0.331333  1
  O  O12  1  0.264297  0.471225  0.650834  1
  O  O13  1  0.735703  0.528775  0.349166  1
  O  O14  1  0.913870  0.195853  0.585462  1
  O  O15  1  0.086130  0.804147  0.414538  1
  O  O16  1  0.320624  0.149540  0.671337  1
  O  O17  1  0.679376  0.850460  0.328663  1
  O  O18  1  0.076386  0.261224  0.836564  1
  O  O19  1  0.923614  0.738776  0.163436  1
