# generated using pymatgen
data_V12Ga4Cu3PtN4
_symmetry_space_group_name_H-M   'P 1'
_cell_length_a   6.57238405
_cell_length_b   6.57238407
_cell_length_c   6.57238501
_cell_angle_alpha   89.91046989
_cell_angle_beta   89.91046079
_cell_angle_gamma   89.91046906
_symmetry_Int_Tables_number   1
_chemical_formula_structural   V12Ga4Cu3PtN4
_chemical_formula_sum   'V12 Ga4 Cu3 Pt1 N4'
_cell_volume   283.90123019
_cell_formula_units_Z   1
loop_
 _symmetry_equiv_pos_site_id
 _symmetry_equiv_pos_as_xyz
  1  'x, y, z'
loop_
 _atom_site_type_symbol
 _atom_site_label
 _atom_site_symmetry_multiplicity
 _atom_site_fract_x
 _atom_site_fract_y
 _atom_site_fract_z
 _atom_site_occupancy
  V  V0  1  0.787035  0.959567  0.375269  1
  V  V1  1  0.713988  0.039286  0.877568  1
  V  V2  1  0.212362  0.461564  0.124832  1
  V  V3  1  0.287225  0.538007  0.625062  1
  V  V4  1  0.959567  0.375269  0.787035  1
  V  V5  1  0.039286  0.877568  0.713988  1
  V  V6  1  0.461564  0.124832  0.212362  1
  V  V7  1  0.538007  0.625062  0.287225  1
  V  V8  1  0.375269  0.787035  0.959567  1
  V  V9  1  0.877568  0.713988  0.039286  1
  V  V10  1  0.124832  0.212362  0.461564  1
  V  V11  1  0.625062  0.287225  0.538007  1
  Ga  Ga12  1  0.571664  0.418303  0.934406  1
  Ga  Ga13  1  0.418303  0.934406  0.571664  1
  Ga  Ga14  1  0.934406  0.571664  0.418303  1
  Ga  Ga15  1  0.074182  0.074182  0.074182  1
  Cu  Cu16  1  0.178954  0.823319  0.320519  1
  Cu  Cu17  1  0.320519  0.178954  0.823319  1
  Cu  Cu18  1  0.823319  0.320519  0.178954  1
  Pt  Pt19  1  0.677201  0.677201  0.677201  1
  N  N20  1  0.875213  0.124463  0.623821  1
  N  N21  1  0.623821  0.875213  0.124463  1
  N  N22  1  0.124463  0.623821  0.875213  1
  N  N23  1  0.376187  0.376187  0.376187  1
