# generated using pymatgen
data_Mo(OsCl6)5
_symmetry_space_group_name_H-M   'P 1'
_cell_length_a   13.04494559
_cell_length_b   13.05151445
_cell_length_c   6.55704566
_cell_angle_alpha   86.06777725
_cell_angle_beta   86.03577155
_cell_angle_gamma   88.28178645
_symmetry_Int_Tables_number   1
_chemical_formula_structural   Mo(OsCl6)5
_chemical_formula_sum   'Mo1 Os5 Cl30'
_cell_volume   1110.72801755
_cell_formula_units_Z   1
loop_
 _symmetry_equiv_pos_site_id
 _symmetry_equiv_pos_as_xyz
  1  'x, y, z'
loop_
 _atom_site_type_symbol
 _atom_site_label
 _atom_site_symmetry_multiplicity
 _atom_site_fract_x
 _atom_site_fract_y
 _atom_site_fract_z
 _atom_site_occupancy
  Mo  Mo0  1  0.559788  0.773709  0.433642  1
  Os  Os1  1  0.896992  0.102747  0.000045  1
  Os  Os2  1  0.102779  0.896967  0.999885  1
  Os  Os3  1  0.769226  0.564275  0.433325  1
  Os  Os4  1  0.230732  0.436243  0.566408  1
  Os  Os5  1  0.436159  0.230354  0.566494  1
  Cl  Cl6  1  0.508450  0.312580  0.816038  1
  Cl  Cl7  1  0.266669  0.266995  0.738838  1
  Cl  Cl8  1  0.169735  0.974305  0.698253  1
  Cl  Cl9  1  0.600769  0.597248  0.610135  1
  Cl  Cl10  1  0.220351  0.588374  0.383431  1
  Cl  Cl11  1  0.736039  0.732481  0.256267  1
  Cl  Cl12  1  0.158215  0.353891  0.317382  1
  Cl  Cl13  1  0.069244  0.069362  0.124806  1
  Cl  Cl14  1  0.650711  0.836223  0.679722  1
  Cl  Cl15  1  0.588172  0.218915  0.384117  1
  Cl  Cl16  1  0.110470  0.741872  0.868352  1
  Cl  Cl17  1  0.026002  0.830166  0.302109  1
  Cl  Cl18  1  0.921861  0.552387  0.251524  1
  Cl  Cl19  1  0.829752  0.025559  0.302174  1
  Cl  Cl20  1  0.406069  0.785684  0.614572  1
  Cl  Cl21  1  0.781709  0.411867  0.614683  1
  Cl  Cl22  1  0.548804  0.927312  0.251878  1
  Cl  Cl23  1  0.974251  0.169578  0.698427  1
  Cl  Cl24  1  0.841687  0.646949  0.682735  1
  Cl  Cl25  1  0.889066  0.257790  0.131672  1
  Cl  Cl26  1  0.496832  0.682806  0.187851  1
  Cl  Cl27  1  0.353336  0.157989  0.317759  1
  Cl  Cl28  1  0.078727  0.447301  0.749196  1
  Cl  Cl29  1  0.741782  0.110266  0.868164  1
  Cl  Cl30  1  0.446525  0.078233  0.749982  1
  Cl  Cl31  1  0.400173  0.399586  0.393968  1
  Cl  Cl32  1  0.313315  0.508727  0.815627  1
  Cl  Cl33  1  0.258251  0.889316  0.131336  1
  Cl  Cl34  1  0.930476  0.930266  0.875748  1
  Cl  Cl35  1  0.686879  0.491676  0.183457  1
