# generated using pymatgen
data_Sr5(Cu2Ir)2
_symmetry_space_group_name_H-M   'P 1'
_cell_length_a   14.84761439
_cell_length_b   14.84761544
_cell_length_c   4.65979600
_cell_angle_alpha   90.00000000
_cell_angle_beta   90.00000000
_cell_angle_gamma   163.12576075
_symmetry_Int_Tables_number   1
_chemical_formula_structural   Sr5(Cu2Ir)2
_chemical_formula_sum   'Sr5 Cu4 Ir2'
_cell_volume   298.18472844
_cell_formula_units_Z   1
loop_
 _symmetry_equiv_pos_site_id
 _symmetry_equiv_pos_as_xyz
  1  'x, y, z'
loop_
 _atom_site_type_symbol
 _atom_site_label
 _atom_site_symmetry_multiplicity
 _atom_site_fract_x
 _atom_site_fract_y
 _atom_site_fract_z
 _atom_site_occupancy
  Sr  Sr0  1  0.000000  0.000000  0.000000  1
  Sr  Sr1  1  0.618196  0.381802  0.000000  1
  Sr  Sr2  1  0.381802  0.618196  0.000000  1
  Sr  Sr3  1  0.802287  0.197711  0.500001  1
  Sr  Sr4  1  0.197711  0.802287  0.500001  1
  Cu  Cu5  1  0.920115  0.079884  0.500001  1
  Cu  Cu6  1  0.542633  0.457365  0.500001  1
  Cu  Cu7  1  0.457365  0.542633  0.500001  1
  Cu  Cu8  1  0.079884  0.920115  0.500001  1
  Ir  Ir9  1  0.733594  0.266404  0.000000  1
  Ir  Ir10  1  0.266404  0.733594  0.000000  1
