# generated using pymatgen
data_Th2SiGe(Os2C)2
_symmetry_space_group_name_H-M   'P 1'
_cell_length_a   4.01976900
_cell_length_b   5.98602260
_cell_length_c   7.26860200
_cell_angle_alpha   90.00000000
_cell_angle_beta   90.00000000
_cell_angle_gamma   70.38105679
_symmetry_Int_Tables_number   1
_chemical_formula_structural   Th2SiGe(Os2C)2
_chemical_formula_sum   'Th2 Si1 Ge1 Os4 C2'
_cell_volume   164.74664228
_cell_formula_units_Z   1
loop_
 _symmetry_equiv_pos_site_id
 _symmetry_equiv_pos_as_xyz
  1  'x, y, z'
loop_
 _atom_site_type_symbol
 _atom_site_label
 _atom_site_symmetry_multiplicity
 _atom_site_fract_x
 _atom_site_fract_y
 _atom_site_fract_z
 _atom_site_occupancy
  Th  Th0  1  0.946403  0.107194  0.250001  1
  Th  Th1  1  0.054642  0.890718  0.750000  1
  Si  Si2  1  0.771426  0.457147  0.750000  1
  Ge  Ge3  1  0.227701  0.544600  0.250001  1
  Os  Os4  1  0.664472  0.671054  0.048614  1
  Os  Os5  1  0.664472  0.671054  0.451386  1
  Os  Os6  1  0.336243  0.327517  0.562489  1
  Os  Os7  1  0.336243  0.327517  0.937512  1
  C  C8  1  0.499201  0.001600  0.001402  1
  C  C9  1  0.499201  0.001600  0.498598  1
