# generated using pymatgen
data_LiPr3NdSc5Si8
_symmetry_space_group_name_H-M   'P 1'
_cell_length_a   7.17447822
_cell_length_b   7.56674003
_cell_length_c   14.30808742
_cell_angle_alpha   90.00608426
_cell_angle_beta   90.02725938
_cell_angle_gamma   89.99212468
_symmetry_Int_Tables_number   1
_chemical_formula_structural   LiPr3NdSc5Si8
_chemical_formula_sum   'Li2 Pr6 Nd2 Sc10 Si16'
_cell_volume   776.74893063
_cell_formula_units_Z   2
loop_
 _symmetry_equiv_pos_site_id
 _symmetry_equiv_pos_as_xyz
  1  'x, y, z'
loop_
 _atom_site_type_symbol
 _atom_site_label
 _atom_site_symmetry_multiplicity
 _atom_site_fract_x
 _atom_site_fract_y
 _atom_site_fract_z
 _atom_site_occupancy
  Li  Li0  1  0.654147  0.004675  0.750014  1
  Li  Li1  1  0.845773  0.504361  0.250166  1
  Pr  Pr2  1  0.490130  0.681171  0.900196  1
  Pr  Pr3  1  0.490038  0.681189  0.599571  1
  Pr  Pr4  1  0.981420  0.828960  0.600988  1
  Pr  Pr5  1  0.981536  0.829048  0.898782  1
  Pr  Pr6  1  0.518481  0.329033  0.101299  1
  Pr  Pr7  1  0.009856  0.181121  0.099875  1
  Nd  Nd8  1  0.010065  0.181658  0.399884  1
  Nd  Nd9  1  0.518576  0.328319  0.398497  1
  Sc  Sc10  1  0.335032  0.173810  0.624958  1
  Sc  Sc11  1  0.673882  0.814838  0.374394  1
  Sc  Sc12  1  0.165069  0.673449  0.374959  1
  Sc  Sc13  1  0.826108  0.314920  0.874375  1
  Sc  Sc14  1  0.826142  0.314853  0.625469  1
  Sc  Sc15  1  0.340493  0.996355  0.250191  1
  Sc  Sc16  1  0.335113  0.173636  0.874860  1
  Sc  Sc17  1  0.164933  0.673514  0.125284  1
  Sc  Sc18  1  0.673974  0.814981  0.125793  1
  Sc  Sc19  1  0.159537  0.495946  0.750017  1
  Si  Si20  1  0.280979  0.886544  0.749979  1
  Si  Si21  1  0.459228  0.622798  0.250364  1
  Si  Si22  1  0.041075  0.123424  0.749965  1
  Si  Si23  1  0.531842  0.383308  0.749964  1
  Si  Si24  1  0.152882  0.464388  0.540667  1
  Si  Si25  1  0.968274  0.884102  0.250346  1
  Si  Si26  1  0.710644  0.099872  0.250639  1
  Si  Si27  1  0.848797  0.539802  0.031799  1
  Si  Si28  1  0.346996  0.965032  0.041077  1
  Si  Si29  1  0.152928  0.465106  0.958999  1
  Si  Si30  1  0.651453  0.040658  0.531330  1
  Si  Si31  1  0.346405  0.966218  0.458627  1
  Si  Si32  1  0.848162  0.538560  0.467742  1
  Si  Si33  1  0.789552  0.598973  0.749975  1
  Si  Si34  1  0.219162  0.385619  0.250687  1
  Si  Si35  1  0.651315  0.039759  0.968271  1
