# generated using pymatgen
data_K4Hf6FeI18
_symmetry_space_group_name_H-M   'P 1'
_cell_length_a   11.19754265
_cell_length_b   11.35065324
_cell_length_c   11.46450001
_cell_angle_alpha   118.59681372
_cell_angle_beta   100.06184003
_cell_angle_gamma   103.73918040
_symmetry_Int_Tables_number   1
_chemical_formula_structural   K4Hf6FeI18
_chemical_formula_sum   'K4 Hf6 Fe1 I18'
_cell_volume   1169.56699066
_cell_formula_units_Z   1
loop_
 _symmetry_equiv_pos_site_id
 _symmetry_equiv_pos_as_xyz
  1  'x, y, z'
loop_
 _atom_site_type_symbol
 _atom_site_label
 _atom_site_symmetry_multiplicity
 _atom_site_fract_x
 _atom_site_fract_y
 _atom_site_fract_z
 _atom_site_occupancy
  K  K0  1  0.650612  0.538164  0.226485  1
  K  K1  1  0.349388  0.461836  0.773515  1
  K  K2  1  0.683942  0.223824  0.563512  1
  K  K3  1  0.316058  0.776176  0.436488  1
  Hf  Hf4  1  0.144552  0.053657  0.221509  1
  Hf  Hf5  1  0.855448  0.946343  0.778491  1
  Hf  Hf6  1  0.866657  0.122396  0.128375  1
  Hf  Hf7  1  0.133343  0.877604  0.871625  1
  Hf  Hf8  1  0.140031  0.230199  0.043621  1
  Hf  Hf9  1  0.859969  0.769801  0.956379  1
  Fe  Fe10  1  0.000000  0.000000  0.000000  1
  I  I11  1  0.007592  0.413140  0.198836  1
  I  I12  1  0.992408  0.586860  0.801164  1
  I  I13  1  0.330938  0.335515  0.313850  1
  I  I14  1  0.669062  0.664485  0.686150  1
  I  I15  1  0.320973  0.521340  0.099653  1
  I  I16  1  0.679027  0.478660  0.900347  1
  I  I17  1  0.004162  0.793947  0.210996  1
  I  I18  1  0.995838  0.206053  0.789004  1
  I  I19  1  0.702951  0.276076  0.288493  1
  I  I20  1  0.297049  0.723924  0.711507  1
  I  I21  1  0.318916  0.127529  0.901759  1
  I  I22  1  0.681084  0.872471  0.098241  1
  I  I23  1  0.014509  0.206009  0.410980  1
  I  I24  1  0.985491  0.793991  0.589020  1
  I  I25  1  0.322991  0.921737  0.110124  1
  I  I26  1  0.677009  0.078263  0.889876  1
  I  I27  1  0.332132  0.120694  0.501600  1
  I  I28  1  0.667868  0.879306  0.498400  1
