# generated using pymatgen
data_Be7V2CoIr2
_symmetry_space_group_name_H-M   'P 1'
_cell_length_a   4.35404000
_cell_length_b   4.35403978
_cell_length_c   7.13872600
_cell_angle_alpha   90.00000000
_cell_angle_beta   90.00000000
_cell_angle_gamma   120.00000164
_symmetry_Int_Tables_number   1
_chemical_formula_structural   Be7V2CoIr2
_chemical_formula_sum   'Be7 V2 Co1 Ir2'
_cell_volume   117.20230289
_cell_formula_units_Z   1
loop_
 _symmetry_equiv_pos_site_id
 _symmetry_equiv_pos_as_xyz
  1  'x, y, z'
loop_
 _atom_site_type_symbol
 _atom_site_label
 _atom_site_symmetry_multiplicity
 _atom_site_fract_x
 _atom_site_fract_y
 _atom_site_fract_z
 _atom_site_occupancy
  Be  Be0  1  0.000000  0.000000  0.496604  1
  Be  Be1  1  0.833107  0.666214  0.249823  1
  Be  Be2  1  0.168625  0.831375  0.745907  1
  Be  Be3  1  0.662750  0.831375  0.745907  1
  Be  Be4  1  0.333786  0.166893  0.249823  1
  Be  Be5  1  0.833107  0.166893  0.249823  1
  Be  Be6  1  0.168625  0.337250  0.745907  1
  V  V7  1  0.666667  0.333333  0.941109  1
  V  V8  1  0.333333  0.666667  0.437828  1
  Co  Co9  1  0.000000  0.000000  0.988649  1
  Ir  Ir10  1  0.333333  0.666667  0.087598  1
  Ir  Ir11  1  0.666667  0.333333  0.561020  1
