# generated using pymatgen
data_Tb19MgPb16
_symmetry_space_group_name_H-M   'P 1'
_cell_length_a   8.18847969
_cell_length_b   8.29163470
_cell_length_c   15.75093500
_cell_angle_alpha   90.00000000
_cell_angle_beta   90.00000000
_cell_angle_gamma   89.95298887
_symmetry_Int_Tables_number   1
_chemical_formula_structural   Tb19MgPb16
_chemical_formula_sum   'Tb19 Mg1 Pb16'
_cell_volume   1069.42326908
_cell_formula_units_Z   1
loop_
 _symmetry_equiv_pos_site_id
 _symmetry_equiv_pos_as_xyz
  1  'x, y, z'
loop_
 _atom_site_type_symbol
 _atom_site_label
 _atom_site_symmetry_multiplicity
 _atom_site_fract_x
 _atom_site_fract_y
 _atom_site_fract_z
 _atom_site_occupancy
  Tb  Tb0  1  0.374868  0.838097  0.879689  1
  Tb  Tb1  1  0.882196  0.657733  0.620551  1
  Tb  Tb2  1  0.623647  0.158865  0.379992  1
  Tb  Tb3  1  0.123520  0.339727  0.120138  1
  Tb  Tb4  1  0.623647  0.158865  0.120008  1
  Tb  Tb5  1  0.123520  0.339727  0.379862  1
  Tb  Tb6  1  0.374868  0.838097  0.620311  1
  Tb  Tb7  1  0.882196  0.657733  0.879449  1
  Tb  Tb8  1  0.531393  0.324468  0.900886  1
  Tb  Tb9  1  0.034906  0.181004  0.599160  1
  Tb  Tb10  1  0.466410  0.677155  0.400616  1
  Tb  Tb11  1  0.966455  0.822110  0.099851  1
  Tb  Tb12  1  0.466410  0.677155  0.099384  1
  Tb  Tb13  1  0.966455  0.822110  0.400149  1
  Tb  Tb14  1  0.531393  0.324468  0.599114  1
  Tb  Tb15  1  0.034906  0.181004  0.900840  1
  Tb  Tb16  1  0.706418  0.996254  0.750000  1
  Tb  Tb17  1  0.791652  0.496556  0.250000  1
  Tb  Tb18  1  0.291519  0.003670  0.250000  1
  Mg  Mg19  1  0.208642  0.503072  0.750000  1
  Pb  Pb20  1  0.281250  0.032395  0.042666  1
  Pb  Pb21  1  0.781648  0.467182  0.457270  1
  Pb  Pb22  1  0.718512  0.967608  0.543400  1
  Pb  Pb23  1  0.218661  0.533808  0.957625  1
  Pb  Pb24  1  0.718512  0.967608  0.956600  1
  Pb  Pb25  1  0.218661  0.533808  0.542375  1
  Pb  Pb26  1  0.281250  0.032395  0.457334  1
  Pb  Pb27  1  0.781648  0.467182  0.042730  1
  Pb  Pb28  1  0.569059  0.621321  0.750000  1
  Pb  Pb29  1  0.073650  0.877554  0.750000  1
  Pb  Pb30  1  0.427837  0.374626  0.250000  1
  Pb  Pb31  1  0.927724  0.125518  0.250000  1
  Pb  Pb32  1  0.342774  0.152557  0.750000  1
  Pb  Pb33  1  0.841433  0.349884  0.750000  1
  Pb  Pb34  1  0.655847  0.848568  0.250000  1
  Pb  Pb35  1  0.156511  0.650115  0.250000  1
