# generated using pymatgen
data_Y5V3(As3Rh4)4
_symmetry_space_group_name_H-M   'P 1'
_cell_length_a   13.16380000
_cell_length_b   13.16380118
_cell_length_c   3.97952400
_cell_angle_alpha   90.00000000
_cell_angle_beta   90.00000000
_cell_angle_gamma   120.00000205
_symmetry_Int_Tables_number   1
_chemical_formula_structural   Y5V3(As3Rh4)4
_chemical_formula_sum   'Y5 V3 As12 Rh16'
_cell_volume   597.20624529
_cell_formula_units_Z   1
loop_
 _symmetry_equiv_pos_site_id
 _symmetry_equiv_pos_as_xyz
  1  'x, y, z'
loop_
 _atom_site_type_symbol
 _atom_site_label
 _atom_site_symmetry_multiplicity
 _atom_site_fract_x
 _atom_site_fract_y
 _atom_site_fract_z
 _atom_site_occupancy
  Y  Y0  1  0.190793  0.190793  0.500000  1
  Y  Y1  1  0.809207  0.000000  0.500000  1
  Y  Y2  1  0.000000  0.809207  0.500000  1
  Y  Y3  1  0.333333  0.666667  0.000000  1
  Y  Y4  1  0.666667  0.333333  0.000000  1
  V  V5  1  0.553535  0.553535  0.000000  1
  V  V6  1  0.446465  0.000000  0.000000  1
  V  V7  1  0.000000  0.446465  0.000000  1
  As  As8  1  0.823407  0.823407  0.000000  1
  As  As9  1  0.176593  0.000000  0.000000  1
  As  As10  1  0.000000  0.176593  0.000000  1
  As  As11  1  0.163286  0.484854  0.500000  1
  As  As12  1  0.515146  0.678432  0.500000  1
  As  As13  1  0.321568  0.836714  0.500000  1
  As  As14  1  0.678432  0.515146  0.500000  1
  As  As15  1  0.836714  0.321568  0.500000  1
  As  As16  1  0.484854  0.163286  0.500000  1
  As  As17  1  0.365784  0.365784  0.000000  1
  As  As18  1  0.634216  0.000000  0.000000  1
  As  As19  1  0.000000  0.634216  0.000000  1
  Rh  Rh20  1  0.718195  0.718195  0.500000  1
  Rh  Rh21  1  0.281805  0.000000  0.500000  1
  Rh  Rh22  1  0.000000  0.281805  0.500000  1
  Rh  Rh23  1  0.176398  0.376316  0.000000  1
  Rh  Rh24  1  0.623684  0.800083  0.000000  1
  Rh  Rh25  1  0.199917  0.823602  0.000000  1
  Rh  Rh26  1  0.800083  0.623684  0.000000  1
  Rh  Rh27  1  0.823602  0.199917  0.000000  1
  Rh  Rh28  1  0.376316  0.176398  0.000000  1
  Rh  Rh29  1  0.352801  0.483018  0.500000  1
  Rh  Rh30  1  0.516982  0.869783  0.500000  1
  Rh  Rh31  1  0.130217  0.647199  0.500000  1
  Rh  Rh32  1  0.869783  0.516982  0.500000  1
  Rh  Rh33  1  0.647199  0.130217  0.500000  1
  Rh  Rh34  1  0.483018  0.352801  0.500000  1
  Rh  Rh35  1  0.000000  0.000000  0.000000  1
