# generated using pymatgen
data_LiHo2Co8P6Ru
_symmetry_space_group_name_H-M   'P 1'
_cell_length_a   3.68720800
_cell_length_b   10.31167600
_cell_length_c   11.82911500
_cell_angle_alpha   90.00000000
_cell_angle_beta   90.00000000
_cell_angle_gamma   90.00000000
_symmetry_Int_Tables_number   1
_chemical_formula_structural   LiHo2Co8P6Ru
_chemical_formula_sum   'Li2 Ho4 Co16 P12 Ru2'
_cell_volume   449.75826202
_cell_formula_units_Z   2
loop_
 _symmetry_equiv_pos_site_id
 _symmetry_equiv_pos_as_xyz
  1  'x, y, z'
loop_
 _atom_site_type_symbol
 _atom_site_label
 _atom_site_symmetry_multiplicity
 _atom_site_fract_x
 _atom_site_fract_y
 _atom_site_fract_z
 _atom_site_occupancy
  Li  Li0  1  0.750000  0.296055  0.008987  1
  Li  Li1  1  0.750000  0.203945  0.508987  1
  Ho  Ho2  1  0.250000  0.580909  0.702327  1
  Ho  Ho3  1  0.250000  0.919091  0.202327  1
  Ho  Ho4  1  0.750000  0.416115  0.295820  1
  Ho  Ho5  1  0.750000  0.083885  0.795820  1
  Co  Co6  1  0.250000  0.408214  0.485704  1
  Co  Co7  1  0.250000  0.091786  0.985704  1
  Co  Co8  1  0.750000  0.593851  0.511073  1
  Co  Co9  1  0.750000  0.906149  0.011073  1
  Co  Co10  1  0.250000  0.218013  0.175350  1
  Co  Co11  1  0.250000  0.281987  0.675350  1
  Co  Co12  1  0.750000  0.777428  0.823891  1
  Co  Co13  1  0.750000  0.722572  0.323891  1
  Co  Co14  1  0.250000  0.884431  0.702621  1
  Co  Co15  1  0.250000  0.615569  0.202621  1
  Co  Co16  1  0.750000  0.116610  0.301062  1
  Co  Co17  1  0.750000  0.383390  0.801062  1
  Co  Co18  1  0.250000  0.464476  0.933784  1
  Co  Co19  1  0.250000  0.035524  0.433784  1
  Co  Co20  1  0.750000  0.535314  0.069488  1
  Co  Co21  1  0.750000  0.964686  0.569488  1
  P  P22  1  0.250000  0.418976  0.115237  1
  P  P23  1  0.250000  0.081024  0.615237  1
  P  P24  1  0.750000  0.577023  0.887265  1
  P  P25  1  0.750000  0.922977  0.387265  1
  P  P26  1  0.250000  0.270579  0.863061  1
  P  P27  1  0.250000  0.229421  0.363061  1
  P  P28  1  0.750000  0.731143  0.134032  1
  P  P29  1  0.750000  0.768857  0.634032  1
  P  P30  1  0.250000  0.596362  0.391369  1
  P  P31  1  0.250000  0.903638  0.891369  1
  P  P32  1  0.750000  0.398472  0.607178  1
  P  P33  1  0.750000  0.101528  0.107178  1
  Ru  Ru34  1  0.250000  0.712102  0.991751  1
  Ru  Ru35  1  0.250000  0.787898  0.491751  1
