# generated using pymatgen
data_Er2(PaGa5)3
_symmetry_space_group_name_H-M   'P 1'
_cell_length_a   12.55393213
_cell_length_b   12.55393212
_cell_length_c   12.55393086
_cell_angle_alpha   28.17151732
_cell_angle_beta   28.17151513
_cell_angle_gamma   28.17151643
_symmetry_Int_Tables_number   1
_chemical_formula_structural   Er2(PaGa5)3
_chemical_formula_sum   'Er2 Pa3 Ga15'
_cell_volume   389.59541154
_cell_formula_units_Z   1
loop_
 _symmetry_equiv_pos_site_id
 _symmetry_equiv_pos_as_xyz
  1  'x, y, z'
loop_
 _atom_site_type_symbol
 _atom_site_label
 _atom_site_symmetry_multiplicity
 _atom_site_fract_x
 _atom_site_fract_y
 _atom_site_fract_z
 _atom_site_occupancy
  Er  Er0  1  0.599534  0.599534  0.599534  1
  Er  Er1  1  0.998909  0.998909  0.998909  1
  Pa  Pa2  1  0.130300  0.130300  0.130300  1
  Pa  Pa3  1  0.870293  0.870293  0.870293  1
  Pa  Pa4  1  0.401042  0.401042  0.401042  1
  Ga  Ga5  1  0.430008  0.882633  0.882633  1
  Ga  Ga6  1  0.882633  0.882633  0.430008  1
  Ga  Ga7  1  0.882633  0.430008  0.882633  1
  Ga  Ga8  1  0.118370  0.564554  0.118370  1
  Ga  Ga9  1  0.118370  0.118370  0.564554  1
  Ga  Ga10  1  0.564554  0.118370  0.118370  1
  Ga  Ga11  1  0.131911  0.636192  0.636192  1
  Ga  Ga12  1  0.636192  0.636192  0.131911  1
  Ga  Ga13  1  0.636192  0.131911  0.636192  1
  Ga  Ga14  1  0.364186  0.872108  0.364186  1
  Ga  Ga15  1  0.364186  0.364186  0.872108  1
  Ga  Ga16  1  0.872108  0.364186  0.364186  1
  Ga  Ga17  1  0.498135  0.498135  0.002308  1
  Ga  Ga18  1  0.498135  0.002308  0.498135  1
  Ga  Ga19  1  0.002308  0.498135  0.498135  1
