# generated using pymatgen
data_La3Dy(Ga5Pt3)2
_symmetry_space_group_name_H-M   'P 1'
_cell_length_a   8.65500981
_cell_length_b   8.64023920
_cell_length_c   8.64024000
_cell_angle_alpha   138.96269317
_cell_angle_beta   106.70391801
_cell_angle_gamma   87.58554852
_symmetry_Int_Tables_number   1
_chemical_formula_structural   La3Dy(Ga5Pt3)2
_chemical_formula_sum   'La3 Dy1 Ga10 Pt6'
_cell_volume   390.32623545
_cell_formula_units_Z   1
loop_
 _symmetry_equiv_pos_site_id
 _symmetry_equiv_pos_as_xyz
  1  'x, y, z'
loop_
 _atom_site_type_symbol
 _atom_site_label
 _atom_site_symmetry_multiplicity
 _atom_site_fract_x
 _atom_site_fract_y
 _atom_site_fract_z
 _atom_site_occupancy
  La  La0  1  0.637299  0.367119  0.270180  1
  La  La1  1  0.362384  0.632782  0.729602  1
  La  La2  1  0.096196  0.866631  0.229566  1
  Dy  Dy3  1  0.905408  0.134040  0.771368  1
  Ga  Ga4  1  0.278471  0.529506  0.249552  1
  Ga  Ga5  1  0.720075  0.467681  0.749529  1
  Ga  Ga6  1  0.720075  0.970547  0.252395  1
  Ga  Ga7  1  0.278471  0.028918  0.748965  1
  Ga  Ga8  1  0.447557  0.102947  0.344610  1
  Ga  Ga9  1  0.555123  0.899255  0.655868  1
  Ga  Ga10  1  0.758745  0.602773  0.155973  1
  Ga  Ga11  1  0.242286  0.396549  0.845736  1
  Ga  Ga12  1  0.999219  0.250364  0.247932  1
  Ga  Ga13  1  0.999219  0.751288  0.748855  1
  Pt  Pt14  1  0.247799  0.140394  0.107407  1
  Pt  Pt15  1  0.751401  0.859285  0.892115  1
  Pt  Pt16  1  0.030982  0.640891  0.390092  1
  Pt  Pt17  1  0.967389  0.358246  0.609143  1
  Pt  Pt18  1  0.500950  0.250207  0.750372  1
  Pt  Pt19  1  0.500950  0.750578  0.250743  1
