# generated using pymatgen
data_Yb6Zn23N
_symmetry_space_group_name_H-M   'P 1'
_cell_length_a   8.98356295
_cell_length_b   8.98356258
_cell_length_c   8.98356400
_cell_angle_alpha   60.00000212
_cell_angle_beta   60.00000348
_cell_angle_gamma   59.99999671
_symmetry_Int_Tables_number   1
_chemical_formula_structural   Yb6Zn23N
_chemical_formula_sum   'Yb6 Zn23 N1'
_cell_volume   512.66171775
_cell_formula_units_Z   1
loop_
 _symmetry_equiv_pos_site_id
 _symmetry_equiv_pos_as_xyz
  1  'x, y, z'
loop_
 _atom_site_type_symbol
 _atom_site_label
 _atom_site_symmetry_multiplicity
 _atom_site_fract_x
 _atom_site_fract_y
 _atom_site_fract_z
 _atom_site_occupancy
  Yb  Yb0  1  0.690010  0.309990  0.309990  1
  Yb  Yb1  1  0.690010  0.309990  0.690010  1
  Yb  Yb2  1  0.690010  0.690010  0.309990  1
  Yb  Yb3  1  0.309990  0.690010  0.690010  1
  Yb  Yb4  1  0.309990  0.690010  0.309990  1
  Yb  Yb5  1  0.309990  0.309990  0.690010  1
  Zn  Zn6  1  0.636615  0.121129  0.121129  1
  Zn  Zn7  1  0.121129  0.636615  0.121129  1
  Zn  Zn8  1  0.121129  0.121129  0.636615  1
  Zn  Zn9  1  0.121129  0.121129  0.121129  1
  Zn  Zn10  1  0.363385  0.878871  0.878871  1
  Zn  Zn11  1  0.878871  0.363385  0.878871  1
  Zn  Zn12  1  0.878871  0.878871  0.363385  1
  Zn  Zn13  1  0.878871  0.878871  0.878871  1
  Zn  Zn14  1  0.500000  0.000000  0.000000  1
  Zn  Zn15  1  0.500000  0.000000  0.500000  1
  Zn  Zn16  1  0.500000  0.500000  0.000000  1
  Zn  Zn17  1  0.000000  0.500000  0.500000  1
  Zn  Zn18  1  0.000000  0.500000  0.000000  1
  Zn  Zn19  1  0.000000  0.000000  0.500000  1
  Zn  Zn20  1  0.000000  0.000000  0.000000  1
  Zn  Zn21  1  0.020191  0.326603  0.326603  1
  Zn  Zn22  1  0.326603  0.020191  0.326603  1
  Zn  Zn23  1  0.326603  0.326603  0.020191  1
  Zn  Zn24  1  0.326603  0.326603  0.326603  1
  Zn  Zn25  1  0.979809  0.673397  0.673397  1
  Zn  Zn26  1  0.673397  0.979809  0.673397  1
  Zn  Zn27  1  0.673397  0.673397  0.979809  1
  Zn  Zn28  1  0.673397  0.673397  0.673397  1
  N  N29  1  0.500000  0.500000  0.500000  1
