# generated using pymatgen
data_Ho4Al18NiIr3Pt2
_symmetry_space_group_name_H-M   'P 1'
_cell_length_a   7.56609593
_cell_length_b   7.56606543
_cell_length_c   9.38191659
_cell_angle_alpha   90.12484167
_cell_angle_beta   90.12500913
_cell_angle_gamma   119.85718929
_symmetry_Int_Tables_number   1
_chemical_formula_structural   Ho4Al18NiIr3Pt2
_chemical_formula_sum   'Ho4 Al18 Ni1 Ir3 Pt2'
_cell_volume   465.78253472
_cell_formula_units_Z   1
loop_
 _symmetry_equiv_pos_site_id
 _symmetry_equiv_pos_as_xyz
  1  'x, y, z'
loop_
 _atom_site_type_symbol
 _atom_site_label
 _atom_site_symmetry_multiplicity
 _atom_site_fract_x
 _atom_site_fract_y
 _atom_site_fract_z
 _atom_site_occupancy
  Ho  Ho0  1  0.994474  0.668098  0.249885  1
  Ho  Ho1  1  0.005548  0.331907  0.750170  1
  Ho  Ho2  1  0.668100  0.994456  0.249823  1
  Ho  Ho3  1  0.331904  0.005536  0.750117  1
  Al  Al4  1  0.124327  0.123607  0.244538  1
  Al  Al5  1  0.876392  0.875672  0.755464  1
  Al  Al6  1  0.002158  0.331910  0.075155  1
  Al  Al7  1  0.003283  0.671243  0.924865  1
  Al  Al8  1  0.000263  0.663230  0.575510  1
  Al  Al9  1  0.336766  0.999734  0.424490  1
  Al  Al10  1  0.999852  0.336441  0.424166  1
  Al  Al11  1  0.663560  0.000148  0.575833  1
  Al  Al12  1  0.668088  0.997842  0.924848  1
  Al  Al13  1  0.328755  0.996716  0.075134  1
  Al  Al14  1  0.335488  0.335473  0.553924  1
  Al  Al15  1  0.664527  0.664511  0.446076  1
  Al  Al16  1  0.670074  0.672946  0.053949  1
  Al  Al17  1  0.327054  0.329924  0.946052  1
  Al  Al18  1  0.339147  0.547384  0.249666  1
  Al  Al19  1  0.661441  0.454553  0.748205  1
  Al  Al20  1  0.545443  0.338558  0.251796  1
  Al  Al21  1  0.452618  0.660854  0.750335  1
  Ni  Ni22  1  0.999886  0.000115  0.999999  1
  Ir  Ir23  1  0.328072  0.671931  0.000001  1
  Ir  Ir24  1  0.328178  0.671821  0.500000  1
  Ir  Ir25  1  0.672195  0.327807  0.499999  1
  Pt  Pt26  1  0.672288  0.327707  0.000002  1
  Pt  Pt27  1  0.000121  0.999876  0.500000  1
