# generated using pymatgen
data_Ho2Al3Re14C3
_symmetry_space_group_name_H-M   'P 1'
_cell_length_a   6.96394290
_cell_length_b   6.96394459
_cell_length_c   6.96394347
_cell_angle_alpha   82.32276242
_cell_angle_beta   82.32276294
_cell_angle_gamma   82.32275810
_symmetry_Int_Tables_number   1
_chemical_formula_structural   Ho2Al3Re14C3
_chemical_formula_sum   'Ho2 Al3 Re14 C3'
_cell_volume   329.38814181
_cell_formula_units_Z   1
loop_
 _symmetry_equiv_pos_site_id
 _symmetry_equiv_pos_as_xyz
  1  'x, y, z'
loop_
 _atom_site_type_symbol
 _atom_site_label
 _atom_site_symmetry_multiplicity
 _atom_site_fract_x
 _atom_site_fract_y
 _atom_site_fract_z
 _atom_site_occupancy
  Ho  Ho0  1  0.654592  0.654592  0.654592  1
  Ho  Ho1  1  0.345408  0.345408  0.345408  1
  Al  Al2  1  0.000000  0.000000  0.500000  1
  Al  Al3  1  0.500000  0.000000  0.000000  1
  Al  Al4  1  0.000000  0.500000  0.000000  1
  Re  Re5  1  0.721183  0.278817  0.000000  1
  Re  Re6  1  0.000000  0.721183  0.278817  1
  Re  Re7  1  0.278817  0.000000  0.721183  1
  Re  Re8  1  0.000000  0.278817  0.721183  1
  Re  Re9  1  0.721183  0.000000  0.278817  1
  Re  Re10  1  0.278817  0.721183  0.000000  1
  Re  Re11  1  0.349282  0.349282  0.851064  1
  Re  Re12  1  0.851064  0.349282  0.349282  1
  Re  Re13  1  0.349282  0.851064  0.349282  1
  Re  Re14  1  0.650718  0.650718  0.148936  1
  Re  Re15  1  0.148936  0.650718  0.650718  1
  Re  Re16  1  0.650718  0.148936  0.650718  1
  Re  Re17  1  0.902499  0.902499  0.902499  1
  Re  Re18  1  0.097501  0.097501  0.097501  1
  C  C19  1  0.500000  0.500000  0.000000  1
  C  C20  1  0.000000  0.500000  0.500000  1
  C  C21  1  0.500000  0.000000  0.500000  1
