# generated using pymatgen
data_Nd2B4IrOs2Rh
_symmetry_space_group_name_H-M   'P 1'
_cell_length_a   6.93322597
_cell_length_b   6.06780551
_cell_length_c   5.61661967
_cell_angle_alpha   72.67741619
_cell_angle_beta   56.66614806
_cell_angle_gamma   50.70004381
_symmetry_Int_Tables_number   1
_chemical_formula_structural   Nd2B4IrOs2Rh
_chemical_formula_sum   'Nd2 B4 Ir1 Os2 Rh1'
_cell_volume   152.30448114
_cell_formula_units_Z   1
loop_
 _symmetry_equiv_pos_site_id
 _symmetry_equiv_pos_as_xyz
  1  'x, y, z'
loop_
 _atom_site_type_symbol
 _atom_site_label
 _atom_site_symmetry_multiplicity
 _atom_site_fract_x
 _atom_site_fract_y
 _atom_site_fract_z
 _atom_site_occupancy
  Nd  Nd0  1  0.999052  0.999052  0.000948  1
  Nd  Nd1  1  0.251350  0.251350  0.248650  1
  B  B2  1  0.310978  0.691010  0.312344  1
  B  B3  1  0.691010  0.310978  0.685668  1
  B  B4  1  0.578260  0.921663  0.573020  1
  B  B5  1  0.921663  0.578260  0.927057  1
  Ir  Ir6  1  0.632442  0.632442  0.367558  1
  Os  Os7  1  0.614890  0.614890  0.885110  1
  Os  Os8  1  0.884997  0.884997  0.615003  1
  Rh  Rh9  1  0.365358  0.365358  0.634642  1
