# generated using pymatgen
data_Eu4TiV3O12
_symmetry_space_group_name_H-M   'P 1'
_cell_length_a   5.50229435
_cell_length_b   5.60008745
_cell_length_c   7.80780834
_cell_angle_alpha   90.26313915
_cell_angle_beta   89.96996556
_cell_angle_gamma   89.37663870
_symmetry_Int_Tables_number   1
_chemical_formula_structural   Eu4TiV3O12
_chemical_formula_sum   'Eu4 Ti1 V3 O12'
_cell_volume   240.56775605
_cell_formula_units_Z   1
loop_
 _symmetry_equiv_pos_site_id
 _symmetry_equiv_pos_as_xyz
  1  'x, y, z'
loop_
 _atom_site_type_symbol
 _atom_site_label
 _atom_site_symmetry_multiplicity
 _atom_site_fract_x
 _atom_site_fract_y
 _atom_site_fract_z
 _atom_site_occupancy
  Eu  Eu0  1  0.989179  0.042722  0.249772  1
  Eu  Eu1  1  0.495458  0.460760  0.750169  1
  Eu  Eu2  1  0.504542  0.539240  0.249831  1
  Eu  Eu3  1  0.010821  0.957278  0.750228  1
  Ti  Ti4  1  0.500000  0.000000  0.000000  1
  V  V5  1  0.500000  0.000000  0.500000  1
  V  V6  1  0.000000  0.500000  0.000000  1
  V  V7  1  0.000000  0.500000  0.500000  1
  O  O8  1  0.576745  0.018735  0.752005  1
  O  O9  1  0.224034  0.200705  0.538122  1
  O  O10  1  0.212755  0.208263  0.960588  1
  O  O11  1  0.703126  0.282719  0.040975  1
  O  O12  1  0.709498  0.289148  0.461121  1
  O  O13  1  0.072684  0.481378  0.249257  1
  O  O14  1  0.927316  0.518622  0.750743  1
  O  O15  1  0.296874  0.717281  0.959025  1
  O  O16  1  0.290502  0.710852  0.538879  1
  O  O17  1  0.787245  0.791737  0.039412  1
  O  O18  1  0.775966  0.799295  0.461878  1
  O  O19  1  0.423255  0.981265  0.247995  1
