# generated using pymatgen
data_HgBiRu4(PbO7)2
_symmetry_space_group_name_H-M   'P 1'
_cell_length_a   7.31485765
_cell_length_b   7.28897512
_cell_length_c   7.28897423
_cell_angle_alpha   60.92493794
_cell_angle_beta   61.12845290
_cell_angle_gamma   61.12844876
_symmetry_Int_Tables_number   1
_chemical_formula_structural   HgBiRu4(PbO7)2
_chemical_formula_sum   'Hg1 Bi1 Ru4 Pb2 O14'
_cell_volume   281.36459139
_cell_formula_units_Z   1
loop_
 _symmetry_equiv_pos_site_id
 _symmetry_equiv_pos_as_xyz
  1  'x, y, z'
loop_
 _atom_site_type_symbol
 _atom_site_label
 _atom_site_symmetry_multiplicity
 _atom_site_fract_x
 _atom_site_fract_y
 _atom_site_fract_z
 _atom_site_occupancy
  Hg  Hg0  1  0.125000  0.125000  0.125000  1
  Bi  Bi1  1  0.625000  0.125000  0.125000  1
  Ru  Ru2  1  0.625000  0.625000  0.125000  1
  Ru  Ru3  1  0.625000  0.125000  0.625000  1
  Ru  Ru4  1  0.125000  0.625000  0.625000  1
  Ru  Ru5  1  0.625000  0.625000  0.625000  1
  Pb  Pb6  1  0.125000  0.125000  0.625000  1
  Pb  Pb7  1  0.125000  0.625000  0.125000  1
  O  O8  1  0.251464  0.236722  0.236722  1
  O  O9  1  0.998536  0.013278  0.013278  1
  O  O10  1  0.553401  0.949788  0.543852  1
  O  O11  1  0.309115  0.684085  0.306870  1
  O  O12  1  0.553401  0.543852  0.949788  1
  O  O13  1  0.946814  0.550726  0.550726  1
  O  O14  1  0.568546  0.944971  0.944971  1
  O  O15  1  0.940885  0.943130  0.565915  1
  O  O16  1  0.940885  0.565915  0.943130  1
  O  O17  1  0.681454  0.305029  0.305029  1
  O  O18  1  0.303186  0.699274  0.699274  1
  O  O19  1  0.696599  0.300212  0.706148  1
  O  O20  1  0.309115  0.306870  0.684085  1
  O  O21  1  0.696599  0.706148  0.300212  1
