# generated using pymatgen
data_Pr2Er3Sn4
_symmetry_space_group_name_H-M   'P 1'
_cell_length_a   8.11602100
_cell_length_b   8.26833900
_cell_length_c   15.59426700
_cell_angle_alpha   90.00000000
_cell_angle_beta   90.00000000
_cell_angle_gamma   90.00000000
_symmetry_Int_Tables_number   1
_chemical_formula_structural   Pr2Er3Sn4
_chemical_formula_sum   'Pr8 Er12 Sn16'
_cell_volume   1046.46908339
_cell_formula_units_Z   4
loop_
 _symmetry_equiv_pos_site_id
 _symmetry_equiv_pos_as_xyz
  1  'x, y, z'
loop_
 _atom_site_type_symbol
 _atom_site_label
 _atom_site_symmetry_multiplicity
 _atom_site_fract_x
 _atom_site_fract_y
 _atom_site_fract_z
 _atom_site_occupancy
  Pr  Pr0  1  0.518221  0.319940  0.902372  1
  Pr  Pr1  1  0.018221  0.180060  0.597628  1
  Pr  Pr2  1  0.481779  0.680060  0.402372  1
  Pr  Pr3  1  0.981779  0.819940  0.097628  1
  Pr  Pr4  1  0.481779  0.680060  0.097628  1
  Pr  Pr5  1  0.981779  0.819940  0.402372  1
  Pr  Pr6  1  0.518221  0.319940  0.597628  1
  Pr  Pr7  1  0.018221  0.180060  0.902372  1
  Er  Er8  1  0.365750  0.835971  0.877816  1
  Er  Er9  1  0.865750  0.664029  0.622184  1
  Er  Er10  1  0.634250  0.164029  0.377816  1
  Er  Er11  1  0.134250  0.335971  0.122184  1
  Er  Er12  1  0.634250  0.164029  0.122184  1
  Er  Er13  1  0.134250  0.335971  0.377816  1
  Er  Er14  1  0.365750  0.835971  0.622184  1
  Er  Er15  1  0.865750  0.664029  0.877816  1
  Er  Er16  1  0.197863  0.504987  0.750000  1
  Er  Er17  1  0.697863  0.995013  0.750000  1
  Er  Er18  1  0.802137  0.495013  0.250000  1
  Er  Er19  1  0.302137  0.004987  0.250000  1
  Sn  Sn20  1  0.298653  0.039347  0.042608  1
  Sn  Sn21  1  0.798653  0.460653  0.457392  1
  Sn  Sn22  1  0.701347  0.960653  0.542608  1
  Sn  Sn23  1  0.201347  0.539347  0.957392  1
  Sn  Sn24  1  0.701347  0.960653  0.957392  1
  Sn  Sn25  1  0.201347  0.539347  0.542608  1
  Sn  Sn26  1  0.298653  0.039347  0.457392  1
  Sn  Sn27  1  0.798653  0.460653  0.042608  1
  Sn  Sn28  1  0.564208  0.625271  0.750000  1
  Sn  Sn29  1  0.064208  0.874729  0.750000  1
  Sn  Sn30  1  0.435792  0.374729  0.250000  1
  Sn  Sn31  1  0.935792  0.125271  0.250000  1
  Sn  Sn32  1  0.325625  0.140532  0.750000  1
  Sn  Sn33  1  0.825625  0.359468  0.750000  1
  Sn  Sn34  1  0.674375  0.859468  0.250000  1
  Sn  Sn35  1  0.174375  0.640532  0.250000  1
