# generated using pymatgen
data_LuSc6(RhSe)2
_symmetry_space_group_name_H-M   'P 1'
_cell_length_a   8.53984957
_cell_length_b   8.53984968
_cell_length_c   8.53984962
_cell_angle_alpha   154.99291702
_cell_angle_beta   118.67843999
_cell_angle_gamma   67.28490631
_symmetry_Int_Tables_number   1
_chemical_formula_structural   LuSc6(RhSe)2
_chemical_formula_sum   'Lu1 Sc6 Rh2 Se2'
_cell_volume   228.97582573
_cell_formula_units_Z   1
loop_
 _symmetry_equiv_pos_site_id
 _symmetry_equiv_pos_as_xyz
  1  'x, y, z'
loop_
 _atom_site_type_symbol
 _atom_site_label
 _atom_site_symmetry_multiplicity
 _atom_site_fract_x
 _atom_site_fract_y
 _atom_site_fract_z
 _atom_site_occupancy
  Lu  Lu0  1  0.000662  0.000000  0.000662  1
  Sc  Sc1  1  0.538101  0.124283  0.413818  1
  Sc  Sc2  1  0.289535  0.875717  0.413818  1
  Sc  Sc3  1  0.948321  0.317735  0.630586  1
  Sc  Sc4  1  0.312852  0.682265  0.630586  1
  Sc  Sc5  1  0.617170  0.359380  0.257790  1
  Sc  Sc6  1  0.898410  0.640620  0.257790  1
  Rh  Rh7  1  0.168240  0.236834  0.931405  1
  Rh  Rh8  1  0.694571  0.763166  0.931405  1
  Se  Se9  1  0.263859  0.500000  0.763859  1
  Se  Se10  1  0.659138  0.000000  0.659138  1
