# generated using pymatgen
data_Ti7Bi
_symmetry_space_group_name_H-M   'P 1'
_cell_length_a   3.74128445
_cell_length_b   7.34961512
_cell_length_c   6.95001159
_cell_angle_alpha   113.07680709
_cell_angle_beta   90.06538115
_cell_angle_gamma   120.61444187
_symmetry_Int_Tables_number   1
_chemical_formula_structural   Ti7Bi
_chemical_formula_sum   'Ti7 Bi1'
_cell_volume   146.36191264
_cell_formula_units_Z   1
loop_
 _symmetry_equiv_pos_site_id
 _symmetry_equiv_pos_as_xyz
  1  'x, y, z'
loop_
 _atom_site_type_symbol
 _atom_site_label
 _atom_site_symmetry_multiplicity
 _atom_site_fract_x
 _atom_site_fract_y
 _atom_site_fract_z
 _atom_site_occupancy
  Ti  Ti0  1  0.831590  0.347984  0.700028  1
  Ti  Ti1  1  0.101479  0.617736  0.233491  1
  Ti  Ti2  1  0.476588  0.492723  0.450206  1
  Ti  Ti3  1  0.988788  0.004825  0.484957  1
  Ti  Ti4  1  0.363925  0.879846  0.701669  1
  Ti  Ti5  1  0.633800  0.149583  0.235130  1
  Ti  Ti6  1  0.232677  0.248798  0.967591  1
  Bi  Bi7  1  0.732761  0.748835  0.967582  1
