# generated using pymatgen
data_NaTm(PSe3)2
_symmetry_space_group_name_H-M   'P 1'
_cell_length_a   13.13399636
_cell_length_b   12.48301201
_cell_length_c   7.48802900
_cell_angle_alpha   77.83513267
_cell_angle_beta   68.29395049
_cell_angle_gamma   33.87092077
_symmetry_Int_Tables_number   1
_chemical_formula_structural   NaTm(PSe3)2
_chemical_formula_sum   'Na2 Tm2 P4 Se12'
_cell_volume   624.59483424
_cell_formula_units_Z   2
loop_
 _symmetry_equiv_pos_site_id
 _symmetry_equiv_pos_as_xyz
  1  'x, y, z'
loop_
 _atom_site_type_symbol
 _atom_site_label
 _atom_site_symmetry_multiplicity
 _atom_site_fract_x
 _atom_site_fract_y
 _atom_site_fract_z
 _atom_site_occupancy
  Na  Na0  1  0.844715  0.844715  0.655285  1
  Na  Na1  1  0.594715  0.594715  0.405285  1
  Tm  Tm2  1  0.179971  0.179971  0.320029  1
  Tm  Tm3  1  0.929971  0.929971  0.070029  1
  P  P4  1  0.967259  0.066151  0.643017  1
  P  P5  1  0.066151  0.967259  0.323574  1
  P  P6  1  0.926426  0.606983  0.183849  1
  P  P7  1  0.606983  0.926426  0.282741  1
  Se  Se8  1  0.087288  0.605049  0.937508  1
  Se  Se9  1  0.605049  0.087288  0.370155  1
  Se  Se10  1  0.879845  0.312492  0.644951  1
  Se  Se11  1  0.312492  0.879845  0.162712  1
  Se  Se12  1  0.220383  0.803630  0.733547  1
  Se  Se13  1  0.803630  0.220383  0.242440  1
  Se  Se14  1  0.007560  0.516453  0.446370  1
  Se  Se15  1  0.516453  0.007560  0.029617  1
  Se  Se16  1  0.172269  0.711247  0.296550  1
  Se  Se17  1  0.711247  0.172269  0.819934  1
  Se  Se18  1  0.430066  0.953450  0.538753  1
  Se  Se19  1  0.953450  0.430066  0.077731  1
