# generated using pymatgen
data_Tm10Lu2Co4SnRu
_symmetry_space_group_name_H-M   'P 1'
_cell_length_a   8.15320273
_cell_length_b   8.15424718
_cell_length_c   8.15424584
_cell_angle_alpha   111.34246432
_cell_angle_beta   111.02726856
_cell_angle_gamma   106.10076946
_symmetry_Int_Tables_number   1
_chemical_formula_structural   Tm10Lu2Co4SnRu
_chemical_formula_sum   'Tm10 Lu2 Co4 Sn1 Ru1'
_cell_volume   416.21981706
_cell_formula_units_Z   1
loop_
 _symmetry_equiv_pos_site_id
 _symmetry_equiv_pos_as_xyz
  1  'x, y, z'
loop_
 _atom_site_type_symbol
 _atom_site_label
 _atom_site_symmetry_multiplicity
 _atom_site_fract_x
 _atom_site_fract_y
 _atom_site_fract_z
 _atom_site_occupancy
  Tm  Tm0  1  0.025279  0.219045  0.806234  1
  Tm  Tm1  1  0.974721  0.780955  0.193766  1
  Tm  Tm2  1  0.184284  0.282677  0.466296  1
  Tm  Tm3  1  0.815716  0.717323  0.533704  1
  Tm  Tm4  1  0.184284  0.717989  0.901607  1
  Tm  Tm5  1  0.815716  0.282011  0.098393  1
  Tm  Tm6  1  0.313947  0.620266  0.307328  1
  Tm  Tm7  1  0.686053  0.379734  0.692672  1
  Tm  Tm8  1  0.313947  0.006620  0.693682  1
  Tm  Tm9  1  0.686053  0.993380  0.306318  1
  Lu  Lu10  1  0.412906  0.218744  0.194161  1
  Lu  Lu11  1  0.587094  0.781256  0.805839  1
  Co  Co12  1  0.374480  0.000422  0.374058  1
  Co  Co13  1  0.625520  0.999578  0.625942  1
  Co  Co14  1  0.112421  0.612192  0.500229  1
  Co  Co15  1  0.887579  0.387808  0.499771  1
  Sn  Sn16  1  0.500000  0.500000  0.000000  1
  Ru  Ru17  1  0.000000  0.000000  0.000000  1
