# generated using pymatgen
data_HoLu3FeSi4Rh
_symmetry_space_group_name_H-M   'P 1'
_cell_length_a   5.56027966
_cell_length_b   5.56027908
_cell_length_c   9.86105854
_cell_angle_alpha   63.54229627
_cell_angle_beta   63.54229759
_cell_angle_gamma   43.72303275
_symmetry_Int_Tables_number   1
_chemical_formula_structural   HoLu3FeSi4Rh
_chemical_formula_sum   'Ho1 Lu3 Fe1 Si4 Rh1'
_cell_volume   184.85016964
_cell_formula_units_Z   1
loop_
 _symmetry_equiv_pos_site_id
 _symmetry_equiv_pos_as_xyz
  1  'x, y, z'
loop_
 _atom_site_type_symbol
 _atom_site_label
 _atom_site_symmetry_multiplicity
 _atom_site_fract_x
 _atom_site_fract_y
 _atom_site_fract_z
 _atom_site_occupancy
  Ho  Ho0  1  0.186478  0.186478  0.892269  1
  Lu  Lu1  1  0.002308  0.002308  0.324758  1
  Lu  Lu2  1  0.000422  0.000422  0.671625  1
  Lu  Lu3  1  0.813118  0.813118  0.108717  1
  Fe  Fe4  1  0.272126  0.272126  0.376051  1
  Si  Si5  1  0.649700  0.649700  0.429805  1
  Si  Si6  1  0.362682  0.362682  0.557031  1
  Si  Si7  1  0.501226  0.501226  0.129147  1
  Si  Si8  1  0.484563  0.484563  0.881812  1
  Rh  Rh9  1  0.727377  0.727377  0.628783  1
