# generated using pymatgen
data_Ac3BRh6Pb
_symmetry_space_group_name_H-M   'P 1'
_cell_length_a   6.08996200
_cell_length_b   6.08996081
_cell_length_c   14.45798600
_cell_angle_alpha   90.00000000
_cell_angle_beta   90.00000000
_cell_angle_gamma   119.99999562
_symmetry_Int_Tables_number   1
_chemical_formula_structural   Ac3BRh6Pb
_chemical_formula_sum   'Ac6 B2 Rh12 Pb2'
_cell_volume   464.37361003
_cell_formula_units_Z   2
loop_
 _symmetry_equiv_pos_site_id
 _symmetry_equiv_pos_as_xyz
  1  'x, y, z'
loop_
 _atom_site_type_symbol
 _atom_site_label
 _atom_site_symmetry_multiplicity
 _atom_site_fract_x
 _atom_site_fract_y
 _atom_site_fract_z
 _atom_site_occupancy
  Ac  Ac0  1  0.000000  0.000000  0.750000  1
  Ac  Ac1  1  0.000000  0.000000  0.250000  1
  Ac  Ac2  1  0.333333  0.666667  0.407581  1
  Ac  Ac3  1  0.666667  0.333333  0.907581  1
  Ac  Ac4  1  0.666667  0.333333  0.592419  1
  Ac  Ac5  1  0.333333  0.666667  0.092419  1
  B  B6  1  0.000000  0.000000  0.500000  1
  B  B7  1  0.000000  0.000000  0.000000  1
  Rh  Rh8  1  0.339082  0.169541  0.416256  1
  Rh  Rh9  1  0.830459  0.169541  0.416256  1
  Rh  Rh10  1  0.830459  0.660918  0.416256  1
  Rh  Rh11  1  0.169541  0.339082  0.916256  1
  Rh  Rh12  1  0.660918  0.830459  0.583744  1
  Rh  Rh13  1  0.660918  0.830459  0.916256  1
  Rh  Rh14  1  0.339082  0.169541  0.083744  1
  Rh  Rh15  1  0.169541  0.339082  0.583744  1
  Rh  Rh16  1  0.169541  0.830459  0.583744  1
  Rh  Rh17  1  0.830459  0.169541  0.083744  1
  Rh  Rh18  1  0.830459  0.660918  0.083744  1
  Rh  Rh19  1  0.169541  0.830459  0.916256  1
  Pb  Pb20  1  0.333333  0.666667  0.750000  1
  Pb  Pb21  1  0.666667  0.333333  0.250000  1
