# generated using pymatgen
data_Sm2UIr3
_symmetry_space_group_name_H-M   'P 1'
_cell_length_a   5.40782512
_cell_length_b   5.40782412
_cell_length_c   5.40782468
_cell_angle_alpha   64.99583021
_cell_angle_beta   64.99584697
_cell_angle_gamma   64.99584219
_symmetry_Int_Tables_number   1
_chemical_formula_structural   Sm2UIr3
_chemical_formula_sum   'Sm2 U1 Ir3'
_cell_volume   124.02888892
_cell_formula_units_Z   1
loop_
 _symmetry_equiv_pos_site_id
 _symmetry_equiv_pos_as_xyz
  1  'x, y, z'
loop_
 _atom_site_type_symbol
 _atom_site_label
 _atom_site_symmetry_multiplicity
 _atom_site_fract_x
 _atom_site_fract_y
 _atom_site_fract_z
 _atom_site_occupancy
  Sm  Sm0  1  0.248449  0.248449  0.248449  1
  Sm  Sm1  1  0.001551  0.001551  0.001551  1
  U  U2  1  0.625000  0.625000  0.625000  1
  Ir  Ir3  1  0.125000  0.625000  0.625000  1
  Ir  Ir4  1  0.625000  0.125000  0.625000  1
  Ir  Ir5  1  0.625000  0.625000  0.125000  1
