# generated using pymatgen
data_Hf3ZrSc4(V3Si4)4
_symmetry_space_group_name_H-M   'P 1'
_cell_length_a   6.61685391
_cell_length_b   6.61720933
_cell_length_c   12.24131805
_cell_angle_alpha   90.02062367
_cell_angle_beta   89.97729309
_cell_angle_gamma   89.93035127
_symmetry_Int_Tables_number   1
_chemical_formula_structural   Hf3ZrSc4(V3Si4)4
_chemical_formula_sum   'Hf3 Zr1 Sc4 V12 Si16'
_cell_volume   535.98695268
_cell_formula_units_Z   1
loop_
 _symmetry_equiv_pos_site_id
 _symmetry_equiv_pos_as_xyz
  1  'x, y, z'
loop_
 _atom_site_type_symbol
 _atom_site_label
 _atom_site_symmetry_multiplicity
 _atom_site_fract_x
 _atom_site_fract_y
 _atom_site_fract_z
 _atom_site_occupancy
  Hf  Hf0  1  0.838713  0.503567  0.280308  1
  Hf  Hf1  1  0.161496  0.497302  0.779809  1
  Hf  Hf2  1  0.502513  0.838312  0.719547  1
  Zr  Zr3  1  0.002615  0.660777  0.029984  1
  Sc  Sc4  1  0.498709  0.162436  0.220504  1
  Sc  Sc5  1  0.998411  0.338031  0.529194  1
  Sc  Sc6  1  0.662032  0.001063  0.970537  1
  Sc  Sc7  1  0.337884  0.998535  0.470530  1
  V  V8  1  0.331479  0.334404  0.999370  1
  V  V9  1  0.165470  0.831234  0.249860  1
  V  V10  1  0.833132  0.166949  0.750153  1
  V  V11  1  0.667221  0.667299  0.500295  1
  V  V12  1  0.005050  0.158414  0.126122  1
  V  V13  1  0.342395  0.506463  0.375955  1
  V  V14  1  0.657297  0.495391  0.875487  1
  V  V15  1  0.505395  0.343461  0.625049  1
  V  V16  1  0.494434  0.657500  0.123341  1
  V  V17  1  0.994796  0.841185  0.627799  1
  V  V18  1  0.158045  0.004658  0.872904  1
  V  V19  1  0.842217  0.993731  0.373070  1
  Si  Si20  1  0.294652  0.962429  0.064839  1
  Si  Si21  1  0.537712  0.794942  0.314703  1
  Si  Si22  1  0.461071  0.206663  0.815363  1
  Si  Si23  1  0.793699  0.538791  0.684427  1
  Si  Si24  1  0.209471  0.458266  0.186010  1
  Si  Si25  1  0.708074  0.039971  0.563696  1
  Si  Si26  1  0.958272  0.289501  0.935322  1
  Si  Si27  1  0.039802  0.707711  0.436211  1
  Si  Si28  1  0.702452  0.369435  0.071154  1
  Si  Si29  1  0.129741  0.202969  0.320284  1
  Si  Si30  1  0.870212  0.795810  0.821104  1
  Si  Si31  1  0.204371  0.128898  0.678915  1
  Si  Si32  1  0.793819  0.873018  0.179525  1
  Si  Si33  1  0.295862  0.628830  0.570609  1
  Si  Si34  1  0.373151  0.705861  0.928383  1
  Si  Si35  1  0.628336  0.296189  0.429639  1
