# generated using pymatgen
data_Tb3Gd2(TcO6)2
_symmetry_space_group_name_H-M   'P 1'
_cell_length_a   6.89005764
_cell_length_b   6.89005734
_cell_length_c   7.61647819
_cell_angle_alpha   73.90043214
_cell_angle_beta   73.90043380
_cell_angle_gamma   48.95273353
_symmetry_Int_Tables_number   1
_chemical_formula_structural   Tb3Gd2(TcO6)2
_chemical_formula_sum   'Tb3 Gd2 Tc2 O12'
_cell_volume   259.72340480
_cell_formula_units_Z   1
loop_
 _symmetry_equiv_pos_site_id
 _symmetry_equiv_pos_as_xyz
  1  'x, y, z'
loop_
 _atom_site_type_symbol
 _atom_site_label
 _atom_site_symmetry_multiplicity
 _atom_site_fract_x
 _atom_site_fract_y
 _atom_site_fract_z
 _atom_site_occupancy
  Tb  Tb0  1  0.684648  0.684648  0.174052  1
  Tb  Tb1  1  0.315352  0.315352  0.825948  1
  Tb  Tb2  1  0.000000  0.000000  0.500000  1
  Gd  Gd3  1  0.694425  0.694425  0.643317  1
  Gd  Gd4  1  0.305575  0.305575  0.356683  1
  Tc  Tc5  1  0.786565  0.213435  0.000000  1
  Tc  Tc6  1  0.213435  0.786565  0.000000  1
  O  O7  1  0.000576  0.000576  0.203107  1
  O  O8  1  0.999424  0.999424  0.796893  1
  O  O9  1  0.587591  0.085438  0.081517  1
  O  O10  1  0.412409  0.914562  0.918483  1
  O  O11  1  0.914562  0.412409  0.918483  1
  O  O12  1  0.085438  0.587591  0.081517  1
  O  O13  1  0.499863  0.499863  0.174453  1
  O  O14  1  0.500137  0.500137  0.825547  1
  O  O15  1  0.405198  0.901225  0.423845  1
  O  O16  1  0.594802  0.098775  0.576155  1
  O  O17  1  0.098775  0.594802  0.576155  1
  O  O18  1  0.901225  0.405198  0.423845  1
