# generated using pymatgen
data_Al8Cr4Ge3
_symmetry_space_group_name_H-M   'P 1'
_cell_length_a   5.06859949
_cell_length_b   5.17134199
_cell_length_c   9.05768669
_cell_angle_alpha   72.06022502
_cell_angle_beta   90.29203828
_cell_angle_gamma   78.31969014
_symmetry_Int_Tables_number   1
_chemical_formula_structural   Al8Cr4Ge3
_chemical_formula_sum   'Al8 Cr4 Ge3'
_cell_volume   220.61449002
_cell_formula_units_Z   1
loop_
 _symmetry_equiv_pos_site_id
 _symmetry_equiv_pos_as_xyz
  1  'x, y, z'
loop_
 _atom_site_type_symbol
 _atom_site_label
 _atom_site_symmetry_multiplicity
 _atom_site_fract_x
 _atom_site_fract_y
 _atom_site_fract_z
 _atom_site_occupancy
  Al  Al0  1  0.838604  0.469023  0.122464  1
  Al  Al1  1  0.161396  0.530977  0.877536  1
  Al  Al2  1  0.499940  0.097296  0.126026  1
  Al  Al3  1  0.500060  0.902704  0.873974  1
  Al  Al4  1  0.412618  0.338231  0.622377  1
  Al  Al5  1  0.587382  0.661769  0.377623  1
  Al  Al6  1  0.063131  0.814832  0.324037  1
  Al  Al7  1  0.936869  0.185168  0.675963  1
  Cr  Cr8  1  0.715736  0.138315  0.406328  1
  Cr  Cr9  1  0.284264  0.861685  0.593672  1
  Cr  Cr10  1  0.333395  0.608318  0.136223  1
  Cr  Cr11  1  0.666605  0.391682  0.863777  1
  Ge  Ge12  1  0.188908  0.266428  0.358297  1
  Ge  Ge13  1  0.811092  0.733572  0.641703  1
  Ge  Ge14  1  0.000000  0.000000  0.000000  1
