# generated using pymatgen
data_Gd2Dy3AlSb2
_symmetry_space_group_name_H-M   'P 1'
_cell_length_a   8.98861700
_cell_length_b   9.03488924
_cell_length_c   6.50769500
_cell_angle_alpha   90.00000000
_cell_angle_beta   90.00000000
_cell_angle_gamma   119.83072242
_symmetry_Int_Tables_number   1
_chemical_formula_structural   Gd2Dy3AlSb2
_chemical_formula_sum   'Gd4 Dy6 Al2 Sb4'
_cell_volume   458.47093162
_cell_formula_units_Z   2
loop_
 _symmetry_equiv_pos_site_id
 _symmetry_equiv_pos_as_xyz
  1  'x, y, z'
loop_
 _atom_site_type_symbol
 _atom_site_label
 _atom_site_symmetry_multiplicity
 _atom_site_fract_x
 _atom_site_fract_y
 _atom_site_fract_z
 _atom_site_occupancy
  Gd  Gd0  1  0.339762  0.679527  0.000000  1
  Gd  Gd1  1  0.660238  0.320473  0.500000  1
  Gd  Gd2  1  0.660238  0.320473  0.000000  1
  Gd  Gd3  1  0.339762  0.679527  0.500000  1
  Dy  Dy4  1  0.241563  0.000000  0.250000  1
  Dy  Dy5  1  0.758437  0.000000  0.750000  1
  Dy  Dy6  1  0.989368  0.235518  0.250000  1
  Dy  Dy7  1  0.753851  0.764482  0.250000  1
  Dy  Dy8  1  0.246149  0.235518  0.750000  1
  Dy  Dy9  1  0.010632  0.764482  0.750000  1
  Al  Al10  1  0.601389  0.000000  0.250000  1
  Al  Al11  1  0.398611  0.000000  0.750000  1
  Sb  Sb12  1  0.994976  0.607804  0.250000  1
  Sb  Sb13  1  0.387172  0.392196  0.250000  1
  Sb  Sb14  1  0.612828  0.607804  0.750000  1
  Sb  Sb15  1  0.005024  0.392196  0.750000  1
