# generated using pymatgen
data_Nd2FeN3
_symmetry_space_group_name_H-M   'P 1'
_cell_length_a   6.79207037
_cell_length_b   3.56398747
_cell_length_c   12.54094300
_cell_angle_alpha   90.00000000
_cell_angle_beta   22.60080694
_cell_angle_gamma   74.78961988
_symmetry_Int_Tables_number   1
_chemical_formula_structural   Nd2FeN3
_chemical_formula_sum   'Nd2 Fe1 N3'
_cell_volume   85.24942694
_cell_formula_units_Z   1
loop_
 _symmetry_equiv_pos_site_id
 _symmetry_equiv_pos_as_xyz
  1  'x, y, z'
loop_
 _atom_site_type_symbol
 _atom_site_label
 _atom_site_symmetry_multiplicity
 _atom_site_fract_x
 _atom_site_fract_y
 _atom_site_fract_z
 _atom_site_occupancy
  Nd  Nd0  1  0.000000  0.000000  0.646287  1
  Nd  Nd1  1  0.000000  0.000000  0.353713  1
  Fe  Fe2  1  0.000000  0.000000  0.000000  1
  N  N3  1  0.000000  0.500000  0.500000  1
  N  N4  1  0.000000  0.000000  0.843109  1
  N  N5  1  0.000000  0.000000  0.156891  1
