# generated using pymatgen
data_YbDy(TaS2)6
_symmetry_space_group_name_H-M   'P 1'
_cell_length_a   5.79717300
_cell_length_b   5.79717094
_cell_length_c   14.08315100
_cell_angle_alpha   90.00000000
_cell_angle_beta   90.00000000
_cell_angle_gamma   120.00000604
_symmetry_Int_Tables_number   1
_chemical_formula_structural   YbDy(TaS2)6
_chemical_formula_sum   'Yb1 Dy1 Ta6 S12'
_cell_volume   409.88573922
_cell_formula_units_Z   1
loop_
 _symmetry_equiv_pos_site_id
 _symmetry_equiv_pos_as_xyz
  1  'x, y, z'
loop_
 _atom_site_type_symbol
 _atom_site_label
 _atom_site_symmetry_multiplicity
 _atom_site_fract_x
 _atom_site_fract_y
 _atom_site_fract_z
 _atom_site_occupancy
  Yb  Yb0  1  0.000000  0.000000  0.500000  1
  Dy  Dy1  1  0.000000  0.000000  0.000000  1
  Ta  Ta2  1  0.333333  0.666667  0.247884  1
  Ta  Ta3  1  0.666667  0.333333  0.752116  1
  Ta  Ta4  1  0.666667  0.333333  0.247884  1
  Ta  Ta5  1  0.333333  0.666667  0.752116  1
  Ta  Ta6  1  0.000000  0.000000  0.247675  1
  Ta  Ta7  1  0.000000  0.000000  0.752325  1
  S  S8  1  0.336843  0.000000  0.135673  1
  S  S9  1  0.000000  0.336843  0.135673  1
  S  S10  1  0.663157  0.663157  0.135673  1
  S  S11  1  0.336520  0.336520  0.640803  1
  S  S12  1  0.663480  0.663480  0.359197  1
  S  S13  1  0.663480  0.000000  0.640803  1
  S  S14  1  0.000000  0.663480  0.640803  1
  S  S15  1  0.000000  0.663157  0.864327  1
  S  S16  1  0.336843  0.336843  0.864327  1
  S  S17  1  0.000000  0.336520  0.359197  1
  S  S18  1  0.336520  0.000000  0.359197  1
  S  S19  1  0.663157  0.000000  0.864327  1
