# generated using pymatgen
data_Cs12Na8Ti(VAs4)3
_symmetry_space_group_name_H-M   'P 1'
_cell_length_a   10.82925062
_cell_length_b   10.82924967
_cell_length_c   16.82349201
_cell_angle_alpha   90.00102598
_cell_angle_beta   90.00102924
_cell_angle_gamma   142.43253792
_symmetry_Int_Tables_number   1
_chemical_formula_structural   Cs12Na8Ti(VAs4)3
_chemical_formula_sum   'Cs12 Na8 Ti1 V3 As12'
_cell_volume   1202.88924536
_cell_formula_units_Z   1
loop_
 _symmetry_equiv_pos_site_id
 _symmetry_equiv_pos_as_xyz
  1  'x, y, z'
loop_
 _atom_site_type_symbol
 _atom_site_label
 _atom_site_symmetry_multiplicity
 _atom_site_fract_x
 _atom_site_fract_y
 _atom_site_fract_z
 _atom_site_occupancy
  Cs  Cs0  1  0.943636  0.609037  0.827694  1
  Cs  Cs1  1  0.555593  0.890297  0.327848  1
  Cs  Cs2  1  0.390963  0.056364  0.172306  1
  Cs  Cs3  1  0.056600  0.391065  0.171910  1
  Cs  Cs4  1  0.890766  0.556207  0.327480  1
  Cs  Cs5  1  0.443793  0.109234  0.672520  1
  Cs  Cs6  1  0.608935  0.943400  0.828090  1
  Cs  Cs7  1  0.278908  0.278231  0.317006  1
  Cs  Cs8  1  0.778389  0.778332  0.183670  1
  Cs  Cs9  1  0.221668  0.221611  0.816330  1
  Cs  Cs10  1  0.721769  0.721092  0.682994  1
  Cs  Cs11  1  0.109703  0.444407  0.672152  1
  Na  Na12  1  0.920459  0.079541  0.000000  1
  Na  Na13  1  0.579441  0.420559  0.500000  1
  Na  Na14  1  0.079658  0.920342  0.000000  1
  Na  Na15  1  0.421606  0.578394  0.500000  1
  Na  Na16  1  0.754888  0.245112  0.000000  1
  Na  Na17  1  0.744153  0.255847  0.500000  1
  Na  Na18  1  0.244915  0.755085  0.000000  1
  Na  Na19  1  0.253851  0.746149  0.500000  1
  Ti  Ti20  1  0.082471  0.917529  0.500000  1
  V  V21  1  0.581453  0.418547  0.000000  1
  V  V22  1  0.916664  0.083336  0.500000  1
  V  V23  1  0.418547  0.581453  0.000000  1
  As  As24  1  0.851373  0.549053  0.085939  1
  As  As25  1  0.450947  0.148627  0.914061  1
  As  As26  1  0.648586  0.950349  0.585083  1
  As  As27  1  0.946309  0.639744  0.589043  1
  As  As28  1  0.148091  0.450632  0.913980  1
  As  As29  1  0.549368  0.851909  0.086020  1
  As  As30  1  0.360256  0.053691  0.410957  1
  As  As31  1  0.186503  0.190121  0.580222  1
  As  As32  1  0.685288  0.685080  0.921292  1
  As  As33  1  0.314920  0.314712  0.078708  1
  As  As34  1  0.049651  0.351414  0.414917  1
  As  As35  1  0.809879  0.813497  0.419778  1
