# generated using pymatgen
data_Na3Fe3PdO8
_symmetry_space_group_name_H-M   'P 1'
_cell_length_a   6.08374700
_cell_length_b   5.29104564
_cell_length_c   5.79517682
_cell_angle_alpha   72.17560195
_cell_angle_beta   90.00000000
_cell_angle_gamma   90.00000000
_symmetry_Int_Tables_number   1
_chemical_formula_structural   Na3Fe3PdO8
_chemical_formula_sum   'Na3 Fe3 Pd1 O8'
_cell_volume   177.58893302
_cell_formula_units_Z   1
loop_
 _symmetry_equiv_pos_site_id
 _symmetry_equiv_pos_as_xyz
  1  'x, y, z'
loop_
 _atom_site_type_symbol
 _atom_site_label
 _atom_site_symmetry_multiplicity
 _atom_site_fract_x
 _atom_site_fract_y
 _atom_site_fract_z
 _atom_site_occupancy
  Na  Na0  1  0.237134  0.000000  0.000000  1
  Na  Na1  1  0.500000  0.500000  0.000000  1
  Na  Na2  1  0.762866  0.000000  0.000000  1
  Fe  Fe3  1  0.749139  0.500000  0.500000  1
  Fe  Fe4  1  0.250861  0.500000  0.500000  1
  Fe  Fe5  1  0.500000  0.000000  0.500000  1
  Pd  Pd6  1  0.000000  0.000000  0.500000  1
  O  O7  1  0.500000  0.730612  0.297678  1
  O  O8  1  0.747435  0.229486  0.306835  1
  O  O9  1  0.000000  0.734965  0.307860  1
  O  O10  1  0.252565  0.229486  0.306835  1
  O  O11  1  0.000000  0.265035  0.692140  1
  O  O12  1  0.252565  0.770514  0.693165  1
  O  O13  1  0.500000  0.269388  0.702322  1
  O  O14  1  0.747435  0.770514  0.693165  1
