# generated using pymatgen
data_Hf2PaTaI18
_symmetry_space_group_name_H-M   'P 1'
_cell_length_a   13.73899100
_cell_length_b   8.03009002
_cell_length_c   11.02804100
_cell_angle_alpha   75.58345540
_cell_angle_beta   90.00000000
_cell_angle_gamma   90.00000000
_symmetry_Int_Tables_number   1
_chemical_formula_structural   Hf2PaTaI18
_chemical_formula_sum   'Hf2 Pa1 Ta1 I18'
_cell_volume   1178.36089437
_cell_formula_units_Z   1
loop_
 _symmetry_equiv_pos_site_id
 _symmetry_equiv_pos_as_xyz
  1  'x, y, z'
loop_
 _atom_site_type_symbol
 _atom_site_label
 _atom_site_symmetry_multiplicity
 _atom_site_fract_x
 _atom_site_fract_y
 _atom_site_fract_z
 _atom_site_occupancy
  Hf  Hf0  1  0.250000  0.757322  0.469596  1
  Hf  Hf1  1  0.750000  0.245287  0.523433  1
  Pa  Pa2  1  0.250000  0.646520  0.848867  1
  Ta  Ta3  1  0.750000  0.353720  0.149017  1
  I  I4  1  0.612243  0.438826  0.323113  1
  I  I5  1  0.105973  0.557910  0.666760  1
  I  I6  1  0.394027  0.557910  0.666760  1
  I  I7  1  0.887757  0.438826  0.323113  1
  I  I8  1  0.750000  0.679540  0.016693  1
  I  I9  1  0.250000  0.297466  0.001293  1
  I  I10  1  0.750000  0.514846  0.631970  1
  I  I11  1  0.250000  0.488224  0.362948  1
  I  I12  1  0.750000  0.028173  0.335513  1
  I  I13  1  0.250000  0.987196  0.654225  1
  I  I14  1  0.895052  0.245095  0.028762  1
  I  I15  1  0.404436  0.757187  0.988418  1
  I  I16  1  0.095564  0.757187  0.988418  1
  I  I17  1  0.604948  0.245095  0.028762  1
  I  I18  1  0.901228  0.060472  0.648471  1
  I  I19  1  0.401104  0.941363  0.347698  1
  I  I20  1  0.098896  0.941363  0.347698  1
  I  I21  1  0.598772  0.060472  0.648471  1
