# generated using pymatgen
data_CsFeHgF6
_symmetry_space_group_name_H-M   'P 1'
_cell_length_a   7.71273000
_cell_length_b   7.76136400
_cell_length_c   10.94236700
_cell_angle_alpha   90.00000000
_cell_angle_beta   90.00000000
_cell_angle_gamma   90.00000000
_symmetry_Int_Tables_number   1
_chemical_formula_structural   CsFeHgF6
_chemical_formula_sum   'Cs4 Fe4 Hg4 F24'
_cell_volume   655.02436801
_cell_formula_units_Z   4
loop_
 _symmetry_equiv_pos_site_id
 _symmetry_equiv_pos_as_xyz
  1  'x, y, z'
loop_
 _atom_site_type_symbol
 _atom_site_label
 _atom_site_symmetry_multiplicity
 _atom_site_fract_x
 _atom_site_fract_y
 _atom_site_fract_z
 _atom_site_occupancy
  Cs  Cs0  1  0.981398  0.250000  0.373764  1
  Cs  Cs1  1  0.481398  0.250000  0.126236  1
  Cs  Cs2  1  0.018602  0.750000  0.626236  1
  Cs  Cs3  1  0.518602  0.750000  0.873764  1
  Fe  Fe4  1  0.500000  0.000000  0.500000  1
  Fe  Fe5  1  0.000000  0.500000  0.000000  1
  Fe  Fe6  1  0.500000  0.500000  0.500000  1
  Fe  Fe7  1  0.000000  0.000000  0.000000  1
  Hg  Hg8  1  0.791081  0.250000  0.742236  1
  Hg  Hg9  1  0.291081  0.250000  0.757764  1
  Hg  Hg10  1  0.208919  0.750000  0.257764  1
  Hg  Hg11  1  0.708919  0.750000  0.242236  1
  F  F12  1  0.550647  0.250000  0.853139  1
  F  F13  1  0.050647  0.250000  0.646861  1
  F  F14  1  0.449353  0.750000  0.146861  1
  F  F15  1  0.949353  0.750000  0.353139  1
  F  F16  1  0.941310  0.250000  0.008578  1
  F  F17  1  0.441310  0.250000  0.491422  1
  F  F18  1  0.058690  0.750000  0.991422  1
  F  F19  1  0.558690  0.750000  0.508578  1
  F  F20  1  0.621176  0.014258  0.342912  1
  F  F21  1  0.121176  0.485742  0.157088  1
  F  F22  1  0.378824  0.514258  0.657088  1
  F  F23  1  0.878824  0.985742  0.842912  1
  F  F24  1  0.378824  0.985742  0.657088  1
  F  F25  1  0.878824  0.514258  0.842912  1
  F  F26  1  0.621176  0.485742  0.342912  1
  F  F27  1  0.121176  0.014258  0.157088  1
  F  F28  1  0.718029  0.047390  0.583344  1
  F  F29  1  0.218029  0.452610  0.916656  1
  F  F30  1  0.281971  0.547390  0.416656  1
  F  F31  1  0.781971  0.952610  0.083344  1
  F  F32  1  0.281971  0.952610  0.416656  1
  F  F33  1  0.781971  0.547390  0.083344  1
  F  F34  1  0.718029  0.452610  0.583344  1
  F  F35  1  0.218029  0.047390  0.916656  1
