# generated using pymatgen
data_Gd4DyHo3(B6Os)4
_symmetry_space_group_name_H-M   'P 1'
_cell_length_a   3.66631000
_cell_length_b   9.17996901
_cell_length_c   11.56708501
_cell_angle_alpha   90.00564452
_cell_angle_beta   90.00000000
_cell_angle_gamma   90.00000000
_symmetry_Int_Tables_number   1
_chemical_formula_structural   Gd4DyHo3(B6Os)4
_chemical_formula_sum   'Gd4 Dy1 Ho3 B24 Os4'
_cell_volume   389.30889254
_cell_formula_units_Z   1
loop_
 _symmetry_equiv_pos_site_id
 _symmetry_equiv_pos_as_xyz
  1  'x, y, z'
loop_
 _atom_site_type_symbol
 _atom_site_label
 _atom_site_symmetry_multiplicity
 _atom_site_fract_x
 _atom_site_fract_y
 _atom_site_fract_z
 _atom_site_occupancy
  Gd  Gd0  1  0.000000  0.322525  0.413987  1
  Gd  Gd1  1  0.000000  0.677479  0.586147  1
  Gd  Gd2  1  0.000000  0.822403  0.085973  1
  Gd  Gd3  1  0.000000  0.177625  0.913931  1
  Dy  Dy4  1  0.000000  0.944133  0.372861  1
  Ho  Ho5  1  0.000000  0.055942  0.627307  1
  Ho  Ho6  1  0.000000  0.444108  0.127031  1
  Ho  Ho7  1  0.000000  0.555883  0.872870  1
  B  B8  1  0.500000  0.554349  0.432336  1
  B  B9  1  0.500000  0.445454  0.567714  1
  B  B10  1  0.500000  0.054519  0.067566  1
  B  B11  1  0.500000  0.945532  0.932331  1
  B  B12  1  0.500000  0.747944  0.419219  1
  B  B13  1  0.500000  0.251748  0.580805  1
  B  B14  1  0.500000  0.248382  0.080717  1
  B  B15  1  0.500000  0.751708  0.919242  1
  B  B16  1  0.500000  0.790683  0.266518  1
  B  B17  1  0.500000  0.209001  0.733424  1
  B  B18  1  0.500000  0.291161  0.233317  1
  B  B19  1  0.500000  0.709026  0.766634  1
  B  B20  1  0.500000  0.631463  0.185201  1
  B  B21  1  0.500000  0.368413  0.814735  1
  B  B22  1  0.500000  0.131863  0.314570  1
  B  B23  1  0.500000  0.868400  0.685368  1
  B  B24  1  0.500000  0.984186  0.213072  1
  B  B25  1  0.500000  0.016055  0.786687  1
  B  B26  1  0.500000  0.483851  0.286614  1
  B  B27  1  0.500000  0.516018  0.713353  1
  B  B28  1  0.500000  0.606847  0.029437  1
  B  B29  1  0.500000  0.393104  0.970540  1
  B  B30  1  0.500000  0.107360  0.470710  1
  B  B31  1  0.500000  0.892927  0.529791  1
  Os  Os32  1  0.000000  0.637631  0.320741  1
  Os  Os33  1  0.000000  0.362096  0.679331  1
  Os  Os34  1  0.000000  0.138145  0.179137  1
  Os  Os35  1  0.000000  0.862037  0.820781  1
