# generated using pymatgen
data_Rb4PrPaO6
_symmetry_space_group_name_H-M   'P 1'
_cell_length_a   6.48576346
_cell_length_b   6.48576711
_cell_length_c   6.98021646
_cell_angle_alpha   98.90980722
_cell_angle_beta   98.90950732
_cell_angle_gamma   119.84127383
_symmetry_Int_Tables_number   1
_chemical_formula_structural   Rb4PrPaO6
_chemical_formula_sum   'Rb4 Pr1 Pa1 O6'
_cell_volume   242.22632398
_cell_formula_units_Z   1
loop_
 _symmetry_equiv_pos_site_id
 _symmetry_equiv_pos_as_xyz
  1  'x, y, z'
loop_
 _atom_site_type_symbol
 _atom_site_label
 _atom_site_symmetry_multiplicity
 _atom_site_fract_x
 _atom_site_fract_y
 _atom_site_fract_z
 _atom_site_occupancy
  Rb  Rb0  1  0.500059  0.499940  0.999999  1
  Rb  Rb1  1  0.999959  0.000041  0.500001  1
  Rb  Rb2  1  0.657430  0.342571  0.500000  1
  Rb  Rb3  1  0.341865  0.658137  0.500000  1
  Pr  Pr4  1  0.833004  0.166997  0.000001  1
  Pa  Pa5  1  0.167237  0.832764  0.000000  1
  O  O6  1  0.972632  0.589054  0.187895  1
  O  O7  1  0.536835  0.945673  0.187574  1
  O  O8  1  0.180592  0.154885  0.184028  1
  O  O9  1  0.845116  0.819408  0.815973  1
  O  O10  1  0.054327  0.463166  0.812426  1
  O  O11  1  0.410947  0.027368  0.812106  1
