# generated using pymatgen
data_Nd4Al18Ir4OsAu
_symmetry_space_group_name_H-M   'P 1'
_cell_length_a   7.64610706
_cell_length_b   7.64610742
_cell_length_c   9.63380585
_cell_angle_alpha   90.01377832
_cell_angle_beta   90.01378319
_cell_angle_gamma   119.12920165
_symmetry_Int_Tables_number   1
_chemical_formula_structural   Nd4Al18Ir4OsAu
_chemical_formula_sum   'Nd4 Al18 Ir4 Os1 Au1'
_cell_volume   491.98693740
_cell_formula_units_Z   1
loop_
 _symmetry_equiv_pos_site_id
 _symmetry_equiv_pos_as_xyz
  1  'x, y, z'
loop_
 _atom_site_type_symbol
 _atom_site_label
 _atom_site_symmetry_multiplicity
 _atom_site_fract_x
 _atom_site_fract_y
 _atom_site_fract_z
 _atom_site_occupancy
  Nd  Nd0  1  0.996207  0.676499  0.251538  1
  Nd  Nd1  1  0.003793  0.323501  0.748462  1
  Nd  Nd2  1  0.676499  0.996207  0.251538  1
  Nd  Nd3  1  0.323501  0.003793  0.748462  1
  Al  Al4  1  0.138897  0.138897  0.258177  1
  Al  Al5  1  0.861103  0.861103  0.741823  1
  Al  Al6  1  0.004869  0.346845  0.078208  1
  Al  Al7  1  0.995131  0.653155  0.921792  1
  Al  Al8  1  0.997840  0.664442  0.571877  1
  Al  Al9  1  0.335558  0.002160  0.428123  1
  Al  Al10  1  0.002160  0.335558  0.428123  1
  Al  Al11  1  0.664442  0.997840  0.571877  1
  Al  Al12  1  0.653155  0.995131  0.921792  1
  Al  Al13  1  0.346845  0.004869  0.078208  1
  Al  Al14  1  0.332128  0.332128  0.543394  1
  Al  Al15  1  0.667872  0.667872  0.456606  1
  Al  Al16  1  0.657578  0.657578  0.052717  1
  Al  Al17  1  0.342422  0.342422  0.947283  1
  Al  Al18  1  0.340892  0.550149  0.251335  1
  Al  Al19  1  0.659108  0.449851  0.748665  1
  Al  Al20  1  0.550149  0.340892  0.251335  1
  Al  Al21  1  0.449851  0.659108  0.748665  1
  Ir  Ir22  1  0.671092  0.328908  0.000000  1
  Ir  Ir23  1  0.328908  0.671092  0.000000  1
  Ir  Ir24  1  0.328988  0.671012  0.500000  1
  Ir  Ir25  1  0.671012  0.328988  0.500000  1
  Os  Os26  1  0.000000  0.000000  0.500000  1
  Au  Au27  1  0.000000  0.000000  0.000000  1
