# generated using pymatgen
data_Tb3ErMnAl18Pd5
_symmetry_space_group_name_H-M   'P 1'
_cell_length_a   7.61660439
_cell_length_b   7.61507696
_cell_length_c   9.50251617
_cell_angle_alpha   89.95786890
_cell_angle_beta   89.98583348
_cell_angle_gamma   119.56879080
_symmetry_Int_Tables_number   1
_chemical_formula_structural   Tb3ErMnAl18Pd5
_chemical_formula_sum   'Tb3 Er1 Mn1 Al18 Pd5'
_cell_volume   479.37506752
_cell_formula_units_Z   1
loop_
 _symmetry_equiv_pos_site_id
 _symmetry_equiv_pos_as_xyz
  1  'x, y, z'
loop_
 _atom_site_type_symbol
 _atom_site_label
 _atom_site_symmetry_multiplicity
 _atom_site_fract_x
 _atom_site_fract_y
 _atom_site_fract_z
 _atom_site_occupancy
  Tb  Tb0  1  0.005068  0.330372  0.751383  1
  Tb  Tb1  1  0.669728  0.994866  0.248595  1
  Tb  Tb2  1  0.330266  0.004950  0.751456  1
  Er  Er3  1  0.994987  0.670001  0.248285  1
  Mn  Mn4  1  0.999913  0.999782  0.000246  1
  Al  Al5  1  0.124153  0.123836  0.241549  1
  Al  Al6  1  0.875693  0.875618  0.758514  1
  Al  Al7  1  0.999092  0.324166  0.071907  1
  Al  Al8  1  0.000912  0.676228  0.928884  1
  Al  Al9  1  0.998050  0.664858  0.577569  1
  Al  Al10  1  0.334749  0.001567  0.421733  1
  Al  Al11  1  0.001980  0.335662  0.421702  1
  Al  Al12  1  0.664810  0.997987  0.577937  1
  Al  Al13  1  0.676287  0.000883  0.928425  1
  Al  Al14  1  0.323216  0.998547  0.071975  1
  Al  Al15  1  0.334287  0.334284  0.557008  1
  Al  Al16  1  0.666080  0.665695  0.442517  1
  Al  Al17  1  0.677158  0.676724  0.051318  1
  Al  Al18  1  0.323234  0.323225  0.949178  1
  Al  Al19  1  0.340065  0.545942  0.248353  1
  Al  Al20  1  0.659738  0.454296  0.751658  1
  Al  Al21  1  0.546349  0.340776  0.248348  1
  Al  Al22  1  0.454255  0.659655  0.751678  1
  Pd  Pd23  1  0.672124  0.328105  0.000142  1
  Pd  Pd24  1  0.327865  0.672009  0.000112  1
  Pd  Pd25  1  0.327634  0.672227  0.499866  1
  Pd  Pd26  1  0.672336  0.327890  0.499872  1
  Pd  Pd27  1  0.999972  0.999847  0.499789  1
