# generated using pymatgen
data_Nd4Fe5(P4Rh5)3
_symmetry_space_group_name_H-M   'P 1'
_cell_length_a   3.87285400
_cell_length_b   10.80082698
_cell_length_c   12.46336426
_cell_angle_alpha   90.05196540
_cell_angle_beta   90.00000000
_cell_angle_gamma   90.00000000
_symmetry_Int_Tables_number   1
_chemical_formula_structural   Nd4Fe5(P4Rh5)3
_chemical_formula_sum   'Nd4 Fe5 P12 Rh15'
_cell_volume   521.34263640
_cell_formula_units_Z   1
loop_
 _symmetry_equiv_pos_site_id
 _symmetry_equiv_pos_as_xyz
  1  'x, y, z'
loop_
 _atom_site_type_symbol
 _atom_site_label
 _atom_site_symmetry_multiplicity
 _atom_site_fract_x
 _atom_site_fract_y
 _atom_site_fract_z
 _atom_site_occupancy
  Nd  Nd0  1  0.250000  0.578755  0.709991  1
  Nd  Nd1  1  0.250000  0.918276  0.207944  1
  Nd  Nd2  1  0.750000  0.417852  0.291614  1
  Nd  Nd3  1  0.750000  0.084976  0.791595  1
  Fe  Fe4  1  0.750000  0.377536  0.802391  1
  Fe  Fe5  1  0.250000  0.461039  0.932776  1
  Fe  Fe6  1  0.250000  0.037812  0.434538  1
  Fe  Fe7  1  0.750000  0.538929  0.063748  1
  Fe  Fe8  1  0.750000  0.961980  0.567179  1
  P  P9  1  0.250000  0.431340  0.104146  1
  P  P10  1  0.250000  0.069391  0.605525  1
  P  P11  1  0.750000  0.559076  0.889398  1
  P  P12  1  0.750000  0.930548  0.395759  1
  P  P13  1  0.250000  0.278763  0.863818  1
  P  P14  1  0.250000  0.227056  0.371818  1
  P  P15  1  0.750000  0.727136  0.128023  1
  P  P16  1  0.750000  0.772331  0.629900  1
  P  P17  1  0.250000  0.602790  0.390993  1
  P  P18  1  0.250000  0.896978  0.890705  1
  P  P19  1  0.750000  0.396093  0.619290  1
  P  P20  1  0.750000  0.105927  0.108488  1
  Rh  Rh21  1  0.250000  0.715758  0.991473  1
  Rh  Rh22  1  0.250000  0.783403  0.491966  1
  Rh  Rh23  1  0.750000  0.287866  0.006689  1
  Rh  Rh24  1  0.750000  0.217316  0.510668  1
  Rh  Rh25  1  0.250000  0.408089  0.482124  1
  Rh  Rh26  1  0.250000  0.094770  0.980455  1
  Rh  Rh27  1  0.750000  0.590000  0.518843  1
  Rh  Rh28  1  0.750000  0.910053  0.016001  1
  Rh  Rh29  1  0.250000  0.229931  0.173794  1
  Rh  Rh30  1  0.250000  0.272651  0.674955  1
  Rh  Rh31  1  0.750000  0.766522  0.826356  1
  Rh  Rh32  1  0.750000  0.729763  0.325582  1
  Rh  Rh33  1  0.250000  0.880301  0.701129  1
  Rh  Rh34  1  0.250000  0.619193  0.199790  1
  Rh  Rh35  1  0.750000  0.119795  0.300534  1
