# generated using pymatgen
data_Ca16Al5In
_symmetry_space_group_name_H-M   'P 1'
_cell_length_a   9.46332860
_cell_length_b   9.59345969
_cell_length_c   9.62997673
_cell_angle_alpha   98.92750926
_cell_angle_beta   101.31188453
_cell_angle_gamma   119.91108263
_symmetry_Int_Tables_number   1
_chemical_formula_structural   Ca16Al5In
_chemical_formula_sum   'Ca16 Al5 In1'
_cell_volume   709.41220043
_cell_formula_units_Z   1
loop_
 _symmetry_equiv_pos_site_id
 _symmetry_equiv_pos_as_xyz
  1  'x, y, z'
loop_
 _atom_site_type_symbol
 _atom_site_label
 _atom_site_symmetry_multiplicity
 _atom_site_fract_x
 _atom_site_fract_y
 _atom_site_fract_z
 _atom_site_occupancy
  Ca  Ca0  1  0.921672  0.770924  0.393382  1
  Ca  Ca1  1  0.702026  0.499746  0.609158  1
  Ca  Ca2  1  0.468382  0.300393  0.849241  1
  Ca  Ca3  1  0.531618  0.699607  0.150759  1
  Ca  Ca4  1  0.118163  0.596331  0.850792  1
  Ca  Ca5  1  0.297974  0.500254  0.390842  1
  Ca  Ca6  1  0.332791  0.877735  0.607794  1
  Ca  Ca7  1  0.078328  0.229076  0.606618  1
  Ca  Ca8  1  0.667209  0.122265  0.392206  1
  Ca  Ca9  1  0.881837  0.403669  0.149208  1
  Ca  Ca10  1  0.457690  0.292508  0.203671  1
  Ca  Ca11  1  0.775700  0.154527  0.798259  1
  Ca  Ca12  1  0.041108  0.939409  0.830749  1
  Ca  Ca13  1  0.958892  0.060591  0.169251  1
  Ca  Ca14  1  0.542310  0.707492  0.796329  1
  Ca  Ca15  1  0.224300  0.845473  0.201741  1
  Al  Al16  1  0.825772  0.662304  0.000567  1
  Al  Al17  1  0.676942  0.840664  0.526872  1
  Al  Al18  1  0.000000  0.500000  0.500000  1
  Al  Al19  1  0.174228  0.337696  0.999433  1
  Al  Al20  1  0.323058  0.159336  0.473128  1
  In  In21  1  0.500000  0.000000  0.000000  1
