# generated using pymatgen
data_TbZr4Co19(SiP3)3
_symmetry_space_group_name_H-M   'P 1'
_cell_length_a   11.90971400
_cell_length_b   11.90971324
_cell_length_c   3.64008200
_cell_angle_alpha   90.00000000
_cell_angle_beta   90.00000000
_cell_angle_gamma   120.00000211
_symmetry_Int_Tables_number   1
_chemical_formula_structural   TbZr4Co19(SiP3)3
_chemical_formula_sum   'Tb1 Zr4 Co19 Si3 P9'
_cell_volume   447.14093110
_cell_formula_units_Z   1
loop_
 _symmetry_equiv_pos_site_id
 _symmetry_equiv_pos_as_xyz
  1  'x, y, z'
loop_
 _atom_site_type_symbol
 _atom_site_label
 _atom_site_symmetry_multiplicity
 _atom_site_fract_x
 _atom_site_fract_y
 _atom_site_fract_z
 _atom_site_occupancy
  Tb  Tb0  1  0.666667  0.333333  0.000000  1
  Zr  Zr1  1  0.333333  0.666667  0.000000  1
  Zr  Zr2  1  0.182630  0.999877  0.500000  1
  Zr  Zr3  1  0.000123  0.182753  0.500000  1
  Zr  Zr4  1  0.817247  0.817370  0.500000  1
  Co  Co5  1  0.201237  0.377289  0.000000  1
  Co  Co6  1  0.622711  0.823948  0.000000  1
  Co  Co7  1  0.176052  0.798763  0.000000  1
  Co  Co8  1  0.827280  0.628097  0.000000  1
  Co  Co9  1  0.800817  0.172720  0.000000  1
  Co  Co10  1  0.371903  0.199183  0.000000  1
  Co  Co11  1  0.554946  0.000625  0.000000  1
  Co  Co12  1  0.999375  0.554321  0.000000  1
  Co  Co13  1  0.445679  0.445054  0.000000  1
  Co  Co14  1  0.129309  0.485980  0.500000  1
  Co  Co15  1  0.514020  0.643329  0.500000  1
  Co  Co16  1  0.356671  0.870691  0.500000  1
  Co  Co17  1  0.643895  0.518042  0.500000  1
  Co  Co18  1  0.874147  0.356105  0.500000  1
  Co  Co19  1  0.481958  0.125853  0.500000  1
  Co  Co20  1  0.715540  0.997471  0.500000  1
  Co  Co21  1  0.002529  0.718069  0.500000  1
  Co  Co22  1  0.281931  0.284460  0.500000  1
  Co  Co23  1  0.000000  0.000000  0.000000  1
  Si  Si24  1  0.363332  0.999898  0.000000  1
  Si  Si25  1  0.000102  0.363434  0.000000  1
  Si  Si26  1  0.636566  0.636668  0.000000  1
  P  P27  1  0.315451  0.482694  0.500000  1
  P  P28  1  0.517306  0.832758  0.500000  1
  P  P29  1  0.167242  0.684549  0.500000  1
  P  P30  1  0.836910  0.521738  0.500000  1
  P  P31  1  0.684829  0.163090  0.500000  1
  P  P32  1  0.478262  0.315171  0.500000  1
  P  P33  1  0.822329  0.998210  0.000000  1
  P  P34  1  0.001790  0.824118  0.000000  1
  P  P35  1  0.175882  0.177671  0.000000  1
