# generated using pymatgen
data_Tb5Dy3(InIr)2
_symmetry_space_group_name_H-M   'P 1'
_cell_length_a   9.68929402
_cell_length_b   9.70771691
_cell_length_c   9.70722012
_cell_angle_alpha   59.99418097
_cell_angle_beta   59.95145724
_cell_angle_gamma   59.95015548
_symmetry_Int_Tables_number   1
_chemical_formula_structural   Tb5Dy3(InIr)2
_chemical_formula_sum   'Tb10 Dy6 In4 Ir4'
_cell_volume   645.12922718
_cell_formula_units_Z   2
loop_
 _symmetry_equiv_pos_site_id
 _symmetry_equiv_pos_as_xyz
  1  'x, y, z'
loop_
 _atom_site_type_symbol
 _atom_site_label
 _atom_site_symmetry_multiplicity
 _atom_site_fract_x
 _atom_site_fract_y
 _atom_site_fract_z
 _atom_site_occupancy
  Tb  Tb0  1  0.099276  0.099176  0.099142  1
  Tb  Tb1  1  0.559173  0.559265  0.940899  1
  Tb  Tb2  1  0.099071  0.099378  0.702437  1
  Tb  Tb3  1  0.689434  0.310444  0.689499  1
  Tb  Tb4  1  0.689645  0.689484  0.310363  1
  Tb  Tb5  1  0.689409  0.310473  0.310503  1
  Tb  Tb6  1  0.310294  0.689553  0.689700  1
  Tb  Tb7  1  0.559320  0.940811  0.559285  1
  Tb  Tb8  1  0.702323  0.099229  0.099132  1
  Tb  Tb9  1  0.559247  0.940745  0.940754  1
  Dy  Dy10  1  0.099023  0.702734  0.099243  1
  Dy  Dy11  1  0.940947  0.940476  0.559263  1
  Dy  Dy12  1  0.940994  0.559255  0.940580  1
  Dy  Dy13  1  0.310303  0.689506  0.310305  1
  Dy  Dy14  1  0.941150  0.559242  0.559103  1
  Dy  Dy15  1  0.310331  0.310358  0.689541  1
  In  In16  1  0.332464  0.333366  0.333199  1
  In  In17  1  0.001750  0.332871  0.332697  1
  In  In18  1  0.332521  0.001317  0.332991  1
  In  In19  1  0.332505  0.333127  0.001225  1
  Ir  Ir20  1  0.891726  0.890701  0.891214  1
  Ir  Ir21  1  0.891911  0.890672  0.326277  1
  Ir  Ir22  1  0.325533  0.891228  0.891748  1
  Ir  Ir23  1  0.891650  0.326589  0.890899  1
