# generated using pymatgen
data_Nd5MnReO12
_symmetry_space_group_name_H-M   'P 1'
_cell_length_a   7.06586929
_cell_length_b   7.06586842
_cell_length_c   7.59031734
_cell_angle_alpha   74.45258849
_cell_angle_beta   74.45259330
_cell_angle_gamma   51.74510645
_symmetry_Int_Tables_number   1
_chemical_formula_structural   Nd5MnReO12
_chemical_formula_sum   'Nd5 Mn1 Re1 O12'
_cell_volume   284.07150750
_cell_formula_units_Z   1
loop_
 _symmetry_equiv_pos_site_id
 _symmetry_equiv_pos_as_xyz
  1  'x, y, z'
loop_
 _atom_site_type_symbol
 _atom_site_label
 _atom_site_symmetry_multiplicity
 _atom_site_fract_x
 _atom_site_fract_y
 _atom_site_fract_z
 _atom_site_occupancy
  Nd  Nd0  1  0.293023  0.316784  0.358302  1
  Nd  Nd1  1  0.683216  0.706977  0.641698  1
  Nd  Nd2  1  0.693435  0.692416  0.167201  1
  Nd  Nd3  1  0.307584  0.306565  0.832799  1
  Nd  Nd4  1  0.988473  0.011527  0.500000  1
  Mn  Mn5  1  0.253747  0.746253  0.000000  1
  Re  Re6  1  0.765443  0.234557  0.000000  1
  O  O7  1  0.088461  0.601316  0.579776  1
  O  O8  1  0.979590  0.019316  0.177109  1
  O  O9  1  0.398684  0.911539  0.420224  1
  O  O10  1  0.532133  0.470245  0.178686  1
  O  O11  1  0.102872  0.569025  0.079696  1
  O  O12  1  0.898064  0.407256  0.426590  1
  O  O13  1  0.980684  0.020410  0.822891  1
  O  O14  1  0.592744  0.101935  0.573410  1
  O  O15  1  0.529755  0.467867  0.821314  1
  O  O16  1  0.584798  0.103682  0.079531  1
  O  O17  1  0.430975  0.897128  0.920304  1
  O  O18  1  0.896318  0.415202  0.920469  1
