# generated using pymatgen
data_Tb7Dy3(SiBi2)2
_symmetry_space_group_name_H-M   'P 1'
_cell_length_a   12.13660000
_cell_length_b   9.20539701
_cell_length_c   8.08455701
_cell_angle_alpha   90.00472517
_cell_angle_beta   90.00000000
_cell_angle_gamma   90.00000000
_symmetry_Int_Tables_number   1
_chemical_formula_structural   Tb7Dy3(SiBi2)2
_chemical_formula_sum   'Tb14 Dy6 Si4 Bi8'
_cell_volume   903.22466417
_cell_formula_units_Z   2
loop_
 _symmetry_equiv_pos_site_id
 _symmetry_equiv_pos_as_xyz
  1  'x, y, z'
loop_
 _atom_site_type_symbol
 _atom_site_label
 _atom_site_symmetry_multiplicity
 _atom_site_fract_x
 _atom_site_fract_y
 _atom_site_fract_z
 _atom_site_occupancy
  Tb  Tb0  1  0.936595  0.051819  0.180095  1
  Tb  Tb1  1  0.436595  0.448181  0.319905  1
  Tb  Tb2  1  0.936624  0.448219  0.180115  1
  Tb  Tb3  1  0.436624  0.051781  0.319885  1
  Tb  Tb4  1  0.063401  0.948063  0.819843  1
  Tb  Tb5  1  0.563401  0.551937  0.680157  1
  Tb  Tb6  1  0.211525  0.749954  0.165041  1
  Tb  Tb7  1  0.711525  0.750046  0.334959  1
  Tb  Tb8  1  0.788435  0.249985  0.834876  1
  Tb  Tb9  1  0.288435  0.250015  0.665124  1
  Tb  Tb10  1  0.295321  0.750009  0.635559  1
  Tb  Tb11  1  0.795321  0.749991  0.864441  1
  Tb  Tb12  1  0.704650  0.249986  0.364548  1
  Tb  Tb13  1  0.204650  0.250014  0.135452  1
  Dy  Dy14  1  0.063370  0.551903  0.820115  1
  Dy  Dy15  1  0.563370  0.948097  0.679885  1
  Dy  Dy16  1  0.001050  0.750009  0.459882  1
  Dy  Dy17  1  0.501050  0.749991  0.040118  1
  Dy  Dy18  1  0.998959  0.250029  0.540230  1
  Dy  Dy19  1  0.498959  0.249971  0.959770  1
  Si  Si20  1  0.479901  0.750197  0.414037  1
  Si  Si21  1  0.979901  0.749803  0.085963  1
  Si  Si22  1  0.520236  0.249672  0.586197  1
  Si  Si23  1  0.020236  0.250328  0.913803  1
  Bi  Bi24  1  0.325962  0.510967  0.931888  1
  Bi  Bi25  1  0.825962  0.989033  0.568112  1
  Bi  Bi26  1  0.673925  0.010907  0.067971  1
  Bi  Bi27  1  0.173925  0.489093  0.432029  1
  Bi  Bi28  1  0.673969  0.489100  0.068054  1
  Bi  Bi29  1  0.173969  0.010900  0.431946  1
  Bi  Bi30  1  0.326078  0.989033  0.931959  1
  Bi  Bi31  1  0.826078  0.510967  0.568041  1
