# generated using pymatgen
data_Li3Nd3Sn2Pb
_symmetry_space_group_name_H-M   'P 1'
_cell_length_a   7.54244900
_cell_length_b   7.54244973
_cell_length_c   4.75753100
_cell_angle_alpha   90.00000000
_cell_angle_beta   90.00000000
_cell_angle_gamma   120.00000117
_symmetry_Int_Tables_number   1
_chemical_formula_structural   Li3Nd3Sn2Pb
_chemical_formula_sum   'Li3 Nd3 Sn2 Pb1'
_cell_volume   234.38891046
_cell_formula_units_Z   1
loop_
 _symmetry_equiv_pos_site_id
 _symmetry_equiv_pos_as_xyz
  1  'x, y, z'
loop_
 _atom_site_type_symbol
 _atom_site_label
 _atom_site_symmetry_multiplicity
 _atom_site_fract_x
 _atom_site_fract_y
 _atom_site_fract_z
 _atom_site_occupancy
  Li  Li0  1  0.767645  0.000000  0.500000  1
  Li  Li1  1  0.232355  0.232354  0.500000  1
  Li  Li2  1  0.000000  0.767644  0.500000  1
  Nd  Nd3  1  0.438740  0.000000  0.000000  1
  Nd  Nd4  1  0.000000  0.438740  0.000000  1
  Nd  Nd5  1  0.561259  0.561259  0.000000  1
  Sn  Sn6  1  0.666667  0.333334  0.500000  1
  Sn  Sn7  1  0.333333  0.666666  0.500000  1
  Pb  Pb8  1  0.000000  0.000000  0.000000  1
