# generated using pymatgen
data_Tb10FeNiSb4
_symmetry_space_group_name_H-M   'P 1'
_cell_length_a   7.92369100
_cell_length_b   8.79712600
_cell_length_c   12.22812600
_cell_angle_alpha   90.00000000
_cell_angle_beta   90.00000000
_cell_angle_gamma   90.00000000
_symmetry_Int_Tables_number   1
_chemical_formula_structural   Tb10FeNiSb4
_chemical_formula_sum   'Tb20 Fe2 Ni2 Sb8'
_cell_volume   852.37018171
_cell_formula_units_Z   2
loop_
 _symmetry_equiv_pos_site_id
 _symmetry_equiv_pos_as_xyz
  1  'x, y, z'
loop_
 _atom_site_type_symbol
 _atom_site_label
 _atom_site_symmetry_multiplicity
 _atom_site_fract_x
 _atom_site_fract_y
 _atom_site_fract_z
 _atom_site_occupancy
  Tb  Tb0  1  0.153588  0.750000  0.202542  1
  Tb  Tb1  1  0.653588  0.250000  0.297458  1
  Tb  Tb2  1  0.843255  0.250000  0.793071  1
  Tb  Tb3  1  0.343255  0.750000  0.706929  1
  Tb  Tb4  1  0.454485  0.750000  0.998716  1
  Tb  Tb5  1  0.954485  0.250000  0.501284  1
  Tb  Tb6  1  0.542047  0.250000  0.003304  1
  Tb  Tb7  1  0.042047  0.750000  0.496696  1
  Tb  Tb8  1  0.624593  0.750000  0.303865  1
  Tb  Tb9  1  0.124593  0.250000  0.196135  1
  Tb  Tb10  1  0.377334  0.250000  0.695119  1
  Tb  Tb11  1  0.877334  0.750000  0.804881  1
  Tb  Tb12  1  0.820048  0.959539  0.064299  1
  Tb  Tb13  1  0.320048  0.040461  0.435701  1
  Tb  Tb14  1  0.180157  0.468758  0.934375  1
  Tb  Tb15  1  0.680157  0.531242  0.565625  1
  Tb  Tb16  1  0.180157  0.031242  0.934375  1
  Tb  Tb17  1  0.680157  0.968758  0.565625  1
  Tb  Tb18  1  0.820048  0.540461  0.064299  1
  Tb  Tb19  1  0.320048  0.459539  0.435701  1
  Fe  Fe20  1  0.570908  0.250000  0.511857  1
  Fe  Fe21  1  0.070908  0.750000  0.988143  1
  Ni  Ni22  1  0.432004  0.750000  0.490120  1
  Ni  Ni23  1  0.932004  0.250000  0.009880  1
  Sb  Sb24  1  0.927545  0.992171  0.325957  1
  Sb  Sb25  1  0.427545  0.007829  0.174043  1
  Sb  Sb26  1  0.073143  0.492273  0.672367  1
  Sb  Sb27  1  0.573143  0.507727  0.827633  1
  Sb  Sb28  1  0.073143  0.007727  0.672367  1
  Sb  Sb29  1  0.573143  0.992273  0.827633  1
  Sb  Sb30  1  0.927545  0.507829  0.325957  1
  Sb  Sb31  1  0.427545  0.492171  0.174043  1
