# generated using pymatgen
data_Ho8ErMg(SiB4)4
_symmetry_space_group_name_H-M   'P 1'
_cell_length_a   7.16608200
_cell_length_b   7.16608200
_cell_length_c   7.96587900
_cell_angle_alpha   90.00000000
_cell_angle_beta   90.00000000
_cell_angle_gamma   90.00000000
_symmetry_Int_Tables_number   1
_chemical_formula_structural   Ho8ErMg(SiB4)4
_chemical_formula_sum   'Ho8 Er1 Mg1 Si4 B16'
_cell_volume   409.06964330
_cell_formula_units_Z   1
loop_
 _symmetry_equiv_pos_site_id
 _symmetry_equiv_pos_as_xyz
  1  'x, y, z'
loop_
 _atom_site_type_symbol
 _atom_site_label
 _atom_site_symmetry_multiplicity
 _atom_site_fract_x
 _atom_site_fract_y
 _atom_site_fract_z
 _atom_site_occupancy
  Ho  Ho0  1  0.681777  0.179812  0.227758  1
  Ho  Ho1  1  0.318223  0.820188  0.772242  1
  Ho  Ho2  1  0.318223  0.820188  0.227758  1
  Ho  Ho3  1  0.820188  0.681777  0.227758  1
  Ho  Ho4  1  0.820188  0.681777  0.772242  1
  Ho  Ho5  1  0.681777  0.179812  0.772242  1
  Ho  Ho6  1  0.179812  0.318223  0.772242  1
  Ho  Ho7  1  0.179812  0.318223  0.227758  1
  Er  Er8  1  0.500000  0.500000  0.500000  1
  Mg  Mg9  1  0.000000  0.000000  0.500000  1
  Si  Si10  1  0.115546  0.616192  0.500000  1
  Si  Si11  1  0.884454  0.383808  0.500000  1
  Si  Si12  1  0.383808  0.115546  0.500000  1
  Si  Si13  1  0.616192  0.884454  0.500000  1
  B  B14  1  0.174322  0.038562  0.000000  1
  B  B15  1  0.825678  0.961438  0.000000  1
  B  B16  1  0.961438  0.174322  0.000000  1
  B  B17  1  0.327088  0.539729  0.000000  1
  B  B18  1  0.038562  0.825678  0.000000  1
  B  B19  1  0.672912  0.460271  0.000000  1
  B  B20  1  0.539729  0.672912  0.000000  1
  B  B21  1  0.460271  0.327088  0.000000  1
  B  B22  1  0.089190  0.588359  0.000000  1
  B  B23  1  0.910810  0.411641  0.000000  1
  B  B24  1  0.411641  0.089190  0.000000  1
  B  B25  1  0.588359  0.910810  0.000000  1
  B  B26  1  0.000000  0.000000  0.160062  1
  B  B27  1  0.000000  0.000000  0.839938  1
  B  B28  1  0.500000  0.500000  0.836168  1
  B  B29  1  0.500000  0.500000  0.163832  1
