# generated using pymatgen
data_Ac4Zn2P5
_symmetry_space_group_name_H-M   'P 1'
_cell_length_a   4.34186600
_cell_length_b   4.34186751
_cell_length_c   17.98120700
_cell_angle_alpha   90.00000000
_cell_angle_beta   90.00000000
_cell_angle_gamma   119.99998849
_symmetry_Int_Tables_number   1
_chemical_formula_structural   Ac4Zn2P5
_chemical_formula_sum   'Ac4 Zn2 P5'
_cell_volume   293.56380343
_cell_formula_units_Z   1
loop_
 _symmetry_equiv_pos_site_id
 _symmetry_equiv_pos_as_xyz
  1  'x, y, z'
loop_
 _atom_site_type_symbol
 _atom_site_label
 _atom_site_symmetry_multiplicity
 _atom_site_fract_x
 _atom_site_fract_y
 _atom_site_fract_z
 _atom_site_occupancy
  Ac  Ac0  1  0.666667  0.333333  0.897986  1
  Ac  Ac1  1  0.333333  0.666667  0.102014  1
  Ac  Ac2  1  0.000000  0.000000  0.695786  1
  Ac  Ac3  1  0.000000  0.000000  0.304214  1
  Zn  Zn4  1  0.666667  0.333333  0.447841  1
  Zn  Zn5  1  0.333333  0.666667  0.552159  1
  P  P6  1  0.666667  0.333333  0.585266  1
  P  P7  1  0.333333  0.666667  0.414734  1
  P  P8  1  0.666667  0.333333  0.206726  1
  P  P9  1  0.333333  0.666667  0.793274  1
  P  P10  1  0.000000  0.000000  0.000000  1
