# generated using pymatgen
data_LuI9
_symmetry_space_group_name_H-M   'P 1'
_cell_length_a   10.30250734
_cell_length_b   10.32006900
_cell_length_c   10.30765959
_cell_angle_alpha   89.27525274
_cell_angle_beta   89.40663269
_cell_angle_gamma   89.25675218
_symmetry_Int_Tables_number   1
_chemical_formula_structural   LuI9
_chemical_formula_sum   'Lu2 I18'
_cell_volume   1095.70022168
_cell_formula_units_Z   2
loop_
 _symmetry_equiv_pos_site_id
 _symmetry_equiv_pos_as_xyz
  1  'x, y, z'
loop_
 _atom_site_type_symbol
 _atom_site_label
 _atom_site_symmetry_multiplicity
 _atom_site_fract_x
 _atom_site_fract_y
 _atom_site_fract_z
 _atom_site_occupancy
  Lu  Lu0  1  0.500000  0.500000  0.500000  1
  Lu  Lu1  1  0.000000  0.000000  0.000000  1
  I  I2  1  0.788788  0.465452  0.502744  1
  I  I3  1  0.501554  0.788189  0.465169  1
  I  I4  1  0.465557  0.502543  0.788665  1
  I  I5  1  0.211212  0.534548  0.497256  1
  I  I6  1  0.498446  0.211811  0.534831  1
  I  I7  1  0.534443  0.497457  0.211335  1
  I  I8  1  0.895539  0.373527  0.751766  1
  I  I9  1  0.750348  0.894494  0.373496  1
  I  I10  1  0.373730  0.750836  0.895677  1
  I  I11  1  0.104461  0.626473  0.248234  1
  I  I12  1  0.249652  0.105506  0.626504  1
  I  I13  1  0.626270  0.249164  0.104323  1
  I  I14  1  0.011169  0.974220  0.711144  1
  I  I15  1  0.711114  0.011324  0.972242  1
  I  I16  1  0.972593  0.711486  0.009564  1
  I  I17  1  0.988831  0.025780  0.288856  1
  I  I18  1  0.288886  0.988676  0.027758  1
  I  I19  1  0.027407  0.288514  0.990436  1
