# generated using pymatgen
data_CsRb3UInBr12
_symmetry_space_group_name_H-M   'P 1'
_cell_length_a   7.81661241
_cell_length_b   7.79548736
_cell_length_c   11.73453600
_cell_angle_alpha   90.00000000
_cell_angle_beta   90.00000000
_cell_angle_gamma   89.96392567
_symmetry_Int_Tables_number   1
_chemical_formula_structural   CsRb3UInBr12
_chemical_formula_sum   'Cs1 Rb3 U1 In1 Br12'
_cell_volume   715.03563367
_cell_formula_units_Z   1
loop_
 _symmetry_equiv_pos_site_id
 _symmetry_equiv_pos_as_xyz
  1  'x, y, z'
loop_
 _atom_site_type_symbol
 _atom_site_label
 _atom_site_symmetry_multiplicity
 _atom_site_fract_x
 _atom_site_fract_y
 _atom_site_fract_z
 _atom_site_occupancy
  Cs  Cs0  1  0.500000  0.000000  0.784196  1
  Rb  Rb1  1  0.500000  0.000000  0.195969  1
  Rb  Rb2  1  0.000000  0.500000  0.202196  1
  Rb  Rb3  1  0.000000  0.500000  0.806715  1
  U  U4  1  0.500000  0.500000  0.497984  1
  In  In5  1  0.000000  0.000000  0.004014  1
  Br  Br6  1  0.754665  0.246536  0.002943  1
  Br  Br7  1  0.245335  0.753464  0.002943  1
  Br  Br8  1  0.500000  0.500000  0.266537  1
  Br  Br9  1  0.321097  0.205011  0.496281  1
  Br  Br10  1  0.246745  0.247750  0.003335  1
  Br  Br11  1  0.795490  0.321498  0.499843  1
  Br  Br12  1  0.000000  0.000000  0.236035  1
  Br  Br13  1  0.678903  0.794989  0.496281  1
  Br  Br14  1  0.204510  0.678502  0.499843  1
  Br  Br15  1  0.500000  0.500000  0.730609  1
  Br  Br16  1  0.753255  0.752250  0.003335  1
  Br  Br17  1  0.000000  0.000000  0.770944  1
