# generated using pymatgen
data_Tb2ErLuPt2
_symmetry_space_group_name_H-M   'P 1'
_cell_length_a   4.76072500
_cell_length_b   7.12594600
_cell_length_c   8.70920600
_cell_angle_alpha   90.00000000
_cell_angle_beta   90.00000000
_cell_angle_gamma   90.00000000
_symmetry_Int_Tables_number   1
_chemical_formula_structural   Tb2ErLuPt2
_chemical_formula_sum   'Tb4 Er2 Lu2 Pt4'
_cell_volume   295.45693316
_cell_formula_units_Z   2
loop_
 _symmetry_equiv_pos_site_id
 _symmetry_equiv_pos_as_xyz
  1  'x, y, z'
loop_
 _atom_site_type_symbol
 _atom_site_label
 _atom_site_symmetry_multiplicity
 _atom_site_fract_x
 _atom_site_fract_y
 _atom_site_fract_z
 _atom_site_occupancy
  Tb  Tb0  1  0.750000  0.490295  0.831648  1
  Tb  Tb1  1  0.250000  0.011016  0.327448  1
  Tb  Tb2  1  0.750000  0.990295  0.668352  1
  Tb  Tb3  1  0.250000  0.511016  0.172552  1
  Er  Er4  1  0.250000  0.643674  0.579204  1
  Er  Er5  1  0.250000  0.143674  0.920796  1
  Lu  Lu6  1  0.750000  0.356627  0.421716  1
  Lu  Lu7  1  0.750000  0.856627  0.078284  1
  Pt  Pt8  1  0.250000  0.745330  0.910352  1
  Pt  Pt9  1  0.250000  0.245330  0.589648  1
  Pt  Pt10  1  0.750000  0.753060  0.404370  1
  Pt  Pt11  1  0.750000  0.253060  0.095630  1
