# generated using pymatgen
data_Ho3Hf2Pb3S
_symmetry_space_group_name_H-M   'P 1'
_cell_length_a   8.96732500
_cell_length_b   8.96732403
_cell_length_c   6.24066700
_cell_angle_alpha   90.00000000
_cell_angle_beta   90.00000000
_cell_angle_gamma   119.99999251
_symmetry_Int_Tables_number   1
_chemical_formula_structural   Ho3Hf2Pb3S
_chemical_formula_sum   'Ho6 Hf4 Pb6 S2'
_cell_volume   434.59772339
_cell_formula_units_Z   2
loop_
 _symmetry_equiv_pos_site_id
 _symmetry_equiv_pos_as_xyz
  1  'x, y, z'
loop_
 _atom_site_type_symbol
 _atom_site_label
 _atom_site_symmetry_multiplicity
 _atom_site_fract_x
 _atom_site_fract_y
 _atom_site_fract_z
 _atom_site_occupancy
  Ho  Ho0  1  0.000000  0.248261  0.250000  1
  Ho  Ho1  1  0.751739  0.000000  0.750000  1
  Ho  Ho2  1  0.248261  0.248261  0.750000  1
  Ho  Ho3  1  0.000000  0.751739  0.750000  1
  Ho  Ho4  1  0.751739  0.751739  0.250000  1
  Ho  Ho5  1  0.248261  0.000000  0.250000  1
  Hf  Hf6  1  0.666667  0.333333  0.000000  1
  Hf  Hf7  1  0.333333  0.666667  0.500000  1
  Hf  Hf8  1  0.333333  0.666667  0.000000  1
  Hf  Hf9  1  0.666667  0.333333  0.500000  1
  Pb  Pb10  1  0.600878  0.600878  0.750000  1
  Pb  Pb11  1  0.399122  0.000000  0.750000  1
  Pb  Pb12  1  0.000000  0.600878  0.250000  1
  Pb  Pb13  1  0.399122  0.399122  0.250000  1
  Pb  Pb14  1  0.000000  0.399122  0.750000  1
  Pb  Pb15  1  0.600878  0.000000  0.250000  1
  S  S16  1  0.000000  0.000000  0.000000  1
  S  S17  1  0.000000  0.000000  0.500000  1
