# generated using pymatgen
data_Ba5Gd4Y4Ni4O21
_symmetry_space_group_name_H-M   'P 1'
_cell_length_a   10.24541924
_cell_length_b   10.24541881
_cell_length_c   10.24541900
_cell_angle_alpha   94.53610534
_cell_angle_beta   94.53610117
_cell_angle_gamma   147.33338544
_symmetry_Int_Tables_number   1
_chemical_formula_structural   Ba5Gd4Y4Ni4O21
_chemical_formula_sum   'Ba5 Gd4 Y4 Ni4 O21'
_cell_volume   557.04590575
_cell_formula_units_Z   1
loop_
 _symmetry_equiv_pos_site_id
 _symmetry_equiv_pos_as_xyz
  1  'x, y, z'
loop_
 _atom_site_type_symbol
 _atom_site_label
 _atom_site_symmetry_multiplicity
 _atom_site_fract_x
 _atom_site_fract_y
 _atom_site_fract_z
 _atom_site_occupancy
  Ba  Ba0  1  0.000000  0.000000  0.000000  1
  Ba  Ba1  1  0.138113  0.534895  0.673007  1
  Ba  Ba2  1  0.861887  0.465105  0.326993  1
  Ba  Ba3  1  0.465105  0.138113  0.603219  1
  Ba  Ba4  1  0.534895  0.861887  0.396781  1
  Gd  Gd5  1  0.166524  0.249981  0.416505  1
  Gd  Gd6  1  0.833476  0.750019  0.583495  1
  Gd  Gd7  1  0.750019  0.166524  0.916544  1
  Gd  Gd8  1  0.249981  0.833476  0.083456  1
  Y  Y9  1  0.357884  0.411130  0.769014  1
  Y  Y10  1  0.642116  0.588870  0.230986  1
  Y  Y11  1  0.588870  0.357884  0.946753  1
  Y  Y12  1  0.411130  0.642116  0.053247  1
  Ni  Ni13  1  0.245919  0.040708  0.286628  1
  Ni  Ni14  1  0.754081  0.959292  0.713372  1
  Ni  Ni15  1  0.959292  0.245919  0.205210  1
  Ni  Ni16  1  0.040708  0.754081  0.794790  1
  O  O17  1  0.500000  0.500000  0.000000  1
  O  O18  1  0.964344  0.629671  0.594015  1
  O  O19  1  0.035656  0.370329  0.405985  1
  O  O20  1  0.370329  0.964344  0.334675  1
  O  O21  1  0.629671  0.035656  0.665325  1
  O  O22  1  0.295543  0.428122  0.224329  1
  O  O23  1  0.203793  0.071213  0.775671  1
  O  O24  1  0.071213  0.295543  0.867421  1
  O  O25  1  0.428122  0.203793  0.132579  1
  O  O26  1  0.704457  0.571878  0.775671  1
  O  O27  1  0.796207  0.928787  0.224329  1
  O  O28  1  0.928787  0.704457  0.132579  1
  O  O29  1  0.571878  0.796207  0.867421  1
  O  O30  1  0.496560  0.608723  0.596545  1
  O  O31  1  0.012180  0.900016  0.403455  1
  O  O32  1  0.900016  0.496560  0.887836  1
  O  O33  1  0.608723  0.012180  0.112164  1
  O  O34  1  0.503440  0.391277  0.403455  1
  O  O35  1  0.987820  0.099984  0.596545  1
  O  O36  1  0.099984  0.503440  0.112164  1
  O  O37  1  0.391277  0.987820  0.887836  1
