# generated using pymatgen
data_U3MoPb3O13
_symmetry_space_group_name_H-M   'P 1'
_cell_length_a   7.76148843
_cell_length_b   7.76148831
_cell_length_c   7.76148922
_cell_angle_alpha   62.53356988
_cell_angle_beta   62.53356912
_cell_angle_gamma   62.53356984
_symmetry_Int_Tables_number   1
_chemical_formula_structural   U3MoPb3O13
_chemical_formula_sum   'U3 Mo1 Pb3 O13'
_cell_volume   349.27525493
_cell_formula_units_Z   1
loop_
 _symmetry_equiv_pos_site_id
 _symmetry_equiv_pos_as_xyz
  1  'x, y, z'
loop_
 _atom_site_type_symbol
 _atom_site_label
 _atom_site_symmetry_multiplicity
 _atom_site_fract_x
 _atom_site_fract_y
 _atom_site_fract_z
 _atom_site_occupancy
  U  U0  1  0.999378  0.499644  0.499644  1
  U  U1  1  0.499644  0.499644  0.999378  1
  U  U2  1  0.499644  0.999378  0.499644  1
  Mo  Mo3  1  0.499213  0.499213  0.499213  1
  Pb  Pb4  1  0.479510  0.009070  0.009070  1
  Pb  Pb5  1  0.009070  0.009070  0.479510  1
  Pb  Pb6  1  0.009070  0.479510  0.009070  1
  O  O7  1  0.823486  0.426435  0.426435  1
  O  O8  1  0.441704  0.816966  0.816966  1
  O  O9  1  0.426435  0.426435  0.823486  1
  O  O10  1  0.816966  0.816966  0.441704  1
  O  O11  1  0.816966  0.441704  0.816966  1
  O  O12  1  0.426435  0.823486  0.426435  1
  O  O13  1  0.178669  0.568429  0.568429  1
  O  O14  1  0.556360  0.181818  0.181818  1
  O  O15  1  0.568429  0.568429  0.178669  1
  O  O16  1  0.181818  0.181818  0.556360  1
  O  O17  1  0.181818  0.556360  0.181818  1
  O  O18  1  0.568429  0.178669  0.568429  1
  O  O19  1  0.141956  0.141956  0.141956  1
