# generated using pymatgen
data_TbCe3(B4Mo)4
_symmetry_space_group_name_H-M   'P 1'
_cell_length_a   3.68819500
_cell_length_b   6.05606441
_cell_length_c   11.70851519
_cell_angle_alpha   89.93500850
_cell_angle_beta   90.00000000
_cell_angle_gamma   90.00000000
_symmetry_Int_Tables_number   1
_chemical_formula_structural   TbCe3(B4Mo)4
_chemical_formula_sum   'Tb1 Ce3 B16 Mo4'
_cell_volume   261.52060055
_cell_formula_units_Z   1
loop_
 _symmetry_equiv_pos_site_id
 _symmetry_equiv_pos_as_xyz
  1  'x, y, z'
loop_
 _atom_site_type_symbol
 _atom_site_label
 _atom_site_symmetry_multiplicity
 _atom_site_fract_x
 _atom_site_fract_y
 _atom_site_fract_z
 _atom_site_occupancy
  Tb  Tb0  1  0.000000  0.874377  0.849617  1
  Ce  Ce1  1  0.000000  0.625459  0.349221  1
  Ce  Ce2  1  0.000000  0.374507  0.651261  1
  Ce  Ce3  1  0.000000  0.125012  0.150368  1
  B  B4  1  0.500000  0.786784  0.184834  1
  B  B5  1  0.500000  0.214015  0.814676  1
  B  B6  1  0.500000  0.285834  0.314542  1
  B  B7  1  0.500000  0.713969  0.685727  1
  B  B8  1  0.500000  0.864825  0.032170  1
  B  B9  1  0.500000  0.135264  0.967686  1
  B  B10  1  0.500000  0.364281  0.467951  1
  B  B11  1  0.500000  0.635921  0.532304  1
  B  B12  1  0.500000  0.886274  0.453385  1
  B  B13  1  0.500000  0.113337  0.547256  1
  B  B14  1  0.500000  0.386439  0.046426  1
  B  B15  1  0.500000  0.614729  0.952715  1
  B  B16  1  0.500000  0.975213  0.307873  1
  B  B17  1  0.500000  0.024802  0.692592  1
  B  B18  1  0.500000  0.475337  0.191838  1
  B  B19  1  0.500000  0.523243  0.807810  1
  Mo  Mo20  1  0.000000  0.629872  0.084765  1
  Mo  Mo21  1  0.000000  0.370848  0.915224  1
  Mo  Mo22  1  0.000000  0.130613  0.414861  1
  Mo  Mo23  1  0.000000  0.869047  0.584899  1
