# generated using pymatgen
data_Tb3Dy(Al3Rh)6
_symmetry_space_group_name_H-M   'P 1'
_cell_length_a   7.56043597
_cell_length_b   7.56189114
_cell_length_c   9.49545500
_cell_angle_alpha   90.00000000
_cell_angle_beta   90.00000000
_cell_angle_gamma   119.32051697
_symmetry_Int_Tables_number   1
_chemical_formula_structural   Tb3Dy(Al3Rh)6
_chemical_formula_sum   'Tb3 Dy1 Al18 Rh6'
_cell_volume   473.32202793
_cell_formula_units_Z   1
loop_
 _symmetry_equiv_pos_site_id
 _symmetry_equiv_pos_as_xyz
  1  'x, y, z'
loop_
 _atom_site_type_symbol
 _atom_site_label
 _atom_site_symmetry_multiplicity
 _atom_site_fract_x
 _atom_site_fract_y
 _atom_site_fract_z
 _atom_site_occupancy
  Tb  Tb0  1  0.994294  0.672261  0.750000  1
  Tb  Tb1  1  0.005763  0.327975  0.250000  1
  Tb  Tb2  1  0.672289  0.994245  0.750000  1
  Dy  Dy3  1  0.328161  0.005753  0.250000  1
  Al  Al4  1  0.129206  0.129085  0.750000  1
  Al  Al5  1  0.871112  0.870987  0.250000  1
  Al  Al6  1  0.000828  0.335928  0.575371  1
  Al  Al7  1  0.999366  0.664259  0.424402  1
  Al  Al8  1  0.999366  0.664259  0.075598  1
  Al  Al9  1  0.335863  0.000666  0.925117  1
  Al  Al10  1  0.000828  0.335928  0.924629  1
  Al  Al11  1  0.663799  0.999170  0.075649  1
  Al  Al12  1  0.663799  0.999170  0.424351  1
  Al  Al13  1  0.335863  0.000666  0.574883  1
  Al  Al14  1  0.332776  0.332607  0.048089  1
  Al  Al15  1  0.667273  0.667267  0.952916  1
  Al  Al16  1  0.667273  0.667267  0.547084  1
  Al  Al17  1  0.332776  0.332607  0.451911  1
  Al  Al18  1  0.340297  0.550629  0.750000  1
  Al  Al19  1  0.659363  0.449662  0.250000  1
  Al  Al20  1  0.550515  0.340193  0.750000  1
  Al  Al21  1  0.449970  0.660215  0.250000  1
  Rh  Rh22  1  0.671690  0.327704  0.499777  1
  Rh  Rh23  1  0.327667  0.671675  0.499818  1
  Rh  Rh24  1  0.327667  0.671675  0.000182  1
  Rh  Rh25  1  0.671690  0.327704  0.000223  1
  Rh  Rh26  1  0.000253  0.000221  0.499645  1
  Rh  Rh27  1  0.000253  0.000221  0.000355  1
