# generated using pymatgen
data_CaDyHo2(Mo2O7)2
_symmetry_space_group_name_H-M   'P 1'
_cell_length_a   7.31714944
_cell_length_b   7.42027957
_cell_length_c   7.31715015
_cell_angle_alpha   60.44152882
_cell_angle_beta   59.98000608
_cell_angle_gamma   60.44152385
_symmetry_Int_Tables_number   1
_chemical_formula_structural   CaDyHo2(Mo2O7)2
_chemical_formula_sum   'Ca1 Dy1 Ho2 Mo4 O14'
_cell_volume   282.74111208
_cell_formula_units_Z   1
loop_
 _symmetry_equiv_pos_site_id
 _symmetry_equiv_pos_as_xyz
  1  'x, y, z'
loop_
 _atom_site_type_symbol
 _atom_site_label
 _atom_site_symmetry_multiplicity
 _atom_site_fract_x
 _atom_site_fract_y
 _atom_site_fract_z
 _atom_site_occupancy
  Ca  Ca0  1  0.125000  0.625000  0.125000  1
  Dy  Dy1  1  0.125000  0.125000  0.125000  1
  Ho  Ho2  1  0.625000  0.125000  0.125000  1
  Ho  Ho3  1  0.125000  0.125000  0.625000  1
  Mo  Mo4  1  0.125000  0.625000  0.625000  1
  Mo  Mo5  1  0.625000  0.125000  0.625000  1
  Mo  Mo6  1  0.625000  0.625000  0.125000  1
  Mo  Mo7  1  0.625000  0.625000  0.625000  1
  O  O8  1  0.695948  0.725848  0.289059  1
  O  O9  1  0.296868  0.285256  0.708660  1
  O  O10  1  0.709012  0.285168  0.709012  1
  O  O11  1  0.289264  0.725283  0.289264  1
  O  O12  1  0.289059  0.725848  0.695948  1
  O  O13  1  0.708660  0.285256  0.296868  1
  O  O14  1  0.554052  0.524152  0.960941  1
  O  O15  1  0.953132  0.964744  0.541340  1
  O  O16  1  0.540988  0.964832  0.540988  1
  O  O17  1  0.960736  0.524717  0.960736  1
  O  O18  1  0.960941  0.524152  0.554052  1
  O  O19  1  0.541340  0.964744  0.953132  1
  O  O20  1  0.253807  0.240432  0.253807  1
  O  O21  1  0.996193  0.009568  0.996193  1
