# generated using pymatgen
data_Ca3ErTh6(Si3C)2
_symmetry_space_group_name_H-M   'P 1'
_cell_length_a   8.78434600
_cell_length_b   8.78434618
_cell_length_c   6.38752900
_cell_angle_alpha   90.00000000
_cell_angle_beta   90.00000000
_cell_angle_gamma   119.99999932
_symmetry_Int_Tables_number   1
_chemical_formula_structural   Ca3ErTh6(Si3C)2
_chemical_formula_sum   'Ca3 Er1 Th6 Si6 C2'
_cell_volume   426.85698799
_cell_formula_units_Z   1
loop_
 _symmetry_equiv_pos_site_id
 _symmetry_equiv_pos_as_xyz
  1  'x, y, z'
loop_
 _atom_site_type_symbol
 _atom_site_label
 _atom_site_symmetry_multiplicity
 _atom_site_fract_x
 _atom_site_fract_y
 _atom_site_fract_z
 _atom_site_occupancy
  Ca  Ca0  1  0.666667  0.333333  0.000000  1
  Ca  Ca1  1  0.333333  0.666667  0.000000  1
  Ca  Ca2  1  0.333333  0.666667  0.500000  1
  Er  Er3  1  0.666667  0.333333  0.500000  1
  Th  Th4  1  0.764146  0.766014  0.750192  1
  Th  Th5  1  0.233986  0.998132  0.750192  1
  Th  Th6  1  0.001868  0.235854  0.750192  1
  Th  Th7  1  0.233986  0.235854  0.249808  1
  Th  Th8  1  0.764146  0.998132  0.249808  1
  Th  Th9  1  0.001868  0.766014  0.249808  1
  Si  Si10  1  0.400170  0.393100  0.741086  1
  Si  Si11  1  0.606900  0.007070  0.741086  1
  Si  Si12  1  0.992930  0.599830  0.741086  1
  Si  Si13  1  0.606900  0.599830  0.258914  1
  Si  Si14  1  0.400170  0.007070  0.258914  1
  Si  Si15  1  0.992930  0.393100  0.258914  1
  C  C16  1  0.000000  0.000000  0.000000  1
  C  C17  1  0.000000  0.000000  0.500000  1
