# generated using pymatgen
data_Sr2Ir(S2O7)4
_symmetry_space_group_name_H-M   'P 1'
_cell_length_a   13.24635700
_cell_length_b   7.09495065
_cell_length_c   13.59632100
_cell_angle_alpha   65.86382484
_cell_angle_beta   90.00000000
_cell_angle_gamma   90.00000000
_symmetry_Int_Tables_number   1
_chemical_formula_structural   Sr2Ir(S2O7)4
_chemical_formula_sum   'Sr4 Ir2 S16 O56'
_cell_volume   1166.10155675
_cell_formula_units_Z   2
loop_
 _symmetry_equiv_pos_site_id
 _symmetry_equiv_pos_as_xyz
  1  'x, y, z'
loop_
 _atom_site_type_symbol
 _atom_site_label
 _atom_site_symmetry_multiplicity
 _atom_site_fract_x
 _atom_site_fract_y
 _atom_site_fract_z
 _atom_site_occupancy
  Sr  Sr0  1  0.864747  0.141602  0.159229  1
  Sr  Sr1  1  0.635253  0.141602  0.659229  1
  Sr  Sr2  1  0.135253  0.858398  0.840771  1
  Sr  Sr3  1  0.364747  0.858398  0.340771  1
  Ir  Ir4  1  0.500000  0.500000  0.000000  1
  Ir  Ir5  1  0.000000  0.500000  0.500000  1
  S  S6  1  0.652249  0.209116  0.940892  1
  S  S7  1  0.847751  0.209116  0.440892  1
  S  S8  1  0.347751  0.790884  0.059108  1
  S  S9  1  0.152249  0.790884  0.559108  1
  S  S10  1  0.971657  0.684661  0.103168  1
  S  S11  1  0.528343  0.684661  0.603168  1
  S  S12  1  0.028343  0.315339  0.896832  1
  S  S13  1  0.471657  0.315339  0.396832  1
  S  S14  1  0.723148  0.619084  0.909488  1
  S  S15  1  0.776852  0.619084  0.409488  1
  S  S16  1  0.276852  0.380916  0.090512  1
  S  S17  1  0.223148  0.380916  0.590512  1
  S  S18  1  0.585553  0.234093  0.233045  1
  S  S19  1  0.914447  0.234093  0.733045  1
  S  S20  1  0.414447  0.765907  0.766955  1
  S  S21  1  0.085553  0.765907  0.266955  1
  O  O22  1  0.625750  0.131055  0.862494  1
  O  O23  1  0.874250  0.131055  0.362494  1
  O  O24  1  0.374250  0.868945  0.137506  1
  O  O25  1  0.125750  0.868945  0.637506  1
  O  O26  1  0.585095  0.278407  0.337260  1
  O  O27  1  0.914905  0.278407  0.837260  1
  O  O28  1  0.414905  0.721593  0.662740  1
  O  O29  1  0.085095  0.721593  0.162740  1
  O  O30  1  0.533081  0.044657  0.250887  1
  O  O31  1  0.966919  0.044657  0.750887  1
  O  O32  1  0.466919  0.955343  0.749113  1
  O  O33  1  0.033081  0.955343  0.249113  1
  O  O34  1  0.561252  0.232128  0.002480  1
  O  O35  1  0.938748  0.232128  0.502480  1
  O  O36  1  0.438748  0.767872  0.997520  1
  O  O37  1  0.061252  0.767872  0.497520  1
  O  O38  1  0.897429  0.807823  0.128401  1
  O  O39  1  0.602571  0.807823  0.628401  1
  O  O40  1  0.102571  0.192177  0.871599  1
  O  O41  1  0.397429  0.192177  0.371599  1
  O  O42  1  0.685279  0.452074  0.862519  1
  O  O43  1  0.814721  0.452074  0.362519  1
  O  O44  1  0.314721  0.547926  0.137481  1
  O  O45  1  0.185279  0.547926  0.637481  1
  O  O46  1  0.525190  0.423549  0.156031  1
  O  O47  1  0.974810  0.423549  0.656031  1
  O  O48  1  0.474810  0.576451  0.843969  1
  O  O49  1  0.025190  0.576451  0.343969  1
  O  O50  1  0.734684  0.112264  0.012849  1
  O  O51  1  0.765316  0.112264  0.512849  1
  O  O52  1  0.265316  0.887736  0.987151  1
  O  O53  1  0.234684  0.887736  0.487151  1
  O  O54  1  0.629952  0.654306  0.967966  1
  O  O55  1  0.870048  0.654306  0.467966  1
  O  O56  1  0.370048  0.345694  0.032034  1
  O  O57  1  0.129952  0.345694  0.532034  1
  O  O58  1  0.741460  0.801704  0.813717  1
  O  O59  1  0.758540  0.801704  0.313717  1
  O  O60  1  0.258540  0.198296  0.186283  1
  O  O61  1  0.241460  0.198296  0.686283  1
  O  O62  1  0.803793  0.529314  0.984639  1
  O  O63  1  0.696207  0.529314  0.484639  1
  O  O64  1  0.196207  0.470686  0.015361  1
  O  O65  1  0.303793  0.470686  0.515361  1
  O  O66  1  0.957496  0.463959  0.156740  1
  O  O67  1  0.542504  0.463959  0.656740  1
  O  O68  1  0.042504  0.536041  0.843260  1
  O  O69  1  0.457496  0.536041  0.343260  1
  O  O70  1  0.005942  0.763802  0.992926  1
  O  O71  1  0.494058  0.763802  0.492926  1
  O  O72  1  0.994058  0.236198  0.007074  1
  O  O73  1  0.505942  0.236198  0.507074  1
  O  O74  1  0.689958  0.248133  0.201027  1
  O  O75  1  0.810042  0.248133  0.701027  1
  O  O76  1  0.310042  0.751867  0.798973  1
  O  O77  1  0.189958  0.751867  0.298973  1
