# generated using pymatgen
data_MgZr(ZnPt)2
_symmetry_space_group_name_H-M   'P 1'
_cell_length_a   5.11588133
_cell_length_b   5.11588239
_cell_length_c   5.18772300
_cell_angle_alpha   90.00000000
_cell_angle_beta   90.00000000
_cell_angle_gamma   130.19039137
_symmetry_Int_Tables_number   1
_chemical_formula_structural   MgZr(ZnPt)2
_chemical_formula_sum   'Mg1 Zr1 Zn2 Pt2'
_cell_volume   103.71861916
_cell_formula_units_Z   1
loop_
 _symmetry_equiv_pos_site_id
 _symmetry_equiv_pos_as_xyz
  1  'x, y, z'
loop_
 _atom_site_type_symbol
 _atom_site_label
 _atom_site_symmetry_multiplicity
 _atom_site_fract_x
 _atom_site_fract_y
 _atom_site_fract_z
 _atom_site_occupancy
  Mg  Mg0  1  0.288031  0.711969  0.750000  1
  Zr  Zr1  1  0.711789  0.288211  0.250000  1
  Zn  Zn2  1  0.007560  0.992440  0.499478  1
  Zn  Zn3  1  0.007560  0.992440  0.000522  1
  Pt  Pt4  1  0.398248  0.601752  0.250000  1
  Pt  Pt5  1  0.586811  0.413189  0.750000  1
