# generated using pymatgen
data_SmDyHf2(MoO4)7
_symmetry_space_group_name_H-M   'P 1'
_cell_length_a   11.73622441
_cell_length_b   11.73756741
_cell_length_c   14.08758350
_cell_angle_alpha   69.80895562
_cell_angle_beta   69.78223758
_cell_angle_gamma   50.43333410
_symmetry_Int_Tables_number   1
_chemical_formula_structural   SmDyHf2(MoO4)7
_chemical_formula_sum   'Sm2 Dy2 Hf4 Mo14 O56'
_cell_volume   1382.70258024
_cell_formula_units_Z   2
loop_
 _symmetry_equiv_pos_site_id
 _symmetry_equiv_pos_as_xyz
  1  'x, y, z'
loop_
 _atom_site_type_symbol
 _atom_site_label
 _atom_site_symmetry_multiplicity
 _atom_site_fract_x
 _atom_site_fract_y
 _atom_site_fract_z
 _atom_site_occupancy
  Sm  Sm0  1  0.351806  0.375540  0.936025  1
  Sm  Sm1  1  0.648194  0.624460  0.063975  1
  Dy  Dy2  1  0.375910  0.352284  0.435964  1
  Dy  Dy3  1  0.624090  0.647716  0.564036  1
  Hf  Hf4  1  0.916007  0.847799  0.189809  1
  Hf  Hf5  1  0.152077  0.083035  0.311761  1
  Hf  Hf6  1  0.083993  0.152201  0.810191  1
  Hf  Hf7  1  0.847923  0.916965  0.688239  1
  Mo  Mo8  1  0.271183  0.046073  0.023620  1
  Mo  Mo9  1  0.044199  0.275155  0.523118  1
  Mo  Mo10  1  0.569825  0.310420  0.644350  1
  Mo  Mo11  1  0.513712  0.998650  0.329734  1
  Mo  Mo12  1  0.794904  0.203560  0.251595  1
  Mo  Mo13  1  0.001202  0.486043  0.172899  1
  Mo  Mo14  1  0.486288  0.001350  0.670266  1
  Mo  Mo15  1  0.728817  0.953927  0.976380  1
  Mo  Mo16  1  0.205096  0.796440  0.748405  1
  Mo  Mo17  1  0.308902  0.568533  0.149078  1
  Mo  Mo18  1  0.998798  0.513957  0.827101  1
  Mo  Mo19  1  0.430175  0.689580  0.355650  1
  Mo  Mo20  1  0.955801  0.724845  0.476882  1
  Mo  Mo21  1  0.691098  0.431467  0.850922  1
  O  O22  1  0.300865  0.491432  0.282299  1
  O  O23  1  0.464752  0.575410  0.104084  1
  O  O24  1  0.577080  0.466072  0.602764  1
  O  O25  1  0.632652  0.245086  0.344964  1
  O  O26  1  0.942104  0.142882  0.315148  1
  O  O27  1  0.493997  0.299373  0.777443  1
  O  O28  1  0.755681  0.363958  0.157383  1
  O  O29  1  0.627484  0.983896  0.714028  1
  O  O30  1  0.871139  0.892206  0.046008  1
  O  O31  1  0.054878  0.197867  0.658938  1
  O  O32  1  0.057896  0.857118  0.684852  1
  O  O33  1  0.083218  0.305157  0.258669  1
  O  O34  1  0.372516  0.016104  0.285972  1
  O  O35  1  0.984935  0.626875  0.216248  1
  O  O36  1  0.855832  0.057099  0.187137  1
  O  O37  1  0.104700  0.132586  0.454102  1
  O  O38  1  0.572020  0.138845  0.994476  1
  O  O39  1  0.236746  0.863717  0.373637  1
  O  O40  1  0.803082  0.945194  0.839959  1
  O  O41  1  0.128861  0.107794  0.953992  1
  O  O42  1  0.166643  0.328590  0.472589  1
  O  O43  1  0.456635  0.116596  0.548359  1
  O  O44  1  0.367348  0.754914  0.655036  1
  O  O45  1  0.450961  0.333917  0.576561  1
  O  O46  1  0.446091  0.178248  0.339959  1
  O  O47  1  0.506003  0.700627  0.222557  1
  O  O48  1  0.422920  0.533928  0.397236  1
  O  O49  1  0.144168  0.942901  0.812863  1
  O  O50  1  0.895300  0.867414  0.545898  1
  O  O51  1  0.672295  0.833989  0.027203  1
  O  O52  1  0.427980  0.861155  0.005524  1
  O  O53  1  0.553909  0.821752  0.660041  1
  O  O54  1  0.863715  0.237476  0.870195  1
  O  O55  1  0.549039  0.666083  0.423439  1
  O  O56  1  0.327705  0.166011  0.972797  1
  O  O57  1  0.888687  0.540518  0.950721  1
  O  O58  1  0.820513  0.553779  0.165617  1
  O  O59  1  0.543365  0.883404  0.451641  1
  O  O60  1  0.141470  0.567059  0.493386  1
  O  O61  1  0.015065  0.373125  0.783752  1
  O  O62  1  0.306616  0.081305  0.757886  1
  O  O63  1  0.693384  0.918695  0.242114  1
  O  O64  1  0.196918  0.054806  0.160041  1
  O  O65  1  0.916782  0.694843  0.741331  1
  O  O66  1  0.858530  0.432941  0.506614  1
  O  O67  1  0.535248  0.424590  0.895916  1
  O  O68  1  0.111313  0.459482  0.049279  1
  O  O69  1  0.668841  0.550280  0.917810  1
  O  O70  1  0.179487  0.446221  0.834383  1
  O  O71  1  0.136285  0.762524  0.129805  1
  O  O72  1  0.763254  0.136283  0.626363  1
  O  O73  1  0.331159  0.449720  0.082190  1
  O  O74  1  0.945122  0.802133  0.341062  1
  O  O75  1  0.244319  0.636042  0.842617  1
  O  O76  1  0.833357  0.671410  0.527411  1
  O  O77  1  0.699135  0.508568  0.717701  1
