# generated using pymatgen
data_Cs4Tb9Dy3Se20
_symmetry_space_group_name_H-M   'P 1'
_cell_length_a   4.17496400
_cell_length_b   12.53743904
_cell_length_c   22.36558408
_cell_angle_alpha   90.00946355
_cell_angle_beta   90.00000000
_cell_angle_gamma   90.00000000
_symmetry_Int_Tables_number   1
_chemical_formula_structural   Cs4Tb9Dy3Se20
_chemical_formula_sum   'Cs4 Tb9 Dy3 Se20'
_cell_volume   1170.68972815
_cell_formula_units_Z   1
loop_
 _symmetry_equiv_pos_site_id
 _symmetry_equiv_pos_as_xyz
  1  'x, y, z'
loop_
 _atom_site_type_symbol
 _atom_site_label
 _atom_site_symmetry_multiplicity
 _atom_site_fract_x
 _atom_site_fract_y
 _atom_site_fract_z
 _atom_site_occupancy
  Cs  Cs0  1  0.250000  0.853409  0.092372  1
  Cs  Cs1  1  0.750000  0.146574  0.907621  1
  Cs  Cs2  1  0.750000  0.353409  0.407627  1
  Cs  Cs3  1  0.250000  0.646593  0.592370  1
  Tb  Tb4  1  0.750000  0.797082  0.825394  1
  Tb  Tb5  1  0.250000  0.202876  0.174621  1
  Tb  Tb6  1  0.250000  0.297088  0.674601  1
  Tb  Tb7  1  0.750000  0.702913  0.325396  1
  Tb  Tb8  1  0.250000  0.957329  0.697862  1
  Tb  Tb9  1  0.750000  0.042671  0.302135  1
  Tb  Tb10  1  0.750000  0.457343  0.802119  1
  Tb  Tb11  1  0.250000  0.542688  0.197876  1
  Tb  Tb12  1  0.750000  0.391707  0.053905  1
  Dy  Dy13  1  0.250000  0.608296  0.946057  1
  Dy  Dy14  1  0.250000  0.891745  0.446070  1
  Dy  Dy15  1  0.750000  0.108254  0.553928  1
  Se  Se16  1  0.250000  0.948364  0.568776  1
  Se  Se17  1  0.750000  0.051638  0.431225  1
  Se  Se18  1  0.750000  0.448458  0.931040  1
  Se  Se19  1  0.250000  0.552067  0.068818  1
  Se  Se20  1  0.750000  0.764070  0.952479  1
  Se  Se21  1  0.250000  0.235431  0.047532  1
  Se  Se22  1  0.250000  0.264074  0.547522  1
  Se  Se23  1  0.750000  0.735927  0.452479  1
  Se  Se24  1  0.250000  0.949623  0.825539  1
  Se  Se25  1  0.750000  0.050381  0.174465  1
  Se  Se26  1  0.750000  0.449619  0.674458  1
  Se  Se27  1  0.250000  0.550383  0.325538  1
  Se  Se28  1  0.750000  0.126165  0.684584  1
  Se  Se29  1  0.250000  0.873836  0.315417  1
  Se  Se30  1  0.250000  0.626172  0.815416  1
  Se  Se31  1  0.750000  0.373816  0.184750  1
  Se  Se32  1  0.750000  0.693872  0.197582  1
  Se  Se33  1  0.250000  0.306128  0.802427  1
  Se  Se34  1  0.250000  0.193869  0.302422  1
  Se  Se35  1  0.750000  0.806131  0.697578  1
