# generated using pymatgen
data_La2Si6Pd20Au
_symmetry_space_group_name_H-M   'P 1'
_cell_length_a   8.73878182
_cell_length_b   8.73878147
_cell_length_c   8.73878200
_cell_angle_alpha   59.99999799
_cell_angle_beta   59.99999931
_cell_angle_gamma   59.99999822
_symmetry_Int_Tables_number   1
_chemical_formula_structural   La2Si6Pd20Au
_chemical_formula_sum   'La2 Si6 Pd20 Au1'
_cell_volume   471.88662549
_cell_formula_units_Z   1
loop_
 _symmetry_equiv_pos_site_id
 _symmetry_equiv_pos_as_xyz
  1  'x, y, z'
loop_
 _atom_site_type_symbol
 _atom_site_label
 _atom_site_symmetry_multiplicity
 _atom_site_fract_x
 _atom_site_fract_y
 _atom_site_fract_z
 _atom_site_occupancy
  La  La0  1  0.750000  0.750000  0.750000  1
  La  La1  1  0.250000  0.250000  0.250000  1
  Si  Si2  1  0.733736  0.733736  0.266264  1
  Si  Si3  1  0.266264  0.266264  0.733736  1
  Si  Si4  1  0.733736  0.266264  0.733736  1
  Si  Si5  1  0.266264  0.733736  0.266264  1
  Si  Si6  1  0.266264  0.733736  0.733736  1
  Si  Si7  1  0.733736  0.266264  0.266264  1
  Pd  Pd8  1  0.614656  0.614656  0.614656  1
  Pd  Pd9  1  0.385344  0.385344  0.385344  1
  Pd  Pd10  1  0.156031  0.614656  0.614656  1
  Pd  Pd11  1  0.614656  0.156031  0.614656  1
  Pd  Pd12  1  0.843969  0.385344  0.385344  1
  Pd  Pd13  1  0.385344  0.843969  0.385344  1
  Pd  Pd14  1  0.614656  0.614656  0.156031  1
  Pd  Pd15  1  0.385344  0.385344  0.843969  1
  Pd  Pd16  1  0.000000  0.000000  0.655831  1
  Pd  Pd17  1  0.000000  0.000000  0.344169  1
  Pd  Pd18  1  0.344169  0.655831  0.000000  1
  Pd  Pd19  1  0.655831  0.344169  0.000000  1
  Pd  Pd20  1  0.000000  0.655831  0.000000  1
  Pd  Pd21  1  0.655831  0.000000  0.344169  1
  Pd  Pd22  1  0.000000  0.344169  0.000000  1
  Pd  Pd23  1  0.344169  0.000000  0.655831  1
  Pd  Pd24  1  0.655831  0.000000  0.000000  1
  Pd  Pd25  1  0.344169  0.000000  0.000000  1
  Pd  Pd26  1  0.000000  0.655831  0.344169  1
  Pd  Pd27  1  0.000000  0.344169  0.655831  1
  Au  Au28  1  0.000000  0.000000  0.000000  1
