# generated using pymatgen
data_Cs8Li4SmY3Sb8
_symmetry_space_group_name_H-M   'P 1'
_cell_length_a   11.57267274
_cell_length_b   11.57267162
_cell_length_c   7.38966908
_cell_angle_alpha   90.03441269
_cell_angle_beta   89.96559408
_cell_angle_gamma   100.70319065
_symmetry_Int_Tables_number   1
_chemical_formula_structural   Cs8Li4SmY3Sb8
_chemical_formula_sum   'Cs8 Li4 Sm1 Y3 Sb8'
_cell_volume   972.45610138
_cell_formula_units_Z   1
loop_
 _symmetry_equiv_pos_site_id
 _symmetry_equiv_pos_as_xyz
  1  'x, y, z'
loop_
 _atom_site_type_symbol
 _atom_site_label
 _atom_site_symmetry_multiplicity
 _atom_site_fract_x
 _atom_site_fract_y
 _atom_site_fract_z
 _atom_site_occupancy
  Cs  Cs0  1  0.070339  0.430263  0.249390  1
  Cs  Cs1  1  0.430263  0.070339  0.750610  1
  Cs  Cs2  1  0.929075  0.570051  0.749589  1
  Cs  Cs3  1  0.570051  0.929075  0.250411  1
  Cs  Cs4  1  0.676797  0.323882  0.212519  1
  Cs  Cs5  1  0.822888  0.176433  0.712768  1
  Cs  Cs6  1  0.323882  0.676797  0.787481  1
  Cs  Cs7  1  0.176433  0.822888  0.287232  1
  Li  Li8  1  0.380298  0.380298  0.000000  1
  Li  Li9  1  0.121450  0.121450  0.500000  1
  Li  Li10  1  0.621382  0.621382  0.000000  1
  Li  Li11  1  0.877765  0.877765  0.500000  1
  Sm  Sm12  1  0.130908  0.130908  0.000000  1
  Y  Y13  1  0.370440  0.370440  0.500000  1
  Y  Y14  1  0.868889  0.868889  0.000000  1
  Y  Y15  1  0.630064  0.630064  0.500000  1
  Sb  Sb16  1  0.840085  0.659385  0.250037  1
  Sb  Sb17  1  0.659385  0.840085  0.749963  1
  Sb  Sb18  1  0.159408  0.343142  0.746587  1
  Sb  Sb19  1  0.343142  0.159408  0.253413  1
  Sb  Sb20  1  0.909144  0.087361  0.240128  1
  Sb  Sb21  1  0.588503  0.412043  0.738897  1
  Sb  Sb22  1  0.087361  0.909144  0.759872  1
  Sb  Sb23  1  0.412043  0.588503  0.261103  1
