# generated using pymatgen
data_Er17Sc3(GaBi3)3
_symmetry_space_group_name_H-M   'P 1'
_cell_length_a   7.94025148
_cell_length_b   9.19947200
_cell_length_c   11.62367700
_cell_angle_alpha   90.00000000
_cell_angle_beta   89.83612028
_cell_angle_gamma   90.00000000
_symmetry_Int_Tables_number   1
_chemical_formula_structural   Er17Sc3(GaBi3)3
_chemical_formula_sum   'Er17 Sc3 Ga3 Bi9'
_cell_volume   849.06104536
_cell_formula_units_Z   1
loop_
 _symmetry_equiv_pos_site_id
 _symmetry_equiv_pos_as_xyz
  1  'x, y, z'
loop_
 _atom_site_type_symbol
 _atom_site_label
 _atom_site_symmetry_multiplicity
 _atom_site_fract_x
 _atom_site_fract_y
 _atom_site_fract_z
 _atom_site_occupancy
  Er  Er0  1  0.522710  0.250000  0.989825  1
  Er  Er1  1  0.345097  0.250000  0.296015  1
  Er  Er2  1  0.658067  0.750000  0.702298  1
  Er  Er3  1  0.146677  0.750000  0.794016  1
  Er  Er4  1  0.843789  0.250000  0.215280  1
  Er  Er5  1  0.197069  0.250000  0.772952  1
  Er  Er6  1  0.821045  0.750000  0.216379  1
  Er  Er7  1  0.319730  0.750000  0.285545  1
  Er  Er8  1  0.676102  0.250000  0.711074  1
  Er  Er9  1  0.192522  0.048054  0.061272  1
  Er  Er10  1  0.810529  0.929332  0.943955  1
  Er  Er11  1  0.314295  0.942813  0.554462  1
  Er  Er12  1  0.810529  0.570668  0.943955  1
  Er  Er13  1  0.685921  0.056035  0.446675  1
  Er  Er14  1  0.192522  0.451946  0.061272  1
  Er  Er15  1  0.685921  0.443965  0.446675  1
  Er  Er16  1  0.314295  0.557187  0.554462  1
  Sc  Sc17  1  0.033116  0.250000  0.509214  1
  Sc  Sc18  1  0.965280  0.750000  0.489382  1
  Sc  Sc19  1  0.462183  0.750000  0.012276  1
  Ga  Ga20  1  0.399914  0.250000  0.539384  1
  Ga  Ga21  1  0.596032  0.750000  0.457775  1
  Ga  Ga22  1  0.095598  0.750000  0.042160  1
  Bi  Bi23  1  0.911431  0.250000  0.952716  1
  Bi  Bi24  1  0.056250  0.001266  0.327047  1
  Bi  Bi25  1  0.943034  0.999047  0.671903  1
  Bi  Bi26  1  0.441658  0.991794  0.824261  1
  Bi  Bi27  1  0.943034  0.500953  0.671903  1
  Bi  Bi28  1  0.558871  0.999036  0.177281  1
  Bi  Bi29  1  0.056250  0.498734  0.327047  1
  Bi  Bi30  1  0.558871  0.500964  0.177281  1
  Bi  Bi31  1  0.441658  0.508206  0.824261  1
