# generated using pymatgen
data_Cs3DySb2
_symmetry_space_group_name_H-M   'P 1'
_cell_length_a   10.51094334
_cell_length_b   10.51094346
_cell_length_c   10.51094384
_cell_angle_alpha   127.44443659
_cell_angle_beta   70.90789289
_cell_angle_gamma   135.97989350
_symmetry_Int_Tables_number   1
_chemical_formula_structural   Cs3DySb2
_chemical_formula_sum   'Cs6 Dy2 Sb4'
_cell_volume   627.79302677
_cell_formula_units_Z   2
loop_
 _symmetry_equiv_pos_site_id
 _symmetry_equiv_pos_as_xyz
  1  'x, y, z'
loop_
 _atom_site_type_symbol
 _atom_site_label
 _atom_site_symmetry_multiplicity
 _atom_site_fract_x
 _atom_site_fract_y
 _atom_site_fract_z
 _atom_site_occupancy
  Cs  Cs0  1  0.250000  0.250000  0.000000  1
  Cs  Cs1  1  0.750000  0.750000  0.000000  1
  Cs  Cs2  1  0.816563  0.295178  0.111742  1
  Cs  Cs3  1  0.683436  0.795179  0.478616  1
  Cs  Cs4  1  0.316563  0.204822  0.521384  1
  Cs  Cs5  1  0.183436  0.704822  0.888258  1
  Dy  Dy6  1  0.750000  0.250000  0.500000  1
  Dy  Dy7  1  0.250000  0.750000  0.500000  1
  Sb  Sb8  1  0.405861  0.814735  0.220596  1
  Sb  Sb9  1  0.094139  0.314735  0.408872  1
  Sb  Sb10  1  0.905861  0.685265  0.591129  1
  Sb  Sb11  1  0.594139  0.185265  0.779404  1
