# generated using pymatgen
data_Ba5Tm2HfAl2O13
_symmetry_space_group_name_H-M   'P 1'
_cell_length_a   5.98437400
_cell_length_b   5.98437358
_cell_length_c   24.98519300
_cell_angle_alpha   90.00000000
_cell_angle_beta   90.00000000
_cell_angle_gamma   119.99999128
_symmetry_Int_Tables_number   1
_chemical_formula_structural   Ba5Tm2HfAl2O13
_chemical_formula_sum   'Ba10 Tm4 Hf2 Al4 O26'
_cell_volume   774.90917430
_cell_formula_units_Z   2
loop_
 _symmetry_equiv_pos_site_id
 _symmetry_equiv_pos_as_xyz
  1  'x, y, z'
loop_
 _atom_site_type_symbol
 _atom_site_label
 _atom_site_symmetry_multiplicity
 _atom_site_fract_x
 _atom_site_fract_y
 _atom_site_fract_z
 _atom_site_occupancy
  Ba  Ba0  1  0.333333  0.666667  0.542134  1
  Ba  Ba1  1  0.666667  0.333333  0.457866  1
  Ba  Ba2  1  0.666667  0.333333  0.042134  1
  Ba  Ba3  1  0.333333  0.666667  0.957866  1
  Ba  Ba4  1  0.000000  0.000000  0.137999  1
  Ba  Ba5  1  0.000000  0.000000  0.862001  1
  Ba  Ba6  1  0.000000  0.000000  0.637999  1
  Ba  Ba7  1  0.000000  0.000000  0.362001  1
  Ba  Ba8  1  0.333333  0.666667  0.250000  1
  Ba  Ba9  1  0.666667  0.333333  0.750000  1
  Tm  Tm10  1  0.333333  0.666667  0.103076  1
  Tm  Tm11  1  0.666667  0.333333  0.896924  1
  Tm  Tm12  1  0.666667  0.333333  0.603076  1
  Tm  Tm13  1  0.333333  0.666667  0.396924  1
  Hf  Hf14  1  0.000000  0.000000  0.000000  1
  Hf  Hf15  1  0.000000  0.000000  0.500000  1
  Al  Al16  1  0.333333  0.666667  0.680571  1
  Al  Al17  1  0.666667  0.333333  0.319429  1
  Al  Al18  1  0.666667  0.333333  0.180571  1
  Al  Al19  1  0.333333  0.666667  0.819429  1
  O  O20  1  0.504262  0.008523  0.157781  1
  O  O21  1  0.495738  0.991477  0.842219  1
  O  O22  1  0.991477  0.495738  0.157781  1
  O  O23  1  0.495738  0.991477  0.657781  1
  O  O24  1  0.008523  0.504262  0.842219  1
  O  O25  1  0.504262  0.008523  0.342219  1
  O  O26  1  0.504262  0.495738  0.157781  1
  O  O27  1  0.008523  0.504262  0.657781  1
  O  O28  1  0.495738  0.504262  0.842219  1
  O  O29  1  0.991477  0.495738  0.342219  1
  O  O30  1  0.495738  0.504262  0.657781  1
  O  O31  1  0.504262  0.495738  0.342219  1
  O  O32  1  0.161967  0.323934  0.050125  1
  O  O33  1  0.838033  0.676066  0.949875  1
  O  O34  1  0.676066  0.838033  0.050125  1
  O  O35  1  0.838033  0.676066  0.550125  1
  O  O36  1  0.323934  0.161967  0.949875  1
  O  O37  1  0.161967  0.323934  0.449875  1
  O  O38  1  0.161967  0.838033  0.050125  1
  O  O39  1  0.323934  0.161967  0.550125  1
  O  O40  1  0.838033  0.161967  0.949875  1
  O  O41  1  0.676066  0.838033  0.449875  1
  O  O42  1  0.838033  0.161967  0.550125  1
  O  O43  1  0.161967  0.838033  0.449875  1
  O  O44  1  0.333333  0.666667  0.750000  1
  O  O45  1  0.666667  0.333333  0.250000  1
