# generated using pymatgen
data_YbErTiIr3
_symmetry_space_group_name_H-M   'P 1'
_cell_length_a   5.60175463
_cell_length_b   5.16210026
_cell_length_c   5.60175400
_cell_angle_alpha   57.14023046
_cell_angle_beta   60.00000373
_cell_angle_gamma   57.14022144
_symmetry_Int_Tables_number   1
_chemical_formula_structural   YbErTiIr3
_chemical_formula_sum   'Yb1 Er1 Ti1 Ir3'
_cell_volume   109.33701801
_cell_formula_units_Z   1
loop_
 _symmetry_equiv_pos_site_id
 _symmetry_equiv_pos_as_xyz
  1  'x, y, z'
loop_
 _atom_site_type_symbol
 _atom_site_label
 _atom_site_symmetry_multiplicity
 _atom_site_fract_x
 _atom_site_fract_y
 _atom_site_fract_z
 _atom_site_occupancy
  Yb  Yb0  1  0.750130  0.749608  0.750130  1
  Er  Er1  1  0.499831  0.500508  0.499831  1
  Ti  Ti2  1  0.125777  0.622668  0.125777  1
  Ir  Ir3  1  0.626049  0.125739  0.124106  1
  Ir  Ir4  1  0.124106  0.125739  0.124106  1
  Ir  Ir5  1  0.124106  0.125739  0.626049  1
