# generated using pymatgen
data_Hf16Co5Mo3
_symmetry_space_group_name_H-M   'P 1'
_cell_length_a   8.62920094
_cell_length_b   8.62920157
_cell_length_c   8.62920053
_cell_angle_alpha   59.96587723
_cell_angle_beta   59.96587191
_cell_angle_gamma   59.96587228
_symmetry_Int_Tables_number   1
_chemical_formula_structural   Hf16Co5Mo3
_chemical_formula_sum   'Hf16 Co5 Mo3'
_cell_volume   454.00489238
_cell_formula_units_Z   1
loop_
 _symmetry_equiv_pos_site_id
 _symmetry_equiv_pos_as_xyz
  1  'x, y, z'
loop_
 _atom_site_type_symbol
 _atom_site_label
 _atom_site_symmetry_multiplicity
 _atom_site_fract_x
 _atom_site_fract_y
 _atom_site_fract_z
 _atom_site_occupancy
  Hf  Hf0  1  0.050688  0.649558  0.649558  1
  Hf  Hf1  1  0.649558  0.050688  0.649558  1
  Hf  Hf2  1  0.649558  0.649558  0.050688  1
  Hf  Hf3  1  0.649517  0.649517  0.649517  1
  Hf  Hf4  1  0.798421  0.798421  0.202203  1
  Hf  Hf5  1  0.201522  0.201522  0.799042  1
  Hf  Hf6  1  0.798421  0.202203  0.798421  1
  Hf  Hf7  1  0.201522  0.799042  0.201522  1
  Hf  Hf8  1  0.202203  0.798421  0.798421  1
  Hf  Hf9  1  0.799042  0.201522  0.201522  1
  Hf  Hf10  1  0.436129  0.436129  0.066454  1
  Hf  Hf11  1  0.064842  0.064842  0.435708  1
  Hf  Hf12  1  0.436129  0.066454  0.436129  1
  Hf  Hf13  1  0.064842  0.435708  0.064842  1
  Hf  Hf14  1  0.066454  0.436129  0.436129  1
  Hf  Hf15  1  0.435708  0.064842  0.064842  1
  Co  Co16  1  0.413915  0.413915  0.413915  1
  Co  Co17  1  0.421803  0.859986  0.859986  1
  Co  Co18  1  0.859986  0.421803  0.859986  1
  Co  Co19  1  0.859986  0.859986  0.421803  1
  Co  Co20  1  0.859447  0.859447  0.859447  1
  Mo  Mo21  1  0.745199  0.417555  0.417555  1
  Mo  Mo22  1  0.417555  0.745199  0.417555  1
  Mo  Mo23  1  0.417555  0.417555  0.745199  1
