# generated using pymatgen
data_Lu3Zr5Pt4
_symmetry_space_group_name_H-M   'P 1'
_cell_length_a   4.65310000
_cell_length_b   6.90104713
_cell_length_c   8.23030335
_cell_angle_alpha   89.43955386
_cell_angle_beta   90.00000000
_cell_angle_gamma   90.00000000
_symmetry_Int_Tables_number   1
_chemical_formula_structural   Lu3Zr5Pt4
_chemical_formula_sum   'Lu3 Zr5 Pt4'
_cell_volume   264.27278707
_cell_formula_units_Z   1
loop_
 _symmetry_equiv_pos_site_id
 _symmetry_equiv_pos_as_xyz
  1  'x, y, z'
loop_
 _atom_site_type_symbol
 _atom_site_label
 _atom_site_symmetry_multiplicity
 _atom_site_fract_x
 _atom_site_fract_y
 _atom_site_fract_z
 _atom_site_occupancy
  Lu  Lu0  1  0.250000  0.484035  0.181532  1
  Lu  Lu1  1  0.750000  0.013287  0.676627  1
  Lu  Lu2  1  0.750000  0.513596  0.817779  1
  Zr  Zr3  1  0.250000  0.846638  0.921430  1
  Zr  Zr4  1  0.250000  0.346183  0.581419  1
  Zr  Zr5  1  0.750000  0.146812  0.083249  1
  Zr  Zr6  1  0.750000  0.657439  0.417063  1
  Zr  Zr7  1  0.250000  0.990084  0.327614  1
  Pt  Pt8  1  0.250000  0.235216  0.908548  1
  Pt  Pt9  1  0.250000  0.740446  0.592381  1
  Pt  Pt10  1  0.750000  0.759809  0.089206  1
  Pt  Pt11  1  0.750000  0.266457  0.403152  1
