# generated using pymatgen
data_Er4LuIn2Bi
_symmetry_space_group_name_H-M   'P 1'
_cell_length_a   8.96255910
_cell_length_b   8.95188403
_cell_length_c   6.53031207
_cell_angle_alpha   89.98357813
_cell_angle_beta   90.00820489
_cell_angle_gamma   119.96060652
_symmetry_Int_Tables_number   1
_chemical_formula_structural   Er4LuIn2Bi
_chemical_formula_sum   'Er8 Lu2 In4 Bi2'
_cell_volume   453.92414893
_cell_formula_units_Z   2
loop_
 _symmetry_equiv_pos_site_id
 _symmetry_equiv_pos_as_xyz
  1  'x, y, z'
loop_
 _atom_site_type_symbol
 _atom_site_label
 _atom_site_symmetry_multiplicity
 _atom_site_fract_x
 _atom_site_fract_y
 _atom_site_fract_z
 _atom_site_occupancy
  Er  Er0  1  0.328961  0.667240  0.493198  1
  Er  Er1  1  0.671039  0.338278  0.493198  1
  Er  Er2  1  0.770251  0.761039  0.750467  1
  Er  Er3  1  0.229749  0.990788  0.750467  1
  Er  Er4  1  0.000000  0.241161  0.750561  1
  Er  Er5  1  0.236779  0.237307  0.249717  1
  Er  Er6  1  0.763221  0.000527  0.249717  1
  Er  Er7  1  0.000000  0.761913  0.249681  1
  Lu  Lu8  1  0.671003  0.338170  0.007075  1
  Lu  Lu9  1  0.328997  0.667168  0.007075  1
  In  In10  1  0.000000  0.597296  0.751016  1
  In  In11  1  0.604187  0.606615  0.248677  1
  In  In12  1  0.395813  0.002428  0.248677  1
  In  In13  1  0.000000  0.396329  0.248781  1
  Bi  Bi14  1  0.395390  0.394565  0.750846  1
  Bi  Bi15  1  0.604610  0.999175  0.750846  1
