# generated using pymatgen
data_Hf4Nb6Si5Ge
_symmetry_space_group_name_H-M   'P 1'
_cell_length_a   7.78191319
_cell_length_b   7.78191306
_cell_length_c   7.78191200
_cell_angle_alpha   129.43707731
_cell_angle_beta   129.43707651
_cell_angle_gamma   74.30830204
_symmetry_Int_Tables_number   1
_chemical_formula_structural   Hf4Nb6Si5Ge
_chemical_formula_sum   'Hf4 Nb6 Si5 Ge1'
_cell_volume   274.01436765
_cell_formula_units_Z   1
loop_
 _symmetry_equiv_pos_site_id
 _symmetry_equiv_pos_as_xyz
  1  'x, y, z'
loop_
 _atom_site_type_symbol
 _atom_site_label
 _atom_site_symmetry_multiplicity
 _atom_site_fract_x
 _atom_site_fract_y
 _atom_site_fract_z
 _atom_site_occupancy
  Hf  Hf0  1  0.018415  0.187293  0.505500  1
  Hf  Hf1  1  0.681793  0.512915  0.494500  1
  Hf  Hf2  1  0.512915  0.018415  0.831123  1
  Hf  Hf3  1  0.187293  0.681793  0.168877  1
  Nb  Nb4  1  0.985570  0.812968  0.505172  1
  Nb  Nb5  1  0.307796  0.480398  0.494828  1
  Nb  Nb6  1  0.480398  0.985570  0.172602  1
  Nb  Nb7  1  0.812968  0.307796  0.827398  1
  Nb  Nb8  1  0.008073  0.008073  0.000000  1
  Nb  Nb9  1  0.508276  0.508276  0.000000  1
  Si  Si10  1  0.242866  0.242866  0.000000  1
  Si  Si11  1  0.371641  0.133119  0.500221  1
  Si  Si12  1  0.632898  0.871419  0.499779  1
  Si  Si13  1  0.871419  0.371641  0.238523  1
  Si  Si14  1  0.133119  0.632898  0.761477  1
  Ge  Ge15  1  0.744561  0.744561  0.000000  1
