# generated using pymatgen
data_Th3Cu2Hg3Rh
_symmetry_space_group_name_H-M   'P 1'
_cell_length_a   7.75366000
_cell_length_b   7.75365817
_cell_length_c   3.90980500
_cell_angle_alpha   90.00000000
_cell_angle_beta   90.00000000
_cell_angle_gamma   119.99999926
_symmetry_Int_Tables_number   1
_chemical_formula_structural   Th3Cu2Hg3Rh
_chemical_formula_sum   'Th3 Cu2 Hg3 Rh1'
_cell_volume   203.56313778
_cell_formula_units_Z   1
loop_
 _symmetry_equiv_pos_site_id
 _symmetry_equiv_pos_as_xyz
  1  'x, y, z'
loop_
 _atom_site_type_symbol
 _atom_site_label
 _atom_site_symmetry_multiplicity
 _atom_site_fract_x
 _atom_site_fract_y
 _atom_site_fract_z
 _atom_site_occupancy
  Th  Th0  1  0.988534  0.405744  0.500000  1
  Th  Th1  1  0.594256  0.582790  0.500000  1
  Th  Th2  1  0.417210  0.011466  0.500000  1
  Cu  Cu3  1  0.333333  0.666667  0.000000  1
  Cu  Cu4  1  0.000000  0.000000  0.500000  1
  Hg  Hg5  1  0.011170  0.751932  0.000000  1
  Hg  Hg6  1  0.248068  0.259238  0.000000  1
  Hg  Hg7  1  0.740762  0.988830  0.000000  1
  Rh  Rh8  1  0.666667  0.333333  0.000000  1
