# generated using pymatgen
data_DyHo(FeSi2)2
_symmetry_space_group_name_H-M   'P 1'
_cell_length_a   3.95121200
_cell_length_b   4.27989872
_cell_length_c   7.94765294
_cell_angle_alpha   76.66541144
_cell_angle_beta   90.00000000
_cell_angle_gamma   90.00000000
_symmetry_Int_Tables_number   1
_chemical_formula_structural   DyHo(FeSi2)2
_chemical_formula_sum   'Dy1 Ho1 Fe2 Si4'
_cell_volume   130.77759031
_cell_formula_units_Z   1
loop_
 _symmetry_equiv_pos_site_id
 _symmetry_equiv_pos_as_xyz
  1  'x, y, z'
loop_
 _atom_site_type_symbol
 _atom_site_label
 _atom_site_symmetry_multiplicity
 _atom_site_fract_x
 _atom_site_fract_y
 _atom_site_fract_z
 _atom_site_occupancy
  Dy  Dy0  1  0.250000  0.600049  0.794370  1
  Ho  Ho1  1  0.750000  0.399243  0.206328  1
  Fe  Fe2  1  0.250000  0.885088  0.390049  1
  Fe  Fe3  1  0.750000  0.115369  0.609554  1
  Si  Si4  1  0.250000  0.957702  0.097824  1
  Si  Si5  1  0.750000  0.042199  0.902647  1
  Si  Si6  1  0.250000  0.330037  0.492647  1
  Si  Si7  1  0.750000  0.670313  0.506582  1
