# generated using pymatgen
data_SmY7(Si3Ni)4
_symmetry_space_group_name_H-M   'P 1'
_cell_length_a   7.97118400
_cell_length_b   7.97118364
_cell_length_c   8.17953200
_cell_angle_alpha   90.00000000
_cell_angle_beta   90.00000000
_cell_angle_gamma   119.99999321
_symmetry_Int_Tables_number   1
_chemical_formula_structural   SmY7(Si3Ni)4
_chemical_formula_sum   'Sm1 Y7 Si12 Ni4'
_cell_volume   450.09559818
_cell_formula_units_Z   1
loop_
 _symmetry_equiv_pos_site_id
 _symmetry_equiv_pos_as_xyz
  1  'x, y, z'
loop_
 _atom_site_type_symbol
 _atom_site_label
 _atom_site_symmetry_multiplicity
 _atom_site_fract_x
 _atom_site_fract_y
 _atom_site_fract_z
 _atom_site_occupancy
  Sm  Sm0  1  0.000000  0.000000  0.250000  1
  Y  Y1  1  0.499648  0.500352  0.750000  1
  Y  Y2  1  0.500395  0.499605  0.250000  1
  Y  Y3  1  0.000704  0.500352  0.750000  1
  Y  Y4  1  0.999211  0.499605  0.250000  1
  Y  Y5  1  0.499648  0.999296  0.750000  1
  Y  Y6  1  0.500395  0.000789  0.250000  1
  Y  Y7  1  0.000000  0.000000  0.750000  1
  Si  Si8  1  0.828657  0.171343  0.997619  1
  Si  Si9  1  0.171325  0.828675  0.998457  1
  Si  Si10  1  0.342686  0.171343  0.997619  1
  Si  Si11  1  0.171325  0.828675  0.501543  1
  Si  Si12  1  0.657349  0.828675  0.998457  1
  Si  Si13  1  0.828657  0.171343  0.502381  1
  Si  Si14  1  0.828657  0.657314  0.997619  1
  Si  Si15  1  0.657349  0.828675  0.501543  1
  Si  Si16  1  0.171325  0.342651  0.998457  1
  Si  Si17  1  0.342686  0.171343  0.502381  1
  Si  Si18  1  0.171325  0.342651  0.501543  1
  Si  Si19  1  0.828657  0.657314  0.502381  1
  Ni  Ni20  1  0.666667  0.333333  0.999373  1
  Ni  Ni21  1  0.333333  0.666667  0.001030  1
  Ni  Ni22  1  0.333333  0.666667  0.498970  1
  Ni  Ni23  1  0.666667  0.333333  0.500627  1
