# generated using pymatgen
data_HfFeP3Ru4
_symmetry_space_group_name_H-M   'P 1'
_cell_length_a   3.82125600
_cell_length_b   10.51483000
_cell_length_c   12.24608100
_cell_angle_alpha   90.00000000
_cell_angle_beta   90.00000000
_cell_angle_gamma   90.00000000
_symmetry_Int_Tables_number   1
_chemical_formula_structural   HfFeP3Ru4
_chemical_formula_sum   'Hf4 Fe4 P12 Ru16'
_cell_volume   492.04578616
_cell_formula_units_Z   4
loop_
 _symmetry_equiv_pos_site_id
 _symmetry_equiv_pos_as_xyz
  1  'x, y, z'
loop_
 _atom_site_type_symbol
 _atom_site_label
 _atom_site_symmetry_multiplicity
 _atom_site_fract_x
 _atom_site_fract_y
 _atom_site_fract_z
 _atom_site_occupancy
  Hf  Hf0  1  0.250000  0.581828  0.707382  1
  Hf  Hf1  1  0.250000  0.918172  0.207382  1
  Hf  Hf2  1  0.750000  0.418172  0.292618  1
  Hf  Hf3  1  0.750000  0.081828  0.792618  1
  Fe  Fe4  1  0.250000  0.461825  0.935680  1
  Fe  Fe5  1  0.250000  0.038175  0.435680  1
  Fe  Fe6  1  0.750000  0.538175  0.064320  1
  Fe  Fe7  1  0.750000  0.961825  0.564320  1
  P  P8  1  0.250000  0.428454  0.109407  1
  P  P9  1  0.250000  0.071546  0.609407  1
  P  P10  1  0.750000  0.571546  0.890593  1
  P  P11  1  0.750000  0.928454  0.390593  1
  P  P12  1  0.250000  0.267621  0.865430  1
  P  P13  1  0.250000  0.232379  0.365430  1
  P  P14  1  0.750000  0.732379  0.134570  1
  P  P15  1  0.750000  0.767621  0.634570  1
  P  P16  1  0.250000  0.600387  0.391568  1
  P  P17  1  0.250000  0.899613  0.891568  1
  P  P18  1  0.750000  0.399613  0.608432  1
  P  P19  1  0.750000  0.100387  0.108432  1
  Ru  Ru20  1  0.250000  0.706253  0.989093  1
  Ru  Ru21  1  0.250000  0.793747  0.489093  1
  Ru  Ru22  1  0.750000  0.293747  0.010907  1
  Ru  Ru23  1  0.750000  0.206253  0.510907  1
  Ru  Ru24  1  0.250000  0.404992  0.480470  1
  Ru  Ru25  1  0.250000  0.095008  0.980470  1
  Ru  Ru26  1  0.750000  0.595008  0.519530  1
  Ru  Ru27  1  0.750000  0.904992  0.019530  1
  Ru  Ru28  1  0.250000  0.232516  0.175845  1
  Ru  Ru29  1  0.250000  0.267484  0.675845  1
  Ru  Ru30  1  0.750000  0.767484  0.824155  1
  Ru  Ru31  1  0.750000  0.732516  0.324155  1
  Ru  Ru32  1  0.250000  0.887123  0.703500  1
  Ru  Ru33  1  0.250000  0.612877  0.203500  1
  Ru  Ru34  1  0.750000  0.112877  0.296500  1
  Ru  Ru35  1  0.750000  0.387123  0.796500  1
