# generated using pymatgen
data_Dy3Ho(AlIr3)2
_symmetry_space_group_name_H-M   'P 1'
_cell_length_a   9.69733499
_cell_length_b   9.44187629
_cell_length_c   9.44187587
_cell_angle_alpha   34.52962913
_cell_angle_beta   31.03650779
_cell_angle_gamma   31.03651171
_symmetry_Int_Tables_number   1
_chemical_formula_structural   Dy3Ho(AlIr3)2
_chemical_formula_sum   'Dy3 Ho1 Al2 Ir6'
_cell_volume   216.34310986
_cell_formula_units_Z   1
loop_
 _symmetry_equiv_pos_site_id
 _symmetry_equiv_pos_as_xyz
  1  'x, y, z'
loop_
 _atom_site_type_symbol
 _atom_site_label
 _atom_site_symmetry_multiplicity
 _atom_site_fract_x
 _atom_site_fract_y
 _atom_site_fract_z
 _atom_site_occupancy
  Dy  Dy0  1  0.318803  0.308506  0.308506  1
  Dy  Dy1  1  0.680983  0.691579  0.691579  1
  Dy  Dy2  1  0.181046  0.191569  0.191569  1
  Ho  Ho3  1  0.818705  0.808616  0.808616  1
  Al  Al4  1  0.749975  0.249960  0.249960  1
  Al  Al5  1  0.249995  0.750065  0.750065  1
  Ir  Ir6  1  0.500251  0.499878  0.499878  1
  Ir  Ir7  1  0.999937  0.000021  0.000021  1
  Ir  Ir8  1  0.249963  0.250065  0.749660  1
  Ir  Ir9  1  0.750191  0.749836  0.250247  1
  Ir  Ir10  1  0.249963  0.749660  0.250065  1
  Ir  Ir11  1  0.750191  0.250247  0.749836  1
