# generated using pymatgen
data_La3(NiRu2)2
_symmetry_space_group_name_H-M   'P 1'
_cell_length_a   5.35989741
_cell_length_b   5.43330043
_cell_length_c   13.11090350
_cell_angle_alpha   89.76944731
_cell_angle_beta   92.45162515
_cell_angle_gamma   119.58950378
_symmetry_Int_Tables_number   1
_chemical_formula_structural   La3(NiRu2)2
_chemical_formula_sum   'La6 Ni4 Ru8'
_cell_volume   331.65247464
_cell_formula_units_Z   2
loop_
 _symmetry_equiv_pos_site_id
 _symmetry_equiv_pos_as_xyz
  1  'x, y, z'
loop_
 _atom_site_type_symbol
 _atom_site_label
 _atom_site_symmetry_multiplicity
 _atom_site_fract_x
 _atom_site_fract_y
 _atom_site_fract_z
 _atom_site_occupancy
  La  La0  1  0.668568  0.341263  0.205679  1
  La  La1  1  0.007931  0.003357  0.875377  1
  La  La2  1  0.337405  0.671330  0.541123  1
  La  La3  1  0.662595  0.328670  0.458877  1
  La  La4  1  0.992069  0.996643  0.124623  1
  La  La5  1  0.331432  0.658737  0.794321  1
  Ni  Ni6  1  0.500000  0.000000  0.000000  1
  Ni  Ni7  1  0.836631  0.667502  0.667876  1
  Ni  Ni8  1  0.163369  0.332498  0.332124  1
  Ni  Ni9  1  0.500000  0.500000  0.000000  1
  Ru  Ru10  1  0.833526  0.165197  0.668158  1
  Ru  Ru11  1  0.166474  0.834803  0.331842  1
  Ru  Ru12  1  0.670589  0.335262  0.837309  1
  Ru  Ru13  1  0.000000  0.000000  0.500000  1
  Ru  Ru14  1  0.329411  0.664738  0.162691  1
  Ru  Ru15  1  0.000000  0.500000  0.000000  1
  Ru  Ru16  1  0.338490  0.165541  0.668092  1
  Ru  Ru17  1  0.661510  0.834459  0.331908  1
