# generated using pymatgen
data_Ho4Cd2AgPd3
_symmetry_space_group_name_H-M   'P 1'
_cell_length_a   7.74602643
_cell_length_b   7.74602643
_cell_length_c   3.76255500
_cell_angle_alpha   90.00000000
_cell_angle_beta   90.00000000
_cell_angle_gamma   89.63903574
_symmetry_Int_Tables_number   1
_chemical_formula_structural   Ho4Cd2AgPd3
_chemical_formula_sum   'Ho4 Cd2 Ag1 Pd3'
_cell_volume   225.75230193
_cell_formula_units_Z   1
loop_
 _symmetry_equiv_pos_site_id
 _symmetry_equiv_pos_as_xyz
  1  'x, y, z'
loop_
 _atom_site_type_symbol
 _atom_site_label
 _atom_site_symmetry_multiplicity
 _atom_site_fract_x
 _atom_site_fract_y
 _atom_site_fract_z
 _atom_site_occupancy
  Ho  Ho0  1  0.672756  0.172756  0.500000  1
  Ho  Ho1  1  0.341583  0.841583  0.500000  1
  Ho  Ho2  1  0.167718  0.314554  0.500000  1
  Ho  Ho3  1  0.814554  0.667718  0.500000  1
  Cd  Cd4  1  0.998664  0.998631  0.000000  1
  Cd  Cd5  1  0.498631  0.498664  0.000000  1
  Ag  Ag6  1  0.128414  0.628414  0.000000  1
  Pd  Pd7  1  0.872785  0.372785  0.000000  1
  Pd  Pd8  1  0.631258  0.873637  0.000000  1
  Pd  Pd9  1  0.373637  0.131258  0.000000  1
