# generated using pymatgen
data_Sm8Si15Pd
_symmetry_space_group_name_H-M   'P 1'
_cell_length_a   8.18897300
_cell_length_b   8.18897392
_cell_length_c   8.25298100
_cell_angle_alpha   90.00000000
_cell_angle_beta   90.00000000
_cell_angle_gamma   119.99999224
_symmetry_Int_Tables_number   1
_chemical_formula_structural   Sm8Si15Pd
_chemical_formula_sum   'Sm8 Si15 Pd1'
_cell_volume   479.29228472
_cell_formula_units_Z   1
loop_
 _symmetry_equiv_pos_site_id
 _symmetry_equiv_pos_as_xyz
  1  'x, y, z'
loop_
 _atom_site_type_symbol
 _atom_site_label
 _atom_site_symmetry_multiplicity
 _atom_site_fract_x
 _atom_site_fract_y
 _atom_site_fract_z
 _atom_site_occupancy
  Sm  Sm0  1  0.497877  0.502123  0.754781  1
  Sm  Sm1  1  0.498185  0.501815  0.245191  1
  Sm  Sm2  1  0.004245  0.502123  0.754781  1
  Sm  Sm3  1  0.003630  0.501815  0.245191  1
  Sm  Sm4  1  0.497877  0.995755  0.754781  1
  Sm  Sm5  1  0.498185  0.996370  0.245191  1
  Sm  Sm6  1  0.000000  0.000000  0.751150  1
  Sm  Sm7  1  0.000000  0.000000  0.248895  1
  Si  Si8  1  0.666667  0.333333  0.999198  1
  Si  Si9  1  0.333333  0.666667  0.000667  1
  Si  Si10  1  0.333333  0.666667  0.499638  1
  Si  Si11  1  0.833645  0.166355  0.000083  1
  Si  Si12  1  0.166855  0.833145  0.000002  1
  Si  Si13  1  0.332710  0.166355  0.000083  1
  Si  Si14  1  0.164758  0.835242  0.499829  1
  Si  Si15  1  0.666290  0.833145  0.000002  1
  Si  Si16  1  0.832046  0.167954  0.500163  1
  Si  Si17  1  0.833645  0.667290  0.000083  1
  Si  Si18  1  0.670485  0.835242  0.499829  1
  Si  Si19  1  0.166855  0.333710  0.000002  1
  Si  Si20  1  0.335907  0.167954  0.500163  1
  Si  Si21  1  0.164758  0.329515  0.499829  1
  Si  Si22  1  0.832046  0.664093  0.500163  1
  Pd  Pd23  1  0.666667  0.333333  0.500306  1
