# generated using pymatgen
data_TbEr3Zr4F28
_symmetry_space_group_name_H-M   'P 1'
_cell_length_a   5.73305704
_cell_length_b   9.06508003
_cell_length_c   12.19211553
_cell_angle_alpha   62.43054645
_cell_angle_beta   89.99474100
_cell_angle_gamma   90.02698290
_symmetry_Int_Tables_number   1
_chemical_formula_structural   TbEr3Zr4F28
_chemical_formula_sum   'Tb1 Er3 Zr4 F28'
_cell_volume   561.68311262
_cell_formula_units_Z   1
loop_
 _symmetry_equiv_pos_site_id
 _symmetry_equiv_pos_as_xyz
  1  'x, y, z'
loop_
 _atom_site_type_symbol
 _atom_site_label
 _atom_site_symmetry_multiplicity
 _atom_site_fract_x
 _atom_site_fract_y
 _atom_site_fract_z
 _atom_site_occupancy
  Tb  Tb0  1  0.756487  0.816553  0.766236  1
  Er  Er1  1  0.743762  0.817038  0.266271  1
  Er  Er2  1  0.243812  0.184069  0.233824  1
  Er  Er3  1  0.257312  0.185184  0.733702  1
  Zr  Zr4  1  0.744056  0.276062  0.453810  1
  Zr  Zr5  1  0.244203  0.725665  0.047268  1
  Zr  Zr6  1  0.254805  0.725447  0.543106  1
  Zr  Zr7  1  0.755508  0.272395  0.955719  1
  F  F8  1  0.466307  0.710608  0.922597  1
  F  F9  1  0.968607  0.289226  0.578374  1
  F  F10  1  0.530816  0.287911  0.079342  1
  F  F11  1  0.031331  0.710150  0.419066  1
  F  F12  1  0.452253  0.280886  0.550088  1
  F  F13  1  0.951532  0.718757  0.952814  1
  F  F14  1  0.548369  0.719285  0.448451  1
  F  F15  1  0.047121  0.279117  0.051578  1
  F  F16  1  0.769671  0.524622  0.858487  1
  F  F17  1  0.267857  0.472713  0.641134  1
  F  F18  1  0.234122  0.472755  0.143900  1
  F  F19  1  0.732584  0.528310  0.356184  1
  F  F20  1  0.759309  0.020282  0.059175  1
  F  F21  1  0.259141  0.977703  0.440212  1
  F  F22  1  0.240639  0.977389  0.941836  1
  F  F23  1  0.739568  0.023886  0.557086  1
  F  F24  1  0.982057  0.733120  0.647602  1
  F  F25  1  0.483439  0.266220  0.849811  1
  F  F26  1  0.013124  0.265540  0.347836  1
  F  F27  1  0.514394  0.734751  0.153023  1
  F  F28  1  0.032248  0.747049  0.175299  1
  F  F29  1  0.529994  0.254121  0.326388  1
  F  F30  1  0.968618  0.251447  0.827564  1
  F  F31  1  0.464693  0.745279  0.672314  1
  F  F32  1  0.432849  0.975365  0.235778  1
  F  F33  1  0.932947  0.025544  0.264424  1
  F  F34  1  0.570901  0.030561  0.765253  1
  F  F35  1  0.075566  0.974986  0.734444  1
