# generated using pymatgen
data_SrNpO4
_symmetry_space_group_name_H-M   'P 1'
_cell_length_a   5.54036500
_cell_length_b   8.01284500
_cell_length_c   8.15116200
_cell_angle_alpha   90.00000000
_cell_angle_beta   90.00000000
_cell_angle_gamma   90.00000000
_symmetry_Int_Tables_number   1
_chemical_formula_structural   SrNpO4
_chemical_formula_sum   'Sr4 Np4 O16'
_cell_volume   361.86338673
_cell_formula_units_Z   4
loop_
 _symmetry_equiv_pos_site_id
 _symmetry_equiv_pos_as_xyz
  1  'x, y, z'
loop_
 _atom_site_type_symbol
 _atom_site_label
 _atom_site_symmetry_multiplicity
 _atom_site_fract_x
 _atom_site_fract_y
 _atom_site_fract_z
 _atom_site_occupancy
  Sr  Sr0  1  0.478621  0.196919  0.250000  1
  Sr  Sr1  1  0.478621  0.303081  0.750000  1
  Sr  Sr2  1  0.521379  0.696919  0.250000  1
  Sr  Sr3  1  0.521379  0.803081  0.750000  1
  Np  Np4  1  0.000000  0.000000  0.000000  1
  Np  Np5  1  0.000000  0.500000  0.000000  1
  Np  Np6  1  0.000000  0.500000  0.500000  1
  Np  Np7  1  0.000000  0.000000  0.500000  1
  O  O8  1  0.133865  0.966553  0.750000  1
  O  O9  1  0.133865  0.533447  0.250000  1
  O  O10  1  0.866135  0.466553  0.750000  1
  O  O11  1  0.866135  0.033447  0.250000  1
  O  O12  1  0.167973  0.250000  0.500000  1
  O  O13  1  0.832027  0.750000  0.000000  1
  O  O14  1  0.832027  0.750000  0.500000  1
  O  O15  1  0.167973  0.250000  0.000000  1
  O  O16  1  0.300774  0.919993  0.078468  1
  O  O17  1  0.300774  0.580007  0.921532  1
  O  O18  1  0.699226  0.419993  0.421532  1
  O  O19  1  0.699226  0.080007  0.578468  1
  O  O20  1  0.699226  0.080007  0.921532  1
  O  O21  1  0.699226  0.419993  0.078468  1
  O  O22  1  0.300774  0.580007  0.578468  1
  O  O23  1  0.300774  0.919993  0.421532  1
