# generated using pymatgen
data_Tb2Tm(AgGe)3
_symmetry_space_group_name_H-M   'P 1'
_cell_length_a   7.18925041
_cell_length_b   7.21416735
_cell_length_c   4.20371800
_cell_angle_alpha   90.00000000
_cell_angle_beta   90.00000000
_cell_angle_gamma   120.11471816
_symmetry_Int_Tables_number   1
_chemical_formula_structural   Tb2Tm(AgGe)3
_chemical_formula_sum   'Tb2 Tm1 Ag3 Ge3'
_cell_volume   188.59528616
_cell_formula_units_Z   1
loop_
 _symmetry_equiv_pos_site_id
 _symmetry_equiv_pos_as_xyz
  1  'x, y, z'
loop_
 _atom_site_type_symbol
 _atom_site_label
 _atom_site_symmetry_multiplicity
 _atom_site_fract_x
 _atom_site_fract_y
 _atom_site_fract_z
 _atom_site_occupancy
  Tb  Tb0  1  0.416257  0.416636  0.500000  1
  Tb  Tb1  1  0.583743  0.000379  0.500000  1
  Tm  Tm2  1  0.000000  0.584019  0.500000  1
  Ag  Ag3  1  0.749171  0.748339  0.000000  1
  Ag  Ag4  1  0.250829  0.999168  0.000000  1
  Ag  Ag5  1  0.000000  0.252527  0.000000  1
  Ge  Ge6  1  0.669036  0.334800  0.000000  1
  Ge  Ge7  1  0.330964  0.665765  0.000000  1
  Ge  Ge8  1  0.000000  0.998368  0.500000  1
