# generated using pymatgen
data_SmPa3(AlOs)4
_symmetry_space_group_name_H-M   'P 1'
_cell_length_a   4.20136700
_cell_length_b   6.79213961
_cell_length_c   8.12058459
_cell_angle_alpha   90.58914869
_cell_angle_beta   90.00000000
_cell_angle_gamma   90.00000000
_symmetry_Int_Tables_number   1
_chemical_formula_structural   SmPa3(AlOs)4
_chemical_formula_sum   'Sm1 Pa3 Al4 Os4'
_cell_volume   231.71895357
_cell_formula_units_Z   1
loop_
 _symmetry_equiv_pos_site_id
 _symmetry_equiv_pos_as_xyz
  1  'x, y, z'
loop_
 _atom_site_type_symbol
 _atom_site_label
 _atom_site_symmetry_multiplicity
 _atom_site_fract_x
 _atom_site_fract_y
 _atom_site_fract_z
 _atom_site_occupancy
  Sm  Sm0  1  0.750000  0.463519  0.182985  1
  Pa  Pa1  1  0.250000  0.034335  0.684802  1
  Pa  Pa2  1  0.250000  0.537706  0.818854  1
  Pa  Pa3  1  0.750000  0.960173  0.316862  1
  Al  Al4  1  0.250000  0.141396  0.057887  1
  Al  Al5  1  0.250000  0.627575  0.440599  1
  Al  Al6  1  0.750000  0.870944  0.944324  1
  Al  Al7  1  0.750000  0.364285  0.554182  1
  Os  Os8  1  0.250000  0.233797  0.385297  1
  Os  Os9  1  0.250000  0.768770  0.124411  1
  Os  Os10  1  0.750000  0.747635  0.628181  1
  Os  Os11  1  0.750000  0.249863  0.861618  1
