# generated using pymatgen
data_Nd3Al9Si3Os3Rh
_symmetry_space_group_name_H-M   'P 1'
_cell_length_a   8.83204035
_cell_length_b   8.78664371
_cell_length_c   9.60157900
_cell_angle_alpha   90.00000000
_cell_angle_beta   90.00000000
_cell_angle_gamma   120.17905816
_symmetry_Int_Tables_number   1
_chemical_formula_structural   Nd3Al9Si3Os3Rh
_chemical_formula_sum   'Nd6 Al18 Si6 Os6 Rh2'
_cell_volume   644.12613373
_cell_formula_units_Z   2
loop_
 _symmetry_equiv_pos_site_id
 _symmetry_equiv_pos_as_xyz
  1  'x, y, z'
loop_
 _atom_site_type_symbol
 _atom_site_label
 _atom_site_symmetry_multiplicity
 _atom_site_fract_x
 _atom_site_fract_y
 _atom_site_fract_z
 _atom_site_occupancy
  Nd  Nd0  1  0.188101  0.382048  0.250000  1
  Nd  Nd1  1  0.811899  0.617952  0.750000  1
  Nd  Nd2  1  0.615867  0.813382  0.250000  1
  Nd  Nd3  1  0.384133  0.186618  0.750000  1
  Nd  Nd4  1  0.194055  0.810903  0.250000  1
  Nd  Nd5  1  0.805945  0.189097  0.750000  1
  Al  Al6  1  0.163413  0.329149  0.577283  1
  Al  Al7  1  0.836587  0.670851  0.422717  1
  Al  Al8  1  0.671190  0.835719  0.574900  1
  Al  Al9  1  0.836587  0.670851  0.077283  1
  Al  Al10  1  0.328810  0.164281  0.425100  1
  Al  Al11  1  0.163413  0.329149  0.922717  1
  Al  Al12  1  0.163937  0.834513  0.574393  1
  Al  Al13  1  0.328810  0.164281  0.074900  1
  Al  Al14  1  0.836063  0.165487  0.425607  1
  Al  Al15  1  0.671190  0.835719  0.925100  1
  Al  Al16  1  0.836063  0.165487  0.074393  1
  Al  Al17  1  0.163937  0.834513  0.925607  1
  Al  Al18  1  0.869303  0.431293  0.250000  1
  Al  Al19  1  0.130697  0.568707  0.750000  1
  Al  Al20  1  0.560369  0.432329  0.250000  1
  Al  Al21  1  0.439631  0.567671  0.750000  1
  Al  Al22  1  0.998281  0.998722  0.250000  1
  Al  Al23  1  0.001719  0.001278  0.750000  1
  Si  Si24  1  0.329814  0.665681  0.034068  1
  Si  Si25  1  0.670186  0.334319  0.965932  1
  Si  Si26  1  0.670186  0.334319  0.534068  1
  Si  Si27  1  0.329814  0.665681  0.465932  1
  Si  Si28  1  0.564870  0.129395  0.250000  1
  Si  Si29  1  0.435130  0.870605  0.750000  1
  Os  Os30  1  0.500000  0.000000  0.000000  1
  Os  Os31  1  0.000000  0.500000  0.000000  1
  Os  Os32  1  0.500000  0.000000  0.500000  1
  Os  Os33  1  0.000000  0.500000  0.500000  1
  Os  Os34  1  0.000000  0.000000  0.000000  1
  Os  Os35  1  0.000000  0.000000  0.500000  1
  Rh  Rh36  1  0.500000  0.500000  0.000000  1
  Rh  Rh37  1  0.500000  0.500000  0.500000  1
