# generated using pymatgen
data_Th10FeTc3Te4
_symmetry_space_group_name_H-M   'P 1'
_cell_length_a   8.10095634
_cell_length_b   8.10095682
_cell_length_c   15.60951900
_cell_angle_alpha   90.00000000
_cell_angle_beta   90.00000000
_cell_angle_gamma   150.20022446
_symmetry_Int_Tables_number   1
_chemical_formula_structural   Th10FeTc3Te4
_chemical_formula_sum   'Th10 Fe1 Tc3 Te4'
_cell_volume   509.08792168
_cell_formula_units_Z   1
loop_
 _symmetry_equiv_pos_site_id
 _symmetry_equiv_pos_as_xyz
  1  'x, y, z'
loop_
 _atom_site_type_symbol
 _atom_site_label
 _atom_site_symmetry_multiplicity
 _atom_site_fract_x
 _atom_site_fract_y
 _atom_site_fract_z
 _atom_site_occupancy
  Th  Th0  1  0.960392  0.039608  0.372676  1
  Th  Th1  1  0.040327  0.959673  0.632995  1
  Th  Th2  1  0.040327  0.959673  0.867005  1
  Th  Th3  1  0.960392  0.039608  0.127324  1
  Th  Th4  1  0.739816  0.260184  0.629343  1
  Th  Th5  1  0.259952  0.740048  0.371279  1
  Th  Th6  1  0.259952  0.740048  0.128721  1
  Th  Th7  1  0.739816  0.260184  0.870657  1
  Th  Th8  1  0.392692  0.607308  0.750000  1
  Th  Th9  1  0.608997  0.391003  0.250000  1
  Fe  Fe10  1  0.563146  0.436854  0.750000  1
  Tc  Tc11  1  0.782278  0.217722  0.250000  1
  Tc  Tc12  1  0.214412  0.785588  0.750000  1
  Tc  Tc13  1  0.437022  0.562978  0.250000  1
  Te  Te14  1  0.612584  0.387416  0.036757  1
  Te  Te15  1  0.387655  0.612345  0.960358  1
  Te  Te16  1  0.387655  0.612345  0.539642  1
  Te  Te17  1  0.612584  0.387416  0.463243  1
