# generated using pymatgen
data_NpSc(Si7Ir3)2
_symmetry_space_group_name_H-M   'P 1'
_cell_length_a   8.01916801
_cell_length_b   8.01916735
_cell_length_c   8.01916779
_cell_angle_alpha   56.78111214
_cell_angle_beta   56.78110880
_cell_angle_gamma   56.78110736
_symmetry_Int_Tables_number   1
_chemical_formula_structural   NpSc(Si7Ir3)2
_chemical_formula_sum   'Np1 Sc1 Si14 Ir6'
_cell_volume   337.55396197
_cell_formula_units_Z   1
loop_
 _symmetry_equiv_pos_site_id
 _symmetry_equiv_pos_as_xyz
  1  'x, y, z'
loop_
 _atom_site_type_symbol
 _atom_site_label
 _atom_site_symmetry_multiplicity
 _atom_site_fract_x
 _atom_site_fract_y
 _atom_site_fract_z
 _atom_site_occupancy
  Np  Np0  1  0.000000  0.000000  0.000000  1
  Sc  Sc1  1  0.500000  0.500000  0.500000  1
  Si  Si2  1  0.751189  0.751189  0.751189  1
  Si  Si3  1  0.248811  0.248811  0.248811  1
  Si  Si4  1  0.849508  0.066146  0.672521  1
  Si  Si5  1  0.672521  0.849508  0.066146  1
  Si  Si6  1  0.066146  0.672521  0.849508  1
  Si  Si7  1  0.647966  0.826134  0.436270  1
  Si  Si8  1  0.436270  0.647966  0.826134  1
  Si  Si9  1  0.826134  0.436270  0.647966  1
  Si  Si10  1  0.173866  0.563730  0.352034  1
  Si  Si11  1  0.563730  0.352034  0.173866  1
  Si  Si12  1  0.352034  0.173866  0.563730  1
  Si  Si13  1  0.933854  0.327479  0.150492  1
  Si  Si14  1  0.327479  0.150492  0.933854  1
  Si  Si15  1  0.150492  0.933854  0.327479  1
  Ir  Ir16  1  0.072777  0.431659  0.747136  1
  Ir  Ir17  1  0.252864  0.927223  0.568341  1
  Ir  Ir18  1  0.568341  0.252864  0.927223  1
  Ir  Ir19  1  0.927223  0.568341  0.252864  1
  Ir  Ir20  1  0.431659  0.747136  0.072777  1
  Ir  Ir21  1  0.747136  0.072777  0.431659  1
