# generated using pymatgen
data_Sr4MnFe2TcO12
_symmetry_space_group_name_H-M   'P 1'
_cell_length_a   5.57219000
_cell_length_b   5.57219000
_cell_length_c   7.92374300
_cell_angle_alpha   90.00000000
_cell_angle_beta   90.00000000
_cell_angle_gamma   90.00000000
_symmetry_Int_Tables_number   1
_chemical_formula_structural   Sr4MnFe2TcO12
_chemical_formula_sum   'Sr4 Mn1 Fe2 Tc1 O12'
_cell_volume   246.02668459
_cell_formula_units_Z   1
loop_
 _symmetry_equiv_pos_site_id
 _symmetry_equiv_pos_as_xyz
  1  'x, y, z'
loop_
 _atom_site_type_symbol
 _atom_site_label
 _atom_site_symmetry_multiplicity
 _atom_site_fract_x
 _atom_site_fract_y
 _atom_site_fract_z
 _atom_site_occupancy
  Sr  Sr0  1  0.500000  0.000000  0.732597  1
  Sr  Sr1  1  0.000000  0.500000  0.267403  1
  Sr  Sr2  1  0.500000  0.000000  0.267403  1
  Sr  Sr3  1  0.000000  0.500000  0.732597  1
  Mn  Mn4  1  0.500000  0.500000  0.500000  1
  Fe  Fe5  1  0.000000  0.000000  0.500000  1
  Fe  Fe6  1  0.500000  0.500000  0.000000  1
  Tc  Tc7  1  0.000000  0.000000  0.000000  1
  O  O8  1  0.000000  0.000000  0.755908  1
  O  O9  1  0.500000  0.500000  0.252404  1
  O  O10  1  0.746905  0.746905  0.500000  1
  O  O11  1  0.243625  0.243625  0.000000  1
  O  O12  1  0.746905  0.253095  0.500000  1
  O  O13  1  0.243625  0.756375  0.000000  1
  O  O14  1  0.000000  0.000000  0.244092  1
  O  O15  1  0.500000  0.500000  0.747596  1
  O  O16  1  0.253095  0.253095  0.500000  1
  O  O17  1  0.756375  0.756375  0.000000  1
  O  O18  1  0.253095  0.746905  0.500000  1
  O  O19  1  0.756375  0.243625  0.000000  1
