# generated using pymatgen
data_Ho18MgSnIr12
_symmetry_space_group_name_H-M   'P 1'
_cell_length_a   10.79217300
_cell_length_b   10.79217300
_cell_length_c   6.27105900
_cell_angle_alpha   90.00000000
_cell_angle_beta   90.00000000
_cell_angle_gamma   90.00000000
_symmetry_Int_Tables_number   1
_chemical_formula_structural   Ho18MgSnIr12
_chemical_formula_sum   'Ho18 Mg1 Sn1 Ir12'
_cell_volume   730.39650064
_cell_formula_units_Z   1
loop_
 _symmetry_equiv_pos_site_id
 _symmetry_equiv_pos_as_xyz
  1  'x, y, z'
loop_
 _atom_site_type_symbol
 _atom_site_label
 _atom_site_symmetry_multiplicity
 _atom_site_fract_x
 _atom_site_fract_y
 _atom_site_fract_z
 _atom_site_occupancy
  Ho  Ho0  1  0.284469  0.084959  0.379409  1
  Ho  Ho1  1  0.291363  0.911419  0.877937  1
  Ho  Ho2  1  0.708637  0.088581  0.877937  1
  Ho  Ho3  1  0.715531  0.915041  0.379409  1
  Ho  Ho4  1  0.586715  0.786725  0.879392  1
  Ho  Ho5  1  0.587743  0.207481  0.379042  1
  Ho  Ho6  1  0.412257  0.792519  0.379042  1
  Ho  Ho7  1  0.413285  0.213275  0.879392  1
  Ho  Ho8  1  0.207481  0.412257  0.620958  1
  Ho  Ho9  1  0.213275  0.586715  0.120608  1
  Ho  Ho10  1  0.786725  0.413285  0.120608  1
  Ho  Ho11  1  0.792519  0.587743  0.620958  1
  Ho  Ho12  1  0.911419  0.708637  0.122063  1
  Ho  Ho13  1  0.915041  0.284469  0.620591  1
  Ho  Ho14  1  0.084959  0.715531  0.620591  1
  Ho  Ho15  1  0.088581  0.291363  0.122063  1
  Ho  Ho16  1  0.000000  0.000000  0.000000  1
  Ho  Ho17  1  0.500000  0.500000  0.500000  1
  Mg  Mg18  1  0.000000  0.000000  0.500000  1
  Sn  Sn19  1  0.500000  0.500000  0.000000  1
  Ir  Ir20  1  0.846888  0.156108  0.244730  1
  Ir  Ir21  1  0.843892  0.846888  0.755270  1
  Ir  Ir22  1  0.156108  0.153112  0.755270  1
  Ir  Ir23  1  0.153112  0.843892  0.244730  1
  Ir  Ir24  1  0.655844  0.345984  0.746300  1
  Ir  Ir25  1  0.654016  0.655844  0.253700  1
  Ir  Ir26  1  0.345984  0.344156  0.253700  1
  Ir  Ir27  1  0.344156  0.654016  0.746300  1
  Ir  Ir28  1  0.500000  0.000000  0.122778  1
  Ir  Ir29  1  0.500000  0.000000  0.622397  1
  Ir  Ir30  1  0.000000  0.500000  0.877222  1
  Ir  Ir31  1  0.000000  0.500000  0.377603  1
