# generated using pymatgen
data_Ce16Dy4Si15S
_symmetry_space_group_name_H-M   'P 1'
_cell_length_a   7.67176918
_cell_length_b   7.62838929
_cell_length_c   15.00523200
_cell_angle_alpha   89.74717605
_cell_angle_beta   89.28270943
_cell_angle_gamma   89.96719192
_symmetry_Int_Tables_number   1
_chemical_formula_structural   Ce16Dy4Si15S
_chemical_formula_sum   'Ce16 Dy4 Si15 S1'
_cell_volume   878.07734035
_cell_formula_units_Z   1
loop_
 _symmetry_equiv_pos_site_id
 _symmetry_equiv_pos_as_xyz
  1  'x, y, z'
loop_
 _atom_site_type_symbol
 _atom_site_label
 _atom_site_symmetry_multiplicity
 _atom_site_fract_x
 _atom_site_fract_y
 _atom_site_fract_z
 _atom_site_occupancy
  Ce  Ce0  1  0.377720  0.012709  0.444593  1
  Ce  Ce1  1  0.485118  0.875654  0.698884  1
  Ce  Ce2  1  0.515131  0.122577  0.196508  1
  Ce  Ce3  1  0.875536  0.482449  0.302261  1
  Ce  Ce4  1  0.127346  0.511023  0.802295  1
  Ce  Ce5  1  0.631491  0.980900  0.950253  1
  Ce  Ce6  1  0.009622  0.376137  0.549648  1
  Ce  Ce7  1  0.985458  0.624641  0.052669  1
  Ce  Ce8  1  0.137369  0.983947  0.872449  1
  Ce  Ce9  1  0.525028  0.628290  0.127402  1
  Ce  Ce10  1  0.467685  0.365760  0.632462  1
  Ce  Ce11  1  0.630734  0.527902  0.873955  1
  Ce  Ce12  1  0.370959  0.472127  0.372844  1
  Ce  Ce13  1  0.872063  0.025556  0.377787  1
  Ce  Ce14  1  0.976233  0.128218  0.123016  1
  Ce  Ce15  1  0.026083  0.875183  0.621049  1
  Dy  Dy16  1  0.308538  0.307851  0.000463  1
  Dy  Dy17  1  0.191826  0.806676  0.249698  1
  Dy  Dy18  1  0.804432  0.193090  0.750433  1
  Dy  Dy19  1  0.690799  0.691938  0.499584  1
  Si  Si20  1  0.326878  0.689615  0.955708  1
  Si  Si21  1  0.667102  0.313023  0.459025  1
  Si  Si22  1  0.690181  0.329371  0.044145  1
  Si  Si23  1  0.312165  0.668072  0.543928  1
  Si  Si24  1  0.812980  0.827922  0.207514  1
  Si  Si25  1  0.171607  0.186169  0.292345  1
  Si  Si26  1  0.835528  0.812329  0.792399  1
  Si  Si27  1  0.286188  0.926208  0.062363  1
  Si  Si28  1  0.574616  0.783901  0.313633  1
  Si  Si29  1  0.450424  0.212823  0.824480  1
  Si  Si30  1  0.786168  0.575816  0.684965  1
  Si  Si31  1  0.213242  0.426199  0.186425  1
  Si  Si32  1  0.708091  0.072686  0.564264  1
  Si  Si33  1  0.928771  0.287801  0.936303  1
  Si  Si34  1  0.073737  0.712213  0.436417  1
  S  S35  1  0.153153  0.183223  0.697831  1
