# generated using pymatgen
data_RbMo2As3O13
_symmetry_space_group_name_H-M   'P 1'
_cell_length_a   9.42573970
_cell_length_b   9.29865021
_cell_length_c   9.29846481
_cell_angle_alpha   104.34232255
_cell_angle_beta   111.63792406
_cell_angle_gamma   111.63802430
_symmetry_Int_Tables_number   1
_chemical_formula_structural   RbMo2As3O13
_chemical_formula_sum   'Rb2 Mo4 As6 O26'
_cell_volume   630.93014960
_cell_formula_units_Z   2
loop_
 _symmetry_equiv_pos_site_id
 _symmetry_equiv_pos_as_xyz
  1  'x, y, z'
loop_
 _atom_site_type_symbol
 _atom_site_label
 _atom_site_symmetry_multiplicity
 _atom_site_fract_x
 _atom_site_fract_y
 _atom_site_fract_z
 _atom_site_occupancy
  Rb  Rb0  1  0.999992  0.499992  0.999991  1
  Rb  Rb1  1  0.499994  0.999992  0.499992  1
  Mo  Mo2  1  0.672750  0.324294  0.163556  1
  Mo  Mo3  1  0.172755  0.163556  0.324300  1
  Mo  Mo4  1  0.827245  0.836437  0.675708  1
  Mo  Mo5  1  0.327245  0.675703  0.836437  1
  As  As6  1  0.250000  0.993405  0.006595  1
  As  As7  1  0.555337  0.640477  0.235685  1
  As  As8  1  0.944666  0.764314  0.359531  1
  As  As9  1  0.055337  0.235687  0.640476  1
  As  As10  1  0.444663  0.359532  0.764317  1
  As  As11  1  0.749999  0.006596  0.993405  1
  O  O12  1  0.570357  0.890683  0.007858  1
  O  O13  1  0.796492  0.217598  0.067369  1
  O  O14  1  0.382607  0.638836  0.091421  1
  O  O15  1  0.929644  0.992148  0.109323  1
  O  O16  1  0.531060  0.439784  0.191211  1
  O  O17  1  0.296499  0.067375  0.217603  1
  O  O18  1  0.750001  0.767321  0.232670  1
  O  O19  1  0.901824  0.558075  0.259781  1
  O  O20  1  0.225504  0.343382  0.290554  1
  O  O21  1  0.117394  0.908572  0.361162  1
  O  O22  1  0.725500  0.290554  0.343378  1
  O  O23  1  0.598176  0.740218  0.441925  1
  O  O24  1  0.031065  0.191217  0.439785  1
  O  O25  1  0.968938  0.808783  0.560220  1
  O  O26  1  0.401827  0.259782  0.558079  1
  O  O27  1  0.274490  0.709445  0.656605  1
  O  O28  1  0.882610  0.091427  0.638840  1
  O  O29  1  0.774498  0.656616  0.709457  1
  O  O30  1  0.098179  0.441926  0.740221  1
  O  O31  1  0.250003  0.232677  0.767330  1
  O  O32  1  0.703502  0.932626  0.782397  1
  O  O33  1  0.468939  0.560218  0.808786  1
  O  O34  1  0.070360  0.007859  0.890682  1
  O  O35  1  0.617394  0.361164  0.908581  1
  O  O36  1  0.203508  0.782403  0.932626  1
  O  O37  1  0.429641  0.109319  0.992137  1
