# generated using pymatgen
data_BaCe2(TlS2)3
_symmetry_space_group_name_H-M   'P 1'
_cell_length_a   7.35749714
_cell_length_b   7.35749802
_cell_length_c   7.73122800
_cell_angle_alpha   99.27548477
_cell_angle_beta   99.27549377
_cell_angle_gamma   120.04351715
_symmetry_Int_Tables_number   1
_chemical_formula_structural   BaCe2(TlS2)3
_chemical_formula_sum   'Ba1 Ce2 Tl3 S6'
_cell_volume   342.91734333
_cell_formula_units_Z   1
loop_
 _symmetry_equiv_pos_site_id
 _symmetry_equiv_pos_as_xyz
  1  'x, y, z'
loop_
 _atom_site_type_symbol
 _atom_site_label
 _atom_site_symmetry_multiplicity
 _atom_site_fract_x
 _atom_site_fract_y
 _atom_site_fract_z
 _atom_site_occupancy
  Ba  Ba0  1  0.000000  0.000000  0.000000  1
  Ce  Ce1  1  0.666763  0.333237  0.000000  1
  Ce  Ce2  1  0.333237  0.666763  0.000000  1
  Tl  Tl3  1  0.839372  0.160628  0.500000  1
  Tl  Tl4  1  0.500000  0.500000  0.500000  1
  Tl  Tl5  1  0.160628  0.839372  0.500000  1
  S  S6  1  0.700947  0.700947  0.203803  1
  S  S7  1  0.439211  0.071712  0.211651  1
  S  S8  1  0.071712  0.439211  0.211651  1
  S  S9  1  0.928289  0.560790  0.788350  1
  S  S10  1  0.560790  0.928289  0.788350  1
  S  S11  1  0.299054  0.299054  0.796197  1
