# generated using pymatgen
data_Er2U(InPt)3
_symmetry_space_group_name_H-M   'P 1'
_cell_length_a   7.60068100
_cell_length_b   7.56650349
_cell_length_c   3.94526000
_cell_angle_alpha   90.00000000
_cell_angle_beta   90.00000000
_cell_angle_gamma   120.14953666
_symmetry_Int_Tables_number   1
_chemical_formula_structural   Er2U(InPt)3
_chemical_formula_sum   'Er2 U1 In3 Pt3'
_cell_volume   196.19937568
_cell_formula_units_Z   1
loop_
 _symmetry_equiv_pos_site_id
 _symmetry_equiv_pos_as_xyz
  1  'x, y, z'
loop_
 _atom_site_type_symbol
 _atom_site_label
 _atom_site_symmetry_multiplicity
 _atom_site_fract_x
 _atom_site_fract_y
 _atom_site_fract_z
 _atom_site_occupancy
  Er  Er0  1  0.998192  0.406224  0.500000  1
  Er  Er1  1  0.591968  0.593776  0.500000  1
  U  U2  1  0.411425  0.000000  0.500000  1
  In  In3  1  0.989469  0.732838  0.000000  1
  In  In4  1  0.256631  0.267162  0.000000  1
  In  In5  1  0.751791  0.000000  0.000000  1
  Pt  Pt6  1  0.335720  0.682012  0.000000  1
  Pt  Pt7  1  0.653709  0.317988  0.000000  1
  Pt  Pt8  1  0.011093  0.000000  0.500000  1
