# generated using pymatgen
data_Dy8Y12CoBi8Os3
_symmetry_space_group_name_H-M   'P 1'
_cell_length_a   7.99737507
_cell_length_b   8.99756200
_cell_length_c   12.51068501
_cell_angle_alpha   90.00000000
_cell_angle_beta   90.25732940
_cell_angle_gamma   90.00000000
_symmetry_Int_Tables_number   1
_chemical_formula_structural   Dy8Y12CoBi8Os3
_chemical_formula_sum   'Dy8 Y12 Co1 Bi8 Os3'
_cell_volume   900.22075543
_cell_formula_units_Z   1
loop_
 _symmetry_equiv_pos_site_id
 _symmetry_equiv_pos_as_xyz
  1  'x, y, z'
loop_
 _atom_site_type_symbol
 _atom_site_label
 _atom_site_symmetry_multiplicity
 _atom_site_fract_x
 _atom_site_fract_y
 _atom_site_fract_z
 _atom_site_occupancy
  Dy  Dy0  1  0.673894  0.041772  0.563924  1
  Dy  Dy1  1  0.324993  0.957195  0.435729  1
  Dy  Dy2  1  0.175478  0.958571  0.935861  1
  Dy  Dy3  1  0.324993  0.542805  0.435729  1
  Dy  Dy4  1  0.825962  0.038359  0.062977  1
  Dy  Dy5  1  0.673894  0.458228  0.563924  1
  Dy  Dy6  1  0.825962  0.461641  0.062977  1
  Dy  Dy7  1  0.175478  0.541429  0.935861  1
  Y  Y8  1  0.843959  0.750000  0.798416  1
  Y  Y9  1  0.158541  0.250000  0.207441  1
  Y  Y10  1  0.341698  0.250000  0.708841  1
  Y  Y11  1  0.656839  0.750000  0.293250  1
  Y  Y12  1  0.375311  0.750000  0.694791  1
  Y  Y13  1  0.623543  0.250000  0.305763  1
  Y  Y14  1  0.874809  0.250000  0.806607  1
  Y  Y15  1  0.121404  0.750000  0.188413  1
  Y  Y16  1  0.942826  0.750000  0.504834  1
  Y  Y17  1  0.057189  0.250000  0.495862  1
  Y  Y18  1  0.446253  0.250000  0.996679  1
  Y  Y19  1  0.553040  0.750000  0.003641  1
  Co  Co20  1  0.931196  0.750000  0.009316  1
  Bi  Bi21  1  0.570217  0.492748  0.828052  1
  Bi  Bi22  1  0.430827  0.508038  0.171777  1
  Bi  Bi23  1  0.068336  0.507783  0.673090  1
  Bi  Bi24  1  0.430827  0.991962  0.171777  1
  Bi  Bi25  1  0.931247  0.493112  0.326562  1
  Bi  Bi26  1  0.570217  0.007252  0.828052  1
  Bi  Bi27  1  0.931247  0.006888  0.326562  1
  Bi  Bi28  1  0.068336  0.992217  0.673090  1
  Os  Os29  1  0.574336  0.750000  0.511371  1
  Os  Os30  1  0.424489  0.250000  0.489323  1
  Os  Os31  1  0.072659  0.250000  0.989503  1
