# generated using pymatgen
data_La2Dy2Y2IrI10
_symmetry_space_group_name_H-M   'P 1'
_cell_length_a   7.87254315
_cell_length_b   9.91879687
_cell_length_c   9.91213632
_cell_angle_alpha   106.78688282
_cell_angle_beta   95.78448207
_cell_angle_gamma   105.45967640
_symmetry_Int_Tables_number   1
_chemical_formula_structural   La2Dy2Y2IrI10
_chemical_formula_sum   'La2 Dy2 Y2 Ir1 I10'
_cell_volume   700.82610807
_cell_formula_units_Z   1
loop_
 _symmetry_equiv_pos_site_id
 _symmetry_equiv_pos_as_xyz
  1  'x, y, z'
loop_
 _atom_site_type_symbol
 _atom_site_label
 _atom_site_symmetry_multiplicity
 _atom_site_fract_x
 _atom_site_fract_y
 _atom_site_fract_z
 _atom_site_occupancy
  La  La0  1  0.117755  0.044234  0.763371  1
  La  La1  1  0.882245  0.955766  0.236629  1
  Dy  Dy2  1  0.971538  0.287097  0.087205  1
  Dy  Dy3  1  0.028462  0.712903  0.912795  1
  Y  Y4  1  0.349714  0.127077  0.164636  1
  Y  Y5  1  0.650286  0.872923  0.835364  1
  Ir  Ir6  1  0.000000  0.000000  0.000000  1
  I  I7  1  0.347047  0.446882  0.269450  1
  I  I8  1  0.652953  0.553118  0.730550  1
  I  I9  1  0.270242  0.089893  0.456678  1
  I  I10  1  0.729758  0.910107  0.543322  1
  I  I11  1  0.082191  0.380177  0.825894  1
  I  I12  1  0.917809  0.619823  0.174106  1
  I  I13  1  0.444841  0.817954  0.087219  1
  I  I14  1  0.555159  0.182046  0.912781  1
  I  I15  1  0.772396  0.262722  0.341084  1
  I  I16  1  0.227604  0.737278  0.658916  1
