# generated using pymatgen
data_Sc3ZnNiSn3Os
_symmetry_space_group_name_H-M   'P 1'
_cell_length_a   7.48946100
_cell_length_b   7.48949225
_cell_length_c   3.51966000
_cell_angle_alpha   90.00000000
_cell_angle_beta   90.00000000
_cell_angle_gamma   119.99977881
_symmetry_Int_Tables_number   1
_chemical_formula_structural   Sc3ZnNiSn3Os
_chemical_formula_sum   'Sc3 Zn1 Ni1 Sn3 Os1'
_cell_volume   170.97603893
_cell_formula_units_Z   1
loop_
 _symmetry_equiv_pos_site_id
 _symmetry_equiv_pos_as_xyz
  1  'x, y, z'
loop_
 _atom_site_type_symbol
 _atom_site_label
 _atom_site_symmetry_multiplicity
 _atom_site_fract_x
 _atom_site_fract_y
 _atom_site_fract_z
 _atom_site_occupancy
  Sc  Sc0  1  0.600445  0.975902  0.000000  1
  Sc  Sc1  1  0.024100  0.624543  0.000000  1
  Sc  Sc2  1  0.375459  0.399554  0.000000  1
  Zn  Zn3  1  0.666668  0.333335  0.500000  1
  Ni  Ni4  1  0.999994  0.000000  0.000000  1
  Sn  Sn5  1  0.270315  0.008432  0.500000  1
  Sn  Sn6  1  0.991566  0.261881  0.500000  1
  Sn  Sn7  1  0.738121  0.729686  0.500000  1
  Os  Os8  1  0.333332  0.666666  0.500000  1
