# generated using pymatgen
data_Sc3Fe3SiP2
_symmetry_space_group_name_H-M   'P 1'
_cell_length_a   6.36266700
_cell_length_b   6.36266689
_cell_length_c   3.59738100
_cell_angle_alpha   90.00000000
_cell_angle_beta   90.00000000
_cell_angle_gamma   119.99998496
_symmetry_Int_Tables_number   1
_chemical_formula_structural   Sc3Fe3SiP2
_chemical_formula_sum   'Sc3 Fe3 Si1 P2'
_cell_volume   126.12335517
_cell_formula_units_Z   1
loop_
 _symmetry_equiv_pos_site_id
 _symmetry_equiv_pos_as_xyz
  1  'x, y, z'
loop_
 _atom_site_type_symbol
 _atom_site_label
 _atom_site_symmetry_multiplicity
 _atom_site_fract_x
 _atom_site_fract_y
 _atom_site_fract_z
 _atom_site_occupancy
  Sc  Sc0  1  0.417579  0.417579  0.500000  1
  Sc  Sc1  1  0.582421  0.000000  0.500000  1
  Sc  Sc2  1  0.000000  0.582421  0.500000  1
  Fe  Fe3  1  0.757084  0.757084  0.000000  1
  Fe  Fe4  1  0.242916  0.000000  0.000000  1
  Fe  Fe5  1  0.000000  0.242916  0.000000  1
  Si  Si6  1  0.000000  0.000000  0.500000  1
  P  P7  1  0.666667  0.333333  0.000000  1
  P  P8  1  0.333333  0.666667  0.000000  1
