# generated using pymatgen
data_LaSc5Pa2(TcB6)4
_symmetry_space_group_name_H-M   'P 1'
_cell_length_a   3.62458200
_cell_length_b   9.00136584
_cell_length_c   11.38448601
_cell_angle_alpha   90.16761393
_cell_angle_beta   90.00000000
_cell_angle_gamma   90.00000000
_symmetry_Int_Tables_number   1
_chemical_formula_structural   LaSc5Pa2(TcB6)4
_chemical_formula_sum   'La1 Sc5 Pa2 Tc4 B24'
_cell_volume   371.43079842
_cell_formula_units_Z   1
loop_
 _symmetry_equiv_pos_site_id
 _symmetry_equiv_pos_as_xyz
  1  'x, y, z'
loop_
 _atom_site_type_symbol
 _atom_site_label
 _atom_site_symmetry_multiplicity
 _atom_site_fract_x
 _atom_site_fract_y
 _atom_site_fract_z
 _atom_site_occupancy
  La  La0  1  0.000000  0.822014  0.084846  1
  Sc  Sc1  1  0.000000  0.179107  0.913956  1
  Sc  Sc2  1  0.000000  0.946524  0.373367  1
  Sc  Sc3  1  0.000000  0.055049  0.627653  1
  Sc  Sc4  1  0.000000  0.442644  0.125464  1
  Sc  Sc5  1  0.000000  0.553778  0.872779  1
  Pa  Pa6  1  0.000000  0.319739  0.414494  1
  Pa  Pa7  1  0.000000  0.680138  0.586602  1
  Tc  Tc8  1  0.000000  0.636412  0.323459  1
  Tc  Tc9  1  0.000000  0.361007  0.679910  1
  Tc  Tc10  1  0.000000  0.145299  0.183130  1
  Tc  Tc11  1  0.000000  0.859085  0.814427  1
  B  B12  1  0.500000  0.554106  0.433805  1
  B  B13  1  0.500000  0.444566  0.568449  1
  B  B14  1  0.500000  0.058718  0.065660  1
  B  B15  1  0.500000  0.949063  0.929435  1
  B  B16  1  0.500000  0.753123  0.419647  1
  B  B17  1  0.500000  0.246528  0.582532  1
  B  B18  1  0.500000  0.253157  0.078542  1
  B  B19  1  0.500000  0.747298  0.914871  1
  B  B20  1  0.500000  0.792677  0.267412  1
  B  B21  1  0.500000  0.205430  0.737068  1
  B  B22  1  0.500000  0.294694  0.234167  1
  B  B23  1  0.500000  0.706011  0.763780  1
  B  B24  1  0.500000  0.626275  0.185189  1
  B  B25  1  0.500000  0.368311  0.818452  1
  B  B26  1  0.500000  0.130766  0.316993  1
  B  B27  1  0.500000  0.871665  0.682698  1
  B  B28  1  0.500000  0.984761  0.214957  1
  B  B29  1  0.500000  0.021024  0.786260  1
  B  B30  1  0.500000  0.481004  0.286545  1
  B  B31  1  0.500000  0.516794  0.715387  1
  B  B32  1  0.500000  0.593317  0.025303  1
  B  B33  1  0.500000  0.398986  0.972240  1
  B  B34  1  0.500000  0.100794  0.473154  1
  B  B35  1  0.500000  0.900134  0.527365  1
