# generated using pymatgen
data_TaV3Si2(B2W3)2
_symmetry_space_group_name_H-M   'P 1'
_cell_length_a   6.94286430
_cell_length_b   6.97949031
_cell_length_c   6.99283030
_cell_angle_alpha   129.26760083
_cell_angle_beta   129.08832850
_cell_angle_gamma   74.56963770
_symmetry_Int_Tables_number   1
_chemical_formula_structural   TaV3Si2(B2W3)2
_chemical_formula_sum   'Ta1 V3 Si2 B4 W6'
_cell_volume   198.57193923
_cell_formula_units_Z   1
loop_
 _symmetry_equiv_pos_site_id
 _symmetry_equiv_pos_as_xyz
  1  'x, y, z'
loop_
 _atom_site_type_symbol
 _atom_site_label
 _atom_site_symmetry_multiplicity
 _atom_site_fract_x
 _atom_site_fract_y
 _atom_site_fract_z
 _atom_site_occupancy
  Ta  Ta0  1  0.524389  0.693193  0.498567  1
  V  V1  1  0.303939  0.802872  0.833228  1
  V  V2  1  0.003506  0.000169  0.999892  1
  V  V3  1  0.500410  0.502413  0.999777  1
  Si  Si4  1  0.248347  0.238684  0.992676  1
  Si  Si5  1  0.744753  0.750251  0.000840  1
  B  B6  1  0.628145  0.129889  0.757515  1
  B  B7  1  0.123610  0.383440  0.503523  1
  B  B8  1  0.885348  0.623846  0.504009  1
  B  B9  1  0.370791  0.872492  0.240547  1
  W  W10  1  0.028959  0.528778  0.834224  1
  W  W11  1  0.695123  0.194524  0.166244  1
  W  W12  1  0.975749  0.474630  0.171329  1
  W  W13  1  0.192357  0.031300  0.497914  1
  W  W14  1  0.471308  0.302566  0.499699  1
  W  W15  1  0.803263  0.970951  0.500016  1
