# generated using pymatgen
data_LaTb9Nd6(CdNi)4
_symmetry_space_group_name_H-M   'P 1'
_cell_length_a   9.75680972
_cell_length_b   9.75680898
_cell_length_c   9.75681111
_cell_angle_alpha   59.85880880
_cell_angle_beta   59.85880900
_cell_angle_gamma   59.85880865
_symmetry_Int_Tables_number   1
_chemical_formula_structural   LaTb9Nd6(CdNi)4
_chemical_formula_sum   'La1 Tb9 Nd6 Cd4 Ni4'
_cell_volume   654.65852573
_cell_formula_units_Z   1
loop_
 _symmetry_equiv_pos_site_id
 _symmetry_equiv_pos_as_xyz
  1  'x, y, z'
loop_
 _atom_site_type_symbol
 _atom_site_label
 _atom_site_symmetry_multiplicity
 _atom_site_fract_x
 _atom_site_fract_y
 _atom_site_fract_z
 _atom_site_occupancy
  La  La0  1  0.595858  0.595858  0.595858  1
  Tb  Tb1  1  0.598420  0.598420  0.202083  1
  Tb  Tb2  1  0.598420  0.202083  0.598420  1
  Tb  Tb3  1  0.202083  0.598420  0.598420  1
  Tb  Tb4  1  0.065859  0.437280  0.437280  1
  Tb  Tb5  1  0.437541  0.062782  0.062782  1
  Tb  Tb6  1  0.437280  0.065859  0.437280  1
  Tb  Tb7  1  0.062782  0.437541  0.062782  1
  Tb  Tb8  1  0.437280  0.437280  0.065859  1
  Tb  Tb9  1  0.062782  0.062782  0.437541  1
  Nd  Nd10  1  0.191242  0.811368  0.811368  1
  Nd  Nd11  1  0.810347  0.187956  0.187956  1
  Nd  Nd12  1  0.811368  0.191242  0.811368  1
  Nd  Nd13  1  0.187956  0.810347  0.187956  1
  Nd  Nd14  1  0.811368  0.811368  0.191242  1
  Nd  Nd15  1  0.187956  0.187956  0.810347  1
  Cd  Cd16  1  0.829768  0.829768  0.829768  1
  Cd  Cd17  1  0.831675  0.831675  0.510874  1
  Cd  Cd18  1  0.831675  0.510874  0.831675  1
  Cd  Cd19  1  0.510874  0.831675  0.831675  1
  Ni  Ni20  1  0.392771  0.392771  0.392771  1
  Ni  Ni21  1  0.389989  0.389989  0.824719  1
  Ni  Ni22  1  0.389989  0.824719  0.389989  1
  Ni  Ni23  1  0.824719  0.389989  0.389989  1
