# generated using pymatgen
data_Yb(ZnCu)6
_symmetry_space_group_name_H-M   'P 1'
_cell_length_a   6.64153156
_cell_length_b   6.64153225
_cell_length_c   6.64153214
_cell_angle_alpha   136.37369974
_cell_angle_beta   98.48399899
_cell_angle_gamma   97.38936216
_symmetry_Int_Tables_number   1
_chemical_formula_structural   Yb(ZnCu)6
_chemical_formula_sum   'Yb1 Zn6 Cu6'
_cell_volume   187.64321592
_cell_formula_units_Z   1
loop_
 _symmetry_equiv_pos_site_id
 _symmetry_equiv_pos_as_xyz
  1  'x, y, z'
loop_
 _atom_site_type_symbol
 _atom_site_label
 _atom_site_symmetry_multiplicity
 _atom_site_fract_x
 _atom_site_fract_y
 _atom_site_fract_z
 _atom_site_occupancy
  Yb  Yb0  1  0.000000  0.000000  0.000000  1
  Zn  Zn1  1  0.350557  0.350557  0.000000  1
  Zn  Zn2  1  0.649443  0.649443  0.000000  1
  Zn  Zn3  1  0.653094  0.000000  0.653094  1
  Zn  Zn4  1  0.346906  0.000000  0.346906  1
  Zn  Zn5  1  0.795671  0.295671  0.500000  1
  Zn  Zn6  1  0.204329  0.704329  0.500000  1
  Cu  Cu7  1  0.500000  0.000000  0.000000  1
  Cu  Cu8  1  0.500000  0.500000  0.500000  1
  Cu  Cu9  1  0.000000  0.000000  0.500000  1
  Cu  Cu10  1  0.000000  0.500000  0.000000  1
  Cu  Cu11  1  0.225275  0.500000  0.725275  1
  Cu  Cu12  1  0.774725  0.500000  0.274725  1
