# generated using pymatgen
data_DyEr7Sc12Si15Os
_symmetry_space_group_name_H-M   'P 1'
_cell_length_a   7.05249823
_cell_length_b   7.40751900
_cell_length_c   13.89215944
_cell_angle_alpha   90.02780870
_cell_angle_beta   90.00761642
_cell_angle_gamma   90.20216836
_symmetry_Int_Tables_number   1
_chemical_formula_structural   DyEr7Sc12Si15Os
_chemical_formula_sum   'Dy1 Er7 Sc12 Si15 Os1'
_cell_volume   725.74284054
_cell_formula_units_Z   1
loop_
 _symmetry_equiv_pos_site_id
 _symmetry_equiv_pos_as_xyz
  1  'x, y, z'
loop_
 _atom_site_type_symbol
 _atom_site_label
 _atom_site_symmetry_multiplicity
 _atom_site_fract_x
 _atom_site_fract_y
 _atom_site_fract_z
 _atom_site_occupancy
  Dy  Dy0  1  0.011812  0.179880  0.096116  1
  Er  Er1  1  0.990223  0.827334  0.904510  1
  Er  Er2  1  0.488166  0.677236  0.904616  1
  Er  Er3  1  0.990258  0.827358  0.595487  1
  Er  Er4  1  0.511457  0.322619  0.096098  1
  Er  Er5  1  0.011962  0.180203  0.403556  1
  Er  Er6  1  0.511555  0.322561  0.403858  1
  Er  Er7  1  0.488111  0.677210  0.595418  1
  Sc  Sc8  1  0.156192  0.498539  0.750025  1
  Sc  Sc9  1  0.838912  0.495738  0.250076  1
  Sc  Sc10  1  0.340228  0.006566  0.250063  1
  Sc  Sc11  1  0.667990  0.996348  0.750040  1
  Sc  Sc12  1  0.316357  0.171310  0.627493  1
  Sc  Sc13  1  0.672640  0.826315  0.373742  1
  Sc  Sc14  1  0.171992  0.678103  0.374043  1
  Sc  Sc15  1  0.672588  0.826210  0.126261  1
  Sc  Sc16  1  0.837405  0.318500  0.627808  1
  Sc  Sc17  1  0.316512  0.171261  0.872457  1
  Sc  Sc18  1  0.837303  0.318647  0.872139  1
  Sc  Sc19  1  0.172029  0.678106  0.125993  1
  Si  Si20  1  0.969983  0.886552  0.250124  1
  Si  Si21  1  0.470485  0.613253  0.250029  1
  Si  Si22  1  0.528440  0.389736  0.749992  1
  Si  Si23  1  0.285288  0.863916  0.749987  1
  Si  Si24  1  0.713806  0.132441  0.250238  1
  Si  Si25  1  0.215162  0.370191  0.250255  1
  Si  Si26  1  0.778169  0.627690  0.749987  1
  Si  Si27  1  0.160270  0.468919  0.537020  1
  Si  Si28  1  0.843565  0.535707  0.461497  1
  Si  Si29  1  0.344223  0.966562  0.459759  1
  Si  Si30  1  0.843392  0.536151  0.038380  1
  Si  Si31  1  0.655445  0.034021  0.538370  1
  Si  Si32  1  0.160374  0.469309  0.962834  1
  Si  Si33  1  0.655264  0.033939  0.961582  1
  Si  Si34  1  0.344817  0.966287  0.040125  1
  Os  Os35  1  0.027625  0.105278  0.750022  1
