# generated using pymatgen
data_Ho7TmTlCd2SnAu8
_symmetry_space_group_name_H-M   'P 1'
_cell_length_a   8.00327101
_cell_length_b   7.99913526
_cell_length_c   7.30311600
_cell_angle_alpha   90.02855071
_cell_angle_beta   90.00294237
_cell_angle_gamma   89.87424209
_symmetry_Int_Tables_number   1
_chemical_formula_structural   Ho7TmTlCd2SnAu8
_chemical_formula_sum   'Ho7 Tm1 Tl1 Cd2 Sn1 Au8'
_cell_volume   467.53880474
_cell_formula_units_Z   1
loop_
 _symmetry_equiv_pos_site_id
 _symmetry_equiv_pos_as_xyz
  1  'x, y, z'
loop_
 _atom_site_type_symbol
 _atom_site_label
 _atom_site_symmetry_multiplicity
 _atom_site_fract_x
 _atom_site_fract_y
 _atom_site_fract_z
 _atom_site_occupancy
  Ho  Ho0  1  0.154775  0.835987  0.500736  1
  Ho  Ho1  1  0.336128  0.344856  0.999222  1
  Ho  Ho2  1  0.664479  0.654709  0.999326  1
  Ho  Ho3  1  0.685480  0.677092  0.500631  1
  Ho  Ho4  1  0.314392  0.322820  0.500579  1
  Ho  Ho5  1  0.176951  0.814853  0.999286  1
  Ho  Ho6  1  0.822588  0.185571  0.999423  1
  Tm  Tm7  1  0.845553  0.164008  0.501041  1
  Tl  Tl8  1  0.499907  0.999996  0.249937  1
  Cd  Cd9  1  0.999868  0.499863  0.749858  1
  Cd  Cd10  1  0.499999  0.000088  0.749874  1
  Sn  Sn11  1  0.999995  0.500018  0.250014  1
  Au  Au12  1  0.625475  0.369000  0.274303  1
  Au  Au13  1  0.375613  0.629936  0.272510  1
  Au  Au14  1  0.130626  0.126576  0.770444  1
  Au  Au15  1  0.868289  0.874396  0.770394  1
  Au  Au16  1  0.374055  0.631196  0.728916  1
  Au  Au17  1  0.626985  0.367787  0.727262  1
  Au  Au18  1  0.869535  0.876129  0.228203  1
  Au  Au19  1  0.129306  0.125118  0.228040  1
