# generated using pymatgen
data_LiY2Er17(Cd3Ru)2
_symmetry_space_group_name_H-M   'P 1'
_cell_length_a   9.46755600
_cell_length_b   9.46769493
_cell_length_c   9.69037600
_cell_angle_alpha   90.00069952
_cell_angle_beta   89.99930620
_cell_angle_gamma   119.99986478
_symmetry_Int_Tables_number   1
_chemical_formula_structural   LiY2Er17(Cd3Ru)2
_chemical_formula_sum   'Li1 Y2 Er17 Cd6 Ru2'
_cell_volume   752.23578632
_cell_formula_units_Z   1
loop_
 _symmetry_equiv_pos_site_id
 _symmetry_equiv_pos_as_xyz
  1  'x, y, z'
loop_
 _atom_site_type_symbol
 _atom_site_label
 _atom_site_symmetry_multiplicity
 _atom_site_fract_x
 _atom_site_fract_y
 _atom_site_fract_z
 _atom_site_occupancy
  Li  Li0  1  0.999986  0.000010  0.499952  1
  Y  Y1  1  0.458528  0.916807  0.748097  1
  Y  Y2  1  0.083198  0.541481  0.748095  1
  Er  Er3  1  0.999965  0.000027  0.999964  1
  Er  Er4  1  0.208105  0.791888  0.440442  1
  Er  Er5  1  0.208322  0.416316  0.440663  1
  Er  Er6  1  0.583691  0.791684  0.440664  1
  Er  Er7  1  0.791797  0.208201  0.558934  1
  Er  Er8  1  0.791533  0.583591  0.559047  1
  Er  Er9  1  0.416410  0.208472  0.559044  1
  Er  Er10  1  0.789435  0.210549  0.942085  1
  Er  Er11  1  0.789210  0.578901  0.941941  1
  Er  Er12  1  0.421091  0.210804  0.941946  1
  Er  Er13  1  0.210456  0.789528  0.058527  1
  Er  Er14  1  0.210674  0.420985  0.058332  1
  Er  Er15  1  0.579012  0.789319  0.058338  1
  Er  Er16  1  0.541657  0.458347  0.251966  1
  Er  Er17  1  0.541660  0.083259  0.251986  1
  Er  Er18  1  0.916731  0.458339  0.251981  1
  Er  Er19  1  0.458671  0.541331  0.748042  1
  Cd  Cd20  1  0.888270  0.111730  0.257999  1
  Cd  Cd21  1  0.888226  0.776535  0.258014  1
  Cd  Cd22  1  0.223468  0.111777  0.258012  1
  Cd  Cd23  1  0.111486  0.888510  0.741958  1
  Cd  Cd24  1  0.111829  0.223286  0.741976  1
  Cd  Cd25  1  0.776716  0.888173  0.741974  1
  Ru  Ru26  1  0.333316  0.666693  0.250559  1
  Ru  Ru27  1  0.666557  0.333456  0.749461  1
