# generated using pymatgen
data_Tb15Er5(Ir2Ru)4
_symmetry_space_group_name_H-M   'P 1'
_cell_length_a   10.86150242
_cell_length_b   10.86555144
_cell_length_c   6.44099407
_cell_angle_alpha   89.98692528
_cell_angle_beta   89.98890532
_cell_angle_gamma   89.97011608
_symmetry_Int_Tables_number   1
_chemical_formula_structural   Tb15Er5(Ir2Ru)4
_chemical_formula_sum   'Tb15 Er5 Ir8 Ru4'
_cell_volume   760.14159263
_cell_formula_units_Z   1
loop_
 _symmetry_equiv_pos_site_id
 _symmetry_equiv_pos_as_xyz
  1  'x, y, z'
loop_
 _atom_site_type_symbol
 _atom_site_label
 _atom_site_symmetry_multiplicity
 _atom_site_fract_x
 _atom_site_fract_y
 _atom_site_fract_z
 _atom_site_occupancy
  Tb  Tb0  1  0.292833  0.913641  0.878916  1
  Tb  Tb1  1  0.707189  0.086662  0.878905  1
  Tb  Tb2  1  0.707151  0.913223  0.378573  1
  Tb  Tb3  1  0.586807  0.792806  0.878645  1
  Tb  Tb4  1  0.586196  0.206846  0.378692  1
  Tb  Tb5  1  0.413079  0.793338  0.378745  1
  Tb  Tb6  1  0.412896  0.206906  0.878845  1
  Tb  Tb7  1  0.207219  0.413149  0.620979  1
  Tb  Tb8  1  0.207156  0.586688  0.121091  1
  Tb  Tb9  1  0.792904  0.413338  0.121052  1
  Tb  Tb10  1  0.792838  0.586751  0.621227  1
  Tb  Tb11  1  0.913198  0.707246  0.121474  1
  Tb  Tb12  1  0.913370  0.292907  0.621201  1
  Tb  Tb13  1  0.086681  0.707141  0.621099  1
  Tb  Tb14  1  0.087057  0.292610  0.121589  1
  Er  Er15  1  0.293249  0.086667  0.379576  1
  Er  Er16  1  0.000383  0.000177  0.499975  1
  Er  Er17  1  0.000071  0.000034  0.000234  1
  Er  Er18  1  0.499982  0.499945  0.999962  1
  Er  Er19  1  0.499940  0.499947  0.499921  1
  Ir  Ir20  1  0.848901  0.151211  0.250035  1
  Ir  Ir21  1  0.848687  0.848869  0.749951  1
  Ir  Ir22  1  0.151854  0.150886  0.748480  1
  Ir  Ir23  1  0.151552  0.849428  0.250345  1
  Ir  Ir24  1  0.651050  0.348721  0.749876  1
  Ir  Ir25  1  0.651219  0.651171  0.250034  1
  Ir  Ir26  1  0.348656  0.347956  0.250415  1
  Ir  Ir27  1  0.348864  0.651243  0.749977  1
  Ru  Ru28  1  0.499558  0.000272  0.122668  1
  Ru  Ru29  1  0.499417  0.000257  0.621260  1
  Ru  Ru30  1  0.000064  0.500046  0.878080  1
  Ru  Ru31  1  0.999979  0.499917  0.378175  1
