# generated using pymatgen
data_TbY16Tm3Sn16
_symmetry_space_group_name_H-M   'P 1'
_cell_length_a   8.02602208
_cell_length_b   8.17563600
_cell_length_c   15.48988364
_cell_angle_alpha   90.00010683
_cell_angle_beta   89.93403075
_cell_angle_gamma   90.01978954
_symmetry_Int_Tables_number   1
_chemical_formula_structural   TbY16Tm3Sn16
_chemical_formula_sum   'Tb1 Y16 Tm3 Sn16'
_cell_volume   1016.41189482
_cell_formula_units_Z   1
loop_
 _symmetry_equiv_pos_site_id
 _symmetry_equiv_pos_as_xyz
  1  'x, y, z'
loop_
 _atom_site_type_symbol
 _atom_site_label
 _atom_site_symmetry_multiplicity
 _atom_site_fract_x
 _atom_site_fract_y
 _atom_site_fract_z
 _atom_site_occupancy
  Tb  Tb0  1  0.019669  0.179012  0.903051  1
  Y  Y1  1  0.367555  0.837789  0.877339  1
  Y  Y2  1  0.867448  0.663255  0.622112  1
  Y  Y3  1  0.631888  0.162624  0.377390  1
  Y  Y4  1  0.132541  0.337288  0.122782  1
  Y  Y5  1  0.632727  0.162758  0.122833  1
  Y  Y6  1  0.131955  0.337353  0.377310  1
  Y  Y7  1  0.368522  0.837640  0.622339  1
  Y  Y8  1  0.867123  0.662851  0.877537  1
  Y  Y9  1  0.521588  0.320926  0.902896  1
  Y  Y10  1  0.021624  0.178728  0.597330  1
  Y  Y11  1  0.478369  0.678938  0.402525  1
  Y  Y12  1  0.978993  0.820674  0.097277  1
  Y  Y13  1  0.478871  0.679040  0.097406  1
  Y  Y14  1  0.978405  0.821070  0.402660  1
  Y  Y15  1  0.521834  0.320911  0.596862  1
  Y  Y16  1  0.198817  0.502681  0.749888  1
  Tm  Tm17  1  0.699407  0.996641  0.749759  1
  Tm  Tm18  1  0.800912  0.496781  0.250139  1
  Tm  Tm19  1  0.300962  0.003259  0.250222  1
  Sn  Sn20  1  0.293333  0.036243  0.042736  1
  Sn  Sn21  1  0.792602  0.463613  0.457408  1
  Sn  Sn22  1  0.707540  0.964085  0.542225  1
  Sn  Sn23  1  0.207071  0.536846  0.958566  1
  Sn  Sn24  1  0.706267  0.962856  0.957957  1
  Sn  Sn25  1  0.207385  0.536592  0.541472  1
  Sn  Sn26  1  0.292493  0.036300  0.457503  1
  Sn  Sn27  1  0.793371  0.463318  0.042404  1
  Sn  Sn28  1  0.565884  0.619266  0.749942  1
  Sn  Sn29  1  0.064116  0.882396  0.750055  1
  Sn  Sn30  1  0.435737  0.381528  0.250089  1
  Sn  Sn31  1  0.935711  0.118472  0.250101  1
  Sn  Sn32  1  0.331992  0.147666  0.749987  1
  Sn  Sn33  1  0.830121  0.350318  0.749887  1
  Sn  Sn34  1  0.668747  0.850466  0.249969  1
  Sn  Sn35  1  0.168417  0.649814  0.250046  1
