# generated using pymatgen
data_Ba2Sr3Si6Ge
_symmetry_space_group_name_H-M   'P 1'
_cell_length_a   9.44937345
_cell_length_b   9.47125401
_cell_length_c   4.18440300
_cell_angle_alpha   90.00000000
_cell_angle_beta   90.00000000
_cell_angle_gamma   120.07663683
_symmetry_Int_Tables_number   1
_chemical_formula_structural   Ba2Sr3Si6Ge
_chemical_formula_sum   'Ba2 Sr3 Si6 Ge1'
_cell_volume   324.06992923
_cell_formula_units_Z   1
loop_
 _symmetry_equiv_pos_site_id
 _symmetry_equiv_pos_as_xyz
  1  'x, y, z'
loop_
 _atom_site_type_symbol
 _atom_site_label
 _atom_site_symmetry_multiplicity
 _atom_site_fract_x
 _atom_site_fract_y
 _atom_site_fract_z
 _atom_site_occupancy
  Ba  Ba0  1  0.334620  0.667508  0.000000  1
  Ba  Ba1  1  0.665380  0.332887  0.000000  1
  Sr  Sr2  1  0.000000  0.743812  0.500000  1
  Sr  Sr3  1  0.258226  0.257241  0.500000  1
  Sr  Sr4  1  0.741774  0.999015  0.500000  1
  Si  Si5  1  0.000000  0.999198  0.000000  1
  Si  Si6  1  0.000000  0.254605  0.000000  1
  Si  Si7  1  0.741256  0.741045  0.000000  1
  Si  Si8  1  0.258744  0.999790  0.000000  1
  Si  Si9  1  0.599665  0.599669  0.500000  1
  Si  Si10  1  0.400335  0.000004  0.500000  1
  Ge  Ge11  1  0.000000  0.405225  0.500000  1
