# generated using pymatgen
data_Yb2Fe6P7Ir6
_symmetry_space_group_name_H-M   'P 1'
_cell_length_a   9.31281200
_cell_length_b   9.31281256
_cell_length_c   3.79328500
_cell_angle_alpha   90.00000000
_cell_angle_beta   90.00000000
_cell_angle_gamma   119.99999090
_symmetry_Int_Tables_number   1
_chemical_formula_structural   Yb2Fe6P7Ir6
_chemical_formula_sum   'Yb2 Fe6 P7 Ir6'
_cell_volume   284.91009867
_cell_formula_units_Z   1
loop_
 _symmetry_equiv_pos_site_id
 _symmetry_equiv_pos_as_xyz
  1  'x, y, z'
loop_
 _atom_site_type_symbol
 _atom_site_label
 _atom_site_symmetry_multiplicity
 _atom_site_fract_x
 _atom_site_fract_y
 _atom_site_fract_z
 _atom_site_occupancy
  Yb  Yb0  1  0.666667  0.333333  0.000000  1
  Yb  Yb1  1  0.333333  0.666667  0.500000  1
  Fe  Fe2  1  0.265295  0.108940  0.000000  1
  Fe  Fe3  1  0.843645  0.734705  0.000000  1
  Fe  Fe4  1  0.891060  0.156355  0.000000  1
  Fe  Fe5  1  0.089073  0.874239  0.500000  1
  Fe  Fe6  1  0.785166  0.910927  0.500000  1
  Fe  Fe7  1  0.125761  0.214834  0.500000  1
  P  P8  1  0.293376  0.888798  0.000000  1
  P  P9  1  0.595422  0.706624  0.000000  1
  P  P10  1  0.111202  0.404578  0.000000  1
  P  P11  1  0.390858  0.276568  0.500000  1
  P  P12  1  0.885710  0.609142  0.500000  1
  P  P13  1  0.723432  0.114290  0.500000  1
  P  P14  1  0.000000  0.000000  0.000000  1
  Ir  Ir15  1  0.061381  0.634006  0.000000  1
  Ir  Ir16  1  0.572625  0.938619  0.000000  1
  Ir  Ir17  1  0.365994  0.427375  0.000000  1
  Ir  Ir18  1  0.437564  0.052885  0.500000  1
  Ir  Ir19  1  0.615321  0.562436  0.500000  1
  Ir  Ir20  1  0.947115  0.384679  0.500000  1
