# generated using pymatgen
data_NaY3(Pt2O7)2
_symmetry_space_group_name_H-M   'P 1'
_cell_length_a   7.27158598
_cell_length_b   7.27158639
_cell_length_c   7.27158655
_cell_angle_alpha   60.25843150
_cell_angle_beta   60.25843339
_cell_angle_gamma   60.25842814
_symmetry_Int_Tables_number   1
_chemical_formula_structural   NaY3(Pt2O7)2
_chemical_formula_sum   'Na1 Y3 Pt4 O14'
_cell_volume   273.46740106
_cell_formula_units_Z   1
loop_
 _symmetry_equiv_pos_site_id
 _symmetry_equiv_pos_as_xyz
  1  'x, y, z'
loop_
 _atom_site_type_symbol
 _atom_site_label
 _atom_site_symmetry_multiplicity
 _atom_site_fract_x
 _atom_site_fract_y
 _atom_site_fract_z
 _atom_site_occupancy
  Na  Na0  1  0.500000  0.500000  0.500000  1
  Y  Y1  1  0.000000  0.500000  0.500000  1
  Y  Y2  1  0.500000  0.500000  0.000000  1
  Y  Y3  1  0.500000  0.000000  0.500000  1
  Pt  Pt4  1  0.000000  0.000000  0.000000  1
  Pt  Pt5  1  0.500000  0.000000  0.000000  1
  Pt  Pt6  1  0.000000  0.000000  0.500000  1
  Pt  Pt7  1  0.000000  0.500000  0.000000  1
  O  O8  1  0.370155  0.370155  0.370155  1
  O  O9  1  0.629845  0.629845  0.629845  1
  O  O10  1  0.933146  0.330580  0.330580  1
  O  O11  1  0.335634  0.912537  0.912537  1
  O  O12  1  0.330580  0.330580  0.933146  1
  O  O13  1  0.912537  0.912537  0.335634  1
  O  O14  1  0.912537  0.335634  0.912537  1
  O  O15  1  0.330580  0.933146  0.330580  1
  O  O16  1  0.066854  0.669420  0.669420  1
  O  O17  1  0.664366  0.087463  0.087463  1
  O  O18  1  0.669420  0.669420  0.066854  1
  O  O19  1  0.087463  0.087463  0.664366  1
  O  O20  1  0.087463  0.664366  0.087463  1
  O  O21  1  0.669420  0.066854  0.669420  1
