# generated using pymatgen
data_U(TcC)4
_symmetry_space_group_name_H-M   'P 1'
_cell_length_a   8.39390300
_cell_length_b   8.39390300
_cell_length_c   3.05183200
_cell_angle_alpha   90.00000000
_cell_angle_beta   90.00000000
_cell_angle_gamma   90.00000000
_symmetry_Int_Tables_number   1
_chemical_formula_structural   U(TcC)4
_chemical_formula_sum   'U2 Tc8 C8'
_cell_volume   215.02478144
_cell_formula_units_Z   2
loop_
 _symmetry_equiv_pos_site_id
 _symmetry_equiv_pos_as_xyz
  1  'x, y, z'
loop_
 _atom_site_type_symbol
 _atom_site_label
 _atom_site_symmetry_multiplicity
 _atom_site_fract_x
 _atom_site_fract_y
 _atom_site_fract_z
 _atom_site_occupancy
  U  U0  1  0.000000  0.000000  0.000000  1
  U  U1  1  0.500000  0.500000  0.500000  1
  Tc  Tc2  1  0.372465  0.161413  0.000000  1
  Tc  Tc3  1  0.161413  0.627535  0.000000  1
  Tc  Tc4  1  0.316040  0.850117  0.500000  1
  Tc  Tc5  1  0.149883  0.316040  0.500000  1
  Tc  Tc6  1  0.627535  0.838587  0.000000  1
  Tc  Tc7  1  0.683960  0.149883  0.500000  1
  Tc  Tc8  1  0.850117  0.683960  0.500000  1
  Tc  Tc9  1  0.838587  0.372465  0.000000  1
  C  C10  1  0.768450  0.919349  0.500000  1
  C  C11  1  0.231550  0.080651  0.500000  1
  C  C12  1  0.919349  0.231550  0.500000  1
  C  C13  1  0.283371  0.404168  0.000000  1
  C  C14  1  0.404168  0.716629  0.000000  1
  C  C15  1  0.080651  0.768450  0.500000  1
  C  C16  1  0.595832  0.283371  0.000000  1
  C  C17  1  0.716629  0.595832  0.000000  1
