# generated using pymatgen
data_Dy3YAl18(OsRh2)2
_symmetry_space_group_name_H-M   'P 1'
_cell_length_a   7.52354439
_cell_length_b   7.52262979
_cell_length_c   9.50907000
_cell_angle_alpha   90.00000000
_cell_angle_beta   90.00000000
_cell_angle_gamma   118.52769329
_symmetry_Int_Tables_number   1
_chemical_formula_structural   Dy3YAl18(OsRh2)2
_chemical_formula_sum   'Dy3 Y1 Al18 Os2 Rh4'
_cell_volume   472.84052181
_cell_formula_units_Z   1
loop_
 _symmetry_equiv_pos_site_id
 _symmetry_equiv_pos_as_xyz
  1  'x, y, z'
loop_
 _atom_site_type_symbol
 _atom_site_label
 _atom_site_symmetry_multiplicity
 _atom_site_fract_x
 _atom_site_fract_y
 _atom_site_fract_z
 _atom_site_occupancy
  Dy  Dy0  1  0.993200  0.679387  0.250000  1
  Dy  Dy1  1  0.006201  0.320267  0.750000  1
  Dy  Dy2  1  0.679463  0.993240  0.250000  1
  Y  Y3  1  0.320799  0.006239  0.750000  1
  Al  Al4  1  0.133598  0.133660  0.250000  1
  Al  Al5  1  0.866383  0.866614  0.750000  1
  Al  Al6  1  0.002718  0.337669  0.074280  1
  Al  Al7  1  0.997350  0.662373  0.925718  1
  Al  Al8  1  0.997350  0.662373  0.574282  1
  Al  Al9  1  0.337521  0.002644  0.425664  1
  Al  Al10  1  0.002718  0.337669  0.425720  1
  Al  Al11  1  0.662515  0.997433  0.574399  1
  Al  Al12  1  0.662515  0.997433  0.925601  1
  Al  Al13  1  0.337521  0.002644  0.074336  1
  Al  Al14  1  0.331962  0.332043  0.545626  1
  Al  Al15  1  0.668035  0.668020  0.454313  1
  Al  Al16  1  0.668035  0.668020  0.045687  1
  Al  Al17  1  0.331962  0.332043  0.954374  1
  Al  Al18  1  0.340430  0.553144  0.250000  1
  Al  Al19  1  0.659839  0.446823  0.750000  1
  Al  Al20  1  0.553207  0.340493  0.250000  1
  Al  Al21  1  0.446643  0.659277  0.750000  1
  Os  Os22  1  0.999889  0.000057  0.000171  1
  Os  Os23  1  0.999889  0.000057  0.499829  1
  Rh  Rh24  1  0.671841  0.328316  0.000121  1
  Rh  Rh25  1  0.328287  0.671874  0.000116  1
  Rh  Rh26  1  0.328287  0.671874  0.499884  1
  Rh  Rh27  1  0.671841  0.328316  0.499879  1
