# generated using pymatgen
data_Sc6Al6ZnSi2Au3
_symmetry_space_group_name_H-M   'P 1'
_cell_length_a   6.72187600
_cell_length_b   6.72187654
_cell_length_c   8.31761000
_cell_angle_alpha   90.00000000
_cell_angle_beta   90.00000000
_cell_angle_gamma   119.99999735
_symmetry_Int_Tables_number   1
_chemical_formula_structural   Sc6Al6ZnSi2Au3
_chemical_formula_sum   'Sc6 Al6 Zn1 Si2 Au3'
_cell_volume   325.46944596
_cell_formula_units_Z   1
loop_
 _symmetry_equiv_pos_site_id
 _symmetry_equiv_pos_as_xyz
  1  'x, y, z'
loop_
 _atom_site_type_symbol
 _atom_site_label
 _atom_site_symmetry_multiplicity
 _atom_site_fract_x
 _atom_site_fract_y
 _atom_site_fract_z
 _atom_site_occupancy
  Sc  Sc0  1  0.574506  0.001754  0.747307  1
  Sc  Sc1  1  0.998246  0.572750  0.747307  1
  Sc  Sc2  1  0.427250  0.425494  0.747307  1
  Sc  Sc3  1  0.997880  0.572547  0.252697  1
  Sc  Sc4  1  0.574666  0.002120  0.252697  1
  Sc  Sc5  1  0.427453  0.425334  0.252697  1
  Al  Al6  1  0.748169  0.751358  0.999974  1
  Al  Al7  1  0.248642  0.996811  0.999974  1
  Al  Al8  1  0.003189  0.251831  0.999974  1
  Al  Al9  1  0.753271  0.750734  0.499956  1
  Al  Al10  1  0.249266  0.002538  0.499956  1
  Al  Al11  1  0.997462  0.246729  0.499956  1
  Zn  Zn12  1  0.666667  0.333333  0.500212  1
  Si  Si13  1  0.666667  0.333333  0.999924  1
  Si  Si14  1  0.333333  0.666667  0.499909  1
  Au  Au15  1  0.000000  0.000000  0.751730  1
  Au  Au16  1  0.000000  0.000000  0.248155  1
  Au  Au17  1  0.333333  0.666667  0.000265  1
