# generated using pymatgen
data_Ho12Co6Ag
_symmetry_space_group_name_H-M   'P 1'
_cell_length_a   8.32552604
_cell_length_b   8.32552552
_cell_length_c   8.32552700
_cell_angle_alpha   109.47122666
_cell_angle_beta   109.47122539
_cell_angle_gamma   109.47121370
_symmetry_Int_Tables_number   1
_chemical_formula_structural   Ho12Co6Ag
_chemical_formula_sum   'Ho12 Co6 Ag1'
_cell_volume   444.23539898
_cell_formula_units_Z   1
loop_
 _symmetry_equiv_pos_site_id
 _symmetry_equiv_pos_as_xyz
  1  'x, y, z'
loop_
 _atom_site_type_symbol
 _atom_site_label
 _atom_site_symmetry_multiplicity
 _atom_site_fract_x
 _atom_site_fract_y
 _atom_site_fract_z
 _atom_site_occupancy
  Ho  Ho0  1  0.806077  0.696809  0.502885  1
  Ho  Ho1  1  0.193923  0.303191  0.497115  1
  Ho  Ho2  1  0.193923  0.696809  0.890732  1
  Ho  Ho3  1  0.806077  0.303191  0.109268  1
  Ho  Ho4  1  0.696809  0.502885  0.806077  1
  Ho  Ho5  1  0.303191  0.497115  0.193923  1
  Ho  Ho6  1  0.696809  0.890732  0.193923  1
  Ho  Ho7  1  0.303191  0.109268  0.806077  1
  Ho  Ho8  1  0.502885  0.806077  0.696809  1
  Ho  Ho9  1  0.497115  0.193923  0.303191  1
  Ho  Ho10  1  0.109268  0.806077  0.303191  1
  Ho  Ho11  1  0.890732  0.193923  0.696809  1
  Co  Co12  1  0.885793  0.385793  0.500000  1
  Co  Co13  1  0.114207  0.614207  0.500000  1
  Co  Co14  1  0.385793  0.500000  0.885793  1
  Co  Co15  1  0.614207  0.500000  0.114207  1
  Co  Co16  1  0.500000  0.885793  0.385793  1
  Co  Co17  1  0.500000  0.114207  0.614207  1
  Ag  Ag18  1  0.000000  0.000000  0.000000  1
