# generated using pymatgen
data_Tb4Mg3CdPt4
_symmetry_space_group_name_H-M   'P 1'
_cell_length_a   4.19527900
_cell_length_b   7.14240276
_cell_length_c   8.70830738
_cell_angle_alpha   91.81037943
_cell_angle_beta   90.00000000
_cell_angle_gamma   90.00000000
_symmetry_Int_Tables_number   1
_chemical_formula_structural   Tb4Mg3CdPt4
_chemical_formula_sum   'Tb4 Mg3 Cd1 Pt4'
_cell_volume   260.80871795
_cell_formula_units_Z   1
loop_
 _symmetry_equiv_pos_site_id
 _symmetry_equiv_pos_as_xyz
  1  'x, y, z'
loop_
 _atom_site_type_symbol
 _atom_site_label
 _atom_site_symmetry_multiplicity
 _atom_site_fract_x
 _atom_site_fract_y
 _atom_site_fract_z
 _atom_site_occupancy
  Tb  Tb0  1  0.250000  0.043709  0.328044  1
  Tb  Tb1  1  0.250000  0.538459  0.179594  1
  Tb  Tb2  1  0.750000  0.963615  0.674597  1
  Tb  Tb3  1  0.750000  0.457195  0.820025  1
  Mg  Mg4  1  0.250000  0.132670  0.939912  1
  Mg  Mg5  1  0.250000  0.633805  0.558372  1
  Mg  Mg6  1  0.750000  0.863758  0.060345  1
  Cd  Cd7  1  0.750000  0.364143  0.438310  1
  Pt  Pt8  1  0.250000  0.244333  0.638763  1
  Pt  Pt9  1  0.250000  0.744362  0.874993  1
  Pt  Pt10  1  0.750000  0.761509  0.370873  1
  Pt  Pt11  1  0.750000  0.252440  0.116173  1
