# generated using pymatgen
data_Ba8V3GaO16
_symmetry_space_group_name_H-M   'P 1'
_cell_length_a   7.75994521
_cell_length_b   6.23003307
_cell_length_c   11.86013030
_cell_angle_alpha   62.58253008
_cell_angle_beta   90.55936000
_cell_angle_gamma   89.79564002
_symmetry_Int_Tables_number   1
_chemical_formula_structural   Ba8V3GaO16
_chemical_formula_sum   'Ba8 V3 Ga1 O16'
_cell_volume   508.92508481
_cell_formula_units_Z   1
loop_
 _symmetry_equiv_pos_site_id
 _symmetry_equiv_pos_as_xyz
  1  'x, y, z'
loop_
 _atom_site_type_symbol
 _atom_site_label
 _atom_site_symmetry_multiplicity
 _atom_site_fract_x
 _atom_site_fract_y
 _atom_site_fract_z
 _atom_site_occupancy
  Ba  Ba0  1  0.512913  0.033551  0.195622  1
  Ba  Ba1  1  0.995582  0.977622  0.302053  1
  Ba  Ba2  1  0.506925  0.988890  0.799988  1
  Ba  Ba3  1  0.989106  0.029288  0.695243  1
  Ba  Ba4  1  0.153533  0.314040  0.916215  1
  Ba  Ba5  1  0.660347  0.683988  0.584866  1
  Ba  Ba6  1  0.839729  0.691151  0.064482  1
  Ba  Ba7  1  0.341250  0.308218  0.435349  1
  V  V8  1  0.219927  0.663537  0.579855  1
  V  V9  1  0.279907  0.654690  0.082681  1
  V  V10  1  0.777904  0.346019  0.414728  1
  Ga  Ga11  1  0.719076  0.337686  0.920672  1
  O  O12  1  0.761036  0.668812  0.820951  1
  O  O13  1  0.254648  0.335915  0.672012  1
  O  O14  1  0.238796  0.347687  0.176912  1
  O  O15  1  0.742581  0.668692  0.315854  1
  O  O16  1  0.836319  0.138629  0.863552  1
  O  O17  1  0.325625  0.857632  0.637005  1
  O  O18  1  0.178544  0.834620  0.140590  1
  O  O19  1  0.669794  0.136825  0.369685  1
  O  O20  1  0.825922  0.250491  0.081595  1
  O  O21  1  0.323044  0.750287  0.426324  1
  O  O22  1  0.191854  0.746439  0.930063  1
  O  O23  1  0.674459  0.265824  0.569137  1
  O  O24  1  0.005950  0.282611  0.419640  1
  O  O25  1  0.498968  0.703962  0.075401  1
  O  O26  1  0.991733  0.721011  0.574014  1
  O  O27  1  0.484531  0.261883  0.935510  1
