# generated using pymatgen
data_Ce2P7Ru12
_symmetry_space_group_name_H-M   'P 1'
_cell_length_a   9.47576100
_cell_length_b   9.47576047
_cell_length_c   3.94351500
_cell_angle_alpha   90.00000000
_cell_angle_beta   90.00000000
_cell_angle_gamma   119.99999742
_symmetry_Int_Tables_number   1
_chemical_formula_structural   Ce2P7Ru12
_chemical_formula_sum   'Ce2 P7 Ru12'
_cell_volume   306.64953635
_cell_formula_units_Z   1
loop_
 _symmetry_equiv_pos_site_id
 _symmetry_equiv_pos_as_xyz
  1  'x, y, z'
loop_
 _atom_site_type_symbol
 _atom_site_label
 _atom_site_symmetry_multiplicity
 _atom_site_fract_x
 _atom_site_fract_y
 _atom_site_fract_z
 _atom_site_occupancy
  Ce  Ce0  1  0.666667  0.333333  0.500000  1
  Ce  Ce1  1  0.333333  0.666667  0.000000  1
  P  P2  1  0.602695  0.715458  0.500000  1
  P  P3  1  0.000000  0.000000  0.000000  1
  P  P4  1  0.284542  0.887237  0.500000  1
  P  P5  1  0.112763  0.397305  0.500000  1
  P  P6  1  0.889709  0.579018  0.000000  1
  P  P7  1  0.420982  0.310691  0.000000  1
  P  P8  1  0.689309  0.110291  0.000000  1
  Ru  Ru9  1  0.557904  0.948124  0.500000  1
  Ru  Ru10  1  0.390222  0.442096  0.500000  1
  Ru  Ru11  1  0.911761  0.122024  0.500000  1
  Ru  Ru12  1  0.210262  0.088239  0.500000  1
  Ru  Ru13  1  0.877976  0.789738  0.500000  1
  Ru  Ru14  1  0.728619  0.889829  0.000000  1
  Ru  Ru15  1  0.110171  0.838790  0.000000  1
  Ru  Ru16  1  0.161210  0.271381  0.000000  1
  Ru  Ru17  1  0.426719  0.068940  0.000000  1
  Ru  Ru18  1  0.931060  0.357780  0.000000  1
  Ru  Ru19  1  0.642220  0.573281  0.000000  1
  Ru  Ru20  1  0.051876  0.609778  0.500000  1
