# generated using pymatgen
data_BaTa6PbS12
_symmetry_space_group_name_H-M   'P 1'
_cell_length_a   5.83576700
_cell_length_b   5.83576721
_cell_length_c   15.48019000
_cell_angle_alpha   90.00000000
_cell_angle_beta   90.00000000
_cell_angle_gamma   119.99999316
_symmetry_Int_Tables_number   1
_chemical_formula_structural   BaTa6PbS12
_chemical_formula_sum   'Ba1 Ta6 Pb1 S12'
_cell_volume   456.56524792
_cell_formula_units_Z   1
loop_
 _symmetry_equiv_pos_site_id
 _symmetry_equiv_pos_as_xyz
  1  'x, y, z'
loop_
 _atom_site_type_symbol
 _atom_site_label
 _atom_site_symmetry_multiplicity
 _atom_site_fract_x
 _atom_site_fract_y
 _atom_site_fract_z
 _atom_site_occupancy
  Ba  Ba0  1  0.000000  0.000000  0.500000  1
  Ta  Ta1  1  0.000000  0.000000  0.242889  1
  Ta  Ta2  1  0.000000  0.000000  0.757111  1
  Ta  Ta3  1  0.333333  0.666667  0.242138  1
  Ta  Ta4  1  0.666667  0.333333  0.757862  1
  Ta  Ta5  1  0.666667  0.333333  0.242138  1
  Ta  Ta6  1  0.333333  0.666667  0.757862  1
  Pb  Pb7  1  0.000000  0.000000  0.000000  1
  S  S8  1  0.336108  0.000000  0.142425  1
  S  S9  1  0.000000  0.336108  0.142425  1
  S  S10  1  0.663892  0.663892  0.142425  1
  S  S11  1  0.336962  0.336962  0.657075  1
  S  S12  1  0.663038  0.663038  0.342925  1
  S  S13  1  0.663038  0.000000  0.657075  1
  S  S14  1  0.000000  0.663038  0.657075  1
  S  S15  1  0.000000  0.663892  0.857575  1
  S  S16  1  0.336108  0.336108  0.857575  1
  S  S17  1  0.000000  0.336962  0.342925  1
  S  S18  1  0.336962  0.000000  0.342925  1
  S  S19  1  0.663892  0.000000  0.857575  1
