# generated using pymatgen
data_LiDy4Ho2Co17P12
_symmetry_space_group_name_H-M   'P 1'
_cell_length_a   3.70782200
_cell_length_b   10.53950000
_cell_length_c   12.18145000
_cell_angle_alpha   90.00000000
_cell_angle_beta   90.00000000
_cell_angle_gamma   90.00000000
_symmetry_Int_Tables_number   1
_chemical_formula_structural   LiDy4Ho2Co17P12
_chemical_formula_sum   'Li1 Dy4 Ho2 Co17 P12'
_cell_volume   476.03388978
_cell_formula_units_Z   1
loop_
 _symmetry_equiv_pos_site_id
 _symmetry_equiv_pos_as_xyz
  1  'x, y, z'
loop_
 _atom_site_type_symbol
 _atom_site_label
 _atom_site_symmetry_multiplicity
 _atom_site_fract_x
 _atom_site_fract_y
 _atom_site_fract_z
 _atom_site_occupancy
  Li  Li0  1  0.500000  0.500000  0.152114  1
  Dy  Dy1  1  0.000000  0.500000  0.522860  1
  Dy  Dy2  1  0.500000  0.000000  0.478275  1
  Dy  Dy3  1  0.500000  0.819268  0.206444  1
  Dy  Dy4  1  0.500000  0.180732  0.206444  1
  Ho  Ho5  1  0.000000  0.682176  0.794335  1
  Ho  Ho6  1  0.000000  0.317824  0.794335  1
  Co  Co7  1  0.000000  0.500000  0.985596  1
  Co  Co8  1  0.500000  0.000000  0.011921  1
  Co  Co9  1  0.500000  0.296405  0.432128  1
  Co  Co10  1  0.500000  0.703595  0.432128  1
  Co  Co11  1  0.000000  0.202345  0.570653  1
  Co  Co12  1  0.000000  0.797655  0.570653  1
  Co  Co13  1  0.500000  0.879654  0.709463  1
  Co  Co14  1  0.500000  0.120346  0.709463  1
  Co  Co15  1  0.000000  0.622091  0.292949  1
  Co  Co16  1  0.000000  0.377909  0.292949  1
  Co  Co17  1  0.500000  0.331108  0.994799  1
  Co  Co18  1  0.500000  0.668892  0.994799  1
  Co  Co19  1  0.000000  0.165015  0.002977  1
  Co  Co20  1  0.000000  0.834985  0.002977  1
  Co  Co21  1  0.000000  0.000000  0.840448  1
  Co  Co22  1  0.500000  0.500000  0.704296  1
  Co  Co23  1  0.000000  0.000000  0.296611  1
  P  P24  1  0.500000  0.309989  0.617095  1
  P  P25  1  0.500000  0.690011  0.617095  1
  P  P26  1  0.000000  0.189802  0.385274  1
  P  P27  1  0.000000  0.810198  0.385274  1
  P  P28  1  0.500000  0.500000  0.883996  1
  P  P29  1  0.000000  0.000000  0.116457  1
  P  P30  1  0.500000  0.847394  0.891606  1
  P  P31  1  0.500000  0.152606  0.891606  1
  P  P32  1  0.000000  0.657008  0.105258  1
  P  P33  1  0.000000  0.342992  0.105258  1
  P  P34  1  0.500000  0.500000  0.345480  1
  P  P35  1  0.000000  0.000000  0.655982  1
