# generated using pymatgen
data_Er13Tm7Bi11Sb
_symmetry_space_group_name_H-M   'P 1'
_cell_length_a   8.16834115
_cell_length_b   9.43724200
_cell_length_c   11.91578611
_cell_angle_alpha   89.99934498
_cell_angle_beta   89.95071456
_cell_angle_gamma   89.99701919
_symmetry_Int_Tables_number   1
_chemical_formula_structural   Er13Tm7Bi11Sb
_chemical_formula_sum   'Er13 Tm7 Bi11 Sb1'
_cell_volume   918.54724164
_cell_formula_units_Z   1
loop_
 _symmetry_equiv_pos_site_id
 _symmetry_equiv_pos_as_xyz
  1  'x, y, z'
loop_
 _atom_site_type_symbol
 _atom_site_label
 _atom_site_symmetry_multiplicity
 _atom_site_fract_x
 _atom_site_fract_y
 _atom_site_fract_z
 _atom_site_occupancy
  Er  Er0  1  0.028109  0.249999  0.511343  1
  Er  Er1  1  0.976374  0.750032  0.489224  1
  Er  Er2  1  0.475243  0.749977  0.011325  1
  Er  Er3  1  0.525346  0.250091  0.988541  1
  Er  Er4  1  0.356006  0.250084  0.286144  1
  Er  Er5  1  0.645169  0.750014  0.716978  1
  Er  Er6  1  0.145049  0.750023  0.782521  1
  Er  Er7  1  0.855033  0.250068  0.217220  1
  Er  Er8  1  0.189166  0.250048  0.780116  1
  Er  Er9  1  0.812396  0.749996  0.217911  1
  Er  Er10  1  0.312777  0.749986  0.281985  1
  Er  Er11  1  0.682626  0.249995  0.715080  1
  Er  Er12  1  0.193028  0.065401  0.059829  1
  Tm  Tm13  1  0.806999  0.934735  0.940416  1
  Tm  Tm14  1  0.308364  0.938395  0.559368  1
  Tm  Tm15  1  0.806948  0.565228  0.940405  1
  Tm  Tm16  1  0.690220  0.067760  0.441960  1
  Tm  Tm17  1  0.193042  0.434419  0.059892  1
  Tm  Tm18  1  0.690232  0.432247  0.441962  1
  Tm  Tm19  1  0.308336  0.561589  0.559356  1
  Bi  Bi20  1  0.594249  0.749995  0.457238  1
  Bi  Bi21  1  0.093747  0.749702  0.042553  1
  Bi  Bi22  1  0.906820  0.250106  0.956527  1
  Bi  Bi23  1  0.066457  0.003680  0.325900  1
  Bi  Bi24  1  0.932889  0.996689  0.674247  1
  Bi  Bi25  1  0.433261  0.996047  0.825704  1
  Bi  Bi26  1  0.932907  0.503324  0.674253  1
  Bi  Bi27  1  0.566744  0.004082  0.174457  1
  Bi  Bi28  1  0.066481  0.496351  0.325879  1
  Bi  Bi29  1  0.566693  0.495957  0.174447  1
  Bi  Bi30  1  0.433281  0.503984  0.825731  1
  Sb  Sb31  1  0.406011  0.249996  0.541487  1
