# generated using pymatgen
data_CaDyLu2(B6Os)2
_symmetry_space_group_name_H-M   'P 1'
_cell_length_a   3.61480000
_cell_length_b   9.09986484
_cell_length_c   11.50675300
_cell_angle_alpha   89.85268385
_cell_angle_beta   90.00000000
_cell_angle_gamma   90.00000000
_symmetry_Int_Tables_number   1
_chemical_formula_structural   CaDyLu2(B6Os)2
_chemical_formula_sum   'Ca2 Dy2 Lu4 B24 Os4'
_cell_volume   378.50408464
_cell_formula_units_Z   2
loop_
 _symmetry_equiv_pos_site_id
 _symmetry_equiv_pos_as_xyz
  1  'x, y, z'
loop_
 _atom_site_type_symbol
 _atom_site_label
 _atom_site_symmetry_multiplicity
 _atom_site_fract_x
 _atom_site_fract_y
 _atom_site_fract_z
 _atom_site_occupancy
  Ca  Ca0  1  0.000000  0.323252  0.414577  1
  Ca  Ca1  1  0.000000  0.676748  0.585423  1
  Dy  Dy2  1  0.000000  0.821706  0.086312  1
  Dy  Dy3  1  0.000000  0.178294  0.913688  1
  Lu  Lu4  1  0.000000  0.942878  0.370430  1
  Lu  Lu5  1  0.000000  0.057122  0.629570  1
  Lu  Lu6  1  0.000000  0.443356  0.129415  1
  Lu  Lu7  1  0.000000  0.556644  0.870585  1
  B  B8  1  0.500000  0.554479  0.431732  1
  B  B9  1  0.500000  0.445521  0.568268  1
  B  B10  1  0.500000  0.053997  0.066753  1
  B  B11  1  0.500000  0.946003  0.933247  1
  B  B12  1  0.500000  0.749806  0.417134  1
  B  B13  1  0.500000  0.250194  0.582866  1
  B  B14  1  0.500000  0.249663  0.081068  1
  B  B15  1  0.500000  0.750337  0.918932  1
  B  B16  1  0.500000  0.792396  0.264326  1
  B  B17  1  0.500000  0.207604  0.735673  1
  B  B18  1  0.500000  0.291193  0.233420  1
  B  B19  1  0.500000  0.708807  0.766581  1
  B  B20  1  0.500000  0.630883  0.184229  1
  B  B21  1  0.500000  0.369117  0.815771  1
  B  B22  1  0.500000  0.129963  0.313827  1
  B  B23  1  0.500000  0.870037  0.686173  1
  B  B24  1  0.500000  0.982690  0.211982  1
  B  B25  1  0.500000  0.017310  0.788018  1
  B  B26  1  0.500000  0.483465  0.286564  1
  B  B27  1  0.500000  0.516535  0.713436  1
  B  B28  1  0.500000  0.601510  0.027796  1
  B  B29  1  0.500000  0.398490  0.972204  1
  B  B30  1  0.500000  0.097727  0.473112  1
  B  B31  1  0.500000  0.902273  0.526888  1
  Os  Os32  1  0.000000  0.640929  0.317254  1
  Os  Os33  1  0.000000  0.359071  0.682746  1
  Os  Os34  1  0.000000  0.137352  0.178002  1
  Os  Os35  1  0.000000  0.862648  0.821998  1
