# generated using pymatgen
data_HoEr19(Zn3Ru)2
_symmetry_space_group_name_H-M   'P 1'
_cell_length_a   9.33316301
_cell_length_b   9.33316243
_cell_length_c   9.55928800
_cell_angle_alpha   90.00000000
_cell_angle_beta   90.00000000
_cell_angle_gamma   120.00482834
_symmetry_Int_Tables_number   1
_chemical_formula_structural   HoEr19(Zn3Ru)2
_chemical_formula_sum   'Ho1 Er19 Zn6 Ru2'
_cell_volume   721.09539316
_cell_formula_units_Z   1
loop_
 _symmetry_equiv_pos_site_id
 _symmetry_equiv_pos_as_xyz
  1  'x, y, z'
loop_
 _atom_site_type_symbol
 _atom_site_label
 _atom_site_symmetry_multiplicity
 _atom_site_fract_x
 _atom_site_fract_y
 _atom_site_fract_z
 _atom_site_occupancy
  Ho  Ho0  1  0.541270  0.458730  0.250000  1
  Er  Er1  1  0.000000  0.000000  0.500000  1
  Er  Er2  1  0.000000  0.000000  0.000000  1
  Er  Er3  1  0.207894  0.792106  0.442065  1
  Er  Er4  1  0.207827  0.415777  0.442088  1
  Er  Er5  1  0.584223  0.792173  0.442088  1
  Er  Er6  1  0.792120  0.207880  0.557936  1
  Er  Er7  1  0.792138  0.584237  0.557958  1
  Er  Er8  1  0.415763  0.207862  0.557958  1
  Er  Er9  1  0.792120  0.207880  0.942064  1
  Er  Er10  1  0.792138  0.584237  0.942042  1
  Er  Er11  1  0.415763  0.207862  0.942042  1
  Er  Er12  1  0.207894  0.792106  0.057935  1
  Er  Er13  1  0.207827  0.415777  0.057912  1
  Er  Er14  1  0.584223  0.792173  0.057912  1
  Er  Er15  1  0.541283  0.082430  0.250000  1
  Er  Er16  1  0.917570  0.458717  0.250000  1
  Er  Er17  1  0.458726  0.541274  0.750000  1
  Er  Er18  1  0.458714  0.917436  0.750000  1
  Er  Er19  1  0.082564  0.541286  0.750000  1
  Zn  Zn20  1  0.885705  0.114295  0.250000  1
  Zn  Zn21  1  0.885780  0.771480  0.250000  1
  Zn  Zn22  1  0.228520  0.114220  0.250000  1
  Zn  Zn23  1  0.114276  0.885724  0.750000  1
  Zn  Zn24  1  0.114268  0.228561  0.750000  1
  Zn  Zn25  1  0.771439  0.885732  0.750000  1
  Ru  Ru26  1  0.333302  0.666698  0.250000  1
  Ru  Ru27  1  0.666653  0.333347  0.750000  1
