# generated using pymatgen
data_Sc5Ti(AlRh2)6
_symmetry_space_group_name_H-M   'P 1'
_cell_length_a   4.41066400
_cell_length_b   6.22150500
_cell_length_c   13.15048000
_cell_angle_alpha   90.00000000
_cell_angle_beta   90.00000000
_cell_angle_gamma   90.00000000
_symmetry_Int_Tables_number   1
_chemical_formula_structural   Sc5Ti(AlRh2)6
_chemical_formula_sum   'Sc5 Ti1 Al6 Rh12'
_cell_volume   360.86190257
_cell_formula_units_Z   1
loop_
 _symmetry_equiv_pos_site_id
 _symmetry_equiv_pos_as_xyz
  1  'x, y, z'
loop_
 _atom_site_type_symbol
 _atom_site_label
 _atom_site_symmetry_multiplicity
 _atom_site_fract_x
 _atom_site_fract_y
 _atom_site_fract_z
 _atom_site_occupancy
  Sc  Sc0  1  0.000000  0.500000  0.999653  1
  Sc  Sc1  1  0.500003  0.000000  0.166226  1
  Sc  Sc2  1  0.000000  0.500000  0.333333  1
  Sc  Sc3  1  0.500000  0.000000  0.500440  1
  Sc  Sc4  1  0.000000  0.500000  0.667015  1
  Ti  Ti5  1  0.499996  0.000000  0.833334  1
  Al  Al6  1  0.000000  0.000000  0.999104  1
  Al  Al7  1  0.500003  0.500000  0.166288  1
  Al  Al8  1  0.000000  0.000000  0.333333  1
  Al  Al9  1  0.500000  0.500000  0.500377  1
  Al  Al10  1  0.000000  0.000000  0.667564  1
  Al  Al11  1  0.499998  0.500000  0.833335  1
  Rh  Rh12  1  0.500000  0.246478  0.996178  1
  Rh  Rh13  1  0.500000  0.753523  0.996178  1
  Rh  Rh14  1  0.000000  0.249628  0.166106  1
  Rh  Rh15  1  0.000000  0.750372  0.166106  1
  Rh  Rh16  1  0.500003  0.250551  0.333333  1
  Rh  Rh17  1  0.500003  0.749450  0.333333  1
  Rh  Rh18  1  0.000000  0.249628  0.500560  1
  Rh  Rh19  1  0.000000  0.750372  0.500560  1
  Rh  Rh20  1  0.499998  0.246478  0.670490  1
  Rh  Rh21  1  0.499998  0.753523  0.670490  1
  Rh  Rh22  1  0.000000  0.240849  0.833334  1
  Rh  Rh23  1  0.000000  0.759151  0.833334  1
