# generated using pymatgen
data_RbBaMoH9
_symmetry_space_group_name_H-M   'P 1'
_cell_length_a   9.67235100
_cell_length_b   9.67234979
_cell_length_c   5.80413600
_cell_angle_alpha   90.00000000
_cell_angle_beta   90.00000000
_cell_angle_gamma   120.00000754
_symmetry_Int_Tables_number   1
_chemical_formula_structural   RbBaMoH9
_chemical_formula_sum   'Rb3 Ba3 Mo3 H27'
_cell_volume   470.25369985
_cell_formula_units_Z   3
loop_
 _symmetry_equiv_pos_site_id
 _symmetry_equiv_pos_as_xyz
  1  'x, y, z'
loop_
 _atom_site_type_symbol
 _atom_site_label
 _atom_site_symmetry_multiplicity
 _atom_site_fract_x
 _atom_site_fract_y
 _atom_site_fract_z
 _atom_site_occupancy
  Rb  Rb0  1  0.000000  0.587484  0.000000  1
  Rb  Rb1  1  0.412516  0.412516  0.000000  1
  Rb  Rb2  1  0.587484  0.000000  0.000000  1
  Ba  Ba3  1  0.000000  0.272353  0.500000  1
  Ba  Ba4  1  0.727647  0.727647  0.500000  1
  Ba  Ba5  1  0.272353  0.000000  0.500000  1
  Mo  Mo6  1  0.666667  0.333333  0.500000  1
  Mo  Mo7  1  0.333333  0.666667  0.500000  1
  Mo  Mo8  1  0.000000  0.000000  0.000000  1
  H  H9  1  0.778832  0.305824  0.719638  1
  H  H10  1  0.694176  0.473008  0.719638  1
  H  H11  1  0.526992  0.221168  0.719638  1
  H  H12  1  0.221168  0.526992  0.280362  1
  H  H13  1  0.526992  0.221168  0.280362  1
  H  H14  1  0.778832  0.305824  0.280362  1
  H  H15  1  0.694176  0.473008  0.280362  1
  H  H16  1  0.305824  0.778832  0.719638  1
  H  H17  1  0.473008  0.694176  0.719638  1
  H  H18  1  0.180612  0.000000  0.000000  1
  H  H19  1  0.819388  0.819388  0.000000  1
  H  H20  1  0.000000  0.180612  0.000000  1
  H  H21  1  0.870262  0.000000  0.217273  1
  H  H22  1  0.129738  0.129738  0.782727  1
  H  H23  1  0.000000  0.870262  0.782727  1
  H  H24  1  0.000000  0.870262  0.217273  1
  H  H25  1  0.129738  0.129738  0.217273  1
  H  H26  1  0.870262  0.000000  0.782727  1
  H  H27  1  0.137718  0.630022  0.500000  1
  H  H28  1  0.492304  0.862282  0.500000  1
  H  H29  1  0.369978  0.507696  0.500000  1
  H  H30  1  0.507696  0.369978  0.500000  1
  H  H31  1  0.862282  0.492304  0.500000  1
  H  H32  1  0.630022  0.137718  0.500000  1
  H  H33  1  0.221168  0.526992  0.719638  1
  H  H34  1  0.305824  0.778832  0.280362  1
  H  H35  1  0.473008  0.694176  0.280362  1
