# generated using pymatgen
data_SmZn2(Ga3Cu2)2
_symmetry_space_group_name_H-M   'P 1'
_cell_length_a   6.72783041
_cell_length_b   6.72783056
_cell_length_c   6.72783043
_cell_angle_alpha   133.93090069
_cell_angle_beta   99.88505307
_cell_angle_gamma   97.73187631
_symmetry_Int_Tables_number   1
_chemical_formula_structural   SmZn2(Ga3Cu2)2
_chemical_formula_sum   'Sm1 Zn2 Ga6 Cu4'
_cell_volume   201.77847513
_cell_formula_units_Z   1
loop_
 _symmetry_equiv_pos_site_id
 _symmetry_equiv_pos_as_xyz
  1  'x, y, z'
loop_
 _atom_site_type_symbol
 _atom_site_label
 _atom_site_symmetry_multiplicity
 _atom_site_fract_x
 _atom_site_fract_y
 _atom_site_fract_z
 _atom_site_occupancy
  Sm  Sm0  1  0.000000  0.000000  0.000000  1
  Zn  Zn1  1  0.224201  0.500000  0.724201  1
  Zn  Zn2  1  0.775799  0.500000  0.275799  1
  Ga  Ga3  1  0.347314  0.347314  0.000000  1
  Ga  Ga4  1  0.652686  0.652686  0.000000  1
  Ga  Ga5  1  0.651617  0.000000  0.651617  1
  Ga  Ga6  1  0.348383  0.000000  0.348383  1
  Ga  Ga7  1  0.788635  0.288635  0.500000  1
  Ga  Ga8  1  0.211365  0.711365  0.500000  1
  Cu  Cu9  1  0.500000  0.000000  0.000000  1
  Cu  Cu10  1  0.500000  0.500000  0.500000  1
  Cu  Cu11  1  0.000000  0.000000  0.500000  1
  Cu  Cu12  1  0.000000  0.500000  0.000000  1
