# generated using pymatgen
data_MgSc3(Si4Tc3)2
_symmetry_space_group_name_H-M   'P 1'
_cell_length_a   6.60303994
_cell_length_b   6.45990391
_cell_length_c   6.59020200
_cell_angle_alpha   70.53524501
_cell_angle_beta   89.81901971
_cell_angle_gamma   90.05029406
_symmetry_Int_Tables_number   1
_chemical_formula_structural   MgSc3(Si4Tc3)2
_chemical_formula_sum   'Mg1 Sc3 Si8 Tc6'
_cell_volume   265.03711451
_cell_formula_units_Z   1
loop_
 _symmetry_equiv_pos_site_id
 _symmetry_equiv_pos_as_xyz
  1  'x, y, z'
loop_
 _atom_site_type_symbol
 _atom_site_label
 _atom_site_symmetry_multiplicity
 _atom_site_fract_x
 _atom_site_fract_y
 _atom_site_fract_z
 _atom_site_occupancy
  Mg  Mg0  1  0.665760  0.453380  0.177623  1
  Sc  Sc1  1  0.166331  0.058755  0.807258  1
  Sc  Sc2  1  0.332460  0.557775  0.807135  1
  Sc  Sc3  1  0.831161  0.940519  0.193857  1
  Si  Si4  1  0.457857  0.126996  0.101531  1
  Si  Si5  1  0.957477  0.370566  0.904355  1
  Si  Si6  1  0.542356  0.872521  0.903162  1
  Si  Si7  1  0.041280  0.625947  0.099703  1
  Si  Si8  1  0.856810  0.141270  0.499090  1
  Si  Si9  1  0.365817  0.363841  0.494165  1
  Si  Si10  1  0.137427  0.865794  0.495033  1
  Si  Si11  1  0.640361  0.630165  0.504415  1
  Tc  Tc12  1  0.501807  0.998574  0.501773  1
  Tc  Tc13  1  0.000434  0.498211  0.502819  1
  Tc  Tc14  1  0.156462  0.242621  0.234666  1
  Tc  Tc15  1  0.653690  0.254145  0.772454  1
  Tc  Tc16  1  0.847228  0.758556  0.766676  1
  Tc  Tc17  1  0.345285  0.740364  0.234286  1
