# generated using pymatgen
data_Li3La8Er9Si16
_symmetry_space_group_name_H-M   'P 1'
_cell_length_a   7.81403568
_cell_length_b   7.81403568
_cell_length_c   14.02375459
_cell_angle_alpha   89.77190035
_cell_angle_beta   90.22809965
_cell_angle_gamma   90.03159374
_symmetry_Int_Tables_number   1
_chemical_formula_structural   Li3La8Er9Si16
_chemical_formula_sum   'Li3 La8 Er9 Si16'
_cell_volume   856.26489244
_cell_formula_units_Z   1
loop_
 _symmetry_equiv_pos_site_id
 _symmetry_equiv_pos_as_xyz
  1  'x, y, z'
loop_
 _atom_site_type_symbol
 _atom_site_label
 _atom_site_symmetry_multiplicity
 _atom_site_fract_x
 _atom_site_fract_y
 _atom_site_fract_z
 _atom_site_occupancy
  Li  Li0  1  0.685201  0.685201  0.500000  1
  Li  Li1  1  0.815989  0.185317  0.748713  1
  Li  Li2  1  0.185317  0.815989  0.251287  1
  La  La3  1  0.992753  0.643324  0.042395  1
  La  La4  1  0.001404  0.363299  0.541142  1
  La  La5  1  0.643324  0.992753  0.957605  1
  La  La6  1  0.134679  0.501999  0.785646  1
  La  La7  1  0.865539  0.500737  0.294132  1
  La  La8  1  0.501999  0.134679  0.214354  1
  La  La9  1  0.500737  0.865539  0.705868  1
  La  La10  1  0.363299  0.001404  0.458858  1
  Er  Er11  1  0.365596  0.505284  0.376108  1
  Er  Er12  1  0.868586  0.996266  0.376568  1
  Er  Er13  1  0.997415  0.129006  0.129865  1
  Er  Er14  1  0.996266  0.868586  0.623432  1
  Er  Er15  1  0.637773  0.496655  0.872247  1
  Er  Er16  1  0.505284  0.365596  0.623892  1
  Er  Er17  1  0.496655  0.637773  0.127753  1
  Er  Er18  1  0.129006  0.997415  0.870135  1
  Er  Er19  1  0.315297  0.315297  0.000000  1
  Si  Si20  1  0.080870  0.713643  0.440391  1
  Si  Si21  1  0.931730  0.290047  0.941216  1
  Si  Si22  1  0.713643  0.080870  0.559609  1
  Si  Si23  1  0.211223  0.422097  0.190075  1
  Si  Si24  1  0.783910  0.580635  0.686933  1
  Si  Si25  1  0.422097  0.211223  0.809925  1
  Si  Si26  1  0.580635  0.783910  0.313067  1
  Si  Si27  1  0.290047  0.931730  0.058784  1
  Si  Si28  1  0.850483  0.782035  0.812761  1
  Si  Si29  1  0.146828  0.217224  0.318332  1
  Si  Si30  1  0.782035  0.850483  0.187239  1
  Si  Si31  1  0.285798  0.648354  0.565768  1
  Si  Si32  1  0.705887  0.347117  0.062909  1
  Si  Si33  1  0.648354  0.285798  0.434232  1
  Si  Si34  1  0.347117  0.705887  0.937091  1
  Si  Si35  1  0.217224  0.146828  0.681668  1
