# generated using pymatgen
data_Li8Y3Ho5(SnSb3)2
_symmetry_space_group_name_H-M   'P 1'
_cell_length_a   9.46029800
_cell_length_b   9.46029866
_cell_length_c   6.99060500
_cell_angle_alpha   90.00000000
_cell_angle_beta   90.00000000
_cell_angle_gamma   120.00001169
_symmetry_Int_Tables_number   1
_chemical_formula_structural   Li8Y3Ho5(SnSb3)2
_chemical_formula_sum   'Li8 Y3 Ho5 Sn2 Sb6'
_cell_volume   541.81996994
_cell_formula_units_Z   1
loop_
 _symmetry_equiv_pos_site_id
 _symmetry_equiv_pos_as_xyz
  1  'x, y, z'
loop_
 _atom_site_type_symbol
 _atom_site_label
 _atom_site_symmetry_multiplicity
 _atom_site_fract_x
 _atom_site_fract_y
 _atom_site_fract_z
 _atom_site_occupancy
  Li  Li0  1  0.167547  0.335096  0.276230  1
  Li  Li1  1  0.167547  0.832453  0.276230  1
  Li  Li2  1  0.664904  0.832453  0.276230  1
  Li  Li3  1  0.832422  0.664842  0.777084  1
  Li  Li4  1  0.832422  0.167578  0.777084  1
  Li  Li5  1  0.335158  0.167578  0.777084  1
  Li  Li6  1  0.333333  0.666667  0.690944  1
  Li  Li7  1  0.666667  0.333333  0.189950  1
  Y  Y8  1  0.508556  0.017111  0.493502  1
  Y  Y9  1  0.508556  0.491444  0.493502  1
  Y  Y10  1  0.982889  0.491444  0.493502  1
  Ho  Ho11  1  0.491570  0.983143  0.993568  1
  Ho  Ho12  1  0.491570  0.508430  0.993568  1
  Ho  Ho13  1  0.016857  0.508430  0.993568  1
  Ho  Ho14  1  0.000000  0.000000  0.502018  1
  Ho  Ho15  1  0.000000  0.000000  0.001934  1
  Sn  Sn16  1  0.333333  0.666667  0.254884  1
  Sn  Sn17  1  0.666667  0.333333  0.757997  1
  Sb  Sb18  1  0.166056  0.332111  0.738501  1
  Sb  Sb19  1  0.166056  0.833944  0.738501  1
  Sb  Sb20  1  0.667889  0.833944  0.738501  1
  Sb  Sb21  1  0.833986  0.667971  0.235865  1
  Sb  Sb22  1  0.833986  0.166014  0.235865  1
  Sb  Sb23  1  0.332029  0.166014  0.235865  1
