# generated using pymatgen
data_Ti5NbCuPt21
_symmetry_space_group_name_H-M   'P 1'
_cell_length_a   5.58921256
_cell_length_b   5.58576838
_cell_length_c   15.98208911
_cell_angle_alpha   89.99124748
_cell_angle_beta   90.01333284
_cell_angle_gamma   119.97104425
_symmetry_Int_Tables_number   1
_chemical_formula_structural   Ti5NbCuPt21
_chemical_formula_sum   'Ti5 Nb1 Cu1 Pt21'
_cell_volume   432.23940897
_cell_formula_units_Z   1
loop_
 _symmetry_equiv_pos_site_id
 _symmetry_equiv_pos_as_xyz
  1  'x, y, z'
loop_
 _atom_site_type_symbol
 _atom_site_label
 _atom_site_symmetry_multiplicity
 _atom_site_fract_x
 _atom_site_fract_y
 _atom_site_fract_z
 _atom_site_occupancy
  Ti  Ti0  1  0.333436  0.666734  0.136770  1
  Ti  Ti1  1  0.000054  0.000030  0.280173  1
  Ti  Ti2  1  0.666723  0.333363  0.427077  1
  Ti  Ti3  1  0.000007  0.999986  0.998559  1
  Ti  Ti4  1  0.333349  0.666664  0.575428  1
  Nb  Nb5  1  0.999993  0.999995  0.722377  1
  Cu  Cu6  1  0.666289  0.333312  0.857392  1
  Pt  Pt7  1  0.832798  0.665497  0.569903  1
  Pt  Pt8  1  0.334658  0.167333  0.569862  1
  Pt  Pt9  1  0.167274  0.334892  0.858009  1
  Pt  Pt10  1  0.167027  0.334036  0.428511  1
  Pt  Pt11  1  0.167031  0.832942  0.428522  1
  Pt  Pt12  1  0.499322  0.998658  0.711870  1
  Pt  Pt13  1  0.665918  0.832941  0.428550  1
  Pt  Pt14  1  0.167355  0.832308  0.858000  1
  Pt  Pt15  1  0.664669  0.832343  0.857975  1
  Pt  Pt16  1  0.833486  0.166690  0.143809  1
  Pt  Pt17  1  0.832801  0.167326  0.569893  1
  Pt  Pt18  1  0.499326  0.500611  0.711870  1
  Pt  Pt19  1  0.333437  0.166729  0.143819  1
  Pt  Pt20  1  0.833502  0.666853  0.143807  1
  Pt  Pt21  1  0.499918  0.500245  0.286810  1
  Pt  Pt22  1  0.499923  0.999705  0.286822  1
  Pt  Pt23  1  0.499085  0.998088  0.001828  1
  Pt  Pt24  1  0.000454  0.500234  0.286807  1
  Pt  Pt25  1  0.001190  0.500564  0.711870  1
  Pt  Pt26  1  0.499075  0.500989  0.001841  1
  Pt  Pt27  1  0.001897  0.500934  0.001847  1
