# generated using pymatgen
data_Hf3Ti2Ga2Si
_symmetry_space_group_name_H-M   'P 1'
_cell_length_a   7.85199500
_cell_length_b   7.82637477
_cell_length_c   5.41069200
_cell_angle_alpha   90.00000000
_cell_angle_beta   90.00000000
_cell_angle_gamma   120.10835245
_symmetry_Int_Tables_number   1
_chemical_formula_structural   Hf3Ti2Ga2Si
_chemical_formula_sum   'Hf6 Ti4 Ga4 Si2'
_cell_volume   287.63973959
_cell_formula_units_Z   2
loop_
 _symmetry_equiv_pos_site_id
 _symmetry_equiv_pos_as_xyz
  1  'x, y, z'
loop_
 _atom_site_type_symbol
 _atom_site_label
 _atom_site_symmetry_multiplicity
 _atom_site_fract_x
 _atom_site_fract_y
 _atom_site_fract_z
 _atom_site_occupancy
  Hf  Hf0  1  0.253170  0.000000  0.250000  1
  Hf  Hf1  1  0.746830  0.000000  0.750000  1
  Hf  Hf2  1  0.999744  0.240739  0.250000  1
  Hf  Hf3  1  0.000256  0.759261  0.750000  1
  Hf  Hf4  1  0.759004  0.759261  0.250000  1
  Hf  Hf5  1  0.240996  0.240739  0.750000  1
  Ti  Ti6  1  0.336918  0.673837  0.000000  1
  Ti  Ti7  1  0.663082  0.326163  0.000000  1
  Ti  Ti8  1  0.663082  0.326163  0.500000  1
  Ti  Ti9  1  0.336918  0.673837  0.500000  1
  Ga  Ga10  1  0.998599  0.598435  0.250000  1
  Ga  Ga11  1  0.001401  0.401565  0.750000  1
  Ga  Ga12  1  0.400164  0.401565  0.250000  1
  Ga  Ga13  1  0.599836  0.598435  0.750000  1
  Si  Si14  1  0.606601  0.000000  0.250000  1
  Si  Si15  1  0.393399  0.000000  0.750000  1
