# generated using pymatgen
data_KAgS2O7
_symmetry_space_group_name_H-M   'P 1'
_cell_length_a   6.16814427
_cell_length_b   7.48307620
_cell_length_c   7.56694001
_cell_angle_alpha   101.97347963
_cell_angle_beta   89.98398895
_cell_angle_gamma   94.15800924
_symmetry_Int_Tables_number   1
_chemical_formula_structural   KAgS2O7
_chemical_formula_sum   'K2 Ag2 S4 O14'
_cell_volume   340.72791357
_cell_formula_units_Z   2
loop_
 _symmetry_equiv_pos_site_id
 _symmetry_equiv_pos_as_xyz
  1  'x, y, z'
loop_
 _atom_site_type_symbol
 _atom_site_label
 _atom_site_symmetry_multiplicity
 _atom_site_fract_x
 _atom_site_fract_y
 _atom_site_fract_z
 _atom_site_occupancy
  K  K0  1  0.225595  0.776780  0.432465  1
  K  K1  1  0.774405  0.223220  0.567535  1
  Ag  Ag2  1  0.208269  0.647738  0.902772  1
  Ag  Ag3  1  0.791731  0.352262  0.097228  1
  S  S4  1  0.715323  0.726749  0.696908  1
  S  S5  1  0.724302  0.827398  0.101563  1
  S  S6  1  0.275698  0.172602  0.898437  1
  S  S7  1  0.284677  0.273251  0.303092  1
  O  O8  1  0.736785  0.874340  0.895260  1
  O  O9  1  0.493449  0.257969  0.881161  1
  O  O10  1  0.896275  0.702210  0.110901  1
  O  O11  1  0.499085  0.371659  0.310450  1
  O  O12  1  0.263215  0.125660  0.104740  1
  O  O13  1  0.506551  0.742031  0.118839  1
  O  O14  1  0.103725  0.297790  0.889099  1
  O  O15  1  0.500915  0.628341  0.689550  1
  O  O16  1  0.106184  0.393830  0.308113  1
  O  O17  1  0.259224  0.147608  0.425799  1
  O  O18  1  0.232594  0.989965  0.789610  1
  O  O19  1  0.740776  0.852392  0.574201  1
  O  O20  1  0.893816  0.606170  0.691887  1
  O  O21  1  0.767406  0.010035  0.210390  1
