# generated using pymatgen
data_Sc12ReSi12RuRh2
_symmetry_space_group_name_H-M   'P 1'
_cell_length_a   4.01164000
_cell_length_b   10.31769308
_cell_length_c   11.73157084
_cell_angle_alpha   89.93556557
_cell_angle_beta   90.00000000
_cell_angle_gamma   90.00000000
_symmetry_Int_Tables_number   1
_chemical_formula_structural   Sc12ReSi12RuRh2
_chemical_formula_sum   'Sc12 Re1 Si12 Ru1 Rh2'
_cell_volume   485.57961976
_cell_formula_units_Z   1
loop_
 _symmetry_equiv_pos_site_id
 _symmetry_equiv_pos_as_xyz
  1  'x, y, z'
loop_
 _atom_site_type_symbol
 _atom_site_label
 _atom_site_symmetry_multiplicity
 _atom_site_fract_x
 _atom_site_fract_y
 _atom_site_fract_z
 _atom_site_occupancy
  Sc  Sc0  1  0.250000  0.876999  0.021395  1
  Sc  Sc1  1  0.250000  0.623408  0.521050  1
  Sc  Sc2  1  0.750000  0.123233  0.982778  1
  Sc  Sc3  1  0.750000  0.377797  0.481786  1
  Sc  Sc4  1  0.250000  0.920812  0.602865  1
  Sc  Sc5  1  0.250000  0.578498  0.102225  1
  Sc  Sc6  1  0.750000  0.078991  0.394558  1
  Sc  Sc7  1  0.750000  0.421451  0.895356  1
  Sc  Sc8  1  0.250000  0.659418  0.798175  1
  Sc  Sc9  1  0.250000  0.837681  0.297736  1
  Sc  Sc10  1  0.750000  0.343004  0.201303  1
  Sc  Sc11  1  0.750000  0.157218  0.700901  1
  Re  Re12  1  0.250000  0.109204  0.176292  1
  Si  Si13  1  0.250000  0.015400  0.823649  1
  Si  Si14  1  0.250000  0.485617  0.323959  1
  Si  Si15  1  0.750000  0.981811  0.178580  1
  Si  Si16  1  0.750000  0.515741  0.678004  1
  Si  Si17  1  0.250000  0.251146  0.841331  1
  Si  Si18  1  0.250000  0.250777  0.343350  1
  Si  Si19  1  0.750000  0.746209  0.156286  1
  Si  Si20  1  0.750000  0.751659  0.657154  1
  Si  Si21  1  0.250000  0.195749  0.545308  1
  Si  Si22  1  0.250000  0.306660  0.043880  1
  Si  Si23  1  0.750000  0.807582  0.455263  1
  Si  Si24  1  0.750000  0.693043  0.954424  1
  Ru  Ru25  1  0.250000  0.390642  0.677126  1
  Rh  Rh26  1  0.750000  0.611365  0.322792  1
  Rh  Rh27  1  0.750000  0.888882  0.822474  1
