# generated using pymatgen
data_Ho16Al4Ni3Os
_symmetry_space_group_name_H-M   'P 1'
_cell_length_a   9.43205060
_cell_length_b   9.43205097
_cell_length_c   9.43205138
_cell_angle_alpha   59.91852102
_cell_angle_beta   59.91852285
_cell_angle_gamma   59.91852523
_symmetry_Int_Tables_number   1
_chemical_formula_structural   Ho16Al4Ni3Os
_chemical_formula_sum   'Ho16 Al4 Ni3 Os1'
_cell_volume   592.24308917
_cell_formula_units_Z   1
loop_
 _symmetry_equiv_pos_site_id
 _symmetry_equiv_pos_as_xyz
  1  'x, y, z'
loop_
 _atom_site_type_symbol
 _atom_site_label
 _atom_site_symmetry_multiplicity
 _atom_site_fract_x
 _atom_site_fract_y
 _atom_site_fract_z
 _atom_site_occupancy
  Ho  Ho0  1  0.349264  0.349264  0.349264  1
  Ho  Ho1  1  0.352965  0.352965  0.946161  1
  Ho  Ho2  1  0.352965  0.946161  0.352965  1
  Ho  Ho3  1  0.946161  0.352965  0.352965  1
  Ho  Ho4  1  0.806964  0.191656  0.191656  1
  Ho  Ho5  1  0.191271  0.807796  0.807796  1
  Ho  Ho6  1  0.191656  0.806964  0.191656  1
  Ho  Ho7  1  0.807796  0.191271  0.807796  1
  Ho  Ho8  1  0.191656  0.191656  0.806964  1
  Ho  Ho9  1  0.807796  0.807796  0.191271  1
  Ho  Ho10  1  0.935848  0.564767  0.564767  1
  Ho  Ho11  1  0.556364  0.939531  0.939531  1
  Ho  Ho12  1  0.564767  0.935848  0.564767  1
  Ho  Ho13  1  0.939531  0.556364  0.939531  1
  Ho  Ho14  1  0.564767  0.564767  0.935848  1
  Ho  Ho15  1  0.939531  0.939531  0.556364  1
  Al  Al16  1  0.577858  0.577858  0.577858  1
  Al  Al17  1  0.576716  0.576716  0.269121  1
  Al  Al18  1  0.576716  0.269121  0.576716  1
  Al  Al19  1  0.269121  0.576716  0.576716  1
  Ni  Ni20  1  0.141484  0.141484  0.574764  1
  Ni  Ni21  1  0.141484  0.574764  0.141484  1
  Ni  Ni22  1  0.574764  0.141484  0.141484  1
  Os  Os23  1  0.142555  0.142555  0.142555  1
