# generated using pymatgen
data_CoCu3(Mo3N)2
_symmetry_space_group_name_H-M   'P 1'
_cell_length_a   6.70678058
_cell_length_b   6.70017497
_cell_length_c   6.70678058
_cell_angle_alpha   90.10853265
_cell_angle_beta   90.18311023
_cell_angle_gamma   89.89146735
_symmetry_Int_Tables_number   1
_chemical_formula_structural   CoCu3(Mo3N)2
_chemical_formula_sum   'Co2 Cu6 Mo12 N4'
_cell_volume   301.37732147
_cell_formula_units_Z   2
loop_
 _symmetry_equiv_pos_site_id
 _symmetry_equiv_pos_as_xyz
  1  'x, y, z'
loop_
 _atom_site_type_symbol
 _atom_site_label
 _atom_site_symmetry_multiplicity
 _atom_site_fract_x
 _atom_site_fract_y
 _atom_site_fract_z
 _atom_site_occupancy
  Co  Co0  1  0.931827  0.568627  0.433612  1
  Co  Co1  1  0.683612  0.681373  0.681827  1
  Cu  Cu2  1  0.069151  0.068917  0.067863  1
  Cu  Cu3  1  0.317863  0.181083  0.819151  1
  Cu  Cu4  1  0.818918  0.317709  0.182032  1
  Cu  Cu5  1  0.182314  0.819545  0.318587  1
  Cu  Cu6  1  0.432032  0.932291  0.568918  1
  Cu  Cu7  1  0.568587  0.430455  0.932314  1
  Mo  Mo8  1  0.123452  0.207614  0.454156  1
  Mo  Mo9  1  0.379092  0.791896  0.949496  1
  Mo  Mo10  1  0.877025  0.704223  0.046921  1
  Mo  Mo11  1  0.199496  0.458104  0.129092  1
  Mo  Mo12  1  0.793176  0.944667  0.380671  1
  Mo  Mo13  1  0.038738  0.869804  0.698852  1
  Mo  Mo14  1  0.453847  0.125000  0.203847  1
  Mo  Mo15  1  0.296921  0.545777  0.627025  1
  Mo  Mo16  1  0.948852  0.380196  0.788738  1
  Mo  Mo17  1  0.550223  0.625000  0.300223  1
  Mo  Mo18  1  0.704156  0.042386  0.873452  1
  Mo  Mo19  1  0.630671  0.305333  0.543176  1
  N  N20  1  0.375400  0.375619  0.375552  1
  N  N21  1  0.625552  0.874381  0.125400  1
  N  N22  1  0.125059  0.625000  0.875059  1
  N  N23  1  0.874034  0.125000  0.624034  1
