# generated using pymatgen
data_Sc4Ga2TcPt
_symmetry_space_group_name_H-M   'P 1'
_cell_length_a   6.55032900
_cell_length_b   6.75021100
_cell_length_c   6.54896400
_cell_angle_alpha   90.00000000
_cell_angle_beta   89.99996501
_cell_angle_gamma   90.00000000
_symmetry_Int_Tables_number   1
_chemical_formula_structural   Sc4Ga2TcPt
_chemical_formula_sum   'Sc8 Ga4 Tc2 Pt2'
_cell_volume   289.56966591
_cell_formula_units_Z   2
loop_
 _symmetry_equiv_pos_site_id
 _symmetry_equiv_pos_as_xyz
  1  'x, y, z'
loop_
 _atom_site_type_symbol
 _atom_site_label
 _atom_site_symmetry_multiplicity
 _atom_site_fract_x
 _atom_site_fract_y
 _atom_site_fract_z
 _atom_site_occupancy
  Sc  Sc0  1  0.754025  0.501357  0.254013  1
  Sc  Sc1  1  0.754025  0.998643  0.254013  1
  Sc  Sc2  1  0.245835  0.001346  0.254151  1
  Sc  Sc3  1  0.245835  0.498654  0.254151  1
  Sc  Sc4  1  0.754165  0.501346  0.745849  1
  Sc  Sc5  1  0.754165  0.998654  0.745849  1
  Sc  Sc6  1  0.245975  0.001357  0.745987  1
  Sc  Sc7  1  0.245975  0.498643  0.745987  1
  Ga  Ga8  1  0.997149  0.250000  0.999997  1
  Ga  Ga9  1  0.002851  0.750000  0.000003  1
  Ga  Ga10  1  0.502644  0.250000  0.499983  1
  Ga  Ga11  1  0.497356  0.750000  0.500017  1
  Tc  Tc12  1  0.001341  0.750000  0.499996  1
  Tc  Tc13  1  0.998659  0.250000  0.500004  1
  Pt  Pt14  1  0.502084  0.250000  0.000010  1
  Pt  Pt15  1  0.497917  0.750000  0.999990  1
