# generated using pymatgen
data_TbCeAl3Tc
_symmetry_space_group_name_H-M   'P 1'
_cell_length_a   5.49762200
_cell_length_b   5.49762260
_cell_length_c   9.09354800
_cell_angle_alpha   90.00000000
_cell_angle_beta   90.00000000
_cell_angle_gamma   119.99999642
_symmetry_Int_Tables_number   1
_chemical_formula_structural   TbCeAl3Tc
_chemical_formula_sum   'Tb2 Ce2 Al6 Tc2'
_cell_volume   238.02019654
_cell_formula_units_Z   2
loop_
 _symmetry_equiv_pos_site_id
 _symmetry_equiv_pos_as_xyz
  1  'x, y, z'
loop_
 _atom_site_type_symbol
 _atom_site_label
 _atom_site_symmetry_multiplicity
 _atom_site_fract_x
 _atom_site_fract_y
 _atom_site_fract_z
 _atom_site_occupancy
  Tb  Tb0  1  0.333333  0.666667  0.941005  1
  Tb  Tb1  1  0.666667  0.333333  0.058995  1
  Ce  Ce2  1  0.666667  0.333333  0.459204  1
  Ce  Ce3  1  0.333333  0.666667  0.540796  1
  Al  Al4  1  0.837299  0.162701  0.754392  1
  Al  Al5  1  0.837299  0.674598  0.754392  1
  Al  Al6  1  0.325402  0.162701  0.754392  1
  Al  Al7  1  0.162701  0.837299  0.245608  1
  Al  Al8  1  0.162701  0.325402  0.245608  1
  Al  Al9  1  0.674598  0.837299  0.245608  1
  Tc  Tc10  1  0.000000  0.000000  0.000000  1
  Tc  Tc11  1  0.000000  0.000000  0.500000  1
