# generated using pymatgen
data_Al8Pd3Ru5
_symmetry_space_group_name_H-M   'P 1'
_cell_length_a   5.98151800
_cell_length_b   5.97930000
_cell_length_c   6.16215700
_cell_angle_alpha   89.99977002
_cell_angle_beta   90.00022031
_cell_angle_gamma   90.00009582
_symmetry_Int_Tables_number   1
_chemical_formula_structural   Al8Pd3Ru5
_chemical_formula_sum   'Al8 Pd3 Ru5'
_cell_volume   220.39133569
_cell_formula_units_Z   1
loop_
 _symmetry_equiv_pos_site_id
 _symmetry_equiv_pos_as_xyz
  1  'x, y, z'
loop_
 _atom_site_type_symbol
 _atom_site_label
 _atom_site_symmetry_multiplicity
 _atom_site_fract_x
 _atom_site_fract_y
 _atom_site_fract_z
 _atom_site_occupancy
  Al  Al0  1  0.495427  0.004567  0.255495  1
  Al  Al1  1  0.495428  0.495433  0.255493  1
  Al  Al2  1  0.004592  0.004573  0.255844  1
  Al  Al3  1  0.004591  0.495426  0.255844  1
  Al  Al4  1  0.004595  0.004572  0.744166  1
  Al  Al5  1  0.004595  0.495429  0.744166  1
  Al  Al6  1  0.495423  0.004566  0.744516  1
  Al  Al7  1  0.495418  0.495426  0.744513  1
  Pd  Pd8  1  0.249679  0.250023  0.999892  1
  Pd  Pd9  1  0.750396  0.749990  0.000047  1
  Pd  Pd10  1  0.749657  0.749999  0.499969  1
  Ru  Ru11  1  0.750174  0.249998  0.000015  1
  Ru  Ru12  1  0.249817  0.749999  0.000013  1
  Ru  Ru13  1  0.250221  0.750000  0.500004  1
  Ru  Ru14  1  0.749884  0.249998  0.500015  1
  Ru  Ru15  1  0.250101  0.249999  0.500005  1
