# generated using pymatgen
data_Sm2B3Ru4C
_symmetry_space_group_name_H-M   'P 1'
_cell_length_a   6.70819956
_cell_length_b   5.89430437
_cell_length_c   5.56989160
_cell_angle_alpha   71.56261426
_cell_angle_beta   57.20662750
_cell_angle_gamma   51.97024645
_symmetry_Int_Tables_number   1
_chemical_formula_structural   Sm2B3Ru4C
_chemical_formula_sum   'Sm2 B3 Ru4 C1'
_cell_volume   145.77920765
_cell_formula_units_Z   1
loop_
 _symmetry_equiv_pos_site_id
 _symmetry_equiv_pos_as_xyz
  1  'x, y, z'
loop_
 _atom_site_type_symbol
 _atom_site_label
 _atom_site_symmetry_multiplicity
 _atom_site_fract_x
 _atom_site_fract_y
 _atom_site_fract_z
 _atom_site_occupancy
  Sm  Sm0  1  0.999184  0.000816  0.999184  1
  Sm  Sm1  1  0.249876  0.250124  0.249876  1
  B  B2  1  0.315000  0.685000  0.315000  1
  B  B3  1  0.934349  0.565651  0.934349  1
  B  B4  1  0.564452  0.935548  0.564452  1
  Ru  Ru5  1  0.615590  0.605617  0.882163  1
  Ru  Ru6  1  0.641285  0.627703  0.364412  1
  Ru  Ru7  1  0.364412  0.366600  0.641285  1
  Ru  Ru8  1  0.882163  0.896630  0.615590  1
  C  C9  1  0.683688  0.316312  0.683688  1
