# generated using pymatgen
data_Tl3InPd3RuO14
_symmetry_space_group_name_H-M   'P 1'
_cell_length_a   7.23067628
_cell_length_b   7.28600552
_cell_length_c   7.23067400
_cell_angle_alpha   60.25089838
_cell_angle_beta   60.00001042
_cell_angle_gamma   60.25089233
_symmetry_Int_Tables_number   1
_chemical_formula_structural   Tl3InPd3RuO14
_chemical_formula_sum   'Tl3 In1 Pd3 Ru1 O14'
_cell_volume   270.37643153
_cell_formula_units_Z   1
loop_
 _symmetry_equiv_pos_site_id
 _symmetry_equiv_pos_as_xyz
  1  'x, y, z'
loop_
 _atom_site_type_symbol
 _atom_site_label
 _atom_site_symmetry_multiplicity
 _atom_site_fract_x
 _atom_site_fract_y
 _atom_site_fract_z
 _atom_site_occupancy
  Tl  Tl0  1  0.125000  0.125000  0.625000  1
  Tl  Tl1  1  0.625000  0.125000  0.125000  1
  Tl  Tl2  1  0.125000  0.125000  0.125000  1
  In  In3  1  0.125000  0.625000  0.125000  1
  Pd  Pd4  1  0.625000  0.625000  0.125000  1
  Pd  Pd5  1  0.125000  0.625000  0.625000  1
  Pd  Pd6  1  0.625000  0.625000  0.625000  1
  Ru  Ru7  1  0.625000  0.125000  0.625000  1
  O  O8  1  0.245820  0.262541  0.245820  1
  O  O9  1  0.004180  0.987459  0.004180  1
  O  O10  1  0.545270  0.957588  0.545270  1
  O  O11  1  0.286037  0.711518  0.286037  1
  O  O12  1  0.533592  0.538482  0.963963  1
  O  O13  1  0.963963  0.538482  0.533592  1
  O  O14  1  0.545270  0.957588  0.951873  1
  O  O15  1  0.951873  0.957588  0.545270  1
  O  O16  1  0.963963  0.538482  0.963963  1
  O  O17  1  0.704730  0.292412  0.298127  1
  O  O18  1  0.286037  0.711518  0.716408  1
  O  O19  1  0.704730  0.292412  0.704730  1
  O  O20  1  0.298127  0.292412  0.704730  1
  O  O21  1  0.716408  0.711518  0.286037  1
