# generated using pymatgen
data_Y4HoTm3Pt4
_symmetry_space_group_name_H-M   'P 1'
_cell_length_a   4.75845800
_cell_length_b   7.14492287
_cell_length_c   8.73029911
_cell_angle_alpha   89.83794225
_cell_angle_beta   90.00000000
_cell_angle_gamma   90.00000000
_symmetry_Int_Tables_number   1
_chemical_formula_structural   Y4HoTm3Pt4
_chemical_formula_sum   'Y4 Ho1 Tm3 Pt4'
_cell_volume   296.81864037
_cell_formula_units_Z   1
loop_
 _symmetry_equiv_pos_site_id
 _symmetry_equiv_pos_as_xyz
  1  'x, y, z'
loop_
 _atom_site_type_symbol
 _atom_site_label
 _atom_site_symmetry_multiplicity
 _atom_site_fract_x
 _atom_site_fract_y
 _atom_site_fract_z
 _atom_site_occupancy
  Y  Y0  1  0.250000  0.990932  0.330702  1
  Y  Y1  1  0.250000  0.488917  0.168324  1
  Y  Y2  1  0.750000  0.011107  0.671654  1
  Y  Y3  1  0.750000  0.510582  0.829546  1
  Ho  Ho4  1  0.750000  0.644955  0.420725  1
  Tm  Tm5  1  0.250000  0.856472  0.921686  1
  Tm  Tm6  1  0.250000  0.355442  0.579053  1
  Tm  Tm7  1  0.750000  0.143829  0.078471  1
  Pt  Pt8  1  0.250000  0.253197  0.905962  1
  Pt  Pt9  1  0.250000  0.754607  0.596591  1
  Pt  Pt10  1  0.750000  0.746572  0.090823  1
  Pt  Pt11  1  0.750000  0.243392  0.406463  1
