# generated using pymatgen
data_Ce2Tm3Tc2
_symmetry_space_group_name_H-M   'P 1'
_cell_length_a   6.31712845
_cell_length_b   7.10465617
_cell_length_c   8.73961804
_cell_angle_alpha   96.09156391
_cell_angle_beta   111.18667040
_cell_angle_gamma   89.99999911
_symmetry_Int_Tables_number   1
_chemical_formula_structural   Ce2Tm3Tc2
_chemical_formula_sum   'Ce4 Tm6 Tc4'
_cell_volume   363.35415810
_cell_formula_units_Z   2
loop_
 _symmetry_equiv_pos_site_id
 _symmetry_equiv_pos_as_xyz
  1  'x, y, z'
loop_
 _atom_site_type_symbol
 _atom_site_label
 _atom_site_symmetry_multiplicity
 _atom_site_fract_x
 _atom_site_fract_y
 _atom_site_fract_z
 _atom_site_occupancy
  Ce  Ce0  1  0.787937  0.097770  0.807695  1
  Ce  Ce1  1  0.980242  0.402230  0.192305  1
  Ce  Ce2  1  0.212063  0.902230  0.192305  1
  Ce  Ce3  1  0.019758  0.597770  0.807695  1
  Tm  Tm4  1  0.208472  0.188798  0.569177  1
  Tm  Tm5  1  0.639296  0.311202  0.430823  1
  Tm  Tm6  1  0.791528  0.811202  0.430823  1
  Tm  Tm7  1  0.360704  0.688798  0.569177  1
  Tm  Tm8  1  0.420858  0.250000  0.000000  1
  Tm  Tm9  1  0.579142  0.750000  0.000000  1
  Tc  Tc10  1  0.639488  0.404495  0.779992  1
  Tc  Tc11  1  0.859495  0.095505  0.220008  1
  Tc  Tc12  1  0.360512  0.595505  0.220008  1
  Tc  Tc13  1  0.140505  0.904495  0.779992  1
