# generated using pymatgen
data_CePrHgPt2
_symmetry_space_group_name_H-M   'P 1'
_cell_length_a   7.92090600
_cell_length_b   7.92217100
_cell_length_c   3.79575200
_cell_angle_alpha   90.00000000
_cell_angle_beta   90.00000000
_cell_angle_gamma   90.00000000
_symmetry_Int_Tables_number   1
_chemical_formula_structural   CePrHgPt2
_chemical_formula_sum   'Ce2 Pr2 Hg2 Pt4'
_cell_volume   238.18636759
_cell_formula_units_Z   2
loop_
 _symmetry_equiv_pos_site_id
 _symmetry_equiv_pos_as_xyz
  1  'x, y, z'
loop_
 _atom_site_type_symbol
 _atom_site_label
 _atom_site_symmetry_multiplicity
 _atom_site_fract_x
 _atom_site_fract_y
 _atom_site_fract_z
 _atom_site_occupancy
  Ce  Ce0  1  0.172071  0.671750  0.499999  1
  Ce  Ce1  1  0.672070  0.828250  0.499999  1
  Pr  Pr2  1  0.326365  0.171280  0.499999  1
  Pr  Pr3  1  0.826365  0.328721  0.499999  1
  Hg  Hg4  1  0.002831  0.000597  0.000000  1
  Hg  Hg5  1  0.502831  0.499403  0.000000  1
  Pt  Pt6  1  0.628380  0.111225  0.000000  1
  Pt  Pt7  1  0.128379  0.388775  0.000000  1
  Pt  Pt8  1  0.870355  0.643358  0.000000  1
  Pt  Pt9  1  0.370355  0.856643  0.000000  1
