# generated using pymatgen
data_Er4Tc2B16IrRu
_symmetry_space_group_name_H-M   'P 1'
_cell_length_a   3.56265300
_cell_length_b   5.95092180
_cell_length_c   11.51127916
_cell_angle_alpha   90.21390729
_cell_angle_beta   90.00000000
_cell_angle_gamma   90.00000000
_symmetry_Int_Tables_number   1
_chemical_formula_structural   Er4Tc2B16IrRu
_chemical_formula_sum   'Er4 Tc2 B16 Ir1 Ru1'
_cell_volume   244.04972760
_cell_formula_units_Z   1
loop_
 _symmetry_equiv_pos_site_id
 _symmetry_equiv_pos_as_xyz
  1  'x, y, z'
loop_
 _atom_site_type_symbol
 _atom_site_label
 _atom_site_symmetry_multiplicity
 _atom_site_fract_x
 _atom_site_fract_y
 _atom_site_fract_z
 _atom_site_occupancy
  Er  Er0  1  0.000000  0.629057  0.351491  1
  Er  Er1  1  0.000000  0.371719  0.650319  1
  Er  Er2  1  0.000000  0.128938  0.148202  1
  Er  Er3  1  0.000000  0.870375  0.849518  1
  Tc  Tc4  1  0.000000  0.634952  0.089965  1
  Tc  Tc5  1  0.000000  0.365548  0.911134  1
  B  B6  1  0.500000  0.790006  0.185684  1
  B  B7  1  0.500000  0.210559  0.814362  1
  B  B8  1  0.500000  0.293058  0.314223  1
  B  B9  1  0.500000  0.709181  0.685221  1
  B  B10  1  0.500000  0.865094  0.030607  1
  B  B11  1  0.500000  0.134894  0.969325  1
  B  B12  1  0.500000  0.365148  0.469673  1
  B  B13  1  0.500000  0.634224  0.531282  1
  B  B14  1  0.500000  0.885381  0.453350  1
  B  B15  1  0.500000  0.112230  0.548185  1
  B  B16  1  0.500000  0.387303  0.047017  1
  B  B17  1  0.500000  0.613058  0.953000  1
  B  B18  1  0.500000  0.973471  0.307952  1
  B  B19  1  0.500000  0.024171  0.692218  1
  B  B20  1  0.500000  0.477050  0.192830  1
  B  B21  1  0.500000  0.522706  0.807339  1
  Ir  Ir22  1  0.000000  0.142766  0.404496  1
  Ru  Ru23  1  0.000000  0.859111  0.592608  1
