# generated using pymatgen
data_LiAc2Si3As3Pd20
_symmetry_space_group_name_H-M   'P 1'
_cell_length_a   8.83508727
_cell_length_b   8.87340970
_cell_length_c   8.90880251
_cell_angle_alpha   59.58320287
_cell_angle_beta   60.00920928
_cell_angle_gamma   60.40759370
_symmetry_Int_Tables_number   1
_chemical_formula_structural   LiAc2Si3As3Pd20
_chemical_formula_sum   'Li1 Ac2 Si3 As3 Pd20'
_cell_volume   493.81100909
_cell_formula_units_Z   1
loop_
 _symmetry_equiv_pos_site_id
 _symmetry_equiv_pos_as_xyz
  1  'x, y, z'
loop_
 _atom_site_type_symbol
 _atom_site_label
 _atom_site_symmetry_multiplicity
 _atom_site_fract_x
 _atom_site_fract_y
 _atom_site_fract_z
 _atom_site_occupancy
  Li  Li0  1  0.999165  0.000835  0.999165  1
  Ac  Ac1  1  0.249775  0.250225  0.249775  1
  Ac  Ac2  1  0.749775  0.750225  0.749775  1
  Si  Si3  1  0.736296  0.263704  0.736296  1
  Si  Si4  1  0.263198  0.262923  0.737077  1
  Si  Si5  1  0.737077  0.736802  0.263198  1
  As  As6  1  0.738624  0.261376  0.260988  1
  As  As7  1  0.260988  0.739012  0.738624  1
  As  As8  1  0.261559  0.738441  0.261559  1
  Pd  Pd9  1  0.347596  0.006508  0.993492  1
  Pd  Pd10  1  0.656237  0.999491  0.000509  1
  Pd  Pd11  1  0.000509  0.343763  0.656237  1
  Pd  Pd12  1  0.993492  0.652404  0.347596  1
  Pd  Pd13  1  0.006064  0.347378  0.991010  1
  Pd  Pd14  1  0.652622  0.993936  0.344452  1
  Pd  Pd15  1  0.991010  0.655548  0.006064  1
  Pd  Pd16  1  0.344452  0.008990  0.652622  1
  Pd  Pd17  1  0.000794  0.999206  0.348394  1
  Pd  Pd18  1  0.992459  0.007541  0.655998  1
  Pd  Pd19  1  0.655998  0.344002  0.992459  1
  Pd  Pd20  1  0.348394  0.651606  0.000794  1
  Pd  Pd21  1  0.384907  0.383592  0.392887  1
  Pd  Pd22  1  0.617815  0.609612  0.611349  1
  Pd  Pd23  1  0.390388  0.382185  0.838775  1
  Pd  Pd24  1  0.392887  0.838613  0.384907  1
  Pd  Pd25  1  0.616408  0.615093  0.161387  1
  Pd  Pd26  1  0.611349  0.161225  0.617815  1
  Pd  Pd27  1  0.838775  0.388651  0.390388  1
  Pd  Pd28  1  0.161387  0.607113  0.616408  1
