# generated using pymatgen
data_Dy3Ho(Lu4Bi3)4
_symmetry_space_group_name_H-M   'P 1'
_cell_length_a   8.15965503
_cell_length_b   9.38471600
_cell_length_c   11.84651505
_cell_angle_alpha   90.00000000
_cell_angle_beta   89.98941439
_cell_angle_gamma   90.00000000
_symmetry_Int_Tables_number   1
_chemical_formula_structural   Dy3Ho(Lu4Bi3)4
_chemical_formula_sum   'Dy3 Ho1 Lu16 Bi12'
_cell_volume   907.15925601
_cell_formula_units_Z   1
loop_
 _symmetry_equiv_pos_site_id
 _symmetry_equiv_pos_as_xyz
  1  'x, y, z'
loop_
 _atom_site_type_symbol
 _atom_site_label
 _atom_site_symmetry_multiplicity
 _atom_site_fract_x
 _atom_site_fract_y
 _atom_site_fract_z
 _atom_site_occupancy
  Dy  Dy0  1  0.313934  0.250000  0.217597  1
  Dy  Dy1  1  0.813911  0.250000  0.282392  1
  Dy  Dy2  1  0.686160  0.750000  0.782441  1
  Ho  Ho3  1  0.186147  0.750000  0.717455  1
  Lu  Lu4  1  0.353227  0.750000  0.218359  1
  Lu  Lu5  1  0.853305  0.750000  0.281674  1
  Lu  Lu6  1  0.646779  0.250000  0.781644  1
  Lu  Lu7  1  0.146727  0.250000  0.718332  1
  Lu  Lu8  1  0.692234  0.567230  0.060164  1
  Lu  Lu9  1  0.192306  0.932759  0.439846  1
  Lu  Lu10  1  0.307741  0.067219  0.939805  1
  Lu  Lu11  1  0.807704  0.432739  0.560191  1
  Lu  Lu12  1  0.307741  0.432781  0.939805  1
  Lu  Lu13  1  0.807704  0.067261  0.560191  1
  Lu  Lu14  1  0.692234  0.932770  0.060164  1
  Lu  Lu15  1  0.192306  0.567241  0.439846  1
  Lu  Lu16  1  0.477197  0.250000  0.489648  1
  Lu  Lu17  1  0.977193  0.250000  0.010350  1
  Lu  Lu18  1  0.522716  0.750000  0.510433  1
  Lu  Lu19  1  0.022788  0.750000  0.989576  1
  Bi  Bi20  1  0.402687  0.750000  0.959115  1
  Bi  Bi21  1  0.903080  0.750000  0.541009  1
  Bi  Bi22  1  0.597201  0.250000  0.040783  1
  Bi  Bi23  1  0.097152  0.250000  0.459219  1
  Bi  Bi24  1  0.566183  0.994755  0.326067  1
  Bi  Bi25  1  0.066141  0.505220  0.173978  1
  Bi  Bi26  1  0.433572  0.494956  0.673974  1
  Bi  Bi27  1  0.934018  0.005096  0.825960  1
  Bi  Bi28  1  0.433572  0.005044  0.673974  1
  Bi  Bi29  1  0.934018  0.494904  0.825960  1
  Bi  Bi30  1  0.566183  0.505245  0.326067  1
  Bi  Bi31  1  0.066141  0.994780  0.173978  1
