# generated using pymatgen
data_TbDy3Ga16CoIr2
_symmetry_space_group_name_H-M   'P 1'
_cell_length_a   6.14113400
_cell_length_b   6.09326000
_cell_length_c   11.18575800
_cell_angle_alpha   90.00000000
_cell_angle_beta   90.00000000
_cell_angle_gamma   90.00000000
_symmetry_Int_Tables_number   1
_chemical_formula_structural   TbDy3Ga16CoIr2
_chemical_formula_sum   'Tb1 Dy3 Ga16 Co1 Ir2'
_cell_volume   418.56576407
_cell_formula_units_Z   1
loop_
 _symmetry_equiv_pos_site_id
 _symmetry_equiv_pos_as_xyz
  1  'x, y, z'
loop_
 _atom_site_type_symbol
 _atom_site_label
 _atom_site_symmetry_multiplicity
 _atom_site_fract_x
 _atom_site_fract_y
 _atom_site_fract_z
 _atom_site_occupancy
  Tb  Tb0  1  0.000000  0.500000  0.808055  1
  Dy  Dy1  1  0.500000  0.000000  0.802105  1
  Dy  Dy2  1  0.500000  0.000000  0.197901  1
  Dy  Dy3  1  0.000000  0.500000  0.191978  1
  Ga  Ga4  1  0.241845  0.256764  0.617039  1
  Ga  Ga5  1  0.758155  0.743236  0.617039  1
  Ga  Ga6  1  0.758155  0.256764  0.617039  1
  Ga  Ga7  1  0.241845  0.743236  0.617039  1
  Ga  Ga8  1  0.758198  0.743199  0.382925  1
  Ga  Ga9  1  0.241802  0.256801  0.382925  1
  Ga  Ga10  1  0.241802  0.743199  0.382925  1
  Ga  Ga11  1  0.758198  0.256801  0.382925  1
  Ga  Ga12  1  0.289791  0.287034  0.000029  1
  Ga  Ga13  1  0.710209  0.712966  0.000029  1
  Ga  Ga14  1  0.710209  0.287034  0.000029  1
  Ga  Ga15  1  0.289791  0.712966  0.000029  1
  Ga  Ga16  1  0.500000  0.500000  0.802855  1
  Ga  Ga17  1  0.500000  0.500000  0.197144  1
  Ga  Ga18  1  0.000000  0.000000  0.774407  1
  Ga  Ga19  1  0.000000  0.000000  0.225583  1
  Co  Co20  1  0.000000  0.500000  0.499984  1
  Ir  Ir21  1  0.500000  0.000000  0.500006  1
  Ir  Ir22  1  0.000000  0.000000  0.000008  1
