# generated using pymatgen
data_Hf4Sc4Nb12Si15P
_symmetry_space_group_name_H-M   'P 1'
_cell_length_a   6.68531506
_cell_length_b   6.86928940
_cell_length_c   13.10953698
_cell_angle_alpha   90.07897656
_cell_angle_beta   90.09848497
_cell_angle_gamma   90.16088112
_symmetry_Int_Tables_number   1
_chemical_formula_structural   Hf4Sc4Nb12Si15P
_chemical_formula_sum   'Hf4 Sc4 Nb12 Si15 P1'
_cell_volume   602.03019864
_cell_formula_units_Z   1
loop_
 _symmetry_equiv_pos_site_id
 _symmetry_equiv_pos_as_xyz
  1  'x, y, z'
loop_
 _atom_site_type_symbol
 _atom_site_label
 _atom_site_symmetry_multiplicity
 _atom_site_fract_x
 _atom_site_fract_y
 _atom_site_fract_z
 _atom_site_occupancy
  Hf  Hf0  1  0.499806  0.676763  0.593876  1
  Hf  Hf1  1  0.998602  0.826045  0.905368  1
  Hf  Hf2  1  0.501006  0.325906  0.094631  1
  Hf  Hf3  1  0.000012  0.173424  0.405523  1
  Sc  Sc4  1  0.503565  0.324320  0.407033  1
  Sc  Sc5  1  0.003715  0.171745  0.093234  1
  Sc  Sc6  1  0.497818  0.672453  0.906746  1
  Sc  Sc7  1  0.994655  0.827294  0.593301  1
  Nb  Nb8  1  0.664466  0.166081  0.621468  1
  Nb  Nb9  1  0.165525  0.328551  0.875847  1
  Nb  Nb10  1  0.335939  0.829829  0.124372  1
  Nb  Nb11  1  0.833400  0.674480  0.377611  1
  Nb  Nb12  1  0.339208  0.831754  0.377398  1
  Nb  Nb13  1  0.834364  0.671285  0.124272  1
  Nb  Nb14  1  0.664921  0.169980  0.875434  1
  Nb  Nb15  1  0.164595  0.330145  0.623475  1
  Nb  Nb16  1  0.837678  0.495622  0.750054  1
  Nb  Nb17  1  0.338179  0.003515  0.748624  1
  Nb  Nb18  1  0.162380  0.504095  0.251248  1
  Nb  Nb19  1  0.662163  0.996753  0.250987  1
  Si  Si20  1  0.169066  0.534725  0.039104  1
  Si  Si21  1  0.330361  0.034618  0.960680  1
  Si  Si22  1  0.830424  0.465199  0.539373  1
  Si  Si23  1  0.322410  0.036003  0.540194  1
  Si  Si24  1  0.829598  0.464761  0.961072  1
  Si  Si25  1  0.670451  0.965796  0.039675  1
  Si  Si26  1  0.170987  0.535602  0.460509  1
  Si  Si27  1  0.462159  0.386690  0.749359  1
  Si  Si28  1  0.960668  0.113236  0.749136  1
  Si  Si29  1  0.538190  0.612075  0.250440  1
  Si  Si30  1  0.039994  0.885959  0.250182  1
  Si  Si31  1  0.704290  0.859737  0.750534  1
  Si  Si32  1  0.204997  0.639402  0.749836  1
  Si  Si33  1  0.295175  0.140392  0.249901  1
  Si  Si34  1  0.796051  0.361161  0.249948  1
  P  P35  1  0.673183  0.964608  0.459553  1
