# generated using pymatgen
data_TaCo4Si4Tc3
_symmetry_space_group_name_H-M   'P 1'
_cell_length_a   5.88196933
_cell_length_b   3.72313900
_cell_length_c   6.84549793
_cell_angle_alpha   90.00000000
_cell_angle_beta   89.47489540
_cell_angle_gamma   90.00000000
_symmetry_Int_Tables_number   1
_chemical_formula_structural   TaCo4Si4Tc3
_chemical_formula_sum   'Ta1 Co4 Si4 Tc3'
_cell_volume   149.90592925
_cell_formula_units_Z   1
loop_
 _symmetry_equiv_pos_site_id
 _symmetry_equiv_pos_as_xyz
  1  'x, y, z'
loop_
 _atom_site_type_symbol
 _atom_site_label
 _atom_site_symmetry_multiplicity
 _atom_site_fract_x
 _atom_site_fract_y
 _atom_site_fract_z
 _atom_site_occupancy
  Ta  Ta0  1  0.474101  0.750000  0.320155  1
  Co  Co1  1  0.152126  0.250000  0.439994  1
  Co  Co2  1  0.640156  0.250000  0.063881  1
  Co  Co3  1  0.855267  0.750000  0.559359  1
  Co  Co4  1  0.355337  0.750000  0.943723  1
  Si  Si5  1  0.782102  0.250000  0.378143  1
  Si  Si6  1  0.248684  0.250000  0.109817  1
  Si  Si7  1  0.229274  0.750000  0.636474  1
  Si  Si8  1  0.736598  0.750000  0.880302  1
  Tc  Tc9  1  0.022563  0.250000  0.817069  1
  Tc  Tc10  1  0.530019  0.250000  0.673780  1
  Tc  Tc11  1  0.973775  0.750000  0.177303  1
