# generated using pymatgen
data_K3Ho(TaS4)2
_symmetry_space_group_name_H-M   'P 1'
_cell_length_a   9.01208965
_cell_length_b   10.32406560
_cell_length_c   11.14155530
_cell_angle_alpha   107.48866627
_cell_angle_beta   102.59012856
_cell_angle_gamma   113.73620782
_symmetry_Int_Tables_number   1
_chemical_formula_structural   K3Ho(TaS4)2
_chemical_formula_sum   'K6 Ho2 Ta4 S16'
_cell_volume   834.09018450
_cell_formula_units_Z   2
loop_
 _symmetry_equiv_pos_site_id
 _symmetry_equiv_pos_as_xyz
  1  'x, y, z'
loop_
 _atom_site_type_symbol
 _atom_site_label
 _atom_site_symmetry_multiplicity
 _atom_site_fract_x
 _atom_site_fract_y
 _atom_site_fract_z
 _atom_site_occupancy
  K  K0  1  0.999857  0.499905  0.999890  1
  K  K1  1  0.499981  0.499901  0.000010  1
  K  K2  1  0.754858  0.004699  0.009287  1
  K  K3  1  0.988831  0.738938  0.477697  1
  K  K4  1  0.011205  0.261128  0.522322  1
  K  K5  1  0.245128  0.995325  0.990693  1
  Ho  Ho6  1  0.492838  0.242802  0.485575  1
  Ho  Ho7  1  0.507281  0.757252  0.514508  1
  Ta  Ta8  1  0.251789  0.351123  0.256326  1
  Ta  Ta9  1  0.504512  0.905195  0.256336  1
  Ta  Ta10  1  0.495467  0.094801  0.743646  1
  Ta  Ta11  1  0.748224  0.648887  0.743690  1
  S  S12  1  0.146357  0.270264  0.027005  1
  S  S13  1  0.380661  0.756759  0.027009  1
  S  S14  1  0.164536  0.132774  0.298371  1
  S  S15  1  0.633835  0.165610  0.298431  1
  S  S16  1  0.549877  0.490099  0.354749  1
  S  S17  1  0.304875  0.864671  0.354764  1
  S  S18  1  0.156461  0.510381  0.360476  1
  S  S19  1  0.704052  0.850143  0.360563  1
  S  S20  1  0.295948  0.149859  0.639438  1
  S  S21  1  0.843538  0.489625  0.639527  1
  S  S22  1  0.695137  0.135344  0.645234  1
  S  S23  1  0.450132  0.509907  0.645262  1
  S  S24  1  0.366175  0.834398  0.701575  1
  S  S25  1  0.835461  0.867232  0.701633  1
  S  S26  1  0.619334  0.243247  0.972983  1
  S  S27  1  0.853651  0.729737  0.973001  1
