# generated using pymatgen
data_SmTh2Ga3NiRh2
_symmetry_space_group_name_H-M   'P 1'
_cell_length_a   7.23685993
_cell_length_b   7.14953307
_cell_length_c   3.99632200
_cell_angle_alpha   90.00000000
_cell_angle_beta   90.00000000
_cell_angle_gamma   119.60163054
_symmetry_Int_Tables_number   1
_chemical_formula_structural   SmTh2Ga3NiRh2
_chemical_formula_sum   'Sm1 Th2 Ga3 Ni1 Rh2'
_cell_volume   179.78288798
_cell_formula_units_Z   1
loop_
 _symmetry_equiv_pos_site_id
 _symmetry_equiv_pos_as_xyz
  1  'x, y, z'
loop_
 _atom_site_type_symbol
 _atom_site_label
 _atom_site_symmetry_multiplicity
 _atom_site_fract_x
 _atom_site_fract_y
 _atom_site_fract_z
 _atom_site_occupancy
  Sm  Sm0  1  0.000000  0.409812  0.500000  1
  Th  Th1  1  0.587094  0.587047  0.500000  1
  Th  Th2  1  0.412906  0.999953  0.500000  1
  Ga  Ga3  1  0.000000  0.758235  0.000000  1
  Ga  Ga4  1  0.224251  0.233509  0.000000  1
  Ga  Ga5  1  0.775749  0.009258  0.000000  1
  Ni  Ni6  1  0.000000  0.990553  0.500000  1
  Rh  Rh7  1  0.352109  0.681872  0.000000  1
  Rh  Rh8  1  0.647891  0.329762  0.000000  1
