# generated using pymatgen
data_YScTcB6
_symmetry_space_group_name_H-M   'P 1'
_cell_length_a   3.58717300
_cell_length_b   9.01222100
_cell_length_c   11.39396300
_cell_angle_alpha   90.00000000
_cell_angle_beta   90.00000000
_cell_angle_gamma   90.00000000
_symmetry_Int_Tables_number   1
_chemical_formula_structural   YScTcB6
_chemical_formula_sum   'Y4 Sc4 Tc4 B24'
_cell_volume   368.34854606
_cell_formula_units_Z   4
loop_
 _symmetry_equiv_pos_site_id
 _symmetry_equiv_pos_as_xyz
  1  'x, y, z'
loop_
 _atom_site_type_symbol
 _atom_site_label
 _atom_site_symmetry_multiplicity
 _atom_site_fract_x
 _atom_site_fract_y
 _atom_site_fract_z
 _atom_site_occupancy
  Y  Y0  1  0.000000  0.321951  0.414327  1
  Y  Y1  1  0.000000  0.678049  0.585673  1
  Y  Y2  1  0.000000  0.821951  0.085673  1
  Y  Y3  1  0.000000  0.178049  0.914327  1
  Sc  Sc4  1  0.000000  0.944024  0.369582  1
  Sc  Sc5  1  0.000000  0.055976  0.630418  1
  Sc  Sc6  1  0.000000  0.444024  0.130418  1
  Sc  Sc7  1  0.000000  0.555976  0.869582  1
  Tc  Tc8  1  0.000000  0.640941  0.318160  1
  Tc  Tc9  1  0.000000  0.359059  0.681840  1
  Tc  Tc10  1  0.000000  0.140941  0.181840  1
  Tc  Tc11  1  0.000000  0.859059  0.818160  1
  B  B12  1  0.500000  0.554547  0.432431  1
  B  B13  1  0.500000  0.445453  0.567569  1
  B  B14  1  0.500000  0.054547  0.067569  1
  B  B15  1  0.500000  0.945453  0.932431  1
  B  B16  1  0.500000  0.754534  0.418257  1
  B  B17  1  0.500000  0.245466  0.581743  1
  B  B18  1  0.500000  0.254534  0.081743  1
  B  B19  1  0.500000  0.745466  0.918257  1
  B  B20  1  0.500000  0.795312  0.264932  1
  B  B21  1  0.500000  0.204688  0.735068  1
  B  B22  1  0.500000  0.295312  0.235068  1
  B  B23  1  0.500000  0.704688  0.764932  1
  B  B24  1  0.500000  0.629089  0.183081  1
  B  B25  1  0.500000  0.370911  0.816919  1
  B  B26  1  0.500000  0.129089  0.316919  1
  B  B27  1  0.500000  0.870911  0.683081  1
  B  B28  1  0.500000  0.981627  0.213796  1
  B  B29  1  0.500000  0.018373  0.786204  1
  B  B30  1  0.500000  0.481627  0.286204  1
  B  B31  1  0.500000  0.518373  0.713796  1
  B  B32  1  0.500000  0.595467  0.026130  1
  B  B33  1  0.500000  0.404533  0.973870  1
  B  B34  1  0.500000  0.095467  0.473870  1
  B  B35  1  0.500000  0.904533  0.526130  1
