# generated using pymatgen
data_Ce2B10Ir
_symmetry_space_group_name_H-M   'P 1'
_cell_length_a   4.19447400
_cell_length_b   5.71238100
_cell_length_c   11.41543800
_cell_angle_alpha   90.00000000
_cell_angle_beta   90.00000000
_cell_angle_gamma   90.00000000
_symmetry_Int_Tables_number   1
_chemical_formula_structural   Ce2B10Ir
_chemical_formula_sum   'Ce4 B20 Ir2'
_cell_volume   273.51884402
_cell_formula_units_Z   2
loop_
 _symmetry_equiv_pos_site_id
 _symmetry_equiv_pos_as_xyz
  1  'x, y, z'
loop_
 _atom_site_type_symbol
 _atom_site_label
 _atom_site_symmetry_multiplicity
 _atom_site_fract_x
 _atom_site_fract_y
 _atom_site_fract_z
 _atom_site_occupancy
  Ce  Ce0  1  0.500000  0.296260  0.864585  1
  Ce  Ce1  1  0.500000  0.703740  0.135415  1
  Ce  Ce2  1  0.500000  0.796260  0.635415  1
  Ce  Ce3  1  0.500000  0.203740  0.364585  1
  B  B4  1  0.000000  0.118107  0.543039  1
  B  B5  1  0.000000  0.881893  0.456961  1
  B  B6  1  0.000000  0.618107  0.956961  1
  B  B7  1  0.000000  0.381893  0.043039  1
  B  B8  1  0.000000  0.139169  0.697532  1
  B  B9  1  0.000000  0.860831  0.302468  1
  B  B10  1  0.302171  0.216359  0.118933  1
  B  B11  1  0.302171  0.783641  0.881067  1
  B  B12  1  0.697829  0.716359  0.381067  1
  B  B13  1  0.697829  0.283641  0.618933  1
  B  B14  1  0.697829  0.783641  0.881067  1
  B  B15  1  0.697829  0.216359  0.118933  1
  B  B16  1  0.302171  0.283641  0.618933  1
  B  B17  1  0.302171  0.716359  0.381067  1
  B  B18  1  0.000000  0.052277  0.192860  1
  B  B19  1  0.000000  0.947723  0.807140  1
  B  B20  1  0.000000  0.552277  0.307140  1
  B  B21  1  0.000000  0.447723  0.692860  1
  B  B22  1  0.000000  0.360831  0.197532  1
  B  B23  1  0.000000  0.639169  0.802468  1
  Ir  Ir24  1  0.000000  0.500000  0.500000  1
  Ir  Ir25  1  0.000000  0.000000  0.000000  1
