# generated using pymatgen
data_Pr5HfRuO12
_symmetry_space_group_name_H-M   'P 1'
_cell_length_a   7.18031355
_cell_length_b   7.18031409
_cell_length_c   7.69269226
_cell_angle_alpha   74.53921549
_cell_angle_beta   74.53921174
_cell_angle_gamma   50.59260596
_symmetry_Int_Tables_number   1
_chemical_formula_structural   Pr5HfRuO12
_chemical_formula_sum   'Pr5 Hf1 Ru1 O12'
_cell_volume   292.81892151
_cell_formula_units_Z   1
loop_
 _symmetry_equiv_pos_site_id
 _symmetry_equiv_pos_as_xyz
  1  'x, y, z'
loop_
 _atom_site_type_symbol
 _atom_site_label
 _atom_site_symmetry_multiplicity
 _atom_site_fract_x
 _atom_site_fract_y
 _atom_site_fract_z
 _atom_site_occupancy
  Pr  Pr0  1  0.300402  0.305851  0.359455  1
  Pr  Pr1  1  0.694149  0.699598  0.640545  1
  Pr  Pr2  1  0.688031  0.701107  0.166116  1
  Pr  Pr3  1  0.298893  0.311969  0.833884  1
  Pr  Pr4  1  0.005511  0.994489  0.500000  1
  Hf  Hf5  1  0.767573  0.232427  0.000000  1
  Ru  Ru6  1  0.252492  0.747508  0.000000  1
  O  O7  1  0.093449  0.598290  0.574943  1
  O  O8  1  0.016689  0.982551  0.180101  1
  O  O9  1  0.401710  0.906551  0.425057  1
  O  O10  1  0.495969  0.505772  0.177212  1
  O  O11  1  0.099795  0.585019  0.080072  1
  O  O12  1  0.902517  0.405170  0.422106  1
  O  O13  1  0.017449  0.983311  0.819899  1
  O  O14  1  0.594830  0.097482  0.577894  1
  O  O15  1  0.494228  0.504031  0.822788  1
  O  O16  1  0.566511  0.105178  0.080874  1
  O  O17  1  0.414981  0.900205  0.919928  1
  O  O18  1  0.894822  0.433489  0.919126  1
