# generated using pymatgen
data_NdTlBi6(MoO6)4
_symmetry_space_group_name_H-M   'P 1'
_cell_length_a   10.45650845
_cell_length_b   10.45650709
_cell_length_c   5.54426400
_cell_angle_alpha   77.21211127
_cell_angle_beta   77.21211296
_cell_angle_gamma   68.63282441
_symmetry_Int_Tables_number   1
_chemical_formula_structural   NdTlBi6(MoO6)4
_chemical_formula_sum   'Nd1 Tl1 Bi6 Mo4 O24'
_cell_volume   543.88472692
_cell_formula_units_Z   1
loop_
 _symmetry_equiv_pos_site_id
 _symmetry_equiv_pos_as_xyz
  1  'x, y, z'
loop_
 _atom_site_type_symbol
 _atom_site_label
 _atom_site_symmetry_multiplicity
 _atom_site_fract_x
 _atom_site_fract_y
 _atom_site_fract_z
 _atom_site_occupancy
  Nd  Nd0  1  0.889490  0.110510  0.250000  1
  Tl  Tl1  1  0.100395  0.899605  0.750000  1
  Bi  Bi2  1  0.725821  0.949874  0.933685  1
  Bi  Bi3  1  0.277730  0.042968  0.062961  1
  Bi  Bi4  1  0.050126  0.274179  0.566315  1
  Bi  Bi5  1  0.957032  0.722270  0.437039  1
  Bi  Bi6  1  0.655064  0.344936  0.750000  1
  Bi  Bi7  1  0.341783  0.658217  0.250000  1
  Mo  Mo8  1  0.538938  0.794003  0.574960  1
  Mo  Mo9  1  0.463310  0.205543  0.412330  1
  Mo  Mo10  1  0.205997  0.461062  0.925040  1
  Mo  Mo11  1  0.794457  0.536690  0.087670  1
  O  O12  1  0.549792  0.636406  0.784491  1
  O  O13  1  0.445441  0.366203  0.208609  1
  O  O14  1  0.363594  0.450208  0.715509  1
  O  O15  1  0.633797  0.554559  0.291391  1
  O  O16  1  0.886975  0.927580  0.591802  1
  O  O17  1  0.113860  0.071032  0.410531  1
  O  O18  1  0.072420  0.113025  0.908198  1
  O  O19  1  0.928968  0.886140  0.089469  1
  O  O20  1  0.613564  0.172979  0.570533  1
  O  O21  1  0.399622  0.828129  0.389136  1
  O  O22  1  0.827021  0.386436  0.929467  1
  O  O23  1  0.171871  0.600378  0.110864  1
  O  O24  1  0.306432  0.211292  0.635045  1
  O  O25  1  0.700919  0.789058  0.367304  1
  O  O26  1  0.788708  0.693568  0.864955  1
  O  O27  1  0.210942  0.299081  0.132696  1
  O  O28  1  0.724809  0.154191  0.001808  1
  O  O29  1  0.265513  0.844778  0.982739  1
  O  O30  1  0.845809  0.275191  0.498192  1
  O  O31  1  0.155222  0.734487  0.517261  1
  O  O32  1  0.505776  0.928574  0.756212  1
  O  O33  1  0.489667  0.072290  0.233127  1
  O  O34  1  0.071426  0.494224  0.743788  1
  O  O35  1  0.927710  0.510333  0.266873  1
