# generated using pymatgen
data_Y2Co9Si7Ir3
_symmetry_space_group_name_H-M   'P 1'
_cell_length_a   3.73488500
_cell_length_b   9.24255078
_cell_length_c   9.24255100
_cell_angle_alpha   120.00000340
_cell_angle_beta   90.00000000
_cell_angle_gamma   90.00000000
_symmetry_Int_Tables_number   1
_chemical_formula_structural   Y2Co9Si7Ir3
_chemical_formula_sum   'Y2 Co9 Si7 Ir3'
_cell_volume   276.30678658
_cell_formula_units_Z   1
loop_
 _symmetry_equiv_pos_site_id
 _symmetry_equiv_pos_as_xyz
  1  'x, y, z'
loop_
 _atom_site_type_symbol
 _atom_site_label
 _atom_site_symmetry_multiplicity
 _atom_site_fract_x
 _atom_site_fract_y
 _atom_site_fract_z
 _atom_site_occupancy
  Y  Y0  1  0.000000  0.666667  0.333333  1
  Y  Y1  1  0.500000  0.333333  0.666667  1
  Co  Co2  1  0.000000  0.567370  0.943743  1
  Co  Co3  1  0.000000  0.376373  0.432630  1
  Co  Co4  1  0.000000  0.056257  0.623627  1
  Co  Co5  1  0.000000  0.873313  0.154022  1
  Co  Co6  1  0.000000  0.280709  0.126687  1
  Co  Co7  1  0.000000  0.845978  0.719291  1
  Co  Co8  1  0.500000  0.947122  0.382858  1
  Co  Co9  1  0.500000  0.435735  0.052878  1
  Co  Co10  1  0.500000  0.617142  0.564265  1
  Si  Si11  1  0.000000  0.000000  0.000000  1
  Si  Si12  1  0.500000  0.706818  0.114382  1
  Si  Si13  1  0.500000  0.407565  0.293182  1
  Si  Si14  1  0.500000  0.885618  0.592435  1
  Si  Si15  1  0.000000  0.594086  0.703342  1
  Si  Si16  1  0.000000  0.109257  0.405914  1
  Si  Si17  1  0.000000  0.296658  0.890743  1
  Ir  Ir18  1  0.500000  0.772372  0.895211  1
  Ir  Ir19  1  0.500000  0.122839  0.227628  1
  Ir  Ir20  1  0.500000  0.104789  0.877161  1
