# generated using pymatgen
data_Th5Zr3Co12(NiAs3)4
_symmetry_space_group_name_H-M   'P 1'
_cell_length_a   12.78939000
_cell_length_b   12.78938995
_cell_length_c   3.99943500
_cell_angle_alpha   90.00000000
_cell_angle_beta   90.00000000
_cell_angle_gamma   120.00000531
_symmetry_Int_Tables_number   1
_chemical_formula_structural   Th5Zr3Co12(NiAs3)4
_chemical_formula_sum   'Th5 Zr3 Co12 Ni4 As12'
_cell_volume   566.53782570
_cell_formula_units_Z   1
loop_
 _symmetry_equiv_pos_site_id
 _symmetry_equiv_pos_as_xyz
  1  'x, y, z'
loop_
 _atom_site_type_symbol
 _atom_site_label
 _atom_site_symmetry_multiplicity
 _atom_site_fract_x
 _atom_site_fract_y
 _atom_site_fract_z
 _atom_site_occupancy
  Th  Th0  1  0.187295  0.187929  0.500000  1
  Th  Th1  1  0.812071  0.999366  0.500000  1
  Th  Th2  1  0.000634  0.812705  0.500000  1
  Th  Th3  1  0.333333  0.666667  0.000000  1
  Th  Th4  1  0.666667  0.333333  0.000000  1
  Zr  Zr5  1  0.571030  0.571943  0.000000  1
  Zr  Zr6  1  0.428057  0.999087  0.000000  1
  Zr  Zr7  1  0.000913  0.428970  0.000000  1
  Co  Co8  1  0.723952  0.724460  0.500000  1
  Co  Co9  1  0.275540  0.999493  0.500000  1
  Co  Co10  1  0.000507  0.276048  0.500000  1
  Co  Co11  1  0.182708  0.376964  0.000000  1
  Co  Co12  1  0.623036  0.805743  0.000000  1
  Co  Co13  1  0.194257  0.817292  0.000000  1
  Co  Co14  1  0.809352  0.621887  0.000000  1
  Co  Co15  1  0.812534  0.190648  0.000000  1
  Co  Co16  1  0.378113  0.187466  0.000000  1
  Co  Co17  1  0.363218  0.486273  0.500000  1
  Co  Co18  1  0.513727  0.876946  0.500000  1
  Co  Co19  1  0.123054  0.636782  0.500000  1
  Ni  Ni20  1  0.878348  0.512937  0.500000  1
  Ni  Ni21  1  0.634590  0.121652  0.500000  1
  Ni  Ni22  1  0.487063  0.365410  0.500000  1
  Ni  Ni23  1  0.000000  0.000000  0.000000  1
  As  As24  1  0.819284  0.818731  0.000000  1
  As  As25  1  0.181269  0.000553  0.000000  1
  As  As26  1  0.999447  0.180716  0.000000  1
  As  As27  1  0.171621  0.474519  0.500000  1
  As  As28  1  0.525481  0.697102  0.500000  1
  As  As29  1  0.302898  0.828379  0.500000  1
  As  As30  1  0.699513  0.528606  0.500000  1
  As  As31  1  0.829094  0.300487  0.500000  1
  As  As32  1  0.471394  0.170906  0.500000  1
  As  As33  1  0.361482  0.366239  0.000000  1
  As  As34  1  0.633761  0.995244  0.000000  1
  As  As35  1  0.004756  0.638518  0.000000  1
