# generated using pymatgen
data_Pm2I3O11F
_symmetry_space_group_name_H-M   'P 1'
_cell_length_a   6.83568136
_cell_length_b   6.75567683
_cell_length_c   12.47257351
_cell_angle_alpha   79.23248589
_cell_angle_beta   78.56290481
_cell_angle_gamma   104.16003892
_symmetry_Int_Tables_number   1
_chemical_formula_structural   Pm2I3O11F
_chemical_formula_sum   'Pm4 I6 O22 F2'
_cell_volume   530.34119510
_cell_formula_units_Z   2
loop_
 _symmetry_equiv_pos_site_id
 _symmetry_equiv_pos_as_xyz
  1  'x, y, z'
loop_
 _atom_site_type_symbol
 _atom_site_label
 _atom_site_symmetry_multiplicity
 _atom_site_fract_x
 _atom_site_fract_y
 _atom_site_fract_z
 _atom_site_occupancy
  Pm  Pm0  1  0.181647  0.429461  0.604835  1
  Pm  Pm1  1  0.818353  0.570539  0.395165  1
  Pm  Pm2  1  0.570365  0.805018  0.899998  1
  Pm  Pm3  1  0.429635  0.194982  0.100002  1
  I  I4  1  0.956835  0.264632  0.970200  1
  I  I5  1  0.043165  0.735368  0.029800  1
  I  I6  1  0.728308  0.037899  0.533620  1
  I  I7  1  0.271692  0.962101  0.466380  1
  I  I8  1  0.592008  0.402929  0.762101  1
  I  I9  1  0.407992  0.597071  0.237899  1
  O  O10  1  0.546702  0.410890  0.912905  1
  O  O11  1  0.453298  0.589110  0.087095  1
  O  O12  1  0.563637  0.117692  0.765888  1
  O  O13  1  0.436363  0.882308  0.234112  1
  O  O14  1  0.882077  0.437495  0.734131  1
  O  O15  1  0.117923  0.562505  0.265869  1
  O  O16  1  0.696486  0.063380  0.002561  1
  O  O17  1  0.303514  0.936620  0.997439  1
  O  O18  1  0.931092  0.299505  0.501739  1
  O  O19  1  0.068908  0.700495  0.498261  1
  O  O20  1  0.406964  0.808687  0.554933  1
  O  O21  1  0.593036  0.191313  0.445067  1
  O  O22  1  0.188382  0.592434  0.941715  1
  O  O23  1  0.811618  0.407566  0.058285  1
  O  O24  1  0.307705  0.358909  0.764661  1
  O  O25  1  0.692295  0.641091  0.235339  1
  O  O26  1  0.642479  0.698319  0.727469  1
  O  O27  1  0.357521  0.301681  0.272531  1
  O  O28  1  0.936133  0.848790  0.918287  1
  O  O29  1  0.063867  0.151210  0.081713  1
  O  O30  1  0.158835  0.069785  0.579134  1
  O  O31  1  0.841165  0.930215  0.420866  1
  F  F32  1  0.597555  0.460529  0.582458  1
  F  F33  1  0.402445  0.539471  0.417542  1
