# generated using pymatgen
data_YbY6Co6Sn23
_symmetry_space_group_name_H-M   'P 1'
_cell_length_a   9.72458600
_cell_length_b   9.72458692
_cell_length_c   9.95324300
_cell_angle_alpha   90.00000000
_cell_angle_beta   90.00000000
_cell_angle_gamma   120.00000368
_symmetry_Int_Tables_number   1
_chemical_formula_structural   YbY6Co6Sn23
_chemical_formula_sum   'Yb1 Y6 Co6 Sn23'
_cell_volume   815.14995046
_cell_formula_units_Z   1
loop_
 _symmetry_equiv_pos_site_id
 _symmetry_equiv_pos_as_xyz
  1  'x, y, z'
loop_
 _atom_site_type_symbol
 _atom_site_label
 _atom_site_symmetry_multiplicity
 _atom_site_fract_x
 _atom_site_fract_y
 _atom_site_fract_z
 _atom_site_occupancy
  Yb  Yb0  1  0.000000  0.000000  0.000000  1
  Y  Y1  1  0.043366  0.521683  0.305992  1
  Y  Y2  1  0.478317  0.956634  0.305992  1
  Y  Y3  1  0.478317  0.521683  0.305992  1
  Y  Y4  1  0.956634  0.478317  0.694008  1
  Y  Y5  1  0.521683  0.043366  0.694008  1
  Y  Y6  1  0.521683  0.478317  0.694008  1
  Co  Co7  1  0.167908  0.832092  0.801986  1
  Co  Co8  1  0.664184  0.832092  0.801986  1
  Co  Co9  1  0.167908  0.335816  0.801986  1
  Co  Co10  1  0.832092  0.167908  0.198014  1
  Co  Co11  1  0.335816  0.167908  0.198014  1
  Co  Co12  1  0.832092  0.664184  0.198014  1
  Sn  Sn13  1  0.000000  0.000000  0.500000  1
  Sn  Sn14  1  0.116982  0.883018  0.273933  1
  Sn  Sn15  1  0.766034  0.883018  0.273933  1
  Sn  Sn16  1  0.116982  0.233966  0.273933  1
  Sn  Sn17  1  0.883018  0.116982  0.726067  1
  Sn  Sn18  1  0.233966  0.116982  0.726067  1
  Sn  Sn19  1  0.883018  0.766034  0.726067  1
  Sn  Sn20  1  0.345341  0.000000  0.000000  1
  Sn  Sn21  1  0.654659  0.654659  0.000000  1
  Sn  Sn22  1  0.000000  0.345341  0.000000  1
  Sn  Sn23  1  0.345341  0.345341  0.000000  1
  Sn  Sn24  1  0.000000  0.654659  0.000000  1
  Sn  Sn25  1  0.654659  0.000000  0.000000  1
  Sn  Sn26  1  0.781179  0.562357  0.451145  1
  Sn  Sn27  1  0.781179  0.218821  0.451145  1
  Sn  Sn28  1  0.437643  0.218821  0.451145  1
  Sn  Sn29  1  0.218821  0.437643  0.548855  1
  Sn  Sn30  1  0.218821  0.781179  0.548855  1
  Sn  Sn31  1  0.562357  0.781179  0.548855  1
  Sn  Sn32  1  0.666667  0.333333  0.183855  1
  Sn  Sn33  1  0.333333  0.666667  0.816145  1
  Sn  Sn34  1  0.666667  0.333333  0.883731  1
  Sn  Sn35  1  0.333333  0.666667  0.116269  1
