# generated using pymatgen
data_Dy2B6Ir8Rh
_symmetry_space_group_name_H-M   'P 1'
_cell_length_a   5.64959700
_cell_length_b   5.64161466
_cell_length_c   8.64060400
_cell_angle_alpha   90.00000000
_cell_angle_beta   90.00000000
_cell_angle_gamma   120.04679810
_symmetry_Int_Tables_number   1
_chemical_formula_structural   Dy2B6Ir8Rh
_chemical_formula_sum   'Dy2 B6 Ir8 Rh1'
_cell_volume   238.39142470
_cell_formula_units_Z   1
loop_
 _symmetry_equiv_pos_site_id
 _symmetry_equiv_pos_as_xyz
  1  'x, y, z'
loop_
 _atom_site_type_symbol
 _atom_site_label
 _atom_site_symmetry_multiplicity
 _atom_site_fract_x
 _atom_site_fract_y
 _atom_site_fract_z
 _atom_site_occupancy
  Dy  Dy0  1  0.000000  0.000000  0.701757  1
  Dy  Dy1  1  0.000000  0.000000  0.298932  1
  B  B2  1  0.666894  0.333787  0.999753  1
  B  B3  1  0.333106  0.666213  0.999753  1
  B  B4  1  0.666723  0.333446  0.667722  1
  B  B5  1  0.333277  0.666554  0.667722  1
  B  B6  1  0.333140  0.666282  0.332124  1
  B  B7  1  0.666860  0.333718  0.332124  1
  Ir  Ir8  1  0.500000  0.500000  0.836343  1
  Ir  Ir9  1  0.500000  0.000000  0.836457  1
  Ir  Ir10  1  0.000000  0.500000  0.836343  1
  Ir  Ir11  1  0.500000  0.500000  0.163973  1
  Ir  Ir12  1  0.000000  0.500000  0.163973  1
  Ir  Ir13  1  0.500000  0.500000  0.499798  1
  Ir  Ir14  1  0.500000  0.000000  0.499050  1
  Ir  Ir15  1  0.000000  0.500000  0.499798  1
  Rh  Rh16  1  0.500000  0.000000  0.164378  1
