# generated using pymatgen
data_Li3La4LuPt4
_symmetry_space_group_name_H-M   'P 1'
_cell_length_a   4.18847600
_cell_length_b   7.44764866
_cell_length_c   9.01243773
_cell_angle_alpha   91.92304483
_cell_angle_beta   90.00000000
_cell_angle_gamma   90.00000000
_symmetry_Int_Tables_number   1
_chemical_formula_structural   Li3La4LuPt4
_chemical_formula_sum   'Li3 La4 Lu1 Pt4'
_cell_volume   280.97832907
_cell_formula_units_Z   1
loop_
 _symmetry_equiv_pos_site_id
 _symmetry_equiv_pos_as_xyz
  1  'x, y, z'
loop_
 _atom_site_type_symbol
 _atom_site_label
 _atom_site_symmetry_multiplicity
 _atom_site_fract_x
 _atom_site_fract_y
 _atom_site_fract_z
 _atom_site_occupancy
  Li  Li0  1  0.250000  0.129841  0.053639  1
  Li  Li1  1  0.250000  0.643311  0.434832  1
  Li  Li2  1  0.750000  0.876816  0.948770  1
  La  La3  1  0.250000  0.017353  0.695998  1
  La  La4  1  0.250000  0.550749  0.834219  1
  La  La5  1  0.750000  0.957762  0.306790  1
  La  La6  1  0.750000  0.463093  0.177935  1
  Lu  Lu7  1  0.750000  0.372522  0.556961  1
  Pt  Pt8  1  0.250000  0.238582  0.386223  1
  Pt  Pt9  1  0.250000  0.753308  0.119117  1
  Pt  Pt10  1  0.750000  0.740899  0.618393  1
  Pt  Pt11  1  0.750000  0.255762  0.867126  1
