# generated using pymatgen
data_Zr10Ga3Sb5
_symmetry_space_group_name_H-M   'P 1'
_cell_length_a   8.65596819
_cell_length_b   8.65596752
_cell_length_c   5.87026300
_cell_angle_alpha   90.00000000
_cell_angle_beta   90.00000000
_cell_angle_gamma   120.15760605
_symmetry_Int_Tables_number   1
_chemical_formula_structural   Zr10Ga3Sb5
_chemical_formula_sum   'Zr10 Ga3 Sb5'
_cell_volume   380.30106837
_cell_formula_units_Z   1
loop_
 _symmetry_equiv_pos_site_id
 _symmetry_equiv_pos_as_xyz
  1  'x, y, z'
loop_
 _atom_site_type_symbol
 _atom_site_label
 _atom_site_symmetry_multiplicity
 _atom_site_fract_x
 _atom_site_fract_y
 _atom_site_fract_z
 _atom_site_occupancy
  Zr  Zr0  1  0.274247  0.274247  0.750000  1
  Zr  Zr1  1  0.733865  0.733865  0.250000  1
  Zr  Zr2  1  0.727784  0.991088  0.750000  1
  Zr  Zr3  1  0.000517  0.266510  0.250000  1
  Zr  Zr4  1  0.335926  0.666126  0.502762  1
  Zr  Zr5  1  0.666126  0.335926  0.502762  1
  Zr  Zr6  1  0.991088  0.727784  0.750000  1
  Zr  Zr7  1  0.335926  0.666126  0.997238  1
  Zr  Zr8  1  0.266510  0.000517  0.250000  1
  Zr  Zr9  1  0.666126  0.335926  0.997238  1
  Ga  Ga10  1  0.000238  0.000238  0.503880  1
  Ga  Ga11  1  0.612538  0.612538  0.750000  1
  Ga  Ga12  1  0.000238  0.000238  0.996120  1
  Sb  Sb13  1  0.385828  0.998557  0.750000  1
  Sb  Sb14  1  0.611325  0.000373  0.250000  1
  Sb  Sb15  1  0.392787  0.392787  0.250000  1
  Sb  Sb16  1  0.998557  0.385828  0.750000  1
  Sb  Sb17  1  0.000373  0.611325  0.250000  1
