# generated using pymatgen
data_La2Zn19Pd3
_symmetry_space_group_name_H-M   'P 1'
_cell_length_a   8.36077211
_cell_length_b   8.32880324
_cell_length_c   8.32880263
_cell_angle_alpha   100.02409323
_cell_angle_beta   99.52566240
_cell_angle_gamma   131.09352386
_symmetry_Int_Tables_number   1
_chemical_formula_structural   La2Zn19Pd3
_chemical_formula_sum   'La2 Zn19 Pd3'
_cell_volume   398.63452832
_cell_formula_units_Z   1
loop_
 _symmetry_equiv_pos_site_id
 _symmetry_equiv_pos_as_xyz
  1  'x, y, z'
loop_
 _atom_site_type_symbol
 _atom_site_label
 _atom_site_symmetry_multiplicity
 _atom_site_fract_x
 _atom_site_fract_y
 _atom_site_fract_z
 _atom_site_occupancy
  La  La0  1  0.252285  0.749927  0.502358  1
  La  La1  1  0.997715  0.000073  0.997642  1
  Zn  Zn2  1  0.902129  0.573256  0.083827  1
  Zn  Zn3  1  0.426465  0.510274  0.327320  1
  Zn  Zn4  1  0.488422  0.570136  0.672640  1
  Zn  Zn5  1  0.426465  0.099145  0.916191  1
  Zn  Zn6  1  0.761578  0.179864  0.827360  1
  Zn  Zn7  1  0.488422  0.815782  0.918285  1
  Zn  Zn8  1  0.509429  0.506255  0.003174  1
  Zn  Zn9  1  0.761578  0.934218  0.581715  1
  Zn  Zn10  1  0.740571  0.243745  0.496826  1
  Zn  Zn11  1  0.065745  0.651469  0.828466  1
  Zn  Zn12  1  0.125000  0.375000  0.750000  1
  Zn  Zn13  1  0.347871  0.176744  0.416173  1
  Zn  Zn14  1  0.823535  0.650855  0.583809  1
  Zn  Zn15  1  0.902129  0.818302  0.328873  1
  Zn  Zn16  1  0.184255  0.098531  0.671534  1
  Zn  Zn17  1  0.065745  0.237279  0.414276  1
  Zn  Zn18  1  0.347871  0.931698  0.171127  1
  Zn  Zn19  1  0.823535  0.239726  0.172680  1
  Zn  Zn20  1  0.184255  0.512721  0.085724  1
  Pd  Pd21  1  0.625000  0.875000  0.250000  1
  Pd  Pd22  1  0.625000  0.375000  0.250000  1
  Pd  Pd23  1  0.625000  0.375000  0.750000  1
