# generated using pymatgen
data_TbCe7Ho2(SiB4)4
_symmetry_space_group_name_H-M   'P 1'
_cell_length_a   7.31166322
_cell_length_b   7.31166321
_cell_length_c   8.25369100
_cell_angle_alpha   89.98787304
_cell_angle_beta   90.01212731
_cell_angle_gamma   90.04563301
_symmetry_Int_Tables_number   1
_chemical_formula_structural   TbCe7Ho2(SiB4)4
_chemical_formula_sum   'Tb1 Ce7 Ho2 Si4 B16'
_cell_volume   441.24561956
_cell_formula_units_Z   1
loop_
 _symmetry_equiv_pos_site_id
 _symmetry_equiv_pos_as_xyz
  1  'x, y, z'
loop_
 _atom_site_type_symbol
 _atom_site_label
 _atom_site_symmetry_multiplicity
 _atom_site_fract_x
 _atom_site_fract_y
 _atom_site_fract_z
 _atom_site_occupancy
  Tb  Tb0  1  0.181582  0.318418  0.220727  1
  Ce  Ce1  1  0.682399  0.182520  0.226837  1
  Ce  Ce2  1  0.317530  0.817494  0.773272  1
  Ce  Ce3  1  0.317480  0.817601  0.226837  1
  Ce  Ce4  1  0.817470  0.682530  0.226635  1
  Ce  Ce5  1  0.818338  0.681662  0.773068  1
  Ce  Ce6  1  0.682506  0.182470  0.773272  1
  Ce  Ce7  1  0.181853  0.318147  0.774284  1
  Ho  Ho8  1  0.000689  0.000092  0.498927  1
  Ho  Ho9  1  0.499908  0.499311  0.498927  1
  Si  Si10  1  0.115696  0.614744  0.499381  1
  Si  Si11  1  0.885256  0.384304  0.499381  1
  Si  Si12  1  0.383870  0.116130  0.499465  1
  Si  Si13  1  0.614623  0.885377  0.499430  1
  B  B14  1  0.172838  0.039070  0.000377  1
  B  B15  1  0.827671  0.961446  0.001106  1
  B  B16  1  0.960737  0.172581  0.000147  1
  B  B17  1  0.327419  0.539263  0.000147  1
  B  B18  1  0.039436  0.827665  0.001028  1
  B  B19  1  0.672335  0.460564  0.001028  1
  B  B20  1  0.538554  0.672329  0.001106  1
  B  B21  1  0.460930  0.327162  0.000377  1
  B  B22  1  0.091629  0.591340  0.000690  1
  B  B23  1  0.908660  0.408371  0.000690  1
  B  B24  1  0.408843  0.091157  0.999882  1
  B  B25  1  0.591230  0.908770  0.000565  1
  B  B26  1  0.000345  0.999276  0.159935  1
  B  B27  1  0.999927  0.000482  0.841273  1
  B  B28  1  0.499518  0.500073  0.841273  1
  B  B29  1  0.500724  0.499655  0.159935  1
