# generated using pymatgen
data_ErThNi10
_symmetry_space_group_name_H-M   'P 1'
_cell_length_a   3.97719700
_cell_length_b   4.92001300
_cell_length_c   8.44962900
_cell_angle_alpha   90.00000000
_cell_angle_beta   90.00000000
_cell_angle_gamma   90.00000000
_symmetry_Int_Tables_number   1
_chemical_formula_structural   ErThNi10
_chemical_formula_sum   'Er1 Th1 Ni10'
_cell_volume   165.34116530
_cell_formula_units_Z   1
loop_
 _symmetry_equiv_pos_site_id
 _symmetry_equiv_pos_as_xyz
  1  'x, y, z'
loop_
 _atom_site_type_symbol
 _atom_site_label
 _atom_site_symmetry_multiplicity
 _atom_site_fract_x
 _atom_site_fract_y
 _atom_site_fract_z
 _atom_site_occupancy
  Er  Er0  1  0.000000  0.500000  0.500000  1
  Th  Th1  1  0.000000  0.000000  0.000000  1
  Ni  Ni2  1  0.000000  0.000000  0.335743  1
  Ni  Ni3  1  0.000000  0.500000  0.830568  1
  Ni  Ni4  1  0.000000  0.500000  0.169432  1
  Ni  Ni5  1  0.000000  0.000000  0.664257  1
  Ni  Ni6  1  0.500000  0.000000  0.500000  1
  Ni  Ni7  1  0.500000  0.500000  0.000000  1
  Ni  Ni8  1  0.500000  0.251224  0.253499  1
  Ni  Ni9  1  0.500000  0.748776  0.746501  1
  Ni  Ni10  1  0.500000  0.748776  0.253499  1
  Ni  Ni11  1  0.500000  0.251224  0.746501  1
