# generated using pymatgen
data_Nd2HfZr(NiP)4
_symmetry_space_group_name_H-M   'P 1'
_cell_length_a   3.89042400
_cell_length_b   3.89042349
_cell_length_c   15.07608100
_cell_angle_alpha   90.00000000
_cell_angle_beta   90.00000000
_cell_angle_gamma   119.99998736
_symmetry_Int_Tables_number   1
_chemical_formula_structural   Nd2HfZr(NiP)4
_chemical_formula_sum   'Nd2 Hf1 Zr1 Ni4 P4'
_cell_volume   197.61184060
_cell_formula_units_Z   1
loop_
 _symmetry_equiv_pos_site_id
 _symmetry_equiv_pos_as_xyz
  1  'x, y, z'
loop_
 _atom_site_type_symbol
 _atom_site_label
 _atom_site_symmetry_multiplicity
 _atom_site_fract_x
 _atom_site_fract_y
 _atom_site_fract_z
 _atom_site_occupancy
  Nd  Nd0  1  0.000000  0.000000  0.499310  1
  Nd  Nd1  1  0.000000  0.000000  0.000700  1
  Hf  Hf2  1  0.000000  0.000000  0.250000  1
  Zr  Zr3  1  0.000000  0.000000  0.749998  1
  Ni  Ni4  1  0.333333  0.666667  0.346040  1
  Ni  Ni5  1  0.666667  0.333333  0.650899  1
  Ni  Ni6  1  0.666667  0.333333  0.849096  1
  Ni  Ni7  1  0.333333  0.666667  0.153954  1
  P  P8  1  0.333333  0.666667  0.870911  1
  P  P9  1  0.666667  0.333333  0.129830  1
  P  P10  1  0.666667  0.333333  0.370168  1
  P  P11  1  0.333333  0.666667  0.629094  1
