# generated using pymatgen
data_Tm4Th(MnB3)2
_symmetry_space_group_name_H-M   'P 1'
_cell_length_a   5.39919077
_cell_length_b   5.39919083
_cell_length_c   8.18894170
_cell_angle_alpha   70.75164482
_cell_angle_beta   70.75164301
_cell_angle_gamma   60.00001350
_symmetry_Int_Tables_number   1
_chemical_formula_structural   Tm4Th(MnB3)2
_chemical_formula_sum   'Tm4 Th1 Mn2 B6'
_cell_volume   191.17153722
_cell_formula_units_Z   1
loop_
 _symmetry_equiv_pos_site_id
 _symmetry_equiv_pos_as_xyz
  1  'x, y, z'
loop_
 _atom_site_type_symbol
 _atom_site_label
 _atom_site_symmetry_multiplicity
 _atom_site_fract_x
 _atom_site_fract_y
 _atom_site_fract_z
 _atom_site_occupancy
  Tm  Tm0  1  0.250003  0.250003  0.249989  1
  Tm  Tm1  1  0.749997  0.749997  0.750011  1
  Tm  Tm2  1  0.417046  0.417046  0.748862  1
  Tm  Tm3  1  0.582954  0.582954  0.251138  1
  Th  Th4  1  0.000000  0.000000  0.000000  1
  Mn  Mn5  1  0.112690  0.112690  0.661929  1
  Mn  Mn6  1  0.887310  0.887310  0.338071  1
  B  B7  1  0.167058  0.832942  0.500000  1
  B  B8  1  0.832942  0.500000  0.500000  1
  B  B9  1  0.500000  0.167058  0.500000  1
  B  B10  1  0.167058  0.500000  0.500000  1
  B  B11  1  0.500000  0.832942  0.500000  1
  B  B12  1  0.832942  0.167058  0.500000  1
