# generated using pymatgen
data_Er4Ga20Tc5Pt
_symmetry_space_group_name_H-M   'P 1'
_cell_length_a   9.04637000
_cell_length_b   9.04637000
_cell_length_c   6.30717600
_cell_angle_alpha   90.00000000
_cell_angle_beta   90.00000000
_cell_angle_gamma   90.00000000
_symmetry_Int_Tables_number   1
_chemical_formula_structural   Er4Ga20Tc5Pt
_chemical_formula_sum   'Er4 Ga20 Tc5 Pt1'
_cell_volume   516.15916506
_cell_formula_units_Z   1
loop_
 _symmetry_equiv_pos_site_id
 _symmetry_equiv_pos_as_xyz
  1  'x, y, z'
loop_
 _atom_site_type_symbol
 _atom_site_label
 _atom_site_symmetry_multiplicity
 _atom_site_fract_x
 _atom_site_fract_y
 _atom_site_fract_z
 _atom_site_occupancy
  Er  Er0  1  0.680319  0.185445  0.000000  1
  Er  Er1  1  0.319681  0.814555  0.000000  1
  Er  Er2  1  0.814555  0.680319  0.000000  1
  Er  Er3  1  0.185445  0.319681  0.000000  1
  Ga  Ga4  1  0.937972  0.209974  0.292554  1
  Ga  Ga5  1  0.705047  0.440690  0.292437  1
  Ga  Ga6  1  0.500000  0.000000  0.286524  1
  Ga  Ga7  1  0.559310  0.705047  0.707563  1
  Ga  Ga8  1  0.294953  0.559310  0.707563  1
  Ga  Ga9  1  0.790026  0.937972  0.292554  1
  Ga  Ga10  1  0.937972  0.209974  0.707446  1
  Ga  Ga11  1  0.294953  0.559310  0.292437  1
  Ga  Ga12  1  0.062028  0.790026  0.292554  1
  Ga  Ga13  1  0.705047  0.440690  0.707563  1
  Ga  Ga14  1  0.440690  0.294953  0.707563  1
  Ga  Ga15  1  0.062028  0.790026  0.707446  1
  Ga  Ga16  1  0.209974  0.062028  0.707446  1
  Ga  Ga17  1  0.790026  0.937972  0.707446  1
  Ga  Ga18  1  0.209974  0.062028  0.292554  1
  Ga  Ga19  1  0.000000  0.500000  0.713476  1
  Ga  Ga20  1  0.000000  0.500000  0.286524  1
  Ga  Ga21  1  0.559310  0.705047  0.292437  1
  Ga  Ga22  1  0.440690  0.294953  0.292437  1
  Ga  Ga23  1  0.500000  0.000000  0.713476  1
  Tc  Tc24  1  0.681147  0.176360  0.500000  1
  Tc  Tc25  1  0.823640  0.681147  0.500000  1
  Tc  Tc26  1  0.176360  0.318853  0.500000  1
  Tc  Tc27  1  0.318853  0.823640  0.500000  1
  Tc  Tc28  1  0.500000  0.500000  0.000000  1
  Pt  Pt29  1  0.000000  0.000000  0.000000  1
