# generated using pymatgen
data_Al4AgAu10
_symmetry_space_group_name_H-M   'P 1'
_cell_length_a   3.30710200
_cell_length_b   9.06983800
_cell_length_c   17.29912500
_cell_angle_alpha   90.00000000
_cell_angle_beta   90.00000000
_cell_angle_gamma   90.00000000
_symmetry_Int_Tables_number   1
_chemical_formula_structural   Al4AgAu10
_chemical_formula_sum   'Al8 Ag2 Au20'
_cell_volume   518.88516792
_cell_formula_units_Z   2
loop_
 _symmetry_equiv_pos_site_id
 _symmetry_equiv_pos_as_xyz
  1  'x, y, z'
loop_
 _atom_site_type_symbol
 _atom_site_label
 _atom_site_symmetry_multiplicity
 _atom_site_fract_x
 _atom_site_fract_y
 _atom_site_fract_z
 _atom_site_occupancy
  Al  Al0  1  0.000000  0.974018  0.199364  1
  Al  Al1  1  0.000000  0.025982  0.800636  1
  Al  Al2  1  0.500000  0.474018  0.300636  1
  Al  Al3  1  0.500000  0.525982  0.699364  1
  Al  Al4  1  0.000000  0.024150  0.403310  1
  Al  Al5  1  0.000000  0.975850  0.596690  1
  Al  Al6  1  0.500000  0.524150  0.096690  1
  Al  Al7  1  0.500000  0.475850  0.903310  1
  Ag  Ag8  1  0.000000  0.000000  0.000000  1
  Ag  Ag9  1  0.500000  0.500000  0.500000  1
  Au  Au10  1  0.000000  0.342488  0.015998  1
  Au  Au11  1  0.000000  0.657512  0.984002  1
  Au  Au12  1  0.500000  0.842488  0.484002  1
  Au  Au13  1  0.500000  0.157512  0.515998  1
  Au  Au14  1  0.000000  0.366940  0.187269  1
  Au  Au15  1  0.000000  0.633060  0.812731  1
  Au  Au16  1  0.500000  0.866940  0.312731  1
  Au  Au17  1  0.500000  0.133060  0.687269  1
  Au  Au18  1  0.000000  0.314108  0.400891  1
  Au  Au19  1  0.000000  0.685892  0.599109  1
  Au  Au20  1  0.500000  0.814108  0.099109  1
  Au  Au21  1  0.500000  0.185892  0.900891  1
  Au  Au22  1  0.000000  0.364466  0.615043  1
  Au  Au23  1  0.000000  0.635534  0.384957  1
  Au  Au24  1  0.500000  0.864466  0.884957  1
  Au  Au25  1  0.500000  0.135534  0.115043  1
  Au  Au26  1  0.000000  0.330019  0.784743  1
  Au  Au27  1  0.000000  0.669981  0.215257  1
  Au  Au28  1  0.500000  0.830019  0.715257  1
  Au  Au29  1  0.500000  0.169981  0.284743  1
