# generated using pymatgen
data_TbLu(ZnIr)2
_symmetry_space_group_name_H-M   'P 1'
_cell_length_a   4.02341100
_cell_length_b   6.97776012
_cell_length_c   8.08781163
_cell_angle_alpha   89.39878063
_cell_angle_beta   90.00000000
_cell_angle_gamma   90.00000000
_symmetry_Int_Tables_number   1
_chemical_formula_structural   TbLu(ZnIr)2
_chemical_formula_sum   'Tb2 Lu2 Zn4 Ir4'
_cell_volume   227.04793288
_cell_formula_units_Z   2
loop_
 _symmetry_equiv_pos_site_id
 _symmetry_equiv_pos_as_xyz
  1  'x, y, z'
loop_
 _atom_site_type_symbol
 _atom_site_label
 _atom_site_symmetry_multiplicity
 _atom_site_fract_x
 _atom_site_fract_y
 _atom_site_fract_z
 _atom_site_occupancy
  Tb  Tb0  1  0.250000  0.535536  0.185531  1
  Tb  Tb1  1  0.750000  0.464464  0.814469  1
  Lu  Lu2  1  0.750000  0.964514  0.680536  1
  Lu  Lu3  1  0.250000  0.035486  0.319464  1
  Zn  Zn4  1  0.250000  0.642006  0.566274  1
  Zn  Zn5  1  0.750000  0.357994  0.433726  1
  Zn  Zn6  1  0.750000  0.862856  0.065839  1
  Zn  Zn7  1  0.250000  0.137144  0.934161  1
  Ir  Ir8  1  0.250000  0.761469  0.875676  1
  Ir  Ir9  1  0.750000  0.238531  0.124324  1
  Ir  Ir10  1  0.750000  0.748126  0.380211  1
  Ir  Ir11  1  0.250000  0.251874  0.619789  1
