# generated using pymatgen
data_MgScCo4(NiP)6
_symmetry_space_group_name_H-M   'P 1'
_cell_length_a   3.60515400
_cell_length_b   10.17759900
_cell_length_c   11.74478700
_cell_angle_alpha   90.00000000
_cell_angle_beta   90.00000000
_cell_angle_gamma   90.00000000
_symmetry_Int_Tables_number   1
_chemical_formula_structural   MgScCo4(NiP)6
_chemical_formula_sum   'Mg2 Sc2 Co8 Ni12 P12'
_cell_volume   430.93751359
_cell_formula_units_Z   2
loop_
 _symmetry_equiv_pos_site_id
 _symmetry_equiv_pos_as_xyz
  1  'x, y, z'
loop_
 _atom_site_type_symbol
 _atom_site_label
 _atom_site_symmetry_multiplicity
 _atom_site_fract_x
 _atom_site_fract_y
 _atom_site_fract_z
 _atom_site_occupancy
  Mg  Mg0  1  0.250000  0.577826  0.704641  1
  Mg  Mg1  1  0.250000  0.922174  0.204641  1
  Sc  Sc2  1  0.750000  0.420444  0.295139  1
  Sc  Sc3  1  0.750000  0.079556  0.795139  1
  Co  Co4  1  0.250000  0.876425  0.700514  1
  Co  Co5  1  0.250000  0.623575  0.200514  1
  Co  Co6  1  0.750000  0.120770  0.298569  1
  Co  Co7  1  0.750000  0.379230  0.798569  1
  Co  Co8  1  0.250000  0.465320  0.931216  1
  Co  Co9  1  0.250000  0.034680  0.431216  1
  Co  Co10  1  0.750000  0.537393  0.067470  1
  Co  Co11  1  0.750000  0.962607  0.567470  1
  Ni  Ni12  1  0.250000  0.716035  0.990178  1
  Ni  Ni13  1  0.250000  0.783965  0.490178  1
  Ni  Ni14  1  0.750000  0.286356  0.008643  1
  Ni  Ni15  1  0.750000  0.213644  0.508643  1
  Ni  Ni16  1  0.250000  0.406901  0.483844  1
  Ni  Ni17  1  0.250000  0.093099  0.983844  1
  Ni  Ni18  1  0.750000  0.589806  0.518933  1
  Ni  Ni19  1  0.750000  0.910194  0.018933  1
  Ni  Ni20  1  0.250000  0.227843  0.175173  1
  Ni  Ni21  1  0.250000  0.272158  0.675173  1
  Ni  Ni22  1  0.750000  0.776502  0.825752  1
  Ni  Ni23  1  0.750000  0.723498  0.325752  1
  P  P24  1  0.250000  0.428191  0.115985  1
  P  P25  1  0.250000  0.071809  0.615985  1
  P  P26  1  0.750000  0.575539  0.883585  1
  P  P27  1  0.750000  0.924461  0.383585  1
  P  P28  1  0.250000  0.265825  0.865631  1
  P  P29  1  0.250000  0.234175  0.365631  1
  P  P30  1  0.750000  0.736161  0.134795  1
  P  P31  1  0.750000  0.763839  0.634795  1
  P  P32  1  0.250000  0.597836  0.387972  1
  P  P33  1  0.250000  0.902164  0.887972  1
  P  P34  1  0.750000  0.398820  0.611960  1
  P  P35  1  0.750000  0.101180  0.111960  1
