# generated using pymatgen
data_Sr10TiW3N14
_symmetry_space_group_name_H-M   'P 1'
_cell_length_a   6.49769554
_cell_length_b   9.40292284
_cell_length_c   9.42979701
_cell_angle_alpha   115.08067955
_cell_angle_beta   97.23394975
_cell_angle_gamma   88.97143785
_symmetry_Int_Tables_number   1
_chemical_formula_structural   Sr10TiW3N14
_chemical_formula_sum   'Sr10 Ti1 W3 N14'
_cell_volume   517.25661994
_cell_formula_units_Z   1
loop_
 _symmetry_equiv_pos_site_id
 _symmetry_equiv_pos_as_xyz
  1  'x, y, z'
loop_
 _atom_site_type_symbol
 _atom_site_label
 _atom_site_symmetry_multiplicity
 _atom_site_fract_x
 _atom_site_fract_y
 _atom_site_fract_z
 _atom_site_occupancy
  Sr  Sr0  1  0.847786  0.588873  0.326400  1
  Sr  Sr1  1  0.262009  0.987896  0.553997  1
  Sr  Sr2  1  0.703438  0.411895  0.853601  1
  Sr  Sr3  1  0.291585  0.583489  0.138551  1
  Sr  Sr4  1  0.395877  0.795486  0.928943  1
  Sr  Sr5  1  0.605949  0.205561  0.079809  1
  Sr  Sr6  1  0.151051  0.403294  0.664891  1
  Sr  Sr7  1  0.898136  0.850023  0.760209  1
  Sr  Sr8  1  0.105708  0.148923  0.244565  1
  Sr  Sr9  1  0.737966  0.019570  0.444977  1
  Ti  Ti10  1  0.581494  0.353180  0.474946  1
  W  W11  1  0.422894  0.644309  0.525889  1
  W  W12  1  0.123822  0.215550  0.917300  1
  W  W13  1  0.876190  0.781487  0.081556  1
  N  N14  1  0.522287  0.556950  0.669701  1
  N  N15  1  0.471406  0.463542  0.337527  1
  N  N16  1  0.151538  0.707490  0.552629  1
  N  N17  1  0.847196  0.288672  0.437999  1
  N  N18  1  0.415066  0.193897  0.475268  1
  N  N19  1  0.588159  0.810985  0.537112  1
  N  N20  1  0.955659  0.134526  0.719119  1
  N  N21  1  0.047107  0.859875  0.278434  1
  N  N22  1  0.235792  0.053349  0.967008  1
  N  N23  1  0.764223  0.945058  0.034409  1
  N  N24  1  0.356334  0.327807  0.906917  1
  N  N25  1  0.964969  0.348688  0.076420  1
  N  N26  1  0.032240  0.651110  0.919116  1
  N  N27  1  0.644121  0.668515  0.092709  1
