# generated using pymatgen
data_Zr5Co16(TcAs4)3
_symmetry_space_group_name_H-M   'P 1'
_cell_length_a   12.34499500
_cell_length_b   12.34499674
_cell_length_c   3.78331000
_cell_angle_alpha   90.00000000
_cell_angle_beta   90.00000000
_cell_angle_gamma   119.99999802
_symmetry_Int_Tables_number   1
_chemical_formula_structural   Zr5Co16(TcAs4)3
_chemical_formula_sum   'Zr5 Co16 Tc3 As12'
_cell_volume   499.32632907
_cell_formula_units_Z   1
loop_
 _symmetry_equiv_pos_site_id
 _symmetry_equiv_pos_as_xyz
  1  'x, y, z'
loop_
 _atom_site_type_symbol
 _atom_site_label
 _atom_site_symmetry_multiplicity
 _atom_site_fract_x
 _atom_site_fract_y
 _atom_site_fract_z
 _atom_site_occupancy
  Zr  Zr0  1  0.666667  0.333333  0.000000  1
  Zr  Zr1  1  0.333333  0.666667  0.000000  1
  Zr  Zr2  1  0.820725  0.820725  0.500000  1
  Zr  Zr3  1  0.179275  0.000000  0.500000  1
  Zr  Zr4  1  0.000000  0.179275  0.500000  1
  Co  Co5  1  0.196324  0.374999  0.000000  1
  Co  Co6  1  0.178676  0.803676  0.000000  1
  Co  Co7  1  0.821324  0.625001  0.000000  1
  Co  Co8  1  0.803676  0.178676  0.000000  1
  Co  Co9  1  0.374999  0.196324  0.000000  1
  Co  Co10  1  0.126219  0.481046  0.500000  1
  Co  Co11  1  0.354827  0.873781  0.500000  1
  Co  Co12  1  0.518954  0.645173  0.500000  1
  Co  Co13  1  0.645173  0.518954  0.500000  1
  Co  Co14  1  0.873781  0.354827  0.500000  1
  Co  Co15  1  0.481046  0.126219  0.500000  1
  Co  Co16  1  0.000000  0.000000  0.000000  1
  Co  Co17  1  0.717645  0.000000  0.500000  1
  Co  Co18  1  0.000000  0.717645  0.500000  1
  Co  Co19  1  0.625001  0.821324  0.000000  1
  Co  Co20  1  0.282355  0.282355  0.500000  1
  Tc  Tc21  1  0.445491  0.445491  0.000000  1
  Tc  Tc22  1  0.554509  0.000000  0.000000  1
  Tc  Tc23  1  0.000000  0.554509  0.000000  1
  As  As24  1  0.642299  0.642299  0.000000  1
  As  As25  1  0.357701  0.000000  0.000000  1
  As  As26  1  0.000000  0.357701  0.000000  1
  As  As27  1  0.483731  0.316443  0.500000  1
  As  As28  1  0.683557  0.167289  0.500000  1
  As  As29  1  0.832711  0.516269  0.500000  1
  As  As30  1  0.516269  0.832711  0.500000  1
  As  As31  1  0.167289  0.683557  0.500000  1
  As  As32  1  0.823039  0.000000  0.000000  1
  As  As33  1  0.000000  0.823039  0.000000  1
  As  As34  1  0.316443  0.483731  0.500000  1
  As  As35  1  0.176961  0.176961  0.000000  1
