# generated using pymatgen
data_LaCeNi7Pt3
_symmetry_space_group_name_H-M   'P 1'
_cell_length_a   4.08389700
_cell_length_b   5.11107848
_cell_length_c   8.87339414
_cell_angle_alpha   93.44084515
_cell_angle_beta   90.00000000
_cell_angle_gamma   90.00000000
_symmetry_Int_Tables_number   1
_chemical_formula_structural   LaCeNi7Pt3
_chemical_formula_sum   'La1 Ce1 Ni7 Pt3'
_cell_volume   184.88151499
_cell_formula_units_Z   1
loop_
 _symmetry_equiv_pos_site_id
 _symmetry_equiv_pos_as_xyz
  1  'x, y, z'
loop_
 _atom_site_type_symbol
 _atom_site_label
 _atom_site_symmetry_multiplicity
 _atom_site_fract_x
 _atom_site_fract_y
 _atom_site_fract_z
 _atom_site_occupancy
  La  La0  1  0.000000  0.000000  0.500000  1
  Ce  Ce1  1  0.000000  0.500000  0.000000  1
  Ni  Ni2  1  0.000000  0.479450  0.318104  1
  Ni  Ni3  1  0.000000  0.978761  0.848018  1
  Ni  Ni4  1  0.000000  0.021239  0.151982  1
  Ni  Ni5  1  0.000000  0.520550  0.681896  1
  Ni  Ni6  1  0.500000  0.000000  0.000000  1
  Ni  Ni7  1  0.500000  0.249711  0.239243  1
  Ni  Ni8  1  0.500000  0.750289  0.760757  1
  Pt  Pt9  1  0.500000  0.500000  0.500000  1
  Pt  Pt10  1  0.500000  0.751011  0.237811  1
  Pt  Pt11  1  0.500000  0.248989  0.762189  1
