# generated using pymatgen
data_Yb9Er(Sn3H)2
_symmetry_space_group_name_H-M   'P 1'
_cell_length_a   9.34933620
_cell_length_b   9.34588347
_cell_length_c   9.34581002
_cell_angle_alpha   128.54525309
_cell_angle_beta   128.55852421
_cell_angle_gamma   75.71832720
_symmetry_Int_Tables_number   1
_chemical_formula_structural   Yb9Er(Sn3H)2
_chemical_formula_sum   'Yb9 Er1 Sn6 H2'
_cell_volume   485.84343946
_cell_formula_units_Z   1
loop_
 _symmetry_equiv_pos_site_id
 _symmetry_equiv_pos_as_xyz
  1  'x, y, z'
loop_
 _atom_site_type_symbol
 _atom_site_label
 _atom_site_symmetry_multiplicity
 _atom_site_fract_x
 _atom_site_fract_y
 _atom_site_fract_z
 _atom_site_occupancy
  Yb  Yb0  1  0.000000  0.000000  0.000000  1
  Yb  Yb1  1  0.509669  0.009081  0.823124  1
  Yb  Yb2  1  0.186040  0.686624  0.176953  1
  Yb  Yb3  1  0.009147  0.185850  0.499395  1
  Yb  Yb4  1  0.686506  0.509719  0.500578  1
  Yb  Yb5  1  0.490331  0.990919  0.176876  1
  Yb  Yb6  1  0.813960  0.313376  0.823047  1
  Yb  Yb7  1  0.990853  0.814150  0.500605  1
  Yb  Yb8  1  0.313494  0.490281  0.499422  1
  Er  Er9  1  0.500000  0.500000  0.000000  1
  Sn  Sn10  1  0.252400  0.252243  0.999989  1
  Sn  Sn11  1  0.747600  0.747757  0.000011  1
  Sn  Sn12  1  0.866169  0.374789  0.240918  1
  Sn  Sn13  1  0.133831  0.625211  0.759082  1
  Sn  Sn14  1  0.374683  0.133903  0.508635  1
  Sn  Sn15  1  0.625317  0.866097  0.491365  1
  H  H16  1  0.249993  0.750009  0.500014  1
  H  H17  1  0.750007  0.249991  0.499986  1
