# generated using pymatgen
data_Tb5Ho5Si5Ge
_symmetry_space_group_name_H-M   'P 1'
_cell_length_a   8.46907391
_cell_length_b   8.47172187
_cell_length_c   6.36075900
_cell_angle_alpha   90.00000000
_cell_angle_beta   90.00000000
_cell_angle_gamma   119.93650345
_symmetry_Int_Tables_number   1
_chemical_formula_structural   Tb5Ho5Si5Ge
_chemical_formula_sum   'Tb5 Ho5 Si5 Ge1'
_cell_volume   395.48016429
_cell_formula_units_Z   1
loop_
 _symmetry_equiv_pos_site_id
 _symmetry_equiv_pos_as_xyz
  1  'x, y, z'
loop_
 _atom_site_type_symbol
 _atom_site_label
 _atom_site_symmetry_multiplicity
 _atom_site_fract_x
 _atom_site_fract_y
 _atom_site_fract_z
 _atom_site_occupancy
  Tb  Tb0  1  0.243343  0.000312  0.250000  1
  Tb  Tb1  1  0.998603  0.755059  0.750000  1
  Tb  Tb2  1  0.000137  0.243708  0.250000  1
  Tb  Tb3  1  0.755675  0.755846  0.250000  1
  Tb  Tb4  1  0.757572  0.000105  0.750000  1
  Ho  Ho5  1  0.333065  0.664942  0.000656  1
  Ho  Ho6  1  0.667627  0.334770  0.499336  1
  Ho  Ho7  1  0.667627  0.334770  0.000664  1
  Ho  Ho8  1  0.333065  0.664942  0.499344  1
  Ho  Ho9  1  0.243844  0.245378  0.750000  1
  Si  Si10  1  0.605569  0.000123  0.250000  1
  Si  Si11  1  0.604542  0.604711  0.750000  1
  Si  Si12  1  0.000555  0.394275  0.750000  1
  Si  Si13  1  0.000324  0.605664  0.250000  1
  Si  Si14  1  0.394773  0.394582  0.250000  1
  Ge  Ge15  1  0.393678  0.000811  0.750000  1
