# generated using pymatgen
data_YbSnPt2O7
_symmetry_space_group_name_H-M   'P 1'
_cell_length_a   7.18163714
_cell_length_b   7.18163684
_cell_length_c   7.18265000
_cell_angle_alpha   59.99532390
_cell_angle_beta   59.99532528
_cell_angle_gamma   59.10776093
_symmetry_Int_Tables_number   1
_chemical_formula_structural   YbSnPt2O7
_chemical_formula_sum   'Yb2 Sn2 Pt4 O14'
_cell_volume   260.11896212
_cell_formula_units_Z   2
loop_
 _symmetry_equiv_pos_site_id
 _symmetry_equiv_pos_as_xyz
  1  'x, y, z'
loop_
 _atom_site_type_symbol
 _atom_site_label
 _atom_site_symmetry_multiplicity
 _atom_site_fract_x
 _atom_site_fract_y
 _atom_site_fract_z
 _atom_site_occupancy
  Yb  Yb0  1  0.625000  0.125000  0.625000  1
  Yb  Yb1  1  0.125000  0.625000  0.625000  1
  Sn  Sn2  1  0.625000  0.625000  0.125000  1
  Sn  Sn3  1  0.625000  0.625000  0.625000  1
  Pt  Pt4  1  0.625000  0.125000  0.125000  1
  Pt  Pt5  1  0.125000  0.125000  0.125000  1
  Pt  Pt6  1  0.125000  0.625000  0.125000  1
  Pt  Pt7  1  0.125000  0.125000  0.625000  1
  O  O8  1  0.020024  0.470785  0.466505  1
  O  O9  1  0.786181  0.786181  0.213819  1
  O  O10  1  0.779215  0.229976  0.207315  1
  O  O11  1  0.020024  0.470785  0.042685  1
  O  O12  1  0.470785  0.020024  0.466505  1
  O  O13  1  0.729144  0.729144  0.770856  1
  O  O14  1  0.031147  0.031147  0.468853  1
  O  O15  1  0.779215  0.229976  0.783495  1
  O  O16  1  0.520856  0.520856  0.479144  1
  O  O17  1  0.218853  0.218853  0.781147  1
  O  O18  1  0.229976  0.779215  0.207315  1
  O  O19  1  0.470785  0.020024  0.042685  1
  O  O20  1  0.463819  0.463819  0.036181  1
  O  O21  1  0.229976  0.779215  0.783495  1
