# generated using pymatgen
data_Nd4Ho(InSb)2
_symmetry_space_group_name_H-M   'P 1'
_cell_length_a   9.03824169
_cell_length_b   9.03824233
_cell_length_c   8.35009100
_cell_angle_alpha   90.00000000
_cell_angle_beta   90.00000000
_cell_angle_gamma   125.03738441
_symmetry_Int_Tables_number   1
_chemical_formula_structural   Nd4Ho(InSb)2
_chemical_formula_sum   'Nd8 Ho2 In4 Sb4'
_cell_volume   558.50247851
_cell_formula_units_Z   2
loop_
 _symmetry_equiv_pos_site_id
 _symmetry_equiv_pos_as_xyz
  1  'x, y, z'
loop_
 _atom_site_type_symbol
 _atom_site_label
 _atom_site_symmetry_multiplicity
 _atom_site_fract_x
 _atom_site_fract_y
 _atom_site_fract_z
 _atom_site_occupancy
  Nd  Nd0  1  0.032898  0.310521  0.332329  1
  Nd  Nd1  1  0.967102  0.689479  0.667671  1
  Nd  Nd2  1  0.467102  0.189479  0.832329  1
  Nd  Nd3  1  0.810521  0.532898  0.167671  1
  Nd  Nd4  1  0.532898  0.810521  0.167671  1
  Nd  Nd5  1  0.189479  0.467102  0.832329  1
  Nd  Nd6  1  0.689479  0.967102  0.667671  1
  Nd  Nd7  1  0.310521  0.032898  0.332329  1
  Ho  Ho8  1  0.000000  0.000000  0.000000  1
  Ho  Ho9  1  0.500000  0.500000  0.500000  1
  In  In10  1  0.372306  0.372306  0.127900  1
  In  In11  1  0.627694  0.627694  0.872100  1
  In  In12  1  0.127694  0.127694  0.627900  1
  In  In13  1  0.872306  0.872306  0.372100  1
  Sb  Sb14  1  0.800182  0.199818  0.000000  1
  Sb  Sb15  1  0.199818  0.800182  0.000000  1
  Sb  Sb16  1  0.699818  0.300182  0.500000  1
  Sb  Sb17  1  0.300182  0.699818  0.500000  1
