# generated using pymatgen
data_Y8LuThIr4
_symmetry_space_group_name_H-M   'P 1'
_cell_length_a   8.63977082
_cell_length_b   8.63977073
_cell_length_c   7.22464981
_cell_angle_alpha   83.16466398
_cell_angle_beta   83.16466361
_cell_angle_gamma   44.34185419
_symmetry_Int_Tables_number   1
_chemical_formula_structural   Y8LuThIr4
_chemical_formula_sum   'Y8 Lu1 Th1 Ir4'
_cell_volume   373.80340351
_cell_formula_units_Z   1
loop_
 _symmetry_equiv_pos_site_id
 _symmetry_equiv_pos_as_xyz
  1  'x, y, z'
loop_
 _atom_site_type_symbol
 _atom_site_label
 _atom_site_symmetry_multiplicity
 _atom_site_fract_x
 _atom_site_fract_y
 _atom_site_fract_z
 _atom_site_occupancy
  Y  Y0  1  0.352515  0.209512  0.315594  1
  Y  Y1  1  0.205025  0.978838  0.085272  1
  Y  Y2  1  0.789386  0.025356  0.922920  1
  Y  Y3  1  0.974644  0.210614  0.577080  1
  Y  Y4  1  0.658559  0.787366  0.683652  1
  Y  Y5  1  0.212634  0.341441  0.816348  1
  Y  Y6  1  0.790488  0.647485  0.184406  1
  Y  Y7  1  0.021162  0.794975  0.414728  1
  Lu  Lu8  1  0.567984  0.432016  0.250000  1
  Th  Th9  1  0.425382  0.574618  0.750000  1
  Ir  Ir10  1  0.400418  0.815601  0.429942  1
  Ir  Ir11  1  0.184399  0.599582  0.070058  1
  Ir  Ir12  1  0.815894  0.398492  0.927205  1
  Ir  Ir13  1  0.601508  0.184106  0.572795  1
