# generated using pymatgen
data_Yb2PrHoCu2Sn5
_symmetry_space_group_name_H-M   'P 1'
_cell_length_a   4.44747600
_cell_length_b   8.78007300
_cell_length_c   14.25390300
_cell_angle_alpha   90.00000000
_cell_angle_beta   90.00000000
_cell_angle_gamma   90.00000000
_symmetry_Int_Tables_number   1
_chemical_formula_structural   Yb2PrHoCu2Sn5
_chemical_formula_sum   'Yb4 Pr2 Ho2 Cu4 Sn10'
_cell_volume   556.60299511
_cell_formula_units_Z   2
loop_
 _symmetry_equiv_pos_site_id
 _symmetry_equiv_pos_as_xyz
  1  'x, y, z'
loop_
 _atom_site_type_symbol
 _atom_site_label
 _atom_site_symmetry_multiplicity
 _atom_site_fract_x
 _atom_site_fract_y
 _atom_site_fract_z
 _atom_site_occupancy
  Yb  Yb0  1  0.500000  0.790674  0.744109  1
  Yb  Yb1  1  0.000000  0.209326  0.755891  1
  Yb  Yb2  1  0.000000  0.209326  0.244109  1
  Yb  Yb3  1  0.500000  0.790674  0.255891  1
  Pr  Pr4  1  0.500000  0.140637  0.000000  1
  Pr  Pr5  1  0.000000  0.859363  0.500000  1
  Ho  Ho6  1  0.500000  0.693404  0.000000  1
  Ho  Ho7  1  0.000000  0.306596  0.500000  1
  Cu  Cu8  1  0.500000  0.378885  0.644792  1
  Cu  Cu9  1  0.000000  0.621115  0.855208  1
  Cu  Cu10  1  0.000000  0.621115  0.144792  1
  Cu  Cu11  1  0.500000  0.378885  0.355208  1
  Sn  Sn12  1  0.500000  0.085754  0.396536  1
  Sn  Sn13  1  0.000000  0.556031  0.664358  1
  Sn  Sn14  1  0.000000  0.414952  0.000000  1
  Sn  Sn15  1  0.500000  0.443969  0.164358  1
  Sn  Sn16  1  0.500000  0.585048  0.500000  1
  Sn  Sn17  1  0.500000  0.443969  0.835642  1
  Sn  Sn18  1  0.000000  0.914246  0.896536  1
  Sn  Sn19  1  0.000000  0.556031  0.335642  1
  Sn  Sn20  1  0.500000  0.085754  0.603464  1
  Sn  Sn21  1  0.000000  0.914246  0.103464  1
