# generated using pymatgen
data_Cr2ReTc3As14
_symmetry_space_group_name_H-M   'P 1'
_cell_length_a   7.56905469
_cell_length_b   7.56905482
_cell_length_c   7.56807458
_cell_angle_alpha   109.63569521
_cell_angle_beta   109.71933628
_cell_angle_gamma   109.06469348
_symmetry_Int_Tables_number   1
_chemical_formula_structural   Cr2ReTc3As14
_chemical_formula_sum   'Cr2 Re1 Tc3 As14'
_cell_volume   333.73498196
_cell_formula_units_Z   1
loop_
 _symmetry_equiv_pos_site_id
 _symmetry_equiv_pos_as_xyz
  1  'x, y, z'
loop_
 _atom_site_type_symbol
 _atom_site_label
 _atom_site_symmetry_multiplicity
 _atom_site_fract_x
 _atom_site_fract_y
 _atom_site_fract_z
 _atom_site_occupancy
  Cr  Cr0  1  0.339846  0.001124  0.340970  1
  Cr  Cr1  1  0.000992  0.340028  0.341020  1
  Re  Re2  1  0.658917  0.001063  0.659980  1
  Tc  Tc3  1  0.000869  0.658646  0.659515  1
  Tc  Tc4  1  0.340794  0.340898  0.001627  1
  Tc  Tc5  1  0.660729  0.660833  0.001627  1
  As  As6  1  0.752235  0.495136  0.247370  1
  As  As7  1  0.494949  0.752293  0.247241  1
  As  As8  1  0.494946  0.248168  0.743115  1
  As  As9  1  0.745876  0.245919  0.491592  1
  As  As10  1  0.245674  0.745717  0.491592  1
  As  As11  1  0.247682  0.495141  0.742823  1
  As  As12  1  0.006707  0.006686  0.332405  1
  As  As13  1  0.675191  0.007176  0.007813  1
  As  As14  1  0.007298  0.675288  0.007322  1
  As  As15  1  0.325718  0.325697  0.332405  1
  As  As16  1  0.000637  0.332622  0.007813  1
  As  As17  1  0.668468  0.667786  0.668224  1
  As  As18  1  0.332034  0.000023  0.007322  1
  As  As19  1  0.000438  0.999756  0.668224  1
