# generated using pymatgen
data_Pa4CoGe4Pt3
_symmetry_space_group_name_H-M   'P 1'
_cell_length_a   4.37289500
_cell_length_b   7.01214615
_cell_length_c   7.58019855
_cell_angle_alpha   89.64396157
_cell_angle_beta   90.00000000
_cell_angle_gamma   90.00000000
_symmetry_Int_Tables_number   1
_chemical_formula_structural   Pa4CoGe4Pt3
_chemical_formula_sum   'Pa4 Co1 Ge4 Pt3'
_cell_volume   232.43001209
_cell_formula_units_Z   1
loop_
 _symmetry_equiv_pos_site_id
 _symmetry_equiv_pos_as_xyz
  1  'x, y, z'
loop_
 _atom_site_type_symbol
 _atom_site_label
 _atom_site_symmetry_multiplicity
 _atom_site_fract_x
 _atom_site_fract_y
 _atom_site_fract_z
 _atom_site_occupancy
  Pa  Pa0  1  0.000000  0.497844  0.707163  1
  Pa  Pa1  1  0.000000  0.984047  0.804820  1
  Pa  Pa2  1  0.500000  0.510279  0.288684  1
  Pa  Pa3  1  0.500000  0.002046  0.204015  1
  Co  Co4  1  0.000000  0.722390  0.071408  1
  Ge  Ge5  1  0.000000  0.313205  0.091085  1
  Ge  Ge6  1  0.000000  0.790792  0.396429  1
  Ge  Ge7  1  0.500000  0.697157  0.923475  1
  Ge  Ge8  1  0.500000  0.193579  0.590565  1
  Pt  Pt9  1  0.000000  0.205723  0.417723  1
  Pt  Pt10  1  0.500000  0.292580  0.917407  1
  Pt  Pt11  1  0.500000  0.790357  0.587227  1
