# generated using pymatgen
data_Sm4Pd3RuO14
_symmetry_space_group_name_H-M   'P 1'
_cell_length_a   7.32910018
_cell_length_b   7.37987509
_cell_length_c   7.32910000
_cell_angle_alpha   60.22733572
_cell_angle_beta   60.00000083
_cell_angle_gamma   60.22733545
_symmetry_Int_Tables_number   1
_chemical_formula_structural   Sm4Pd3RuO14
_chemical_formula_sum   'Sm4 Pd3 Ru1 O14'
_cell_volume   281.26721877
_cell_formula_units_Z   1
loop_
 _symmetry_equiv_pos_site_id
 _symmetry_equiv_pos_as_xyz
  1  'x, y, z'
loop_
 _atom_site_type_symbol
 _atom_site_label
 _atom_site_symmetry_multiplicity
 _atom_site_fract_x
 _atom_site_fract_y
 _atom_site_fract_z
 _atom_site_occupancy
  Sm  Sm0  1  0.625000  0.625000  0.625000  1
  Sm  Sm1  1  0.125000  0.625000  0.625000  1
  Sm  Sm2  1  0.625000  0.625000  0.125000  1
  Sm  Sm3  1  0.625000  0.125000  0.625000  1
  Pd  Pd4  1  0.125000  0.125000  0.125000  1
  Pd  Pd5  1  0.625000  0.125000  0.125000  1
  Pd  Pd6  1  0.125000  0.125000  0.625000  1
  Ru  Ru7  1  0.125000  0.625000  0.125000  1
  O  O8  1  0.499884  0.500348  0.499884  1
  O  O9  1  0.750116  0.749652  0.750116  1
  O  O10  1  0.039417  0.034280  0.463151  1
  O  O11  1  0.795643  0.788638  0.207860  1
  O  O12  1  0.463151  0.034280  0.463151  1
  O  O13  1  0.463151  0.034280  0.039417  1
  O  O14  1  0.042140  0.461362  0.454357  1
  O  O15  1  0.042140  0.461362  0.042140  1
  O  O16  1  0.454357  0.461362  0.042140  1
  O  O17  1  0.207860  0.788638  0.795643  1
  O  O18  1  0.786849  0.215720  0.210583  1
  O  O19  1  0.210583  0.215720  0.786849  1
  O  O20  1  0.207860  0.788638  0.207860  1
  O  O21  1  0.786849  0.215720  0.786849  1
