# generated using pymatgen
data_Al5Ga5PtPb3O20
_symmetry_space_group_name_H-M   'P 1'
_cell_length_a   9.74684819
_cell_length_b   9.73296989
_cell_length_c   5.17800987
_cell_angle_alpha   74.58411491
_cell_angle_beta   74.58237148
_cell_angle_gamma   73.54221358
_symmetry_Int_Tables_number   1
_chemical_formula_structural   Al5Ga5PtPb3O20
_chemical_formula_sum   'Al5 Ga5 Pt1 Pb3 O20'
_cell_volume   444.39140671
_cell_formula_units_Z   1
loop_
 _symmetry_equiv_pos_site_id
 _symmetry_equiv_pos_as_xyz
  1  'x, y, z'
loop_
 _atom_site_type_symbol
 _atom_site_label
 _atom_site_symmetry_multiplicity
 _atom_site_fract_x
 _atom_site_fract_y
 _atom_site_fract_z
 _atom_site_occupancy
  Al  Al0  1  0.633025  0.364634  0.501439  1
  Al  Al1  1  0.364436  0.636309  0.499502  1
  Al  Al2  1  0.280790  0.004853  0.370473  1
  Al  Al3  1  0.993268  0.722234  0.629512  1
  Al  Al4  1  0.721230  0.993435  0.629700  1
  Ga  Ga5  1  0.006374  0.277392  0.374158  1
  Ga  Ga6  1  0.580451  0.146534  0.107260  1
  Ga  Ga7  1  0.851162  0.421704  0.893442  1
  Ga  Ga8  1  0.419938  0.853439  0.892747  1
  Ga  Ga9  1  0.147692  0.583012  0.104648  1
  Pt  Pt10  1  0.499653  0.500298  0.000017  1
  Pb  Pb11  1  0.000250  0.999207  0.001832  1
  Pb  Pb12  1  0.724762  0.725898  0.217479  1
  Pb  Pb13  1  0.276231  0.273814  0.779500  1
  O  O14  1  0.564918  0.566633  0.278592  1
  O  O15  1  0.433997  0.434433  0.721040  1
  O  O16  1  0.103587  0.093135  0.305460  1
  O  O17  1  0.897684  0.898711  0.690457  1
  O  O18  1  0.395912  0.117674  0.144642  1
  O  O19  1  0.881761  0.605330  0.855816  1
  O  O20  1  0.604385  0.882049  0.855882  1
  O  O21  1  0.123790  0.397244  0.132305  1
  O  O22  1  0.339028  0.829209  0.273838  1
  O  O23  1  0.169985  0.664840  0.723797  1
  O  O24  1  0.662278  0.170023  0.725881  1
  O  O25  1  0.823272  0.339273  0.272484  1
  O  O26  1  0.994040  0.277623  0.737220  1
  O  O27  1  0.719717  0.008236  0.281241  1
  O  O28  1  0.008119  0.720044  0.281393  1
  O  O29  1  0.280470  0.991354  0.718817  1
  O  O30  1  0.691952  0.447309  0.735454  1
  O  O31  1  0.551298  0.307715  0.263861  1
  O  O32  1  0.307768  0.553764  0.263203  1
  O  O33  1  0.446777  0.692639  0.736905  1
