# generated using pymatgen
data_Ho5ReOsC7
_symmetry_space_group_name_H-M   'P 1'
_cell_length_a   8.22527180
_cell_length_b   8.22527366
_cell_length_c   3.45721900
_cell_angle_alpha   90.00000000
_cell_angle_beta   90.00000000
_cell_angle_gamma   122.24809384
_symmetry_Int_Tables_number   1
_chemical_formula_structural   Ho5ReOsC7
_chemical_formula_sum   'Ho5 Re1 Os1 C7'
_cell_volume   197.81865239
_cell_formula_units_Z   1
loop_
 _symmetry_equiv_pos_site_id
 _symmetry_equiv_pos_as_xyz
  1  'x, y, z'
loop_
 _atom_site_type_symbol
 _atom_site_label
 _atom_site_symmetry_multiplicity
 _atom_site_fract_x
 _atom_site_fract_y
 _atom_site_fract_z
 _atom_site_occupancy
  Ho  Ho0  1  0.500728  0.499272  0.000000  1
  Ho  Ho1  1  0.075540  0.336143  0.500000  1
  Ho  Ho2  1  0.922636  0.662982  0.500000  1
  Ho  Ho3  1  0.663857  0.924460  0.500000  1
  Ho  Ho4  1  0.337018  0.077364  0.500000  1
  Re  Re5  1  0.285378  0.714622  0.000000  1
  Os  Os6  1  0.712933  0.287067  0.000000  1
  C  C7  1  0.630330  0.369670  0.500000  1
  C  C8  1  0.374680  0.625320  0.500000  1
  C  C9  1  0.999445  0.000555  0.000000  1
  C  C10  1  0.170438  0.171112  0.000000  1
  C  C11  1  0.828888  0.829562  0.000000  1
  C  C12  1  0.999285  0.501155  0.000000  1
  C  C13  1  0.498845  0.000715  0.000000  1
