# generated using pymatgen
data_Na8Hf3MoBr24
_symmetry_space_group_name_H-M   'P 1'
_cell_length_a   7.17417700
_cell_length_b   7.17417715
_cell_length_c   26.66783500
_cell_angle_alpha   90.00000000
_cell_angle_beta   90.00000000
_cell_angle_gamma   119.99999468
_symmetry_Int_Tables_number   1
_chemical_formula_structural   Na8Hf3MoBr24
_chemical_formula_sum   'Na8 Hf3 Mo1 Br24'
_cell_volume   1188.67354807
_cell_formula_units_Z   1
loop_
 _symmetry_equiv_pos_site_id
 _symmetry_equiv_pos_as_xyz
  1  'x, y, z'
loop_
 _atom_site_type_symbol
 _atom_site_label
 _atom_site_symmetry_multiplicity
 _atom_site_fract_x
 _atom_site_fract_y
 _atom_site_fract_z
 _atom_site_occupancy
  Na  Na0  1  0.000000  0.000000  0.250251  1
  Na  Na1  1  0.000000  0.000000  0.749749  1
  Na  Na2  1  0.333333  0.666667  0.000260  1
  Na  Na3  1  0.333333  0.666667  0.499721  1
  Na  Na4  1  0.333333  0.666667  0.250140  1
  Na  Na5  1  0.666667  0.333333  0.749860  1
  Na  Na6  1  0.666667  0.333333  0.999740  1
  Na  Na7  1  0.666667  0.333333  0.500279  1
  Hf  Hf8  1  0.000000  0.000000  0.500000  1
  Hf  Hf9  1  0.333333  0.666667  0.749781  1
  Hf  Hf10  1  0.666667  0.333333  0.250219  1
  Mo  Mo11  1  0.000000  0.000000  0.000000  1
  Br  Br12  1  0.369874  0.036294  0.307995  1
  Br  Br13  1  0.333813  0.963734  0.807714  1
  Br  Br14  1  0.999499  0.290514  0.056345  1
  Br  Br15  1  0.000838  0.297336  0.557840  1
  Br  Br16  1  0.963706  0.333582  0.307995  1
  Br  Br17  1  0.036266  0.370077  0.807714  1
  Br  Br18  1  0.370077  0.333813  0.192286  1
  Br  Br19  1  0.333582  0.369874  0.692005  1
  Br  Br20  1  0.297336  0.296498  0.442160  1
  Br  Br21  1  0.290514  0.291015  0.943655  1
  Br  Br22  1  0.703502  0.000838  0.442160  1
  Br  Br23  1  0.291015  0.000501  0.056345  1
  Br  Br24  1  0.296498  0.999162  0.557840  1
  Br  Br25  1  0.709486  0.708985  0.056345  1
  Br  Br26  1  0.702664  0.703502  0.557840  1
  Br  Br27  1  0.666418  0.630126  0.307995  1
  Br  Br28  1  0.629923  0.666187  0.807714  1
  Br  Br29  1  0.963734  0.629923  0.192286  1
  Br  Br30  1  0.036294  0.666418  0.692005  1
  Br  Br31  1  0.999162  0.702664  0.442160  1
  Br  Br32  1  0.000501  0.709486  0.943655  1
  Br  Br33  1  0.708985  0.999499  0.943655  1
  Br  Br34  1  0.666187  0.036266  0.192286  1
  Br  Br35  1  0.630126  0.963706  0.692005  1
