# generated using pymatgen
data_Zn2Ni20B6Sb
_symmetry_space_group_name_H-M   'P 1'
_cell_length_a   7.46519509
_cell_length_b   7.46527467
_cell_length_c   7.46760039
_cell_angle_alpha   60.02167847
_cell_angle_beta   60.01790780
_cell_angle_gamma   60.01122250
_symmetry_Int_Tables_number   1
_chemical_formula_structural   Zn2Ni20B6Sb
_chemical_formula_sum   'Zn2 Ni20 B6 Sb1'
_cell_volume   294.38774829
_cell_formula_units_Z   1
loop_
 _symmetry_equiv_pos_site_id
 _symmetry_equiv_pos_as_xyz
  1  'x, y, z'
loop_
 _atom_site_type_symbol
 _atom_site_label
 _atom_site_symmetry_multiplicity
 _atom_site_fract_x
 _atom_site_fract_y
 _atom_site_fract_z
 _atom_site_occupancy
  Zn  Zn0  1  0.749953  0.749989  0.750043  1
  Zn  Zn1  1  0.999960  0.000008  0.000004  1
  Ni  Ni2  1  0.998289  0.998267  0.664436  1
  Ni  Ni3  1  0.384628  0.846148  0.384573  1
  Ni  Ni4  1  0.664399  0.339096  0.998341  1
  Ni  Ni5  1  0.998318  0.339047  0.664423  1
  Ni  Ni6  1  0.664434  0.998213  0.998316  1
  Ni  Ni7  1  0.998276  0.998265  0.339022  1
  Ni  Ni8  1  0.664392  0.998319  0.339059  1
  Ni  Ni9  1  0.998198  0.339055  0.998279  1
  Ni  Ni10  1  0.998306  0.664409  0.339064  1
  Ni  Ni11  1  0.339068  0.998188  0.998284  1
  Ni  Ni12  1  0.998211  0.664424  0.998304  1
  Ni  Ni13  1  0.339027  0.998311  0.664434  1
  Ni  Ni14  1  0.384630  0.384630  0.384587  1
  Ni  Ni15  1  0.339042  0.664435  0.998347  1
  Ni  Ni16  1  0.616529  0.150449  0.616464  1
  Ni  Ni17  1  0.384586  0.384588  0.846185  1
  Ni  Ni18  1  0.846136  0.384622  0.384570  1
  Ni  Ni19  1  0.616520  0.616505  0.616476  1
  Ni  Ni20  1  0.150432  0.616514  0.616478  1
  Ni  Ni21  1  0.616558  0.616534  0.150288  1
  B  B22  1  0.725939  0.725935  0.274103  1
  B  B23  1  0.725946  0.274087  0.725937  1
  B  B24  1  0.274073  0.725886  0.274124  1
  B  B25  1  0.725906  0.274054  0.274086  1
  B  B26  1  0.274098  0.725922  0.725909  1
  B  B27  1  0.274085  0.274093  0.725885  1
  Sb  Sb28  1  0.250063  0.250007  0.249981  1
