# generated using pymatgen
data_Ca2Cd14Pd3
_symmetry_space_group_name_H-M   'P 1'
_cell_length_a   7.54194890
_cell_length_b   7.54194854
_cell_length_c   7.54194801
_cell_angle_alpha   82.75724394
_cell_angle_beta   82.75724186
_cell_angle_gamma   82.75724696
_symmetry_Int_Tables_number   1
_chemical_formula_structural   Ca2Cd14Pd3
_chemical_formula_sum   'Ca2 Cd14 Pd3'
_cell_volume   419.52055645
_cell_formula_units_Z   1
loop_
 _symmetry_equiv_pos_site_id
 _symmetry_equiv_pos_as_xyz
  1  'x, y, z'
loop_
 _atom_site_type_symbol
 _atom_site_label
 _atom_site_symmetry_multiplicity
 _atom_site_fract_x
 _atom_site_fract_y
 _atom_site_fract_z
 _atom_site_occupancy
  Ca  Ca0  1  0.335126  0.335126  0.335126  1
  Ca  Ca1  1  0.664874  0.664874  0.664874  1
  Cd  Cd2  1  0.698665  0.301336  0.000000  1
  Cd  Cd3  1  0.301336  0.698665  0.000000  1
  Cd  Cd4  1  0.105204  0.105204  0.105204  1
  Cd  Cd5  1  0.651526  0.651526  0.150367  1
  Cd  Cd6  1  0.698665  0.000000  0.301335  1
  Cd  Cd7  1  0.000000  0.698665  0.301335  1
  Cd  Cd8  1  0.849633  0.348474  0.348474  1
  Cd  Cd9  1  0.348474  0.849633  0.348474  1
  Cd  Cd10  1  0.651526  0.150367  0.651526  1
  Cd  Cd11  1  0.150367  0.651526  0.651526  1
  Cd  Cd12  1  0.301336  0.000000  0.698664  1
  Cd  Cd13  1  0.000000  0.301336  0.698664  1
  Cd  Cd14  1  0.348474  0.348474  0.849633  1
  Cd  Cd15  1  0.894796  0.894796  0.894796  1
  Pd  Pd16  1  0.500000  0.000000  0.000000  1
  Pd  Pd17  1  0.000000  0.500000  0.000000  1
  Pd  Pd18  1  0.000000  0.000000  0.500001  1
