# generated using pymatgen
data_Ba2TiP2O9
_symmetry_space_group_name_H-M   'P 1'
_cell_length_a   5.56084200
_cell_length_b   9.36155226
_cell_length_c   9.70614142
_cell_angle_alpha   108.86354487
_cell_angle_beta   90.00000000
_cell_angle_gamma   107.27776761
_symmetry_Int_Tables_number   1
_chemical_formula_structural   Ba2TiP2O9
_chemical_formula_sum   'Ba4 Ti2 P4 O18'
_cell_volume   453.98401095
_cell_formula_units_Z   2
loop_
 _symmetry_equiv_pos_site_id
 _symmetry_equiv_pos_as_xyz
  1  'x, y, z'
loop_
 _atom_site_type_symbol
 _atom_site_label
 _atom_site_symmetry_multiplicity
 _atom_site_fract_x
 _atom_site_fract_y
 _atom_site_fract_z
 _atom_site_occupancy
  Ba  Ba0  1  0.676198  0.324178  0.078766  1
  Ba  Ba1  1  0.379933  0.675942  0.421341  1
  Ba  Ba2  1  0.703991  0.324060  0.578660  1
  Ba  Ba3  1  0.352021  0.675823  0.921234  1
  Ti  Ti4  1  0.971881  0.000000  0.000000  1
  Ti  Ti5  1  0.084773  0.000000  0.500001  1
  P  P6  1  0.869221  0.734659  0.174923  1
  P  P7  1  0.187033  0.265296  0.325051  1
  P  P8  1  0.921740  0.734703  0.674948  1
  P  P9  1  0.134559  0.265343  0.825076  1
  O  O10  1  0.665407  0.000000  0.000000  1
  O  O11  1  0.921046  0.794964  0.040960  1
  O  O12  1  0.596471  0.618517  0.147624  1
  O  O13  1  0.175878  0.118657  0.186000  1
  O  O14  1  0.066213  0.654144  0.189729  1
  O  O15  1  0.989314  0.345303  0.310267  1
  O  O16  1  0.880943  0.881398  0.313989  1
  O  O17  1  0.459441  0.381835  0.352335  1
  O  O18  1  0.135817  0.205037  0.459088  1
  O  O19  1  0.391287  0.000000  0.500001  1
  O  O20  1  0.930782  0.794964  0.540913  1
  O  O21  1  0.077609  0.618165  0.647666  1
  O  O22  1  0.999545  0.118604  0.686012  1
  O  O23  1  0.644011  0.654697  0.689733  1
  O  O24  1  0.412070  0.345856  0.810272  1
  O  O25  1  0.057220  0.881344  0.814003  1
  O  O26  1  0.977957  0.381484  0.852374  1
  O  O27  1  0.126081  0.205036  0.959039  1
