# generated using pymatgen
data_Dy3CdIn3CuRu
_symmetry_space_group_name_H-M   'P 1'
_cell_length_a   7.70916300
_cell_length_b   7.70916152
_cell_length_c   3.91330700
_cell_angle_alpha   90.00000000
_cell_angle_beta   90.00000000
_cell_angle_gamma   120.00001065
_symmetry_Int_Tables_number   1
_chemical_formula_structural   Dy3CdIn3CuRu
_chemical_formula_sum   'Dy3 Cd1 In3 Cu1 Ru1'
_cell_volume   201.41363993
_cell_formula_units_Z   1
loop_
 _symmetry_equiv_pos_site_id
 _symmetry_equiv_pos_as_xyz
  1  'x, y, z'
loop_
 _atom_site_type_symbol
 _atom_site_label
 _atom_site_symmetry_multiplicity
 _atom_site_fract_x
 _atom_site_fract_y
 _atom_site_fract_z
 _atom_site_occupancy
  Dy  Dy0  1  0.391068  0.967025  0.500000  1
  Dy  Dy1  1  0.032975  0.424043  0.500000  1
  Dy  Dy2  1  0.575957  0.608932  0.500000  1
  Cd  Cd3  1  0.666667  0.333333  0.000000  1
  In  In4  1  0.748296  0.995099  0.000000  1
  In  In5  1  0.004901  0.753197  0.000000  1
  In  In6  1  0.246803  0.251704  0.000000  1
  Cu  Cu7  1  0.000000  0.000000  0.500000  1
  Ru  Ru8  1  0.333333  0.666667  0.000000  1
