# generated using pymatgen
data_EuCu4HgO8
_symmetry_space_group_name_H-M   'P 1'
_cell_length_a   6.37484491
_cell_length_b   6.37484527
_cell_length_c   6.37484500
_cell_angle_alpha   125.07651839
_cell_angle_beta   125.07651189
_cell_angle_gamma   81.41133857
_symmetry_Int_Tables_number   1
_chemical_formula_structural   EuCu4HgO8
_chemical_formula_sum   'Eu1 Cu4 Hg1 O8'
_cell_volume   167.06068681
_cell_formula_units_Z   1
loop_
 _symmetry_equiv_pos_site_id
 _symmetry_equiv_pos_as_xyz
  1  'x, y, z'
loop_
 _atom_site_type_symbol
 _atom_site_label
 _atom_site_symmetry_multiplicity
 _atom_site_fract_x
 _atom_site_fract_y
 _atom_site_fract_z
 _atom_site_occupancy
  Eu  Eu0  1  0.750000  0.250000  0.500000  1
  Cu  Cu1  1  0.875632  0.626693  0.253321  1
  Cu  Cu2  1  0.377689  0.124368  0.751061  1
  Cu  Cu3  1  0.373307  0.626628  0.248939  1
  Cu  Cu4  1  0.373372  0.622311  0.746679  1
  Hg  Hg5  1  0.000000  0.000000  0.000000  1
  O  O6  1  0.349017  0.973463  0.918478  1
  O  O7  1  0.689646  0.823853  0.414824  1
  O  O8  1  0.725178  0.310354  0.134207  1
  O  O9  1  0.569461  0.650983  0.624446  1
  O  O10  1  0.176147  0.590971  0.865793  1
  O  O11  1  0.026537  0.945015  0.375554  1
  O  O12  1  0.054985  0.430539  0.081522  1
  O  O13  1  0.409029  0.274822  0.585176  1
