# generated using pymatgen
data_SmDy17(HoSn8)2
_symmetry_space_group_name_H-M   'P 1'
_cell_length_a   8.04974337
_cell_length_b   8.19619578
_cell_length_c   15.47005035
_cell_angle_alpha   90.04003420
_cell_angle_beta   89.81040323
_cell_angle_gamma   90.00893399
_symmetry_Int_Tables_number   1
_chemical_formula_structural   SmDy17(HoSn8)2
_chemical_formula_sum   'Sm1 Dy17 Ho2 Sn16'
_cell_volume   1020.66588019
_cell_formula_units_Z   1
loop_
 _symmetry_equiv_pos_site_id
 _symmetry_equiv_pos_as_xyz
  1  'x, y, z'
loop_
 _atom_site_type_symbol
 _atom_site_label
 _atom_site_symmetry_multiplicity
 _atom_site_fract_x
 _atom_site_fract_y
 _atom_site_fract_z
 _atom_site_occupancy
  Sm  Sm0  1  0.018278  0.179716  0.902988  1
  Dy  Dy1  1  0.366955  0.835759  0.877722  1
  Dy  Dy2  1  0.867508  0.664226  0.621607  1
  Dy  Dy3  1  0.632460  0.163880  0.378006  1
  Dy  Dy4  1  0.133501  0.336309  0.122307  1
  Dy  Dy5  1  0.633422  0.163976  0.122277  1
  Dy  Dy6  1  0.132535  0.336078  0.378043  1
  Dy  Dy7  1  0.367674  0.835812  0.621804  1
  Dy  Dy8  1  0.867099  0.663939  0.877896  1
  Dy  Dy9  1  0.520093  0.321319  0.902075  1
  Dy  Dy10  1  0.020670  0.179249  0.598213  1
  Dy  Dy11  1  0.479668  0.679167  0.401990  1
  Dy  Dy12  1  0.980335  0.820216  0.098042  1
  Dy  Dy13  1  0.480141  0.679396  0.097979  1
  Dy  Dy14  1  0.979684  0.820821  0.402024  1
  Dy  Dy15  1  0.520348  0.321053  0.597503  1
  Dy  Dy16  1  0.198380  0.502524  0.749641  1
  Dy  Dy17  1  0.698045  0.997307  0.749493  1
  Ho  Ho18  1  0.801545  0.497606  0.250165  1
  Ho  Ho19  1  0.301645  0.002328  0.250163  1
  Sn  Sn20  1  0.294862  0.034517  0.042629  1
  Sn  Sn21  1  0.792678  0.464655  0.458149  1
  Sn  Sn22  1  0.707382  0.964917  0.541431  1
  Sn  Sn23  1  0.207600  0.536975  0.958817  1
  Sn  Sn24  1  0.704317  0.962286  0.958999  1
  Sn  Sn25  1  0.207238  0.535389  0.541434  1
  Sn  Sn26  1  0.292771  0.035231  0.458164  1
  Sn  Sn27  1  0.793121  0.464633  0.041898  1
  Sn  Sn28  1  0.564955  0.619317  0.749861  1
  Sn  Sn29  1  0.065042  0.880001  0.749762  1
  Sn  Sn30  1  0.435308  0.381170  0.250130  1
  Sn  Sn31  1  0.935390  0.119093  0.250148  1
  Sn  Sn32  1  0.329354  0.146672  0.749585  1
  Sn  Sn33  1  0.827094  0.354381  0.748994  1
  Sn  Sn34  1  0.671495  0.853099  0.249997  1
  Sn  Sn35  1  0.171408  0.646980  0.250061  1
