# generated using pymatgen
data_La2GdBiO7
_symmetry_space_group_name_H-M   'P 1'
_cell_length_a   6.73040657
_cell_length_b   6.74520417
_cell_length_c   7.91196800
_cell_angle_alpha   106.92109771
_cell_angle_beta   89.87285862
_cell_angle_gamma   98.89368717
_symmetry_Int_Tables_number   1
_chemical_formula_structural   La2GdBiO7
_chemical_formula_sum   'La4 Gd2 Bi2 O14'
_cell_volume   339.15731148
_cell_formula_units_Z   2
loop_
 _symmetry_equiv_pos_site_id
 _symmetry_equiv_pos_as_xyz
  1  'x, y, z'
loop_
 _atom_site_type_symbol
 _atom_site_label
 _atom_site_symmetry_multiplicity
 _atom_site_fract_x
 _atom_site_fract_y
 _atom_site_fract_z
 _atom_site_occupancy
  La  La0  1  0.267357  0.536428  0.882840  1
  La  La1  1  0.732643  0.463572  0.117160  1
  La  La2  1  0.741449  0.481317  0.617781  1
  La  La3  1  0.258551  0.518683  0.382219  1
  Gd  Gd4  1  0.463023  0.005016  0.253799  1
  Gd  Gd5  1  0.536977  0.994984  0.746201  1
  Bi  Bi6  1  0.000000  0.000000  0.500000  1
  Bi  Bi7  1  0.000000  0.000000  0.000000  1
  O  O8  1  0.445228  0.654004  0.169063  1
  O  O9  1  0.554772  0.345996  0.830937  1
  O  O10  1  0.300199  0.938750  0.953714  1
  O  O11  1  0.699801  0.061250  0.046286  1
  O  O12  1  0.297029  0.936901  0.516375  1
  O  O13  1  0.702971  0.063099  0.483625  1
  O  O14  1  0.543509  0.356077  0.343544  1
  O  O15  1  0.456491  0.643923  0.656456  1
  O  O16  1  0.926291  0.670774  0.949793  1
  O  O17  1  0.073709  0.329226  0.050207  1
  O  O18  1  0.070570  0.337616  0.612550  1
  O  O19  1  0.929430  0.662384  0.387450  1
  O  O20  1  0.882035  0.922078  0.729855  1
  O  O21  1  0.117965  0.077922  0.270145  1
