# generated using pymatgen
data_Y9Mg(Sn3Se)2
_symmetry_space_group_name_H-M   'P 1'
_cell_length_a   9.10661500
_cell_length_b   9.10661481
_cell_length_c   6.69329900
_cell_angle_alpha   90.00000000
_cell_angle_beta   90.00000000
_cell_angle_gamma   119.99999706
_symmetry_Int_Tables_number   1
_chemical_formula_structural   Y9Mg(Sn3Se)2
_chemical_formula_sum   'Y9 Mg1 Sn6 Se2'
_cell_volume   480.71183456
_cell_formula_units_Z   1
loop_
 _symmetry_equiv_pos_site_id
 _symmetry_equiv_pos_as_xyz
  1  'x, y, z'
loop_
 _atom_site_type_symbol
 _atom_site_label
 _atom_site_symmetry_multiplicity
 _atom_site_fract_x
 _atom_site_fract_y
 _atom_site_fract_z
 _atom_site_occupancy
  Y  Y0  1  0.333333  0.666667  0.000000  1
  Y  Y1  1  0.333333  0.666667  0.500000  1
  Y  Y2  1  0.666667  0.333333  0.500000  1
  Y  Y3  1  0.747065  0.745315  0.752382  1
  Y  Y4  1  0.254685  0.001750  0.752382  1
  Y  Y5  1  0.998250  0.252935  0.752382  1
  Y  Y6  1  0.254685  0.252935  0.247618  1
  Y  Y7  1  0.747065  0.001750  0.247618  1
  Y  Y8  1  0.998250  0.745315  0.247618  1
  Mg  Mg9  1  0.666667  0.333333  0.000000  1
  Sn  Sn10  1  0.398374  0.397871  0.751981  1
  Sn  Sn11  1  0.602129  0.000503  0.751981  1
  Sn  Sn12  1  0.999497  0.601626  0.751981  1
  Sn  Sn13  1  0.602129  0.601626  0.248019  1
  Sn  Sn14  1  0.398374  0.000503  0.248019  1
  Sn  Sn15  1  0.999497  0.397871  0.248019  1
  Se  Se16  1  0.000000  0.000000  0.000000  1
  Se  Se17  1  0.000000  0.000000  0.500000  1
