# generated using pymatgen
data_Pr2TiVO6
_symmetry_space_group_name_H-M   'P 1'
_cell_length_a   5.53414562
_cell_length_b   5.76405000
_cell_length_c   7.92389583
_cell_angle_alpha   90.00000723
_cell_angle_beta   90.20413849
_cell_angle_gamma   90.00000000
_symmetry_Int_Tables_number   1
_chemical_formula_structural   Pr2TiVO6
_chemical_formula_sum   'Pr4 Ti2 V2 O12'
_cell_volume   252.76347805
_cell_formula_units_Z   2
loop_
 _symmetry_equiv_pos_site_id
 _symmetry_equiv_pos_as_xyz
  1  'x, y, z'
loop_
 _atom_site_type_symbol
 _atom_site_label
 _atom_site_symmetry_multiplicity
 _atom_site_fract_x
 _atom_site_fract_y
 _atom_site_fract_z
 _atom_site_occupancy
  Pr  Pr0  1  0.513754  0.557582  0.248926  1
  Pr  Pr1  1  0.986248  0.057582  0.251074  1
  Pr  Pr2  1  0.486247  0.442419  0.751075  1
  Pr  Pr3  1  0.013754  0.942419  0.748926  1
  Ti  Ti4  1  0.000000  0.500000  0.000000  1
  Ti  Ti5  1  0.500000  0.000000  0.500000  1
  V  V6  1  0.000000  0.500000  0.500001  1
  V  V7  1  0.500000  0.000000  0.000001  1
  O  O8  1  0.405719  0.969382  0.259589  1
  O  O9  1  0.094281  0.469382  0.240413  1
  O  O10  1  0.594282  0.030619  0.740412  1
  O  O11  1  0.905718  0.530617  0.759588  1
  O  O12  1  0.289599  0.692492  0.953363  1
  O  O13  1  0.210402  0.192493  0.546637  1
  O  O14  1  0.710402  0.307508  0.046637  1
  O  O15  1  0.789599  0.807507  0.453363  1
  O  O16  1  0.190357  0.213883  0.948062  1
  O  O17  1  0.309642  0.713883  0.551938  1
  O  O18  1  0.809642  0.786117  0.051939  1
  O  O19  1  0.690358  0.286117  0.448062  1
