# generated using pymatgen
data_Nd3SmCu2(SeO3)8
_symmetry_space_group_name_H-M   'P 1'
_cell_length_a   7.09184498
_cell_length_b   8.31041655
_cell_length_c   10.86343778
_cell_angle_alpha   110.02424220
_cell_angle_beta   90.13444930
_cell_angle_gamma   89.93516562
_symmetry_Int_Tables_number   1
_chemical_formula_structural   Nd3SmCu2(SeO3)8
_chemical_formula_sum   'Nd3 Sm1 Cu2 Se8 O24'
_cell_volume   601.54341554
_cell_formula_units_Z   1
loop_
 _symmetry_equiv_pos_site_id
 _symmetry_equiv_pos_as_xyz
  1  'x, y, z'
loop_
 _atom_site_type_symbol
 _atom_site_label
 _atom_site_symmetry_multiplicity
 _atom_site_fract_x
 _atom_site_fract_y
 _atom_site_fract_z
 _atom_site_occupancy
  Nd  Nd0  1  0.336648  0.239326  0.584505  1
  Nd  Nd1  1  0.836862  0.261248  0.415652  1
  Nd  Nd2  1  0.663267  0.760681  0.415892  1
  Sm  Sm3  1  0.162323  0.740023  0.585441  1
  Cu  Cu4  1  0.499654  0.499692  0.999809  1
  Cu  Cu5  1  0.999922  0.999723  0.999586  1
  Se  Se6  1  0.177371  0.864953  0.317306  1
  Se  Se7  1  0.676707  0.635389  0.683686  1
  Se  Se8  1  0.326945  0.124090  0.865939  1
  Se  Se9  1  0.827411  0.374750  0.133324  1
  Se  Se10  1  0.672670  0.874755  0.133272  1
  Se  Se11  1  0.172464  0.625411  0.865564  1
  Se  Se12  1  0.321740  0.366242  0.316615  1
  Se  Se13  1  0.823756  0.133669  0.683821  1
  O  O14  1  0.655745  0.089742  0.557256  1
  O  O15  1  0.155489  0.412076  0.444007  1
  O  O16  1  0.344952  0.909630  0.443914  1
  O  O17  1  0.845456  0.591924  0.557770  1
  O  O18  1  0.887776  0.925989  0.655018  1
  O  O19  1  0.385695  0.573117  0.343875  1
  O  O20  1  0.114588  0.072756  0.344817  1
  O  O21  1  0.615273  0.427443  0.655466  1
  O  O22  1  0.491739  0.279935  0.391410  1
  O  O23  1  0.992268  0.220428  0.609064  1
  O  O24  1  0.220665  0.533904  0.700879  1
  O  O25  1  0.721464  0.967952  0.297890  1
  O  O26  1  0.779028  0.468091  0.297814  1
  O  O27  1  0.277769  0.029480  0.701442  1
  O  O28  1  0.118045  0.823839  0.849676  1
  O  O29  1  0.618502  0.676527  0.149531  1
  O  O30  1  0.881733  0.176431  0.149542  1
  O  O31  1  0.381004  0.322281  0.849272  1
  O  O32  1  0.108995  0.175585  0.941460  1
  O  O33  1  0.608818  0.324133  0.058155  1
  O  O34  1  0.891033  0.824196  0.058244  1
  O  O35  1  0.390828  0.675498  0.941286  1
  O  O36  1  0.505725  0.719545  0.608020  1
  O  O37  1  0.009669  0.779547  0.393781  1
