# generated using pymatgen
data_Sr8MgSc(RhO8)2
_symmetry_space_group_name_H-M   'P 1'
_cell_length_a   5.62879153
_cell_length_b   5.62887375
_cell_length_c   13.40246020
_cell_angle_alpha   102.08211171
_cell_angle_beta   102.11005410
_cell_angle_gamma   89.98417311
_symmetry_Int_Tables_number   1
_chemical_formula_structural   Sr8MgSc(RhO8)2
_chemical_formula_sum   'Sr8 Mg1 Sc1 Rh2 O16'
_cell_volume   405.57043430
_cell_formula_units_Z   1
loop_
 _symmetry_equiv_pos_site_id
 _symmetry_equiv_pos_as_xyz
  1  'x, y, z'
loop_
 _atom_site_type_symbol
 _atom_site_label
 _atom_site_symmetry_multiplicity
 _atom_site_fract_x
 _atom_site_fract_y
 _atom_site_fract_z
 _atom_site_occupancy
  Sr  Sr0  1  0.827771  0.826528  0.648645  1
  Sr  Sr1  1  0.072943  0.575151  0.142894  1
  Sr  Sr2  1  0.176563  0.176862  0.351347  1
  Sr  Sr3  1  0.430754  0.930159  0.857067  1
  Sr  Sr4  1  0.322572  0.322186  0.647257  1
  Sr  Sr5  1  0.569278  0.069790  0.142092  1
  Sr  Sr6  1  0.673064  0.674028  0.352692  1
  Sr  Sr7  1  0.927583  0.425477  0.857877  1
  Mg  Mg8  1  0.000390  0.000266  0.000155  1
  Sc  Sc9  1  0.250099  0.749893  0.500006  1
  Rh  Rh10  1  0.500634  0.500354  0.999991  1
  Rh  Rh11  1  0.750384  0.250566  0.499995  1
  O  O12  1  0.012506  0.474415  0.500010  1
  O  O13  1  0.911113  0.923969  0.835940  1
  O  O14  1  0.084201  0.073449  0.164077  1
  O  O15  1  0.173615  0.660805  0.334713  1
  O  O16  1  0.323962  0.836454  0.665290  1
  O  O17  1  0.247685  0.734371  0.997131  1
  O  O18  1  0.264931  0.249164  0.000545  1
  O  O19  1  0.488127  0.025723  0.500543  1
  O  O20  1  0.527449  0.514043  0.503274  1
  O  O21  1  0.424507  0.416642  0.839752  1
  O  O22  1  0.577293  0.584773  0.160216  1
  O  O23  1  0.666126  0.176248  0.340714  1
  O  O24  1  0.834931  0.325645  0.659305  1
  O  O25  1  0.735788  0.751260  0.999745  1
  O  O26  1  0.752937  0.265851  0.002528  1
  O  O27  1  0.972795  0.985928  0.496204  1
