# generated using pymatgen
data_Gd8Co3Si12Hg
_symmetry_space_group_name_H-M   'P 1'
_cell_length_a   8.05713400
_cell_length_b   8.05713387
_cell_length_c   8.23415200
_cell_angle_alpha   90.00000000
_cell_angle_beta   90.00000000
_cell_angle_gamma   120.00000874
_symmetry_Int_Tables_number   1
_chemical_formula_structural   Gd8Co3Si12Hg
_chemical_formula_sum   'Gd8 Co3 Si12 Hg1'
_cell_volume   462.92500434
_cell_formula_units_Z   1
loop_
 _symmetry_equiv_pos_site_id
 _symmetry_equiv_pos_as_xyz
  1  'x, y, z'
loop_
 _atom_site_type_symbol
 _atom_site_label
 _atom_site_symmetry_multiplicity
 _atom_site_fract_x
 _atom_site_fract_y
 _atom_site_fract_z
 _atom_site_occupancy
  Gd  Gd0  1  0.504690  0.009380  0.242343  1
  Gd  Gd1  1  0.505184  0.010368  0.757885  1
  Gd  Gd2  1  0.990620  0.495310  0.242343  1
  Gd  Gd3  1  0.989632  0.494816  0.757885  1
  Gd  Gd4  1  0.504690  0.495310  0.242343  1
  Gd  Gd5  1  0.505184  0.494816  0.757885  1
  Gd  Gd6  1  0.000000  0.000000  0.244734  1
  Gd  Gd7  1  0.000000  0.000000  0.755084  1
  Co  Co8  1  0.333333  0.666667  0.000382  1
  Co  Co9  1  0.666667  0.333333  0.000312  1
  Co  Co10  1  0.666667  0.333333  0.499235  1
  Si  Si11  1  0.172554  0.345110  0.999548  1
  Si  Si12  1  0.829433  0.658867  0.999941  1
  Si  Si13  1  0.654890  0.827446  0.999548  1
  Si  Si14  1  0.825091  0.650182  0.500286  1
  Si  Si15  1  0.341133  0.170567  0.999941  1
  Si  Si16  1  0.155698  0.311397  0.499802  1
  Si  Si17  1  0.172554  0.827446  0.999548  1
  Si  Si18  1  0.349818  0.174909  0.500286  1
  Si  Si19  1  0.829433  0.170567  0.999941  1
  Si  Si20  1  0.688603  0.844302  0.499802  1
  Si  Si21  1  0.825091  0.174909  0.500286  1
  Si  Si22  1  0.155698  0.844302  0.499802  1
  Hg  Hg23  1  0.333333  0.666667  0.500835  1
