# generated using pymatgen
data_Sc8NbRu9
_symmetry_space_group_name_H-M   'P 1'
_cell_length_a   7.86344830
_cell_length_b   7.86344861
_cell_length_c   5.55703700
_cell_angle_alpha   90.02570906
_cell_angle_beta   90.02570067
_cell_angle_gamma   119.97347559
_symmetry_Int_Tables_number   1
_chemical_formula_structural   Sc8NbRu9
_chemical_formula_sum   'Sc8 Nb1 Ru9'
_cell_volume   297.65682805
_cell_formula_units_Z   1
loop_
 _symmetry_equiv_pos_site_id
 _symmetry_equiv_pos_as_xyz
  1  'x, y, z'
loop_
 _atom_site_type_symbol
 _atom_site_label
 _atom_site_symmetry_multiplicity
 _atom_site_fract_x
 _atom_site_fract_y
 _atom_site_fract_z
 _atom_site_occupancy
  Sc  Sc0  1  0.665742  0.001289  0.227077  1
  Sc  Sc1  1  0.332459  0.332458  0.226024  1
  Sc  Sc2  1  0.001289  0.665743  0.227077  1
  Sc  Sc3  1  0.666945  0.331716  0.557041  1
  Sc  Sc4  1  0.331717  0.666946  0.557041  1
  Sc  Sc5  1  0.001972  0.001972  0.558977  1
  Sc  Sc6  1  0.332854  0.000123  0.892136  1
  Sc  Sc7  1  0.000123  0.332853  0.892136  1
  Nb  Nb8  1  0.667121  0.667121  0.891454  1
  Ru  Ru9  1  0.666659  0.341434  0.054387  1
  Ru  Ru10  1  0.341435  0.666660  0.054387  1
  Ru  Ru11  1  0.991134  0.991134  0.056829  1
  Ru  Ru12  1  0.332307  0.000094  0.391956  1
  Ru  Ru13  1  0.000094  0.332306  0.391956  1
  Ru  Ru14  1  0.667232  0.667232  0.392031  1
  Ru  Ru15  1  0.666509  0.992004  0.729411  1
  Ru  Ru16  1  0.342407  0.342407  0.728512  1
  Ru  Ru17  1  0.992004  0.666509  0.729411  1
