# generated using pymatgen
data_Dy8HfSi16Tc11
_symmetry_space_group_name_H-M   'P 1'
_cell_length_a   6.84641834
_cell_length_b   6.82853319
_cell_length_c   12.76943359
_cell_angle_alpha   90.37873341
_cell_angle_beta   89.95862279
_cell_angle_gamma   89.82660905
_symmetry_Int_Tables_number   1
_chemical_formula_structural   Dy8HfSi16Tc11
_chemical_formula_sum   'Dy8 Hf1 Si16 Tc11'
_cell_volume   596.96778373
_cell_formula_units_Z   1
loop_
 _symmetry_equiv_pos_site_id
 _symmetry_equiv_pos_as_xyz
  1  'x, y, z'
loop_
 _atom_site_type_symbol
 _atom_site_label
 _atom_site_symmetry_multiplicity
 _atom_site_fract_x
 _atom_site_fract_y
 _atom_site_fract_z
 _atom_site_occupancy
  Dy  Dy0  1  0.008156  0.661491  0.034318  1
  Dy  Dy1  1  0.000437  0.334529  0.527985  1
  Dy  Dy2  1  0.666041  0.001342  0.970324  1
  Dy  Dy3  1  0.160438  0.498337  0.779932  1
  Dy  Dy4  1  0.839468  0.503326  0.281587  1
  Dy  Dy5  1  0.496672  0.160760  0.221347  1
  Dy  Dy6  1  0.505730  0.834645  0.715908  1
  Dy  Dy7  1  0.338968  0.993670  0.468601  1
  Hf  Hf8  1  0.669626  0.494314  0.871963  1
  Si  Si9  1  0.021394  0.724935  0.436201  1
  Si  Si10  1  0.983750  0.277798  0.940530  1
  Si  Si11  1  0.721972  0.025788  0.563113  1
  Si  Si12  1  0.234601  0.481429  0.189323  1
  Si  Si13  1  0.780901  0.532743  0.674505  1
  Si  Si14  1  0.453880  0.202135  0.812873  1
  Si  Si15  1  0.517637  0.768115  0.311042  1
  Si  Si16  1  0.281169  0.977470  0.063842  1
  Si  Si17  1  0.808371  0.885550  0.188565  1
  Si  Si18  1  0.304339  0.616316  0.563101  1
  Si  Si19  1  0.699428  0.384019  0.070359  1
  Si  Si20  1  0.614582  0.307819  0.438278  1
  Si  Si21  1  0.374420  0.706724  0.936416  1
  Si  Si22  1  0.114128  0.190393  0.313787  1
  Si  Si23  1  0.189610  0.114745  0.688097  1
  Si  Si24  1  0.885346  0.815211  0.809911  1
  Tc  Tc25  1  0.315215  0.475086  0.381717  1
  Tc  Tc26  1  0.817152  0.018779  0.373203  1
  Tc  Tc27  1  0.992568  0.176980  0.130205  1
  Tc  Tc28  1  0.018017  0.823143  0.623267  1
  Tc  Tc29  1  0.476713  0.324820  0.626181  1
  Tc  Tc30  1  0.177504  0.994810  0.874695  1
  Tc  Tc31  1  0.667097  0.666188  0.497254  1
  Tc  Tc32  1  0.834905  0.170967  0.749661  1
  Tc  Tc33  1  0.165393  0.831319  0.251815  1
  Tc  Tc34  1  0.339232  0.335546  0.000812  1
  Tc  Tc35  1  0.525139  0.688760  0.119280  1
