# generated using pymatgen
data_DyScMnC2
_symmetry_space_group_name_H-M   'P 1'
_cell_length_a   4.89317200
_cell_length_b   6.34130100
_cell_length_c   9.22192000
_cell_angle_alpha   90.00000000
_cell_angle_beta   90.00000000
_cell_angle_gamma   90.00000000
_symmetry_Int_Tables_number   1
_chemical_formula_structural   DyScMnC2
_chemical_formula_sum   'Dy4 Sc4 Mn4 C8'
_cell_volume   286.14766113
_cell_formula_units_Z   4
loop_
 _symmetry_equiv_pos_site_id
 _symmetry_equiv_pos_as_xyz
  1  'x, y, z'
loop_
 _atom_site_type_symbol
 _atom_site_label
 _atom_site_symmetry_multiplicity
 _atom_site_fract_x
 _atom_site_fract_y
 _atom_site_fract_z
 _atom_site_occupancy
  Dy  Dy0  1  0.250000  0.526077  0.205292  1
  Dy  Dy1  1  0.750000  0.473923  0.794708  1
  Dy  Dy2  1  0.750000  0.973923  0.705292  1
  Dy  Dy3  1  0.250000  0.026077  0.294708  1
  Sc  Sc4  1  0.250000  0.663354  0.560558  1
  Sc  Sc5  1  0.750000  0.336646  0.439442  1
  Sc  Sc6  1  0.750000  0.836646  0.060558  1
  Sc  Sc7  1  0.250000  0.163354  0.939442  1
  Mn  Mn8  1  0.250000  0.731532  0.858911  1
  Mn  Mn9  1  0.750000  0.268468  0.141089  1
  Mn  Mn10  1  0.750000  0.768468  0.358911  1
  Mn  Mn11  1  0.250000  0.231532  0.641089  1
  C  C12  1  0.250000  0.458850  0.766412  1
  C  C13  1  0.750000  0.541150  0.233588  1
  C  C14  1  0.750000  0.041150  0.266412  1
  C  C15  1  0.250000  0.958850  0.733588  1
  C  C16  1  0.250000  0.828092  0.040506  1
  C  C17  1  0.750000  0.171908  0.959494  1
  C  C18  1  0.750000  0.671908  0.540506  1
  C  C19  1  0.250000  0.328092  0.459494  1
