# generated using pymatgen
data_Dy6Tm10MgAl(AgIr2)2
_symmetry_space_group_name_H-M   'P 1'
_cell_length_a   9.50838997
_cell_length_b   9.51577592
_cell_length_c   9.51577500
_cell_angle_alpha   59.99999973
_cell_angle_beta   59.97430065
_cell_angle_gamma   59.97430709
_symmetry_Int_Tables_number   1
_chemical_formula_structural   Dy6Tm10MgAl(AgIr2)2
_chemical_formula_sum   'Dy6 Tm10 Mg1 Al1 Ag2 Ir4'
_cell_volume   608.57144421
_cell_formula_units_Z   1
loop_
 _symmetry_equiv_pos_site_id
 _symmetry_equiv_pos_as_xyz
  1  'x, y, z'
loop_
 _atom_site_type_symbol
 _atom_site_label
 _atom_site_symmetry_multiplicity
 _atom_site_fract_x
 _atom_site_fract_y
 _atom_site_fract_z
 _atom_site_occupancy
  Dy  Dy0  1  0.934126  0.563329  0.563329  1
  Dy  Dy1  1  0.562245  0.938346  0.938346  1
  Dy  Dy2  1  0.561887  0.938421  0.563817  1
  Dy  Dy3  1  0.936317  0.562084  0.941117  1
  Dy  Dy4  1  0.561887  0.563817  0.938421  1
  Dy  Dy5  1  0.936317  0.941117  0.562084  1
  Tm  Tm6  1  0.349155  0.348390  0.348390  1
  Tm  Tm7  1  0.352110  0.350546  0.949742  1
  Tm  Tm8  1  0.352110  0.949742  0.350546  1
  Tm  Tm9  1  0.940079  0.354366  0.354366  1
  Tm  Tm10  1  0.811576  0.187593  0.187593  1
  Tm  Tm11  1  0.189741  0.810989  0.810989  1
  Tm  Tm12  1  0.185091  0.814139  0.185862  1
  Tm  Tm13  1  0.808910  0.191439  0.809749  1
  Tm  Tm14  1  0.185091  0.185862  0.814139  1
  Tm  Tm15  1  0.808910  0.809749  0.191439  1
  Mg  Mg16  1  0.284820  0.570761  0.570761  1
  Al  Al17  1  0.583467  0.579091  0.579091  1
  Ag  Ag18  1  0.581672  0.583374  0.255074  1
  Ag  Ag19  1  0.581672  0.255074  0.583374  1
  Ir  Ir20  1  0.139343  0.144543  0.144543  1
  Ir  Ir21  1  0.139982  0.142461  0.572948  1
  Ir  Ir22  1  0.139982  0.572948  0.142461  1
  Ir  Ir23  1  0.573511  0.141820  0.141820  1
