# generated using pymatgen
data_Dy16In3Hg3Pt2
_symmetry_space_group_name_H-M   'P 1'
_cell_length_a   10.37639400
_cell_length_b   10.37638894
_cell_length_c   7.06883800
_cell_angle_alpha   90.00000000
_cell_angle_beta   90.00000000
_cell_angle_gamma   119.99997151
_symmetry_Int_Tables_number   1
_chemical_formula_structural   Dy16In3Hg3Pt2
_chemical_formula_sum   'Dy16 In3 Hg3 Pt2'
_cell_volume   659.13061066
_cell_formula_units_Z   1
loop_
 _symmetry_equiv_pos_site_id
 _symmetry_equiv_pos_as_xyz
  1  'x, y, z'
loop_
 _atom_site_type_symbol
 _atom_site_label
 _atom_site_symmetry_multiplicity
 _atom_site_fract_x
 _atom_site_fract_y
 _atom_site_fract_z
 _atom_site_occupancy
  Dy  Dy0  1  0.532293  0.064587  0.518420  1
  Dy  Dy1  1  0.935413  0.467706  0.518420  1
  Dy  Dy2  1  0.532294  0.467707  0.518420  1
  Dy  Dy3  1  0.466941  0.933882  0.014989  1
  Dy  Dy4  1  0.066118  0.533060  0.014989  1
  Dy  Dy5  1  0.466940  0.533059  0.014989  1
  Dy  Dy6  1  0.170542  0.341085  0.724866  1
  Dy  Dy7  1  0.658915  0.829458  0.724866  1
  Dy  Dy8  1  0.170542  0.829458  0.724866  1
  Dy  Dy9  1  0.824836  0.649672  0.211386  1
  Dy  Dy10  1  0.350328  0.175164  0.211386  1
  Dy  Dy11  1  0.824836  0.175164  0.211386  1
  Dy  Dy12  1  0.666667  0.333333  0.887299  1
  Dy  Dy13  1  0.333333  0.666667  0.391370  1
  Dy  Dy14  1  0.000000  0.000000  0.495522  1
  Dy  Dy15  1  0.000000  0.000000  0.998290  1
  In  In16  1  0.163513  0.327024  0.263117  1
  In  In17  1  0.672977  0.836488  0.263117  1
  In  In18  1  0.163513  0.836488  0.263117  1
  Hg  Hg19  1  0.834330  0.668661  0.767355  1
  Hg  Hg20  1  0.331338  0.165669  0.767355  1
  Hg  Hg21  1  0.834330  0.165669  0.767355  1
  Pt  Pt22  1  0.666667  0.333333  0.286602  1
  Pt  Pt23  1  0.333333  0.666667  0.784719  1
