# generated using pymatgen
data_Pr7Y9(AgRh)4
_symmetry_space_group_name_H-M   'P 1'
_cell_length_a   9.75511168
_cell_length_b   9.75511226
_cell_length_c   9.75173300
_cell_angle_alpha   60.01145507
_cell_angle_beta   60.01145311
_cell_angle_gamma   59.98026598
_symmetry_Int_Tables_number   1
_chemical_formula_structural   Pr7Y9(AgRh)4
_chemical_formula_sum   'Pr7 Y9 Ag4 Rh4'
_cell_volume   656.20820093
_cell_formula_units_Z   1
loop_
 _symmetry_equiv_pos_site_id
 _symmetry_equiv_pos_as_xyz
  1  'x, y, z'
loop_
 _atom_site_type_symbol
 _atom_site_label
 _atom_site_symmetry_multiplicity
 _atom_site_fract_x
 _atom_site_fract_y
 _atom_site_fract_z
 _atom_site_occupancy
  Pr  Pr0  1  0.813111  0.813111  0.186889  1
  Pr  Pr1  1  0.939913  0.560345  0.561968  1
  Pr  Pr2  1  0.560345  0.939913  0.937774  1
  Pr  Pr3  1  0.560345  0.939913  0.561968  1
  Pr  Pr4  1  0.939913  0.560345  0.937774  1
  Pr  Pr5  1  0.561446  0.561446  0.938554  1
  Pr  Pr6  1  0.938549  0.938549  0.561451  1
  Y  Y7  1  0.350996  0.350996  0.350551  1
  Y  Y8  1  0.350996  0.350996  0.947455  1
  Y  Y9  1  0.348546  0.948763  0.351345  1
  Y  Y10  1  0.948763  0.348546  0.351345  1
  Y  Y11  1  0.813199  0.187629  0.186360  1
  Y  Y12  1  0.187629  0.813200  0.812812  1
  Y  Y13  1  0.187629  0.813199  0.186359  1
  Y  Y14  1  0.813199  0.187629  0.812812  1
  Y  Y15  1  0.185738  0.185738  0.814262  1
  Ag  Ag16  1  0.578752  0.578752  0.581305  1
  Ag  Ag17  1  0.578752  0.578752  0.261189  1
  Ag  Ag18  1  0.579427  0.262056  0.579258  1
  Ag  Ag19  1  0.262056  0.579427  0.579258  1
  Rh  Rh20  1  0.142559  0.142559  0.142086  1
  Rh  Rh21  1  0.142559  0.142559  0.572798  1
  Rh  Rh22  1  0.146178  0.569402  0.142211  1
  Rh  Rh23  1  0.569402  0.146178  0.142211  1
