# generated using pymatgen
data_Sm3V4BiF28
_symmetry_space_group_name_H-M   'P 1'
_cell_length_a   5.59259621
_cell_length_b   9.03604858
_cell_length_c   12.02288761
_cell_angle_alpha   62.82380913
_cell_angle_beta   90.03684134
_cell_angle_gamma   89.93243444
_symmetry_Int_Tables_number   1
_chemical_formula_structural   Sm3V4BiF28
_chemical_formula_sum   'Sm3 V4 Bi1 F28'
_cell_volume   540.50279598
_cell_formula_units_Z   1
loop_
 _symmetry_equiv_pos_site_id
 _symmetry_equiv_pos_as_xyz
  1  'x, y, z'
loop_
 _atom_site_type_symbol
 _atom_site_label
 _atom_site_symmetry_multiplicity
 _atom_site_fract_x
 _atom_site_fract_y
 _atom_site_fract_z
 _atom_site_occupancy
  Sm  Sm0  1  0.258293  0.196937  0.730784  1
  Sm  Sm1  1  0.241599  0.192705  0.231315  1
  Sm  Sm2  1  0.742101  0.808323  0.268927  1
  V  V3  1  0.754109  0.271852  0.956943  1
  V  V4  1  0.254129  0.726759  0.542847  1
  V  V5  1  0.246037  0.726468  0.045212  1
  V  V6  1  0.745846  0.275218  0.455065  1
  Bi  Bi7  1  0.761588  0.812349  0.768471  1
  F  F8  1  0.443046  0.706333  0.924915  1
  F  F9  1  0.946277  0.292256  0.576078  1
  F  F10  1  0.553311  0.290546  0.076778  1
  F  F11  1  0.055140  0.707420  0.422223  1
  F  F12  1  0.467119  0.284305  0.544541  1
  F  F13  1  0.961253  0.715736  0.958621  1
  F  F14  1  0.534652  0.714634  0.455594  1
  F  F15  1  0.033995  0.283100  0.044819  1
  F  F16  1  0.766339  0.497750  0.864978  1
  F  F17  1  0.265778  0.496643  0.634553  1
  F  F18  1  0.234479  0.497523  0.136245  1
  F  F19  1  0.734403  0.503291  0.363966  1
  F  F20  1  0.758417  0.044525  0.047185  1
  F  F21  1  0.259096  0.953811  0.452214  1
  F  F22  1  0.240985  0.953137  0.953423  1
  F  F23  1  0.742223  0.047674  0.544590  1
  F  F24  1  0.979382  0.731013  0.633155  1
  F  F25  1  0.481154  0.265796  0.863999  1
  F  F26  1  0.017808  0.268797  0.362908  1
  F  F27  1  0.518118  0.731874  0.137309  1
  F  F28  1  0.047949  0.746044  0.167269  1
  F  F29  1  0.546257  0.255550  0.333411  1
  F  F30  1  0.953350  0.251732  0.834197  1
  F  F31  1  0.447035  0.745457  0.666353  1
  F  F32  1  0.415072  0.971587  0.229874  1
  F  F33  1  0.914814  0.029201  0.270347  1
  F  F34  1  0.591117  0.031013  0.771790  1
  F  F35  1  0.087730  0.972643  0.729104  1
