# generated using pymatgen
data_Li2Hf6Os3Ru
_symmetry_space_group_name_H-M   'P 1'
_cell_length_a   4.63075600
_cell_length_b   6.51930900
_cell_length_c   13.80548200
_cell_angle_alpha   90.00000000
_cell_angle_beta   90.00004965
_cell_angle_gamma   90.00000000
_symmetry_Int_Tables_number   1
_chemical_formula_structural   Li2Hf6Os3Ru
_chemical_formula_sum   'Li4 Hf12 Os6 Ru2'
_cell_volume   416.77824180
_cell_formula_units_Z   2
loop_
 _symmetry_equiv_pos_site_id
 _symmetry_equiv_pos_as_xyz
  1  'x, y, z'
loop_
 _atom_site_type_symbol
 _atom_site_label
 _atom_site_symmetry_multiplicity
 _atom_site_fract_x
 _atom_site_fract_y
 _atom_site_fract_z
 _atom_site_occupancy
  Li  Li0  1  0.000003  0.000000  0.000224  1
  Li  Li1  1  0.499890  0.500000  0.166812  1
  Li  Li2  1  0.999876  0.000000  0.333192  1
  Li  Li3  1  0.500005  0.500000  0.499773  1
  Hf  Hf4  1  0.500010  0.250181  0.998705  1
  Hf  Hf5  1  0.500010  0.749818  0.998705  1
  Hf  Hf6  1  0.999962  0.251236  0.166338  1
  Hf  Hf7  1  0.999962  0.748765  0.166338  1
  Hf  Hf8  1  0.499963  0.248766  0.333660  1
  Hf  Hf9  1  0.499963  0.751235  0.333660  1
  Hf  Hf10  1  0.000007  0.249822  0.501295  1
  Hf  Hf11  1  0.000007  0.750178  0.501295  1
  Hf  Hf12  1  0.500036  0.249417  0.667390  1
  Hf  Hf13  1  0.500036  0.750584  0.667390  1
  Hf  Hf14  1  0.000044  0.250585  0.832611  1
  Hf  Hf15  1  0.000044  0.749416  0.832611  1
  Os  Os16  1  0.000020  0.500000  0.002579  1
  Os  Os17  1  0.499970  0.000000  0.167534  1
  Os  Os18  1  0.999984  0.500000  0.332473  1
  Os  Os19  1  0.500019  0.000000  0.497422  1
  Os  Os20  1  0.000041  0.500000  0.664671  1
  Os  Os21  1  0.500039  0.000000  0.835323  1
  Ru  Ru22  1  0.000060  0.000000  0.667406  1
  Ru  Ru23  1  0.500045  0.500000  0.832591  1
