# generated using pymatgen
data_ErGeRu2C
_symmetry_space_group_name_H-M   'P 1'
_cell_length_a   5.91259251
_cell_length_b   5.91259220
_cell_length_c   7.27523600
_cell_angle_alpha   90.00000000
_cell_angle_beta   90.00000000
_cell_angle_gamma   141.94333625
_symmetry_Int_Tables_number   1
_chemical_formula_structural   ErGeRu2C
_chemical_formula_sum   'Er2 Ge2 Ru4 C2'
_cell_volume   156.78124889
_cell_formula_units_Z   2
loop_
 _symmetry_equiv_pos_site_id
 _symmetry_equiv_pos_as_xyz
  1  'x, y, z'
loop_
 _atom_site_type_symbol
 _atom_site_label
 _atom_site_symmetry_multiplicity
 _atom_site_fract_x
 _atom_site_fract_y
 _atom_site_fract_z
 _atom_site_occupancy
  Er  Er0  1  0.545305  0.454695  0.250000  1
  Er  Er1  1  0.454695  0.545305  0.750000  1
  Ge  Ge2  1  0.266520  0.733480  0.250000  1
  Ge  Ge3  1  0.733480  0.266520  0.750000  1
  Ru  Ru4  1  0.838242  0.161758  0.056444  1
  Ru  Ru5  1  0.161758  0.838242  0.943556  1
  Ru  Ru6  1  0.161758  0.838242  0.556444  1
  Ru  Ru7  1  0.838242  0.161758  0.443556  1
  C  C8  1  0.000000  0.000000  0.000000  1
  C  C9  1  0.000000  0.000000  0.500000  1
