# generated using pymatgen
data_Hf6Al8Zn(Si4Ru3)2
_symmetry_space_group_name_H-M   'P 1'
_cell_length_a   8.58842707
_cell_length_b   8.58843534
_cell_length_c   8.58858600
_cell_angle_alpha   59.99820895
_cell_angle_beta   59.99976620
_cell_angle_gamma   59.99711993
_symmetry_Int_Tables_number   1
_chemical_formula_structural   Hf6Al8Zn(Si4Ru3)2
_chemical_formula_sum   'Hf6 Al8 Zn1 Si8 Ru6'
_cell_volume   447.93835831
_cell_formula_units_Z   1
loop_
 _symmetry_equiv_pos_site_id
 _symmetry_equiv_pos_as_xyz
  1  'x, y, z'
loop_
 _atom_site_type_symbol
 _atom_site_label
 _atom_site_symmetry_multiplicity
 _atom_site_fract_x
 _atom_site_fract_y
 _atom_site_fract_z
 _atom_site_occupancy
  Hf  Hf0  1  0.689990  0.309998  0.309982  1
  Hf  Hf1  1  0.310010  0.690002  0.690018  1
  Hf  Hf2  1  0.310000  0.689999  0.309969  1
  Hf  Hf3  1  0.690000  0.310001  0.690031  1
  Hf  Hf4  1  0.310000  0.309989  0.689999  1
  Hf  Hf5  1  0.690000  0.690011  0.310001  1
  Al  Al6  1  0.124492  0.124542  0.124504  1
  Al  Al7  1  0.875508  0.875458  0.875496  1
  Al  Al8  1  0.124518  0.124512  0.626463  1
  Al  Al9  1  0.124481  0.626466  0.124511  1
  Al  Al10  1  0.875482  0.875488  0.373537  1
  Al  Al11  1  0.875519  0.373534  0.875489  1
  Al  Al12  1  0.626470  0.124493  0.124531  1
  Al  Al13  1  0.373530  0.875507  0.875469  1
  Zn  Zn14  1  0.000000  0.000000  0.000000  1
  Si  Si15  1  0.344726  0.344711  0.344761  1
  Si  Si16  1  0.655274  0.655289  0.655239  1
  Si  Si17  1  0.344686  0.344749  0.965804  1
  Si  Si18  1  0.344731  0.965818  0.344744  1
  Si  Si19  1  0.655314  0.655251  0.034196  1
  Si  Si20  1  0.655269  0.034182  0.655256  1
  Si  Si21  1  0.965808  0.344749  0.344704  1
  Si  Si22  1  0.034192  0.655251  0.655296  1
  Ru  Ru23  1  0.500000  0.000000  0.000000  1
  Ru  Ru24  1  0.000000  0.500000  0.500000  1
  Ru  Ru25  1  0.000000  0.500000  0.000000  1
  Ru  Ru26  1  0.500000  0.000000  0.500000  1
  Ru  Ru27  1  0.000000  0.000000  0.500000  1
  Ru  Ru28  1  0.500000  0.500000  0.000000  1
