# generated using pymatgen
data_Sm3Lu2Bi3O14
_symmetry_space_group_name_H-M   'P 1'
_cell_length_a   6.59934329
_cell_length_b   6.64722933
_cell_length_c   7.74816859
_cell_angle_alpha   106.71975525
_cell_angle_beta   89.68330713
_cell_angle_gamma   98.93607135
_symmetry_Int_Tables_number   1
_chemical_formula_structural   Sm3Lu2Bi3O14
_chemical_formula_sum   'Sm3 Lu2 Bi3 O14'
_cell_volume   321.29545079
_cell_formula_units_Z   1
loop_
 _symmetry_equiv_pos_site_id
 _symmetry_equiv_pos_as_xyz
  1  'x, y, z'
loop_
 _atom_site_type_symbol
 _atom_site_label
 _atom_site_symmetry_multiplicity
 _atom_site_fract_x
 _atom_site_fract_y
 _atom_site_fract_z
 _atom_site_occupancy
  Sm  Sm0  1  0.271762  0.539348  0.883726  1
  Sm  Sm1  1  0.737604  0.455291  0.112978  1
  Sm  Sm2  1  0.745812  0.478796  0.617969  1
  Lu  Lu3  1  0.462178  0.009806  0.256030  1
  Lu  Lu4  1  0.535549  0.997837  0.748136  1
  Bi  Bi5  1  0.994591  0.999195  0.500213  1
  Bi  Bi6  1  0.999237  0.996230  0.997939  1
  Bi  Bi7  1  0.282248  0.537608  0.388479  1
  O  O8  1  0.452628  0.664232  0.172968  1
  O  O9  1  0.553195  0.342142  0.831904  1
  O  O10  1  0.305778  0.931603  0.950116  1
  O  O11  1  0.694663  0.065330  0.051973  1
  O  O12  1  0.300888  0.937843  0.520043  1
  O  O13  1  0.694635  0.074838  0.486429  1
  O  O14  1  0.541225  0.353800  0.341757  1
  O  O15  1  0.463040  0.650335  0.656906  1
  O  O16  1  0.928043  0.660979  0.944169  1
  O  O17  1  0.067832  0.325646  0.033968  1
  O  O18  1  0.067589  0.337892  0.624294  1
  O  O19  1  0.910549  0.662856  0.384823  1
  O  O20  1  0.864958  0.911418  0.728332  1
  O  O21  1  0.125998  0.066975  0.266849  1
