# generated using pymatgen
data_CeY(Al5Os)4
_symmetry_space_group_name_H-M   'P 1'
_cell_length_a   6.87414157
_cell_length_b   6.87414074
_cell_length_c   9.15641900
_cell_angle_alpha   90.00000000
_cell_angle_beta   90.00000000
_cell_angle_gamma   96.80383484
_symmetry_Int_Tables_number   1
_chemical_formula_structural   CeY(Al5Os)4
_chemical_formula_sum   'Ce1 Y1 Al20 Os4'
_cell_volume   429.62866067
_cell_formula_units_Z   1
loop_
 _symmetry_equiv_pos_site_id
 _symmetry_equiv_pos_as_xyz
  1  'x, y, z'
loop_
 _atom_site_type_symbol
 _atom_site_label
 _atom_site_symmetry_multiplicity
 _atom_site_fract_x
 _atom_site_fract_y
 _atom_site_fract_z
 _atom_site_occupancy
  Ce  Ce0  1  0.373155  0.626845  0.250000  1
  Y  Y1  1  0.629685  0.370315  0.750000  1
  Al  Al2  1  0.281874  0.019102  0.750000  1
  Al  Al3  1  0.017760  0.281573  0.250000  1
  Al  Al4  1  0.718427  0.982240  0.250000  1
  Al  Al5  1  0.980898  0.718126  0.750000  1
  Al  Al6  1  0.876165  0.123835  0.951206  1
  Al  Al7  1  0.122924  0.877076  0.045901  1
  Al  Al8  1  0.876165  0.123835  0.548794  1
  Al  Al9  1  0.122924  0.877076  0.454099  1
  Al  Al10  1  0.645526  0.917352  0.750000  1
  Al  Al11  1  0.913808  0.645634  0.250000  1
  Al  Al12  1  0.354366  0.086192  0.250000  1
  Al  Al13  1  0.082648  0.354474  0.750000  1
  Al  Al14  1  0.343518  0.656482  0.897711  1
  Al  Al15  1  0.658024  0.341976  0.101446  1
  Al  Al16  1  0.343518  0.656482  0.602289  1
  Al  Al17  1  0.658024  0.341976  0.398554  1
  Al  Al18  1  0.724785  0.724365  0.999000  1
  Al  Al19  1  0.724785  0.724365  0.501000  1
  Al  Al20  1  0.275635  0.275215  0.999000  1
  Al  Al21  1  0.275635  0.275215  0.501000  1
  Os  Os22  1  0.499477  0.999601  0.999821  1
  Os  Os23  1  0.000399  0.500523  0.999821  1
  Os  Os24  1  0.499477  0.999601  0.500179  1
  Os  Os25  1  0.000399  0.500523  0.500179  1
