# generated using pymatgen
data_Ho20RuRh11
_symmetry_space_group_name_H-M   'P 1'
_cell_length_a   10.82937100
_cell_length_b   10.82937100
_cell_length_c   6.36237600
_cell_angle_alpha   90.00000000
_cell_angle_beta   90.00000000
_cell_angle_gamma   90.00000000
_symmetry_Int_Tables_number   1
_chemical_formula_structural   Ho20RuRh11
_chemical_formula_sum   'Ho20 Ru1 Rh11'
_cell_volume   746.14940304
_cell_formula_units_Z   1
loop_
 _symmetry_equiv_pos_site_id
 _symmetry_equiv_pos_as_xyz
  1  'x, y, z'
loop_
 _atom_site_type_symbol
 _atom_site_label
 _atom_site_symmetry_multiplicity
 _atom_site_fract_x
 _atom_site_fract_y
 _atom_site_fract_z
 _atom_site_occupancy
  Ho  Ho0  1  0.292333  0.087395  0.375829  1
  Ho  Ho1  1  0.292779  0.912631  0.880262  1
  Ho  Ho2  1  0.707221  0.087369  0.880262  1
  Ho  Ho3  1  0.707667  0.912605  0.375829  1
  Ho  Ho4  1  0.587369  0.792779  0.880262  1
  Ho  Ho5  1  0.587395  0.207667  0.375829  1
  Ho  Ho6  1  0.412605  0.792333  0.375829  1
  Ho  Ho7  1  0.412631  0.207221  0.880262  1
  Ho  Ho8  1  0.209453  0.411348  0.621969  1
  Ho  Ho9  1  0.209403  0.588365  0.121514  1
  Ho  Ho10  1  0.790597  0.411635  0.121514  1
  Ho  Ho11  1  0.790547  0.588652  0.621969  1
  Ho  Ho12  1  0.911635  0.709403  0.121514  1
  Ho  Ho13  1  0.911348  0.290547  0.621969  1
  Ho  Ho14  1  0.088652  0.709453  0.621969  1
  Ho  Ho15  1  0.088365  0.290597  0.121514  1
  Ho  Ho16  1  0.000000  0.000000  0.499254  1
  Ho  Ho17  1  0.000000  0.000000  0.999224  1
  Ho  Ho18  1  0.500000  0.500000  0.999224  1
  Ho  Ho19  1  0.500000  0.500000  0.499254  1
  Ru  Ru20  1  0.500000  0.000000  0.124498  1
  Rh  Rh21  1  0.847066  0.154255  0.250297  1
  Rh  Rh22  1  0.847111  0.846184  0.749948  1
  Rh  Rh23  1  0.152889  0.153816  0.749948  1
  Rh  Rh24  1  0.152934  0.845745  0.250297  1
  Rh  Rh25  1  0.653816  0.347111  0.749948  1
  Rh  Rh26  1  0.654255  0.652934  0.250297  1
  Rh  Rh27  1  0.345745  0.347066  0.250297  1
  Rh  Rh28  1  0.346184  0.652889  0.749948  1
  Rh  Rh29  1  0.500000  0.000000  0.623212  1
  Rh  Rh30  1  0.000000  0.500000  0.877990  1
  Rh  Rh31  1  0.000000  0.500000  0.378078  1
