# generated using pymatgen
data_Th10CdPb7
_symmetry_space_group_name_H-M   'P 1'
_cell_length_a   9.77922000
_cell_length_b   9.77922004
_cell_length_c   6.69732000
_cell_angle_alpha   90.00000000
_cell_angle_beta   90.00000000
_cell_angle_gamma   119.99999985
_symmetry_Int_Tables_number   1
_chemical_formula_structural   Th10CdPb7
_chemical_formula_sum   'Th10 Cd1 Pb7'
_cell_volume   554.67694804
_cell_formula_units_Z   1
loop_
 _symmetry_equiv_pos_site_id
 _symmetry_equiv_pos_as_xyz
  1  'x, y, z'
loop_
 _atom_site_type_symbol
 _atom_site_label
 _atom_site_symmetry_multiplicity
 _atom_site_fract_x
 _atom_site_fract_y
 _atom_site_fract_z
 _atom_site_occupancy
  Th  Th0  1  0.666667  0.333333  0.500000  1
  Th  Th1  1  0.333333  0.666667  0.500000  1
  Th  Th2  1  0.333333  0.666667  0.000000  1
  Th  Th3  1  0.666667  0.333333  0.000000  1
  Th  Th4  1  0.720325  0.720325  0.249677  1
  Th  Th5  1  0.279675  0.000000  0.249677  1
  Th  Th6  1  0.000000  0.279675  0.249677  1
  Th  Th7  1  0.279675  0.279675  0.750323  1
  Th  Th8  1  0.720325  0.000000  0.750323  1
  Th  Th9  1  0.000000  0.720325  0.750323  1
  Cd  Cd10  1  0.000000  0.000000  0.500000  1
  Pb  Pb11  1  0.000000  0.000000  0.000000  1
  Pb  Pb12  1  0.377392  0.377392  0.250616  1
  Pb  Pb13  1  0.622608  0.000000  0.250616  1
  Pb  Pb14  1  0.000000  0.622608  0.250616  1
  Pb  Pb15  1  0.622608  0.622608  0.749384  1
  Pb  Pb16  1  0.377392  0.000000  0.749384  1
  Pb  Pb17  1  0.000000  0.377392  0.749384  1
