# generated using pymatgen
data_LiCa2Ni11As7
_symmetry_space_group_name_H-M   'P 1'
_cell_length_a   3.84774200
_cell_length_b   9.40182782
_cell_length_c   9.47466031
_cell_angle_alpha   120.46746802
_cell_angle_beta   90.00000000
_cell_angle_gamma   90.00000000
_symmetry_Int_Tables_number   1
_chemical_formula_structural   LiCa2Ni11As7
_chemical_formula_sum   'Li1 Ca2 Ni11 As7'
_cell_volume   295.42512746
_cell_formula_units_Z   1
loop_
 _symmetry_equiv_pos_site_id
 _symmetry_equiv_pos_as_xyz
  1  'x, y, z'
loop_
 _atom_site_type_symbol
 _atom_site_label
 _atom_site_symmetry_multiplicity
 _atom_site_fract_x
 _atom_site_fract_y
 _atom_site_fract_z
 _atom_site_occupancy
  Li  Li0  1  0.500000  0.108057  0.894369  1
  Ca  Ca1  1  0.500000  0.331567  0.663715  1
  Ca  Ca2  1  0.000000  0.671192  0.339387  1
  Ni  Ni3  1  0.000000  0.877657  0.724841  1
  Ni  Ni4  1  0.000000  0.282744  0.155915  1
  Ni  Ni5  1  0.000000  0.840357  0.125886  1
  Ni  Ni6  1  0.500000  0.951682  0.570754  1
  Ni  Ni7  1  0.500000  0.428087  0.380598  1
  Ni  Ni8  1  0.500000  0.619181  0.044770  1
  Ni  Ni9  1  0.000000  0.380288  0.947616  1
  Ni  Ni10  1  0.000000  0.053920  0.430463  1
  Ni  Ni11  1  0.000000  0.565353  0.619331  1
  Ni  Ni12  1  0.500000  0.094214  0.207259  1
  Ni  Ni13  1  0.500000  0.792630  0.891568  1
  As  As14  1  0.500000  0.708121  0.600745  1
  As  As15  1  0.500000  0.411761  0.115343  1
  As  As16  1  0.500000  0.889914  0.294550  1
  As  As17  1  0.000000  0.997463  0.005338  1
  As  As18  1  0.000000  0.115260  0.703146  1
  As  As19  1  0.000000  0.289192  0.404444  1
  As  As20  1  0.000000  0.591362  0.879964  1
