# generated using pymatgen
data_Mn4Co3NiP4
_symmetry_space_group_name_H-M   'P 1'
_cell_length_a   3.44548400
_cell_length_b   5.88806601
_cell_length_c   6.69346429
_cell_angle_alpha   89.72470983
_cell_angle_beta   90.00000000
_cell_angle_gamma   90.00000000
_symmetry_Int_Tables_number   1
_chemical_formula_structural   Mn4Co3NiP4
_chemical_formula_sum   'Mn4 Co3 Ni1 P4'
_cell_volume   135.79033060
_cell_formula_units_Z   1
loop_
 _symmetry_equiv_pos_site_id
 _symmetry_equiv_pos_as_xyz
  1  'x, y, z'
loop_
 _atom_site_type_symbol
 _atom_site_label
 _atom_site_symmetry_multiplicity
 _atom_site_fract_x
 _atom_site_fract_y
 _atom_site_fract_z
 _atom_site_occupancy
  Mn  Mn0  1  0.750000  0.030297  0.665965  1
  Mn  Mn1  1  0.250000  0.971850  0.333095  1
  Mn  Mn2  1  0.750000  0.528800  0.834858  1
  Mn  Mn3  1  0.250000  0.471699  0.164696  1
  Co  Co4  1  0.750000  0.639997  0.436264  1
  Co  Co5  1  0.250000  0.858016  0.934999  1
  Co  Co6  1  0.750000  0.139536  0.064168  1
  Ni  Ni7  1  0.250000  0.357360  0.566339  1
  P  P8  1  0.250000  0.739691  0.626933  1
  P  P9  1  0.750000  0.264530  0.367857  1
  P  P10  1  0.250000  0.233971  0.878159  1
  P  P11  1  0.750000  0.764254  0.126667  1
