# generated using pymatgen
data_DyTm2AuO7
_symmetry_space_group_name_H-M   'P 1'
_cell_length_a   6.43259352
_cell_length_b   6.43259374
_cell_length_c   7.38154600
_cell_angle_alpha   90.00000000
_cell_angle_beta   90.00000000
_cell_angle_gamma   108.67242751
_symmetry_Int_Tables_number   1
_chemical_formula_structural   DyTm2AuO7
_chemical_formula_sum   'Dy2 Tm4 Au2 O14'
_cell_volume   289.35877030
_cell_formula_units_Z   2
loop_
 _symmetry_equiv_pos_site_id
 _symmetry_equiv_pos_as_xyz
  1  'x, y, z'
loop_
 _atom_site_type_symbol
 _atom_site_label
 _atom_site_symmetry_multiplicity
 _atom_site_fract_x
 _atom_site_fract_y
 _atom_site_fract_z
 _atom_site_occupancy
  Dy  Dy0  1  0.500000  0.500000  0.000000  1
  Dy  Dy1  1  0.500000  0.500000  0.500000  1
  Tm  Tm2  1  0.002035  0.471415  0.750000  1
  Tm  Tm3  1  0.997965  0.528585  0.250000  1
  Tm  Tm4  1  0.471415  0.002035  0.250000  1
  Tm  Tm5  1  0.528585  0.997965  0.750000  1
  Au  Au6  1  0.000000  0.000000  0.000000  1
  Au  Au7  1  0.000000  0.000000  0.500000  1
  O  O8  1  0.081198  0.332617  0.475426  1
  O  O9  1  0.918167  0.081833  0.750000  1
  O  O10  1  0.081198  0.332617  0.024574  1
  O  O11  1  0.918802  0.667383  0.524574  1
  O  O12  1  0.641177  0.358823  0.750000  1
  O  O13  1  0.667383  0.918802  0.475426  1
  O  O14  1  0.332617  0.081198  0.524574  1
  O  O15  1  0.332617  0.081198  0.975426  1
  O  O16  1  0.667383  0.918802  0.024574  1
  O  O17  1  0.918802  0.667383  0.975426  1
  O  O18  1  0.634861  0.365139  0.250000  1
  O  O19  1  0.358823  0.641177  0.250000  1
  O  O20  1  0.365139  0.634861  0.750000  1
  O  O21  1  0.081833  0.918167  0.250000  1
