# generated using pymatgen
data_Hf5ZrSn6(IrRh)3
_symmetry_space_group_name_H-M   'P 1'
_cell_length_a   7.41942333
_cell_length_b   7.38919436
_cell_length_c   7.25537913
_cell_angle_alpha   90.00815228
_cell_angle_beta   89.97844586
_cell_angle_gamma   119.98690259
_symmetry_Int_Tables_number   1
_chemical_formula_structural   Hf5ZrSn6(IrRh)3
_chemical_formula_sum   'Hf5 Zr1 Sn6 Ir3 Rh3'
_cell_volume   344.52064808
_cell_formula_units_Z   1
loop_
 _symmetry_equiv_pos_site_id
 _symmetry_equiv_pos_as_xyz
  1  'x, y, z'
loop_
 _atom_site_type_symbol
 _atom_site_label
 _atom_site_symmetry_multiplicity
 _atom_site_fract_x
 _atom_site_fract_y
 _atom_site_fract_z
 _atom_site_occupancy
  Hf  Hf0  1  0.588769  0.613138  0.749706  1
  Hf  Hf1  1  0.386823  0.975010  0.749649  1
  Hf  Hf2  1  0.982881  0.389098  0.251414  1
  Hf  Hf3  1  0.611642  0.593859  0.251618  1
  Hf  Hf4  1  0.406758  0.018321  0.251428  1
  Zr  Zr5  1  0.026336  0.411479  0.750219  1
  Sn  Sn6  1  0.268666  0.268004  0.500877  1
  Sn  Sn7  1  0.998988  0.730292  0.500532  1
  Sn  Sn8  1  0.996315  0.726740  0.000976  1
  Sn  Sn9  1  0.732008  0.001189  0.501090  1
  Sn  Sn10  1  0.731026  0.003799  0.000282  1
  Sn  Sn11  1  0.272524  0.268941  0.000518  1
  Ir  Ir12  1  0.334778  0.668062  0.458339  1
  Ir  Ir13  1  0.663515  0.332927  0.531553  1
  Ir  Ir14  1  0.334883  0.668096  0.041898  1
  Rh  Rh15  1  0.000070  0.998200  0.751650  1
  Rh  Rh16  1  0.999915  0.999855  0.249861  1
  Rh  Rh17  1  0.664105  0.332990  0.958388  1
