# generated using pymatgen
data_Yb2Zn3Pt
_symmetry_space_group_name_H-M   'P 1'
_cell_length_a   5.37626100
_cell_length_b   5.37626109
_cell_length_c   9.04259200
_cell_angle_alpha   90.00000000
_cell_angle_beta   90.00000000
_cell_angle_gamma   119.99999327
_symmetry_Int_Tables_number   1
_chemical_formula_structural   Yb2Zn3Pt
_chemical_formula_sum   'Yb4 Zn6 Pt2'
_cell_volume   226.35197748
_cell_formula_units_Z   2
loop_
 _symmetry_equiv_pos_site_id
 _symmetry_equiv_pos_as_xyz
  1  'x, y, z'
loop_
 _atom_site_type_symbol
 _atom_site_label
 _atom_site_symmetry_multiplicity
 _atom_site_fract_x
 _atom_site_fract_y
 _atom_site_fract_z
 _atom_site_occupancy
  Yb  Yb0  1  0.666667  0.333332  0.054971  1
  Yb  Yb1  1  0.666667  0.333332  0.445029  1
  Yb  Yb2  1  0.333333  0.666667  0.554972  1
  Yb  Yb3  1  0.333333  0.666667  0.945028  1
  Zn  Zn4  1  0.166092  0.332182  0.250000  1
  Zn  Zn5  1  0.166091  0.833908  0.250000  1
  Zn  Zn6  1  0.667818  0.833908  0.250000  1
  Zn  Zn7  1  0.332182  0.166091  0.750001  1
  Zn  Zn8  1  0.833907  0.166091  0.750001  1
  Zn  Zn9  1  0.833908  0.667817  0.750001  1
  Pt  Pt10  1  0.000000  0.000000  0.000000  1
  Pt  Pt11  1  0.000000  0.000000  0.500000  1
