# generated using pymatgen
data_Ho10Bi4IrOs
_symmetry_space_group_name_H-M   'P 1'
_cell_length_a   7.94689545
_cell_length_b   9.00820900
_cell_length_c   12.45485203
_cell_angle_alpha   90.00000000
_cell_angle_beta   89.87846359
_cell_angle_gamma   90.00000000
_symmetry_Int_Tables_number   1
_chemical_formula_structural   Ho10Bi4IrOs
_chemical_formula_sum   'Ho20 Bi8 Ir2 Os2'
_cell_volume   891.60716240
_cell_formula_units_Z   2
loop_
 _symmetry_equiv_pos_site_id
 _symmetry_equiv_pos_as_xyz
  1  'x, y, z'
loop_
 _atom_site_type_symbol
 _atom_site_label
 _atom_site_symmetry_multiplicity
 _atom_site_fract_x
 _atom_site_fract_y
 _atom_site_fract_z
 _atom_site_occupancy
  Ho  Ho0  1  0.840124  0.750000  0.792440  1
  Ho  Ho1  1  0.159876  0.250000  0.207560  1
  Ho  Ho2  1  0.338219  0.250000  0.707863  1
  Ho  Ho3  1  0.661781  0.750000  0.292137  1
  Ho  Ho4  1  0.374341  0.750000  0.690993  1
  Ho  Ho5  1  0.625659  0.250000  0.309007  1
  Ho  Ho6  1  0.875725  0.250000  0.808503  1
  Ho  Ho7  1  0.124275  0.750000  0.191497  1
  Ho  Ho8  1  0.945666  0.750000  0.503300  1
  Ho  Ho9  1  0.054334  0.250000  0.496700  1
  Ho  Ho10  1  0.442864  0.250000  0.996252  1
  Ho  Ho11  1  0.557136  0.750000  0.003748  1
  Ho  Ho12  1  0.675538  0.042984  0.565915  1
  Ho  Ho13  1  0.324462  0.957016  0.434085  1
  Ho  Ho14  1  0.173410  0.958368  0.935275  1
  Ho  Ho15  1  0.324462  0.542984  0.434085  1
  Ho  Ho16  1  0.826590  0.041632  0.064725  1
  Ho  Ho17  1  0.675538  0.457016  0.565915  1
  Ho  Ho18  1  0.826590  0.458368  0.064725  1
  Ho  Ho19  1  0.173410  0.541632  0.935275  1
  Bi  Bi20  1  0.566198  0.492880  0.827199  1
  Bi  Bi21  1  0.433802  0.507120  0.172801  1
  Bi  Bi22  1  0.066068  0.507150  0.672609  1
  Bi  Bi23  1  0.433802  0.992880  0.172801  1
  Bi  Bi24  1  0.933932  0.492850  0.327391  1
  Bi  Bi25  1  0.566198  0.007120  0.827199  1
  Bi  Bi26  1  0.933932  0.007150  0.327391  1
  Bi  Bi27  1  0.066068  0.992850  0.672609  1
  Ir  Ir28  1  0.573046  0.750000  0.509079  1
  Ir  Ir29  1  0.426954  0.250000  0.490921  1
  Os  Os30  1  0.075615  0.250000  0.990232  1
  Os  Os31  1  0.924385  0.750000  0.009768  1
