# generated using pymatgen
data_Ac8NdPd6
_symmetry_space_group_name_H-M   'P 1'
_cell_length_a   8.12625568
_cell_length_b   8.12625524
_cell_length_c   8.12625516
_cell_angle_alpha   72.28297570
_cell_angle_beta   72.28298733
_cell_angle_gamma   72.28297650
_symmetry_Int_Tables_number   1
_chemical_formula_structural   Ac8NdPd6
_chemical_formula_sum   'Ac8 Nd1 Pd6'
_cell_volume   473.49102192
_cell_formula_units_Z   1
loop_
 _symmetry_equiv_pos_site_id
 _symmetry_equiv_pos_as_xyz
  1  'x, y, z'
loop_
 _atom_site_type_symbol
 _atom_site_label
 _atom_site_symmetry_multiplicity
 _atom_site_fract_x
 _atom_site_fract_y
 _atom_site_fract_z
 _atom_site_occupancy
  Ac  Ac0  1  0.797697  0.797697  0.797697  1
  Ac  Ac1  1  0.202303  0.202303  0.202303  1
  Ac  Ac2  1  0.328846  0.618877  0.830512  1
  Ac  Ac3  1  0.830512  0.328846  0.618877  1
  Ac  Ac4  1  0.618876  0.830512  0.328846  1
  Ac  Ac5  1  0.671154  0.381123  0.169488  1
  Ac  Ac6  1  0.169488  0.671154  0.381123  1
  Ac  Ac7  1  0.381123  0.169488  0.671154  1
  Nd  Nd8  1  0.000000  0.000000  0.000000  1
  Pd  Pd9  1  0.147443  0.964028  0.598400  1
  Pd  Pd10  1  0.598400  0.147443  0.964028  1
  Pd  Pd11  1  0.964028  0.598400  0.147443  1
  Pd  Pd12  1  0.852557  0.035972  0.401600  1
  Pd  Pd13  1  0.401600  0.852557  0.035972  1
  Pd  Pd14  1  0.035972  0.401600  0.852557  1
