# generated using pymatgen
data_RbTbBr4
_symmetry_space_group_name_H-M   'P 1'
_cell_length_a   7.70360700
_cell_length_b   7.31258000
_cell_length_c   18.75007900
_cell_angle_alpha   90.00000000
_cell_angle_beta   90.00000000
_cell_angle_gamma   90.00000000
_symmetry_Int_Tables_number   1
_chemical_formula_structural   RbTbBr4
_chemical_formula_sum   'Rb4 Tb4 Br16'
_cell_volume   1056.25274675
_cell_formula_units_Z   4
loop_
 _symmetry_equiv_pos_site_id
 _symmetry_equiv_pos_as_xyz
  1  'x, y, z'
loop_
 _atom_site_type_symbol
 _atom_site_label
 _atom_site_symmetry_multiplicity
 _atom_site_fract_x
 _atom_site_fract_y
 _atom_site_fract_z
 _atom_site_occupancy
  Rb  Rb0  1  0.000000  0.250000  0.324656  1
  Rb  Rb1  1  0.500000  0.750000  0.175344  1
  Rb  Rb2  1  0.000000  0.750000  0.675344  1
  Rb  Rb3  1  0.500000  0.250000  0.824656  1
  Tb  Tb4  1  0.000000  0.250000  0.066650  1
  Tb  Tb5  1  0.500000  0.250000  0.566650  1
  Tb  Tb6  1  0.000000  0.750000  0.933350  1
  Tb  Tb7  1  0.500000  0.750000  0.433350  1
  Br  Br8  1  0.278594  0.621107  0.330763  1
  Br  Br9  1  0.793160  0.432993  0.956414  1
  Br  Br10  1  0.293160  0.567007  0.543586  1
  Br  Br11  1  0.706840  0.932993  0.543586  1
  Br  Br12  1  0.778594  0.378893  0.169237  1
  Br  Br13  1  0.221406  0.621107  0.830763  1
  Br  Br14  1  0.721406  0.878893  0.330763  1
  Br  Br15  1  0.221406  0.121107  0.169237  1
  Br  Br16  1  0.278594  0.121107  0.669237  1
  Br  Br17  1  0.721406  0.378893  0.669237  1
  Br  Br18  1  0.206840  0.567007  0.043586  1
  Br  Br19  1  0.778594  0.878893  0.830763  1
  Br  Br20  1  0.793160  0.932993  0.043586  1
  Br  Br21  1  0.293160  0.067007  0.456414  1
  Br  Br22  1  0.706840  0.432993  0.456414  1
  Br  Br23  1  0.206840  0.067007  0.956414  1
