# generated using pymatgen
data_Nb7Fe(PO4)12
_symmetry_space_group_name_H-M   'P 1'
_cell_length_a   8.91329500
_cell_length_b   8.88339672
_cell_length_c   15.24266800
_cell_angle_alpha   54.51645107
_cell_angle_beta   90.00000000
_cell_angle_gamma   90.00000000
_symmetry_Int_Tables_number   1
_chemical_formula_structural   Nb7Fe(PO4)12
_chemical_formula_sum   'Nb7 Fe1 P12 O48'
_cell_volume   982.77314421
_cell_formula_units_Z   1
loop_
 _symmetry_equiv_pos_site_id
 _symmetry_equiv_pos_as_xyz
  1  'x, y, z'
loop_
 _atom_site_type_symbol
 _atom_site_label
 _atom_site_symmetry_multiplicity
 _atom_site_fract_x
 _atom_site_fract_y
 _atom_site_fract_z
 _atom_site_occupancy
  Nb  Nb0  1  0.466861  0.867644  0.381939  1
  Nb  Nb1  1  0.035036  0.629827  0.620254  1
  Nb  Nb2  1  0.965027  0.139165  0.114242  1
  Nb  Nb3  1  0.033445  0.863391  0.884865  1
  Nb  Nb4  1  0.967844  0.368542  0.382173  1
  Nb  Nb5  1  0.530970  0.128607  0.619973  1
  Nb  Nb6  1  0.469980  0.634034  0.114482  1
  Fe  Fe7  1  0.532313  0.368449  0.880797  1
  P  P8  1  0.609191  0.254221  0.355441  1
  P  P9  1  0.747495  0.535478  0.995104  1
  P  P10  1  0.250957  0.466056  0.001911  1
  P  P11  1  0.889284  0.964376  0.643901  1
  P  P12  1  0.393173  0.745799  0.643194  1
  P  P13  1  0.106968  0.032266  0.355373  1
  P  P14  1  0.609361  0.968173  0.140655  1
  P  P15  1  0.887869  0.255249  0.854157  1
  P  P16  1  0.251086  0.467763  0.501990  1
  P  P17  1  0.114615  0.751272  0.144760  1
  P  P18  1  0.750282  0.528865  0.501484  1
  P  P19  1  0.389159  0.035580  0.856228  1
  O  O20  1  0.861101  0.556411  0.568883  1
  O  O21  1  0.392852  0.202145  0.856405  1
  O  O22  1  0.343468  0.642889  0.423791  1
  O  O23  1  0.164714  0.488964  0.581921  1
  O  O24  1  0.087147  0.916852  0.150435  1
  O  O25  1  0.726394  0.300961  0.829457  1
  O  O26  1  0.648978  0.700286  0.439440  1
  O  O27  1  0.939985  0.208060  0.965479  1
  O  O28  1  0.592266  0.789399  0.144201  1
  O  O29  1  0.658335  0.351810  0.577775  1
  O  O30  1  0.836735  0.510164  0.419981  1
  O  O31  1  0.931100  0.086721  0.852454  1
  O  O32  1  0.143283  0.436702  0.435137  1
  O  O33  1  0.282346  0.698172  0.164791  1
  O  O34  1  0.352319  0.296213  0.567877  1
  O  O35  1  0.067661  0.801681  0.034154  1
  O  O36  1  0.492045  0.052390  0.766775  1
  O  O37  1  0.411584  0.920880  0.643706  1
  O  O38  1  0.440622  0.853530  0.964855  1
  O  O39  1  0.016651  0.586619  0.232670  1
  O  O40  1  0.511190  0.416687  0.267552  1
  O  O41  1  0.939538  0.140572  0.536532  1
  O  O42  1  0.722673  0.980435  0.664998  1
  O  O43  1  0.987228  0.936279  0.736010  1
  O  O44  1  0.562489  0.205264  0.466026  1
  O  O45  1  0.852875  0.707654  0.942354  1
  O  O46  1  0.777356  0.307742  0.335640  1
  O  O47  1  0.642934  0.558089  0.069732  1
  O  O48  1  0.333572  0.489797  0.084188  1
  O  O49  1  0.517456  0.927986  0.240499  1
  O  O50  1  0.087671  0.204108  0.357216  1
  O  O51  1  0.144940  0.636750  0.933386  1
  O  O52  1  0.842493  0.357669  0.075322  1
  O  O53  1  0.909126  0.793953  0.641579  1
  O  O54  1  0.585627  0.088588  0.349181  1
  O  O55  1  0.668598  0.530527  0.911147  1
  O  O56  1  0.349060  0.448256  0.930333  1
  O  O57  1  0.220222  0.701224  0.659269  1
  O  O58  1  0.145154  0.294373  0.072104  1
  O  O59  1  0.427939  0.810408  0.525757  1
  O  O60  1  0.003275  0.056839  0.266514  1
  O  O61  1  0.272477  0.018906  0.330537  1
  O  O62  1  0.059954  0.856769  0.464241  1
  O  O63  1  0.492101  0.590907  0.722026  1
  O  O64  1  0.994229  0.417093  0.767517  1
  O  O65  1  0.553616  0.138179  0.039744  1
  O  O66  1  0.778299  0.982394  0.163485  1
  O  O67  1  0.227407  0.996947  0.834005  1
