# generated using pymatgen
data_La3NdY2(AlC3)2
_symmetry_space_group_name_H-M   'P 1'
_cell_length_a   3.74146300
_cell_length_b   7.51602419
_cell_length_c   10.16282495
_cell_angle_alpha   88.56535644
_cell_angle_beta   90.00000000
_cell_angle_gamma   90.00000000
_symmetry_Int_Tables_number   1
_chemical_formula_structural   La3NdY2(AlC3)2
_chemical_formula_sum   'La3 Nd1 Y2 Al2 C6'
_cell_volume   285.69846793
_cell_formula_units_Z   1
loop_
 _symmetry_equiv_pos_site_id
 _symmetry_equiv_pos_as_xyz
  1  'x, y, z'
loop_
 _atom_site_type_symbol
 _atom_site_label
 _atom_site_symmetry_multiplicity
 _atom_site_fract_x
 _atom_site_fract_y
 _atom_site_fract_z
 _atom_site_occupancy
  La  La0  1  0.500000  0.518209  0.187851  1
  La  La1  1  0.500000  0.479996  0.811748  1
  La  La2  1  0.000000  0.752114  0.465575  1
  Nd  Nd3  1  0.000000  0.248437  0.538466  1
  Y  Y4  1  0.500000  0.988458  0.201814  1
  Y  Y5  1  0.500000  0.012800  0.796974  1
  Al  Al6  1  0.000000  0.792984  0.007783  1
  Al  Al7  1  0.000000  0.206403  0.991473  1
  C  C8  1  0.500000  0.500345  0.564635  1
  C  C9  1  0.500000  0.489471  0.435050  1
  C  C10  1  0.500000  0.997797  0.564198  1
  C  C11  1  0.500000  0.013269  0.434442  1
  C  C12  1  0.000000  0.764489  0.206646  1
  C  C13  1  0.000000  0.235228  0.793345  1
