# generated using pymatgen
data_Eu2Zn2Si2Ir3Ru
_symmetry_space_group_name_H-M   'P 1'
_cell_length_a   4.19870600
_cell_length_b   4.19870400
_cell_length_c   10.32096500
_cell_angle_alpha   90.00000000
_cell_angle_beta   90.00000000
_cell_angle_gamma   90.00000000
_symmetry_Int_Tables_number   1
_chemical_formula_structural   Eu2Zn2Si2Ir3Ru
_chemical_formula_sum   'Eu2 Zn2 Si2 Ir3 Ru1'
_cell_volume   181.94956845
_cell_formula_units_Z   1
loop_
 _symmetry_equiv_pos_site_id
 _symmetry_equiv_pos_as_xyz
  1  'x, y, z'
loop_
 _atom_site_type_symbol
 _atom_site_label
 _atom_site_symmetry_multiplicity
 _atom_site_fract_x
 _atom_site_fract_y
 _atom_site_fract_z
 _atom_site_occupancy
  Eu  Eu0  1  0.000000  0.500000  0.251352  1
  Eu  Eu1  1  0.500000  0.000000  0.748655  1
  Zn  Zn2  1  0.000000  0.000000  0.500000  1
  Zn  Zn3  1  0.500000  0.500000  0.500000  1
  Si  Si4  1  0.000000  0.500000  0.884322  1
  Si  Si5  1  0.500000  0.000000  0.115676  1
  Ir  Ir6  1  0.500000  0.500000  0.000001  1
  Ir  Ir7  1  0.000000  0.500000  0.652923  1
  Ir  Ir8  1  0.500000  0.000000  0.347073  1
  Ru  Ru9  1  0.000000  0.000000  0.999998  1
