# generated using pymatgen
data_Ce4Cd2Si3Ge
_symmetry_space_group_name_H-M   'P 1'
_cell_length_a   7.42289601
_cell_length_b   7.42289575
_cell_length_c   4.27092600
_cell_angle_alpha   90.00000000
_cell_angle_beta   90.00000000
_cell_angle_gamma   90.06824185
_symmetry_Int_Tables_number   1
_chemical_formula_structural   Ce4Cd2Si3Ge
_chemical_formula_sum   'Ce4 Cd2 Si3 Ge1'
_cell_volume   235.32522154
_cell_formula_units_Z   1
loop_
 _symmetry_equiv_pos_site_id
 _symmetry_equiv_pos_as_xyz
  1  'x, y, z'
loop_
 _atom_site_type_symbol
 _atom_site_label
 _atom_site_symmetry_multiplicity
 _atom_site_fract_x
 _atom_site_fract_y
 _atom_site_fract_z
 _atom_site_occupancy
  Ce  Ce0  1  0.682846  0.180173  0.500000  1
  Ce  Ce1  1  0.319827  0.817154  0.500000  1
  Ce  Ce2  1  0.177676  0.322324  0.500000  1
  Ce  Ce3  1  0.820871  0.679129  0.500000  1
  Cd  Cd4  1  0.501834  0.503315  0.000000  1
  Cd  Cd5  1  0.996685  0.998166  0.000000  1
  Si  Si6  1  0.113617  0.613645  0.000000  1
  Si  Si7  1  0.886355  0.386383  0.000000  1
  Si  Si8  1  0.617206  0.882794  0.000000  1
  Ge  Ge9  1  0.383083  0.116917  0.000000  1
