# generated using pymatgen
data_YP2Ir3
_symmetry_space_group_name_H-M   'P 1'
_cell_length_a   3.98495600
_cell_length_b   11.21612200
_cell_length_c   12.81920400
_cell_angle_alpha   90.00000000
_cell_angle_beta   90.00000000
_cell_angle_gamma   90.00000000
_symmetry_Int_Tables_number   1
_chemical_formula_structural   YP2Ir3
_chemical_formula_sum   'Y6 P12 Ir18'
_cell_volume   572.96397129
_cell_formula_units_Z   6
loop_
 _symmetry_equiv_pos_site_id
 _symmetry_equiv_pos_as_xyz
  1  'x, y, z'
loop_
 _atom_site_type_symbol
 _atom_site_label
 _atom_site_symmetry_multiplicity
 _atom_site_fract_x
 _atom_site_fract_y
 _atom_site_fract_z
 _atom_site_occupancy
  Y  Y0  1  0.000000  0.500000  0.522818  1
  Y  Y1  1  0.500000  0.000000  0.477182  1
  Y  Y2  1  0.500000  0.815158  0.204183  1
  Y  Y3  1  0.500000  0.184842  0.204183  1
  Y  Y4  1  0.000000  0.684842  0.795817  1
  Y  Y5  1  0.000000  0.315158  0.795817  1
  P  P6  1  0.500000  0.500000  0.876247  1
  P  P7  1  0.000000  0.000000  0.123753  1
  P  P8  1  0.500000  0.500000  0.359242  1
  P  P9  1  0.000000  0.000000  0.640758  1
  P  P10  1  0.500000  0.314913  0.617844  1
  P  P11  1  0.500000  0.685087  0.617844  1
  P  P12  1  0.000000  0.185087  0.382156  1
  P  P13  1  0.000000  0.814913  0.382156  1
  P  P14  1  0.500000  0.845210  0.893813  1
  P  P15  1  0.500000  0.154790  0.893813  1
  P  P16  1  0.000000  0.654790  0.106187  1
  P  P17  1  0.000000  0.345210  0.106187  1
  Ir  Ir18  1  0.500000  0.500000  0.181231  1
  Ir  Ir19  1  0.000000  0.000000  0.818769  1
  Ir  Ir20  1  0.500000  0.500000  0.699985  1
  Ir  Ir21  1  0.000000  0.000000  0.300015  1
  Ir  Ir22  1  0.000000  0.500000  0.971714  1
  Ir  Ir23  1  0.500000  0.000000  0.028286  1
  Ir  Ir24  1  0.500000  0.336601  0.001792  1
  Ir  Ir25  1  0.500000  0.663399  0.001792  1
  Ir  Ir26  1  0.000000  0.163399  0.998208  1
  Ir  Ir27  1  0.000000  0.836601  0.998208  1
  Ir  Ir28  1  0.500000  0.294809  0.430213  1
  Ir  Ir29  1  0.500000  0.705191  0.430213  1
  Ir  Ir30  1  0.000000  0.205191  0.569787  1
  Ir  Ir31  1  0.000000  0.794809  0.569787  1
  Ir  Ir32  1  0.500000  0.869703  0.713966  1
  Ir  Ir33  1  0.500000  0.130297  0.713966  1
  Ir  Ir34  1  0.000000  0.630297  0.286034  1
  Ir  Ir35  1  0.000000  0.369703  0.286034  1
