# generated using pymatgen
data_Pr11Er(Si7Br3)2
_symmetry_space_group_name_H-M   'P 1'
_cell_length_a   4.08890100
_cell_length_b   11.82867400
_cell_length_c   16.59672700
_cell_angle_alpha   90.00000000
_cell_angle_beta   90.00000000
_cell_angle_gamma   90.00000000
_symmetry_Int_Tables_number   1
_chemical_formula_structural   Pr11Er(Si7Br3)2
_chemical_formula_sum   'Pr11 Er1 Si14 Br6'
_cell_volume   802.72189450
_cell_formula_units_Z   1
loop_
 _symmetry_equiv_pos_site_id
 _symmetry_equiv_pos_as_xyz
  1  'x, y, z'
loop_
 _atom_site_type_symbol
 _atom_site_label
 _atom_site_symmetry_multiplicity
 _atom_site_fract_x
 _atom_site_fract_y
 _atom_site_fract_z
 _atom_site_occupancy
  Pr  Pr0  1  0.500000  0.341959  0.500000  1
  Pr  Pr1  1  0.000000  0.658617  0.000000  1
  Pr  Pr2  1  0.500000  0.360326  0.754753  1
  Pr  Pr3  1  0.000000  0.640772  0.741680  1
  Pr  Pr4  1  0.500000  0.360326  0.245247  1
  Pr  Pr5  1  0.000000  0.640772  0.258320  1
  Pr  Pr6  1  0.500000  0.065025  0.879836  1
  Pr  Pr7  1  0.000000  0.932329  0.618861  1
  Pr  Pr8  1  0.500000  0.065025  0.120164  1
  Pr  Pr9  1  0.000000  0.932329  0.381139  1
  Pr  Pr10  1  0.500000  0.356542  0.000000  1
  Er  Er11  1  0.000000  0.645863  0.500000  1
  Si  Si12  1  0.000000  0.151849  0.000000  1
  Si  Si13  1  0.500000  0.845568  0.500000  1
  Si  Si14  1  0.500000  0.567728  0.875708  1
  Si  Si15  1  0.000000  0.436501  0.620764  1
  Si  Si16  1  0.500000  0.567728  0.124292  1
  Si  Si17  1  0.000000  0.436501  0.379236  1
  Si  Si18  1  0.000000  0.253536  0.873524  1
  Si  Si19  1  0.500000  0.743941  0.623669  1
  Si  Si20  1  0.000000  0.253536  0.126476  1
  Si  Si21  1  0.500000  0.743941  0.376331  1
  Si  Si22  1  0.000000  0.457982  0.876306  1
  Si  Si23  1  0.500000  0.543513  0.618210  1
  Si  Si24  1  0.500000  0.543513  0.381790  1
  Si  Si25  1  0.000000  0.457982  0.123694  1
  Br  Br26  1  0.500000  0.108861  0.692060  1
  Br  Br27  1  0.000000  0.889479  0.806932  1
  Br  Br28  1  0.000000  0.138464  0.500000  1
  Br  Br29  1  0.500000  0.861151  0.000000  1
  Br  Br30  1  0.500000  0.108861  0.307940  1
  Br  Br31  1  0.000000  0.889479  0.193068  1
