# generated using pymatgen
data_Yb20(Rh3Au)3
_symmetry_space_group_name_H-M   'P 1'
_cell_length_a   7.47636055
_cell_length_b   7.47636057
_cell_length_c   13.80393300
_cell_angle_alpha   90.00000000
_cell_angle_beta   90.00000000
_cell_angle_gamma   89.82661116
_symmetry_Int_Tables_number   1
_chemical_formula_structural   Yb20(Rh3Au)3
_chemical_formula_sum   'Yb20 Rh9 Au3'
_cell_volume   771.58065316
_cell_formula_units_Z   1
loop_
 _symmetry_equiv_pos_site_id
 _symmetry_equiv_pos_as_xyz
  1  'x, y, z'
loop_
 _atom_site_type_symbol
 _atom_site_label
 _atom_site_symmetry_multiplicity
 _atom_site_fract_x
 _atom_site_fract_y
 _atom_site_fract_z
 _atom_site_occupancy
  Yb  Yb0  1  0.000000  0.000000  0.760434  1
  Yb  Yb1  1  0.500000  0.500000  0.243148  1
  Yb  Yb2  1  0.000000  0.000000  0.239566  1
  Yb  Yb3  1  0.500000  0.500000  0.756852  1
  Yb  Yb4  1  0.177076  0.660279  0.109145  1
  Yb  Yb5  1  0.668737  0.167380  0.617038  1
  Yb  Yb6  1  0.822924  0.339721  0.109145  1
  Yb  Yb7  1  0.331263  0.832620  0.617038  1
  Yb  Yb8  1  0.339709  0.177088  0.109223  1
  Yb  Yb9  1  0.832638  0.668734  0.617082  1
  Yb  Yb10  1  0.660291  0.822912  0.109223  1
  Yb  Yb11  1  0.167362  0.331266  0.617082  1
  Yb  Yb12  1  0.339721  0.822924  0.890855  1
  Yb  Yb13  1  0.832620  0.331263  0.382962  1
  Yb  Yb14  1  0.660279  0.177076  0.890855  1
  Yb  Yb15  1  0.167380  0.668737  0.382962  1
  Yb  Yb16  1  0.177088  0.339709  0.890777  1
  Yb  Yb17  1  0.668734  0.832638  0.382918  1
  Yb  Yb18  1  0.822912  0.660291  0.890777  1
  Yb  Yb19  1  0.331266  0.167362  0.382918  1
  Rh  Rh20  1  0.632520  0.128104  0.248527  1
  Rh  Rh21  1  0.128104  0.632520  0.751473  1
  Rh  Rh22  1  0.871896  0.367480  0.751473  1
  Rh  Rh23  1  0.367480  0.871896  0.248527  1
  Rh  Rh24  1  0.367336  0.128279  0.751576  1
  Rh  Rh25  1  0.871721  0.632664  0.248424  1
  Rh  Rh26  1  0.128279  0.367336  0.248424  1
  Rh  Rh27  1  0.632664  0.871721  0.751576  1
  Rh  Rh28  1  0.500000  0.500000  0.000000  1
  Au  Au29  1  0.000000  0.000000  0.500000  1
  Au  Au30  1  0.000000  0.000000  0.000000  1
  Au  Au31  1  0.500000  0.500000  0.500000  1
