# generated using pymatgen
data_Dy5Tm7(TcOs)2
_symmetry_space_group_name_H-M   'P 1'
_cell_length_a   6.24789350
_cell_length_b   7.38701351
_cell_length_c   8.97695906
_cell_angle_alpha   89.96982223
_cell_angle_beta   89.88232479
_cell_angle_gamma   89.97007209
_symmetry_Int_Tables_number   1
_chemical_formula_structural   Dy5Tm7(TcOs)2
_chemical_formula_sum   'Dy5 Tm7 Tc2 Os2'
_cell_volume   414.31506043
_cell_formula_units_Z   1
loop_
 _symmetry_equiv_pos_site_id
 _symmetry_equiv_pos_as_xyz
  1  'x, y, z'
loop_
 _atom_site_type_symbol
 _atom_site_label
 _atom_site_symmetry_multiplicity
 _atom_site_fract_x
 _atom_site_fract_y
 _atom_site_fract_z
 _atom_site_occupancy
  Dy  Dy0  1  0.161826  0.175563  0.062554  1
  Dy  Dy1  1  0.876815  0.539840  0.250495  1
  Dy  Dy2  1  0.623037  0.038976  0.250672  1
  Dy  Dy3  1  0.128450  0.459790  0.749466  1
  Dy  Dy4  1  0.371297  0.959109  0.749380  1
  Tm  Tm5  1  0.339123  0.675077  0.062466  1
  Tm  Tm6  1  0.161537  0.175000  0.438427  1
  Tm  Tm7  1  0.663369  0.324729  0.562998  1
  Tm  Tm8  1  0.835958  0.824236  0.936489  1
  Tm  Tm9  1  0.663716  0.324902  0.936533  1
  Tm  Tm10  1  0.836629  0.824745  0.562983  1
  Tm  Tm11  1  0.338808  0.675229  0.437601  1
  Tc  Tc12  1  0.039016  0.883475  0.250396  1
  Tc  Tc13  1  0.461316  0.384622  0.250806  1
  Os  Os14  1  0.956303  0.117334  0.748533  1
  Os  Os15  1  0.542801  0.617372  0.750200  1
