# generated using pymatgen
data_CeNd6Dy9(CdRu)4
_symmetry_space_group_name_H-M   'P 1'
_cell_length_a   9.78416101
_cell_length_b   9.78416046
_cell_length_c   9.78416037
_cell_angle_alpha   59.23494264
_cell_angle_beta   59.23494632
_cell_angle_gamma   59.23494050
_symmetry_Int_Tables_number   1
_chemical_formula_structural   CeNd6Dy9(CdRu)4
_chemical_formula_sum   'Ce1 Nd6 Dy9 Cd4 Ru4'
_cell_volume   650.75943651
_cell_formula_units_Z   1
loop_
 _symmetry_equiv_pos_site_id
 _symmetry_equiv_pos_as_xyz
  1  'x, y, z'
loop_
 _atom_site_type_symbol
 _atom_site_label
 _atom_site_symmetry_multiplicity
 _atom_site_fract_x
 _atom_site_fract_y
 _atom_site_fract_z
 _atom_site_occupancy
  Ce  Ce0  1  0.339998  0.339998  0.339998  1
  Nd  Nd1  1  0.559471  0.559471  0.940783  1
  Nd  Nd2  1  0.941529  0.557729  0.941529  1
  Nd  Nd3  1  0.557729  0.941529  0.941529  1
  Nd  Nd4  1  0.941529  0.941529  0.557729  1
  Nd  Nd5  1  0.559471  0.940783  0.559471  1
  Nd  Nd6  1  0.940783  0.559471  0.559471  1
  Dy  Dy7  1  0.187708  0.187708  0.813634  1
  Dy  Dy8  1  0.813171  0.187687  0.813171  1
  Dy  Dy9  1  0.187686  0.813172  0.813171  1
  Dy  Dy10  1  0.813171  0.813172  0.187687  1
  Dy  Dy11  1  0.187707  0.813634  0.187707  1
  Dy  Dy12  1  0.813634  0.187708  0.187708  1
  Dy  Dy13  1  0.345366  0.345366  0.960272  1
  Dy  Dy14  1  0.345366  0.960272  0.345366  1
  Dy  Dy15  1  0.960272  0.345366  0.345366  1
  Cd  Cd16  1  0.578833  0.578833  0.262050  1
  Cd  Cd17  1  0.578833  0.262050  0.578833  1
  Cd  Cd18  1  0.262050  0.578833  0.578833  1
  Cd  Cd19  1  0.578902  0.578902  0.578902  1
  Ru  Ru20  1  0.145866  0.145866  0.575806  1
  Ru  Ru21  1  0.145866  0.575806  0.145866  1
  Ru  Ru22  1  0.575806  0.145866  0.145866  1
  Ru  Ru23  1  0.139250  0.139250  0.139250  1
