# generated using pymatgen
data_DyHo19(IrPt5)2
_symmetry_space_group_name_H-M   'P 1'
_cell_length_a   11.00413101
_cell_length_b   11.00507901
_cell_length_c   6.39361300
_cell_angle_alpha   90.00123782
_cell_angle_beta   90.00308253
_cell_angle_gamma   90.00484205
_symmetry_Int_Tables_number   1
_chemical_formula_structural   DyHo19(IrPt5)2
_chemical_formula_sum   'Dy1 Ho19 Ir2 Pt10'
_cell_volume   774.27504205
_cell_formula_units_Z   1
loop_
 _symmetry_equiv_pos_site_id
 _symmetry_equiv_pos_as_xyz
  1  'x, y, z'
loop_
 _atom_site_type_symbol
 _atom_site_label
 _atom_site_symmetry_multiplicity
 _atom_site_fract_x
 _atom_site_fract_y
 _atom_site_fract_z
 _atom_site_occupancy
  Dy  Dy0  1  0.087866  0.294853  0.123321  1
  Ho  Ho1  1  0.292621  0.088457  0.377447  1
  Ho  Ho2  1  0.292601  0.911485  0.877417  1
  Ho  Ho3  1  0.707399  0.088508  0.877391  1
  Ho  Ho4  1  0.707396  0.911492  0.377415  1
  Ho  Ho5  1  0.588520  0.792592  0.877407  1
  Ho  Ho6  1  0.588506  0.207417  0.377401  1
  Ho  Ho7  1  0.411488  0.792599  0.377427  1
  Ho  Ho8  1  0.411508  0.207411  0.877383  1
  Ho  Ho9  1  0.205022  0.412247  0.623260  1
  Ho  Ho10  1  0.204990  0.587879  0.123227  1
  Ho  Ho11  1  0.794934  0.412236  0.123243  1
  Ho  Ho12  1  0.795014  0.587793  0.623254  1
  Ho  Ho13  1  0.912188  0.704991  0.123226  1
  Ho  Ho14  1  0.912155  0.295016  0.623279  1
  Ho  Ho15  1  0.087801  0.704969  0.623222  1
  Ho  Ho16  1  0.999993  0.999983  0.500562  1
  Ho  Ho17  1  0.999966  0.999930  0.000481  1
  Ho  Ho18  1  0.499995  0.500000  0.000507  1
  Ho  Ho19  1  0.500006  0.499993  0.500524  1
  Ir  Ir20  1  0.999940  0.500133  0.877732  1
  Ir  Ir21  1  0.999960  0.500107  0.377971  1
  Pt  Pt22  1  0.845830  0.152904  0.249854  1
  Pt  Pt23  1  0.845909  0.847058  0.749805  1
  Pt  Pt24  1  0.154149  0.152848  0.749552  1
  Pt  Pt25  1  0.154088  0.847069  0.249812  1
  Pt  Pt26  1  0.652946  0.345913  0.749800  1
  Pt  Pt27  1  0.652950  0.654083  0.249794  1
  Pt  Pt28  1  0.347193  0.345957  0.249864  1
  Pt  Pt29  1  0.347055  0.654093  0.749806  1
  Pt  Pt30  1  0.500006  0.999992  0.119311  1
  Pt  Pt31  1  0.500006  0.999994  0.619308  1
