# generated using pymatgen
data_Ho5CrReO12
_symmetry_space_group_name_H-M   'P 1'
_cell_length_a   6.80883533
_cell_length_b   6.80883582
_cell_length_c   7.33217135
_cell_angle_alpha   74.20312370
_cell_angle_beta   74.20312325
_cell_angle_gamma   50.57942429
_symmetry_Int_Tables_number   1
_chemical_formula_structural   Ho5CrReO12
_chemical_formula_sum   'Ho5 Cr1 Re1 O12'
_cell_volume   250.40621325
_cell_formula_units_Z   1
loop_
 _symmetry_equiv_pos_site_id
 _symmetry_equiv_pos_as_xyz
  1  'x, y, z'
loop_
 _atom_site_type_symbol
 _atom_site_label
 _atom_site_symmetry_multiplicity
 _atom_site_fract_x
 _atom_site_fract_y
 _atom_site_fract_z
 _atom_site_occupancy
  Ho  Ho0  1  0.309392  0.312616  0.826648  1
  Ho  Ho1  1  0.687384  0.690608  0.173352  1
  Ho  Ho2  1  0.991077  0.008923  0.500000  1
  Ho  Ho3  1  0.679920  0.715226  0.640144  1
  Ho  Ho4  1  0.284774  0.320080  0.359856  1
  Cr  Cr5  1  0.251934  0.748066  0.000000  1
  Re  Re6  1  0.775029  0.224971  0.000000  1
  O  O7  1  0.513018  0.487558  0.184907  1
  O  O8  1  0.512442  0.486982  0.815093  1
  O  O9  1  0.003277  0.999584  0.189357  1
  O  O10  1  0.000416  0.996723  0.810643  1
  O  O11  1  0.903288  0.414067  0.915771  1
  O  O12  1  0.585933  0.096712  0.084229  1
  O  O13  1  0.095616  0.563661  0.084030  1
  O  O14  1  0.592142  0.107523  0.568436  1
  O  O15  1  0.892477  0.407858  0.431564  1
  O  O16  1  0.398779  0.913237  0.421732  1
  O  O17  1  0.086763  0.601221  0.578268  1
  O  O18  1  0.436339  0.904384  0.915970  1
