# generated using pymatgen
data_Eu4Ga10PtAu5
_symmetry_space_group_name_H-M   'P 1'
_cell_length_a   8.74112845
_cell_length_b   8.72386756
_cell_length_c   8.72386500
_cell_angle_alpha   137.90587843
_cell_angle_beta   105.24935027
_cell_angle_gamma   89.68061854
_symmetry_Int_Tables_number   1
_chemical_formula_structural   Eu4Ga10PtAu5
_chemical_formula_sum   'Eu4 Ga10 Pt1 Au5'
_cell_volume   411.34619505
_cell_formula_units_Z   1
loop_
 _symmetry_equiv_pos_site_id
 _symmetry_equiv_pos_as_xyz
  1  'x, y, z'
loop_
 _atom_site_type_symbol
 _atom_site_label
 _atom_site_symmetry_multiplicity
 _atom_site_fract_x
 _atom_site_fract_y
 _atom_site_fract_z
 _atom_site_occupancy
  Eu  Eu0  1  0.865005  0.628863  0.236141  1
  Eu  Eu1  1  0.133178  0.370757  0.762423  1
  Eu  Eu2  1  0.394891  0.129207  0.265684  1
  Eu  Eu3  1  0.605928  0.870829  0.735098  1
  Ga  Ga4  1  0.499043  0.746891  0.239652  1
  Ga  Ga5  1  0.499043  0.259391  0.752152  1
  Ga  Ga6  1  0.227654  0.976726  0.750251  1
  Ga  Ga7  1  0.766280  0.524436  0.751913  1
  Ga  Ga8  1  0.766280  0.014367  0.241845  1
  Ga  Ga9  1  0.227654  0.477404  0.250929  1
  Ga  Ga10  1  0.031916  0.884193  0.147723  1
  Ga  Ga11  1  0.967287  0.114671  0.852615  1
  Ga  Ga12  1  0.737756  0.384926  0.352830  1
  Ga  Ga13  1  0.271405  0.616068  0.655336  1
  Pt  Pt14  1  0.521497  0.635896  0.885600  1
  Au  Au15  1  0.001908  0.748014  0.749240  1
  Au  Au16  1  0.001908  0.252668  0.253894  1
  Au  Au17  1  0.249770  0.864743  0.385029  1
  Au  Au18  1  0.751023  0.135191  0.615830  1
  Au  Au19  1  0.480574  0.364761  0.115812  1
