# generated using pymatgen
data_Be8Mo2OsW
_symmetry_space_group_name_H-M   'P 1'
_cell_length_a   4.41677600
_cell_length_b   4.41677718
_cell_length_c   7.26962900
_cell_angle_alpha   90.00000000
_cell_angle_beta   90.00000000
_cell_angle_gamma   120.00000617
_symmetry_Int_Tables_number   1
_chemical_formula_structural   Be8Mo2OsW
_chemical_formula_sum   'Be8 Mo2 Os1 W1'
_cell_volume   122.81565152
_cell_formula_units_Z   1
loop_
 _symmetry_equiv_pos_site_id
 _symmetry_equiv_pos_as_xyz
  1  'x, y, z'
loop_
 _atom_site_type_symbol
 _atom_site_label
 _atom_site_symmetry_multiplicity
 _atom_site_fract_x
 _atom_site_fract_y
 _atom_site_fract_z
 _atom_site_occupancy
  Be  Be0  1  0.000000  0.000000  0.499909  1
  Be  Be1  1  0.000000  0.000000  0.004068  1
  Be  Be2  1  0.830605  0.169395  0.251726  1
  Be  Be3  1  0.830605  0.661209  0.251726  1
  Be  Be4  1  0.338791  0.169395  0.251726  1
  Be  Be5  1  0.169178  0.830822  0.747928  1
  Be  Be6  1  0.169178  0.338356  0.747928  1
  Be  Be7  1  0.661644  0.830822  0.747928  1
  Mo  Mo8  1  0.666667  0.333333  0.937285  1
  Mo  Mo9  1  0.333333  0.666667  0.061187  1
  Os  Os10  1  0.333333  0.666667  0.438512  1
  W  W11  1  0.666667  0.333333  0.560078  1
