# generated using pymatgen
data_Nd4As3Cl
_symmetry_space_group_name_H-M   'P 1'
_cell_length_a   8.53510515
_cell_length_b   4.25269700
_cell_length_c   5.96800500
_cell_angle_alpha   90.00000000
_cell_angle_beta   89.99133305
_cell_angle_gamma   90.00000000
_symmetry_Int_Tables_number   1
_chemical_formula_structural   Nd4As3Cl
_chemical_formula_sum   'Nd4 As3 Cl1'
_cell_volume   216.62196469
_cell_formula_units_Z   1
loop_
 _symmetry_equiv_pos_site_id
 _symmetry_equiv_pos_as_xyz
  1  'x, y, z'
loop_
 _atom_site_type_symbol
 _atom_site_label
 _atom_site_symmetry_multiplicity
 _atom_site_fract_x
 _atom_site_fract_y
 _atom_site_fract_z
 _atom_site_occupancy
  Nd  Nd0  1  0.106217  0.749999  0.249947  1
  Nd  Nd1  1  0.643576  0.749999  0.250141  1
  Nd  Nd2  1  0.375119  0.249999  0.749864  1
  Nd  Nd3  1  0.875085  0.249999  0.750093  1
  As  As4  1  0.874865  0.249999  0.250095  1
  As  As5  1  0.130443  0.749999  0.749902  1
  As  As6  1  0.619802  0.749999  0.750135  1
  Cl  Cl7  1  0.374894  0.249999  0.249826  1
