# generated using pymatgen
data_Sm2Ho8InHg7Pd4
_symmetry_space_group_name_H-M   'P 1'
_cell_length_a   3.63841100
_cell_length_b   7.95933348
_cell_length_c   18.33097068
_cell_angle_alpha   89.71319926
_cell_angle_beta   90.00000000
_cell_angle_gamma   90.00000000
_symmetry_Int_Tables_number   1
_chemical_formula_structural   Sm2Ho8InHg7Pd4
_chemical_formula_sum   'Sm2 Ho8 In1 Hg7 Pd4'
_cell_volume   530.84591375
_cell_formula_units_Z   1
loop_
 _symmetry_equiv_pos_site_id
 _symmetry_equiv_pos_as_xyz
  1  'x, y, z'
loop_
 _atom_site_type_symbol
 _atom_site_label
 _atom_site_symmetry_multiplicity
 _atom_site_fract_x
 _atom_site_fract_y
 _atom_site_fract_z
 _atom_site_occupancy
  Sm  Sm0  1  0.000000  0.497999  0.500089  1
  Sm  Sm1  1  0.000000  0.002033  0.001003  1
  Ho  Ho2  1  0.000000  0.735494  0.284121  1
  Ho  Ho3  1  0.000000  0.266325  0.714105  1
  Ho  Ho4  1  0.000000  0.756202  0.782041  1
  Ho  Ho5  1  0.000000  0.236777  0.216587  1
  Ho  Ho6  1  0.000000  0.614533  0.085422  1
  Ho  Ho7  1  0.000000  0.390134  0.916855  1
  Ho  Ho8  1  0.000000  0.887431  0.584848  1
  Ho  Ho9  1  0.000000  0.112922  0.414951  1
  In  In10  1  0.500000  0.081220  0.848506  1
  Hg  Hg11  1  0.500000  0.713643  0.932634  1
  Hg  Hg12  1  0.500000  0.293426  0.066845  1
  Hg  Hg13  1  0.500000  0.791101  0.434306  1
  Hg  Hg14  1  0.500000  0.207097  0.566381  1
  Hg  Hg15  1  0.500000  0.583925  0.648272  1
  Hg  Hg16  1  0.500000  0.418126  0.351351  1
  Hg  Hg17  1  0.500000  0.918104  0.149392  1
  Pd  Pd18  1  0.500000  0.525322  0.196702  1
  Pd  Pd19  1  0.500000  0.468670  0.804254  1
  Pd  Pd20  1  0.500000  0.975027  0.697379  1
  Pd  Pd21  1  0.500000  0.024488  0.303956  1
