# generated using pymatgen
data_Cs3Rb9(GaTe3)4
_symmetry_space_group_name_H-M   'P 1'
_cell_length_a   14.89449799
_cell_length_b   9.10744422
_cell_length_c   11.65559879
_cell_angle_alpha   53.11278627
_cell_angle_beta   89.78443583
_cell_angle_gamma   89.67704479
_symmetry_Int_Tables_number   1
_chemical_formula_structural   Cs3Rb9(GaTe3)4
_chemical_formula_sum   'Cs3 Rb9 Ga4 Te12'
_cell_volume   1264.56613558
_cell_formula_units_Z   1
loop_
 _symmetry_equiv_pos_site_id
 _symmetry_equiv_pos_as_xyz
  1  'x, y, z'
loop_
 _atom_site_type_symbol
 _atom_site_label
 _atom_site_symmetry_multiplicity
 _atom_site_fract_x
 _atom_site_fract_y
 _atom_site_fract_z
 _atom_site_occupancy
  Cs  Cs0  1  0.310994  0.155121  0.066552  1
  Cs  Cs1  1  0.687368  0.846430  0.933419  1
  Cs  Cs2  1  0.813645  0.846915  0.434693  1
  Rb  Rb3  1  0.896598  0.317757  0.402535  1
  Rb  Rb4  1  0.610927  0.358684  0.475984  1
  Rb  Rb5  1  0.111399  0.640514  0.024892  1
  Rb  Rb6  1  0.387352  0.642419  0.524658  1
  Rb  Rb7  1  0.890009  0.358781  0.975274  1
  Rb  Rb8  1  0.606028  0.315619  0.903803  1
  Rb  Rb9  1  0.106223  0.682486  0.596999  1
  Rb  Rb10  1  0.393524  0.684940  0.095585  1
  Rb  Rb11  1  0.188891  0.150498  0.571749  1
  Ga  Ga12  1  0.067523  0.943197  0.158409  1
  Ga  Ga13  1  0.564323  0.052108  0.342430  1
  Ga  Ga14  1  0.432214  0.952898  0.656299  1
  Ga  Ga15  1  0.935254  0.051760  0.841401  1
  Te  Te16  1  0.405443  0.180668  0.366696  1
  Te  Te17  1  0.907775  0.823797  0.131737  1
  Te  Te18  1  0.590482  0.822364  0.632906  1
  Te  Te19  1  0.095157  0.171543  0.866710  1
  Te  Te20  1  0.687354  0.314960  0.203299  1
  Te  Te21  1  0.188073  0.673240  0.301872  1
  Te  Te22  1  0.307418  0.694357  0.793067  1
  Te  Te23  1  0.812037  0.315512  0.703114  1
  Te  Te24  1  0.552706  0.864981  0.237074  1
  Te  Te25  1  0.056939  0.134179  0.261099  1
  Te  Te26  1  0.445629  0.137727  0.763280  1
  Te  Te27  1  0.948716  0.866541  0.734463  1
