# generated using pymatgen
data_Cs14TlV2(InAs2)5
_symmetry_space_group_name_H-M   'P 1'
_cell_length_a   8.99348298
_cell_length_b   9.79201628
_cell_length_c   15.06292841
_cell_angle_alpha   85.34687698
_cell_angle_beta   84.69647200
_cell_angle_gamma   84.76156741
_symmetry_Int_Tables_number   1
_chemical_formula_structural   Cs14TlV2(InAs2)5
_chemical_formula_sum   'Cs14 Tl1 V2 In5 As10'
_cell_volume   1311.77283798
_cell_formula_units_Z   1
loop_
 _symmetry_equiv_pos_site_id
 _symmetry_equiv_pos_as_xyz
  1  'x, y, z'
loop_
 _atom_site_type_symbol
 _atom_site_label
 _atom_site_symmetry_multiplicity
 _atom_site_fract_x
 _atom_site_fract_y
 _atom_site_fract_z
 _atom_site_occupancy
  Cs  Cs0  1  0.836158  0.367212  0.644446  1
  Cs  Cs1  1  0.813883  0.813120  0.132159  1
  Cs  Cs2  1  0.241665  0.007656  0.469742  1
  Cs  Cs3  1  0.271163  0.256435  0.251738  1
  Cs  Cs4  1  0.740848  0.500578  0.975825  1
  Cs  Cs5  1  0.259787  0.497329  0.023380  1
  Cs  Cs6  1  0.682161  0.083723  0.884928  1
  Cs  Cs7  1  0.758413  0.992412  0.530423  1
  Cs  Cs8  1  0.729511  0.743060  0.746715  1
  Cs  Cs9  1  0.324073  0.341729  0.603168  1
  Cs  Cs10  1  0.164936  0.632107  0.355626  1
  Cs  Cs11  1  0.185576  0.187398  0.867977  1
  Cs  Cs12  1  0.317716  0.918175  0.113935  1
  Cs  Cs13  1  0.675372  0.657182  0.397554  1
  Tl  Tl14  1  0.056990  0.813323  0.871875  1
  V  V15  1  0.353419  0.606232  0.773982  1
  V  V16  1  0.646292  0.393466  0.226370  1
  In  In17  1  0.936034  0.189053  0.134295  1
  In  In18  1  0.360260  0.943253  0.706356  1
  In  In19  1  0.100422  0.723234  0.628427  1
  In  In20  1  0.900419  0.278000  0.371641  1
  In  In21  1  0.638728  0.056176  0.294086  1
  As  As22  1  0.904519  0.450188  0.210772  1
  As  As23  1  0.622612  0.210831  0.127258  1
  As  As24  1  0.096358  0.547365  0.787315  1
  As  As25  1  0.585142  0.303642  0.380960  1
  As  As26  1  0.415298  0.695893  0.619203  1
  As  As27  1  0.036160  0.997481  0.699534  1
  As  As28  1  0.507497  0.411119  0.807545  1
  As  As29  1  0.492863  0.588904  0.192382  1
  As  As30  1  0.381481  0.788087  0.872699  1
  As  As31  1  0.964246  0.005637  0.297683  1
