# generated using pymatgen
data_CeNd3Ir4F28
_symmetry_space_group_name_H-M   'P 1'
_cell_length_a   5.68748805
_cell_length_b   9.21847492
_cell_length_c   12.30386300
_cell_angle_alpha   62.09566955
_cell_angle_beta   89.99214228
_cell_angle_gamma   90.00890242
_symmetry_Int_Tables_number   1
_chemical_formula_structural   CeNd3Ir4F28
_chemical_formula_sum   'Ce1 Nd3 Ir4 F28'
_cell_volume   570.08651987
_cell_formula_units_Z   1
loop_
 _symmetry_equiv_pos_site_id
 _symmetry_equiv_pos_as_xyz
  1  'x, y, z'
loop_
 _atom_site_type_symbol
 _atom_site_label
 _atom_site_symmetry_multiplicity
 _atom_site_fract_x
 _atom_site_fract_y
 _atom_site_fract_z
 _atom_site_occupancy
  Ce  Ce0  1  0.740563  0.807761  0.265269  1
  Nd  Nd1  1  0.759308  0.810548  0.765035  1
  Nd  Nd2  1  0.259107  0.189169  0.735051  1
  Nd  Nd3  1  0.243057  0.191518  0.234877  1
  Ir  Ir4  1  0.755343  0.271798  0.958761  1
  Ir  Ir5  1  0.255496  0.727470  0.540488  1
  Ir  Ir6  1  0.243378  0.727364  0.044218  1
  Ir  Ir7  1  0.744345  0.275433  0.456340  1
  F  F8  1  0.441102  0.707667  0.920221  1
  F  F9  1  0.940127  0.294064  0.581313  1
  F  F10  1  0.558775  0.288940  0.084966  1
  F  F11  1  0.055696  0.709457  0.415080  1
  F  F12  1  0.455686  0.285485  0.542199  1
  F  F13  1  0.956572  0.716077  0.957600  1
  F  F14  1  0.545797  0.719442  0.452184  1
  F  F15  1  0.043817  0.280098  0.046128  1
  F  F16  1  0.762127  0.511189  0.862626  1
  F  F17  1  0.263471  0.487820  0.636791  1
  F  F18  1  0.236291  0.486542  0.140874  1
  F  F19  1  0.737714  0.517373  0.359691  1
  F  F20  1  0.759642  0.031052  0.052773  1
  F  F21  1  0.257417  0.968036  0.446405  1
  F  F22  1  0.240378  0.967259  0.950939  1
  F  F23  1  0.740281  0.035780  0.548754  1
  F  F24  1  0.973420  0.731223  0.632551  1
  F  F25  1  0.472475  0.268403  0.867704  1
  F  F26  1  0.026632  0.269246  0.364562  1
  F  F27  1  0.526269  0.733239  0.137477  1
  F  F28  1  0.046977  0.746937  0.170739  1
  F  F29  1  0.552944  0.257739  0.328845  1
  F  F30  1  0.948793  0.256022  0.831632  1
  F  F31  1  0.449457  0.744322  0.667062  1
  F  F32  1  0.419924  0.964211  0.232124  1
  F  F33  1  0.910207  0.021581  0.268675  1
  F  F34  1  0.588908  0.030647  0.769223  1
  F  F35  1  0.088506  0.969086  0.730821  1
