# generated using pymatgen
data_Dy4Y8Co4SnRh
_symmetry_space_group_name_H-M   'P 1'
_cell_length_a   8.32104696
_cell_length_b   8.32104723
_cell_length_c   8.32104739
_cell_angle_alpha   110.80069576
_cell_angle_beta   110.64341667
_cell_angle_gamma   106.99755801
_symmetry_Int_Tables_number   1
_chemical_formula_structural   Dy4Y8Co4SnRh
_chemical_formula_sum   'Dy4 Y8 Co4 Sn1 Rh1'
_cell_volume   442.90125071
_cell_formula_units_Z   1
loop_
 _symmetry_equiv_pos_site_id
 _symmetry_equiv_pos_as_xyz
  1  'x, y, z'
loop_
 _atom_site_type_symbol
 _atom_site_label
 _atom_site_symmetry_multiplicity
 _atom_site_fract_x
 _atom_site_fract_y
 _atom_site_fract_z
 _atom_site_occupancy
  Dy  Dy0  1  0.406269  0.210645  0.195624  1
  Dy  Dy1  1  0.593731  0.789355  0.804376  1
  Dy  Dy2  1  0.015022  0.210645  0.804376  1
  Dy  Dy3  1  0.984978  0.789355  0.195624  1
  Y  Y4  1  0.186837  0.291740  0.478577  1
  Y  Y5  1  0.813163  0.708260  0.521423  1
  Y  Y6  1  0.186837  0.708260  0.895097  1
  Y  Y7  1  0.813163  0.291740  0.104903  1
  Y  Y8  1  0.313169  0.618026  0.304857  1
  Y  Y9  1  0.686831  0.381974  0.695143  1
  Y  Y10  1  0.313169  0.008312  0.695143  1
  Y  Y11  1  0.686831  0.991688  0.304857  1
  Co  Co12  1  0.378801  0.000000  0.378801  1
  Co  Co13  1  0.621199  0.000000  0.621199  1
  Co  Co14  1  0.111091  0.611091  0.500000  1
  Co  Co15  1  0.888909  0.388909  0.500000  1
  Sn  Sn16  1  0.500000  0.500000  0.000000  1
  Rh  Rh17  1  0.000000  0.000000  0.000000  1
