# generated using pymatgen
data_La2Yb(ZnPt)4
_symmetry_space_group_name_H-M   'P 1'
_cell_length_a   8.30712778
_cell_length_b   8.30712734
_cell_length_c   8.30712752
_cell_angle_alpha   150.89291089
_cell_angle_beta   126.54688763
_cell_angle_gamma   62.01811806
_symmetry_Int_Tables_number   1
_chemical_formula_structural   La2Yb(ZnPt)4
_chemical_formula_sum   'La2 Yb1 Zn4 Pt4'
_cell_volume   222.10467714
_cell_formula_units_Z   1
loop_
 _symmetry_equiv_pos_site_id
 _symmetry_equiv_pos_as_xyz
  1  'x, y, z'
loop_
 _atom_site_type_symbol
 _atom_site_label
 _atom_site_symmetry_multiplicity
 _atom_site_fract_x
 _atom_site_fract_y
 _atom_site_fract_z
 _atom_site_occupancy
  La  La0  1  0.500787  0.000787  0.500000  1
  La  La1  1  0.125400  0.125400  0.000000  1
  Yb  Yb2  1  0.870896  0.870896  0.000000  1
  Zn  Zn3  1  0.484864  0.675729  0.809135  1
  Zn  Zn4  1  0.866593  0.675729  0.190865  1
  Zn  Zn5  1  0.125795  0.325586  0.800209  1
  Zn  Zn6  1  0.525377  0.325586  0.199791  1
  Pt  Pt7  1  0.281968  0.781968  0.500000  1
  Pt  Pt8  1  0.719570  0.219570  0.500000  1
  Pt  Pt9  1  0.803597  0.499375  0.304222  1
  Pt  Pt10  1  0.195153  0.499375  0.695778  1
