# generated using pymatgen
data_Nd6Cr2Co(Ni5P4)3
_symmetry_space_group_name_H-M   'P 1'
_cell_length_a   3.84360000
_cell_length_b   10.65932700
_cell_length_c   12.47369600
_cell_angle_alpha   90.00000000
_cell_angle_beta   90.00000000
_cell_angle_gamma   90.00000000
_symmetry_Int_Tables_number   1
_chemical_formula_structural   Nd6Cr2Co(Ni5P4)3
_chemical_formula_sum   'Nd6 Cr2 Co1 Ni15 P12'
_cell_volume   511.04968586
_cell_formula_units_Z   1
loop_
 _symmetry_equiv_pos_site_id
 _symmetry_equiv_pos_as_xyz
  1  'x, y, z'
loop_
 _atom_site_type_symbol
 _atom_site_label
 _atom_site_symmetry_multiplicity
 _atom_site_fract_x
 _atom_site_fract_y
 _atom_site_fract_z
 _atom_site_occupancy
  Nd  Nd0  1  0.000000  0.500000  0.519045  1
  Nd  Nd1  1  0.500000  0.000000  0.481049  1
  Nd  Nd2  1  0.500000  0.815208  0.205236  1
  Nd  Nd3  1  0.500000  0.184792  0.205236  1
  Nd  Nd4  1  0.000000  0.685140  0.794267  1
  Nd  Nd5  1  0.000000  0.314860  0.794267  1
  Cr  Cr6  1  0.500000  0.500000  0.151217  1
  Cr  Cr7  1  0.000000  0.000000  0.851036  1
  Co  Co8  1  0.500000  0.000000  0.016808  1
  Ni  Ni9  1  0.500000  0.500000  0.699884  1
  Ni  Ni10  1  0.000000  0.000000  0.298863  1
  Ni  Ni11  1  0.000000  0.500000  0.981858  1
  Ni  Ni12  1  0.500000  0.332112  0.991880  1
  Ni  Ni13  1  0.500000  0.667888  0.991880  1
  Ni  Ni14  1  0.000000  0.166860  0.008348  1
  Ni  Ni15  1  0.000000  0.833140  0.008348  1
  Ni  Ni16  1  0.500000  0.301564  0.424738  1
  Ni  Ni17  1  0.500000  0.698436  0.424738  1
  Ni  Ni18  1  0.000000  0.197754  0.574833  1
  Ni  Ni19  1  0.000000  0.802246  0.574833  1
  Ni  Ni20  1  0.500000  0.882940  0.713832  1
  Ni  Ni21  1  0.500000  0.117060  0.713832  1
  Ni  Ni22  1  0.000000  0.617464  0.286981  1
  Ni  Ni23  1  0.000000  0.382536  0.286981  1
  P  P24  1  0.500000  0.500000  0.879669  1
  P  P25  1  0.000000  0.000000  0.117835  1
  P  P26  1  0.500000  0.500000  0.339911  1
  P  P27  1  0.000000  0.000000  0.661182  1
  P  P28  1  0.500000  0.309308  0.611800  1
  P  P29  1  0.500000  0.690692  0.611800  1
  P  P30  1  0.000000  0.190541  0.388195  1
  P  P31  1  0.000000  0.809459  0.388195  1
  P  P32  1  0.500000  0.850242  0.896919  1
  P  P33  1  0.500000  0.149758  0.896919  1
  P  P34  1  0.000000  0.649582  0.103791  1
  P  P35  1  0.000000  0.350418  0.103791  1
