# generated using pymatgen
data_Ce4MnSi2Os
_symmetry_space_group_name_H-M   'P 1'
_cell_length_a   7.61943000
_cell_length_b   7.61942955
_cell_length_c   9.39950300
_cell_angle_alpha   90.00000000
_cell_angle_beta   90.00000000
_cell_angle_gamma   119.99999327
_symmetry_Int_Tables_number   1
_chemical_formula_structural   Ce4MnSi2Os
_chemical_formula_sum   'Ce12 Mn3 Si6 Os3'
_cell_volume   472.58560993
_cell_formula_units_Z   3
loop_
 _symmetry_equiv_pos_site_id
 _symmetry_equiv_pos_as_xyz
  1  'x, y, z'
loop_
 _atom_site_type_symbol
 _atom_site_label
 _atom_site_symmetry_multiplicity
 _atom_site_fract_x
 _atom_site_fract_y
 _atom_site_fract_z
 _atom_site_occupancy
  Ce  Ce0  1  0.000000  0.570438  0.493976  1
  Ce  Ce1  1  0.570438  0.000000  0.493976  1
  Ce  Ce2  1  0.429562  0.429562  0.493976  1
  Ce  Ce3  1  0.000000  0.400705  0.011665  1
  Ce  Ce4  1  0.400705  0.000000  0.011665  1
  Ce  Ce5  1  0.599295  0.599295  0.011665  1
  Ce  Ce6  1  0.000000  0.743557  0.178947  1
  Ce  Ce7  1  0.743557  0.000000  0.178947  1
  Ce  Ce8  1  0.256443  0.256443  0.178947  1
  Ce  Ce9  1  0.000000  0.265109  0.668390  1
  Ce  Ce10  1  0.265109  0.000000  0.668390  1
  Ce  Ce11  1  0.734891  0.734891  0.668390  1
  Mn  Mn12  1  0.000000  0.353361  0.339594  1
  Mn  Mn13  1  0.353361  0.000000  0.339594  1
  Mn  Mn14  1  0.646639  0.646639  0.339594  1
  Si  Si15  1  0.666667  0.333333  0.269291  1
  Si  Si16  1  0.333333  0.666667  0.269291  1
  Si  Si17  1  0.333333  0.666667  0.779130  1
  Si  Si18  1  0.666667  0.333333  0.779130  1
  Si  Si19  1  0.000000  0.000000  0.420962  1
  Si  Si20  1  0.000000  0.000000  0.916791  1
  Os  Os21  1  0.000000  0.661940  0.838979  1
  Os  Os22  1  0.661940  0.000000  0.838979  1
  Os  Os23  1  0.338060  0.338060  0.838979  1
