# generated using pymatgen
data_Ca7La8Pr5Pb16
_symmetry_space_group_name_H-M   'P 1'
_cell_length_a   8.21562939
_cell_length_b   8.65679599
_cell_length_c   16.35257100
_cell_angle_alpha   90.00470582
_cell_angle_beta   90.03331479
_cell_angle_gamma   90.04735989
_symmetry_Int_Tables_number   1
_chemical_formula_structural   Ca7La8Pr5Pb16
_chemical_formula_sum   'Ca7 La8 Pr5 Pb16'
_cell_volume   1163.01105428
_cell_formula_units_Z   1
loop_
 _symmetry_equiv_pos_site_id
 _symmetry_equiv_pos_as_xyz
  1  'x, y, z'
loop_
 _atom_site_type_symbol
 _atom_site_label
 _atom_site_symmetry_multiplicity
 _atom_site_fract_x
 _atom_site_fract_y
 _atom_site_fract_z
 _atom_site_occupancy
  Ca  Ca0  1  0.834028  0.665378  0.122755  1
  Ca  Ca1  1  0.665212  0.165979  0.877521  1
  Ca  Ca2  1  0.165115  0.333777  0.622542  1
  Ca  Ca3  1  0.833027  0.499086  0.749992  1
  Ca  Ca4  1  0.332590  0.000961  0.750030  1
  Ca  Ca5  1  0.166944  0.498969  0.249379  1
  Ca  Ca6  1  0.668043  0.000148  0.249003  1
  La  La7  1  0.502179  0.685501  0.595319  1
  La  La8  1  0.001014  0.814681  0.905808  1
  La  La9  1  0.500332  0.315907  0.094461  1
  La  La10  1  0.997762  0.185203  0.405630  1
  La  La11  1  0.497356  0.315062  0.405325  1
  La  La12  1  0.995496  0.185765  0.094439  1
  La  La13  1  0.503365  0.686154  0.905081  1
  La  La14  1  0.003123  0.814838  0.594699  1
  Pr  Pr15  1  0.662068  0.169324  0.624249  1
  Pr  Pr16  1  0.161798  0.330928  0.875881  1
  Pr  Pr17  1  0.337344  0.831693  0.124005  1
  Pr  Pr18  1  0.836906  0.668323  0.376125  1
  Pr  Pr19  1  0.336872  0.831789  0.376917  1
  Pb  Pb20  1  0.682826  0.961978  0.460998  1
  Pb  Pb21  1  0.180530  0.537891  0.039267  1
  Pb  Pb22  1  0.319394  0.038373  0.960538  1
  Pb  Pb23  1  0.818787  0.461918  0.539586  1
  Pb  Pb24  1  0.317027  0.038054  0.540171  1
  Pb  Pb25  1  0.818887  0.462846  0.959430  1
  Pb  Pb26  1  0.680264  0.963134  0.040202  1
  Pb  Pb27  1  0.180973  0.536519  0.460171  1
  Pb  Pb28  1  0.466907  0.392038  0.750502  1
  Pb  Pb29  1  0.966386  0.108296  0.749547  1
  Pb  Pb30  1  0.532752  0.609402  0.249810  1
  Pb  Pb31  1  0.032213  0.892481  0.250347  1
  Pb  Pb32  1  0.701695  0.853259  0.749436  1
  Pb  Pb33  1  0.201791  0.646491  0.750315  1
  Pb  Pb34  1  0.299100  0.145742  0.249996  1
  Pb  Pb35  1  0.799895  0.352113  0.250521  1
