# generated using pymatgen
data_TbDy7Ti3Si16Tc9
_symmetry_space_group_name_H-M   'P 1'
_cell_length_a   6.79036587
_cell_length_b   6.78892562
_cell_length_c   12.98837375
_cell_angle_alpha   89.86887934
_cell_angle_beta   90.09420452
_cell_angle_gamma   89.22799560
_symmetry_Int_Tables_number   1
_chemical_formula_structural   TbDy7Ti3Si16Tc9
_chemical_formula_sum   'Tb1 Dy7 Ti3 Si16 Tc9'
_cell_volume   598.69803415
_cell_formula_units_Z   1
loop_
 _symmetry_equiv_pos_site_id
 _symmetry_equiv_pos_as_xyz
  1  'x, y, z'
loop_
 _atom_site_type_symbol
 _atom_site_label
 _atom_site_symmetry_multiplicity
 _atom_site_fract_x
 _atom_site_fract_y
 _atom_site_fract_z
 _atom_site_occupancy
  Tb  Tb0  1  0.997494  0.662767  0.028075  1
  Dy  Dy1  1  0.337202  0.002478  0.471381  1
  Dy  Dy2  1  0.509733  0.823720  0.716746  1
  Dy  Dy3  1  0.487966  0.179184  0.216763  1
  Dy  Dy4  1  0.823522  0.509517  0.283278  1
  Dy  Dy5  1  0.179092  0.487806  0.783249  1
  Dy  Dy6  1  0.661962  0.998470  0.971879  1
  Dy  Dy7  1  0.002417  0.337150  0.528744  1
  Ti  Ti8  1  0.155646  0.845036  0.249144  1
  Ti  Ti9  1  0.844937  0.155599  0.750947  1
  Ti  Ti10  1  0.666130  0.666079  0.500088  1
  Si  Si11  1  0.211294  0.118021  0.680773  1
  Si  Si12  1  0.398082  0.681289  0.940258  1
  Si  Si13  1  0.610991  0.308960  0.438230  1
  Si  Si14  1  0.680982  0.397179  0.059679  1
  Si  Si15  1  0.308951  0.611038  0.561831  1
  Si  Si16  1  0.786562  0.884004  0.182619  1
  Si  Si17  1  0.118025  0.211487  0.319293  1
  Si  Si18  1  0.883597  0.787262  0.817306  1
  Si  Si19  1  0.263183  0.985573  0.055406  1
  Si  Si20  1  0.525473  0.803670  0.314404  1
  Si  Si21  1  0.471881  0.197696  0.815308  1
  Si  Si22  1  0.803653  0.525325  0.685649  1
  Si  Si23  1  0.198081  0.471505  0.184779  1
  Si  Si24  1  0.731019  0.022523  0.557534  1
  Si  Si25  1  0.985264  0.262202  0.944462  1
  Si  Si26  1  0.022485  0.730986  0.442542  1
  Tc  Tc27  1  0.334193  0.333846  0.999958  1
  Tc  Tc28  1  0.182628  0.981652  0.864344  1
  Tc  Tc29  1  0.474266  0.693223  0.132182  1
  Tc  Tc30  1  0.523631  0.314888  0.632616  1
  Tc  Tc31  1  0.692886  0.473547  0.867635  1
  Tc  Tc32  1  0.314915  0.523569  0.367400  1
  Tc  Tc33  1  0.818207  0.012340  0.364000  1
  Tc  Tc34  1  0.981480  0.182207  0.135513  1
  Tc  Tc35  1  0.012171  0.818204  0.635986  1
