# generated using pymatgen
data_LaNd(ThSe3)2
_symmetry_space_group_name_H-M   'P 1'
_cell_length_a   11.47855900
_cell_length_b   4.15327200
_cell_length_c   11.20064700
_cell_angle_alpha   90.00000000
_cell_angle_beta   90.00000000
_cell_angle_gamma   90.00000000
_symmetry_Int_Tables_number   1
_chemical_formula_structural   LaNd(ThSe3)2
_chemical_formula_sum   'La2 Nd2 Th4 Se12'
_cell_volume   533.97491499
_cell_formula_units_Z   2
loop_
 _symmetry_equiv_pos_site_id
 _symmetry_equiv_pos_as_xyz
  1  'x, y, z'
loop_
 _atom_site_type_symbol
 _atom_site_label
 _atom_site_symmetry_multiplicity
 _atom_site_fract_x
 _atom_site_fract_y
 _atom_site_fract_z
 _atom_site_occupancy
  La  La0  1  0.304668  0.250000  0.505724  1
  La  La1  1  0.804668  0.250000  0.994276  1
  Nd  Nd2  1  0.483811  0.250000  0.186043  1
  Nd  Nd3  1  0.983811  0.250000  0.313957  1
  Th  Th4  1  0.516206  0.750000  0.814547  1
  Th  Th5  1  0.016206  0.750000  0.685453  1
  Th  Th6  1  0.692299  0.750000  0.498350  1
  Th  Th7  1  0.192299  0.750000  0.001650  1
  Se  Se8  1  0.551617  0.250000  0.627724  1
  Se  Se9  1  0.051617  0.250000  0.872276  1
  Se  Se10  1  0.455443  0.750000  0.376564  1
  Se  Se11  1  0.955443  0.750000  0.123436  1
  Se  Se12  1  0.620583  0.750000  0.055009  1
  Se  Se13  1  0.120583  0.750000  0.444991  1
  Se  Se14  1  0.377904  0.250000  0.943120  1
  Se  Se15  1  0.877904  0.250000  0.556880  1
  Se  Se16  1  0.723461  0.250000  0.303100  1
  Se  Se17  1  0.223461  0.250000  0.196900  1
  Se  Se18  1  0.274010  0.750000  0.711551  1
  Se  Se19  1  0.774010  0.750000  0.788449  1
