# generated using pymatgen
data_Rb3Zr6BBr15
_symmetry_space_group_name_H-M   'P 1'
_cell_length_a   13.29143044
_cell_length_b   13.29143016
_cell_length_c   14.42466600
_cell_angle_alpha   117.43349641
_cell_angle_beta   117.43350065
_cell_angle_gamma   59.99999977
_symmetry_Int_Tables_number   1
_chemical_formula_structural   Rb3Zr6BBr15
_chemical_formula_sum   'Rb6 Zr12 B2 Br30'
_cell_volume   1868.67876382
_cell_formula_units_Z   2
loop_
 _symmetry_equiv_pos_site_id
 _symmetry_equiv_pos_as_xyz
  1  'x, y, z'
loop_
 _atom_site_type_symbol
 _atom_site_label
 _atom_site_symmetry_multiplicity
 _atom_site_fract_x
 _atom_site_fract_y
 _atom_site_fract_z
 _atom_site_occupancy
  Rb  Rb0  1  0.500000  0.000000  0.000000  1
  Rb  Rb1  1  0.000000  0.500000  0.000000  1
  Rb  Rb2  1  0.500000  0.500000  0.000000  1
  Rb  Rb3  1  0.000000  0.000000  0.500000  1
  Rb  Rb4  1  0.500000  0.000000  0.500000  1
  Rb  Rb5  1  0.000000  0.500000  0.500000  1
  Zr  Zr6  1  0.175784  0.044808  0.110720  1
  Zr  Zr7  1  0.890127  0.175785  0.110720  1
  Zr  Zr8  1  0.044807  0.890128  0.110720  1
  Zr  Zr9  1  0.455192  0.324215  0.389280  1
  Zr  Zr10  1  0.609872  0.455193  0.389280  1
  Zr  Zr11  1  0.324215  0.609872  0.389280  1
  Zr  Zr12  1  0.675786  0.390128  0.610720  1
  Zr  Zr13  1  0.390129  0.544807  0.610720  1
  Zr  Zr14  1  0.544807  0.675785  0.610720  1
  Zr  Zr15  1  0.955194  0.109872  0.889280  1
  Zr  Zr16  1  0.109872  0.824216  0.889280  1
  Zr  Zr17  1  0.824215  0.955192  0.889280  1
  B  B18  1  0.000000  0.000000  0.000000  1
  B  B19  1  0.500000  0.500000  0.500000  1
  Br  Br20  1  0.824929  0.335597  0.003835  1
  Br  Br21  1  0.843309  0.824929  0.003835  1
  Br  Br22  1  0.335596  0.843310  0.003835  1
  Br  Br23  1  0.575877  0.244453  0.244865  1
  Br  Br24  1  0.244454  0.424533  0.244865  1
  Br  Br25  1  0.424534  0.575876  0.244865  1
  Br  Br26  1  0.405588  0.094412  0.250000  1
  Br  Br27  1  0.750000  0.405587  0.250000  1
  Br  Br28  1  0.094412  0.750001  0.250000  1
  Br  Br29  1  0.924123  0.075468  0.255136  1
  Br  Br30  1  0.075467  0.255547  0.255136  1
  Br  Br31  1  0.255547  0.924123  0.255136  1
  Br  Br32  1  0.656690  0.164404  0.496165  1
  Br  Br33  1  0.675070  0.656691  0.496165  1
  Br  Br34  1  0.164403  0.675070  0.496165  1
  Br  Br35  1  0.835597  0.324930  0.503835  1
  Br  Br36  1  0.324930  0.343309  0.503835  1
  Br  Br37  1  0.343309  0.835597  0.503835  1
  Br  Br38  1  0.744454  0.075876  0.744864  1
  Br  Br39  1  0.924532  0.744454  0.744864  1
  Br  Br40  1  0.075876  0.924533  0.744864  1
  Br  Br41  1  0.905587  0.250000  0.749999  1
  Br  Br42  1  0.249999  0.594413  0.749999  1
  Br  Br43  1  0.594413  0.905587  0.749999  1
  Br  Br44  1  0.575467  0.424123  0.755135  1
  Br  Br45  1  0.755546  0.575466  0.755135  1
  Br  Br46  1  0.424123  0.755546  0.755135  1
  Br  Br47  1  0.664404  0.156691  0.996164  1
  Br  Br48  1  0.156691  0.175071  0.996164  1
  Br  Br49  1  0.175071  0.664403  0.996164  1
