# generated using pymatgen
data_YHoTm2(WO6)2
_symmetry_space_group_name_H-M   'P 1'
_cell_length_a   5.37621300
_cell_length_b   7.66881439
_cell_length_c   11.40565882
_cell_angle_alpha   75.45705057
_cell_angle_beta   90.00000000
_cell_angle_gamma   90.00000000
_symmetry_Int_Tables_number   1
_chemical_formula_structural   YHoTm2(WO6)2
_chemical_formula_sum   'Y2 Ho2 Tm4 W4 O24'
_cell_volume   455.17912586
_cell_formula_units_Z   2
loop_
 _symmetry_equiv_pos_site_id
 _symmetry_equiv_pos_as_xyz
  1  'x, y, z'
loop_
 _atom_site_type_symbol
 _atom_site_label
 _atom_site_symmetry_multiplicity
 _atom_site_fract_x
 _atom_site_fract_y
 _atom_site_fract_z
 _atom_site_occupancy
  Y  Y0  1  0.684438  0.500000  0.750000  1
  Y  Y1  1  0.315562  0.500000  0.250000  1
  Ho  Ho2  1  0.740521  0.000000  0.750000  1
  Ho  Ho3  1  0.259479  0.000000  0.250000  1
  Tm  Tm4  1  0.185401  0.795894  0.578240  1
  Tm  Tm5  1  0.814599  0.795894  0.078240  1
  Tm  Tm6  1  0.185401  0.204106  0.921760  1
  Tm  Tm7  1  0.814599  0.204106  0.421760  1
  W  W8  1  0.254737  0.723836  0.885772  1
  W  W9  1  0.745263  0.723836  0.385772  1
  W  W10  1  0.254737  0.276164  0.614228  1
  W  W11  1  0.745263  0.276164  0.114228  1
  O  O12  1  0.042300  0.940957  0.896478  1
  O  O13  1  0.534167  0.847590  0.931709  1
  O  O14  1  0.957700  0.940957  0.396478  1
  O  O15  1  0.458022  0.791343  0.726344  1
  O  O16  1  0.465833  0.847590  0.431709  1
  O  O17  1  0.982492  0.712784  0.769932  1
  O  O18  1  0.541978  0.791343  0.226344  1
  O  O19  1  0.854179  0.635743  0.549002  1
  O  O20  1  0.358714  0.488262  0.887193  1
  O  O21  1  0.017508  0.712784  0.269932  1
  O  O22  1  0.358714  0.511738  0.612807  1
  O  O23  1  0.854179  0.364257  0.950998  1
  O  O24  1  0.145821  0.635743  0.049002  1
  O  O25  1  0.641286  0.488262  0.387193  1
  O  O26  1  0.982492  0.287216  0.730068  1
  O  O27  1  0.641286  0.511738  0.112807  1
  O  O28  1  0.145821  0.364257  0.450998  1
  O  O29  1  0.458022  0.208657  0.773656  1
  O  O30  1  0.017508  0.287216  0.230068  1
  O  O31  1  0.534167  0.152410  0.568291  1
  O  O32  1  0.541978  0.208657  0.273656  1
  O  O33  1  0.042300  0.059043  0.603522  1
  O  O34  1  0.465833  0.152410  0.068291  1
  O  O35  1  0.957700  0.059043  0.103522  1
