# generated using pymatgen
data_Li4Sm3Tm(Si2Sn)2
_symmetry_space_group_name_H-M   'P 1'
_cell_length_a   9.63762747
_cell_length_b   9.63762840
_cell_length_c   6.80407000
_cell_angle_alpha   90.00000000
_cell_angle_beta   90.00000000
_cell_angle_gamma   153.32964188
_symmetry_Int_Tables_number   1
_chemical_formula_structural   Li4Sm3Tm(Si2Sn)2
_chemical_formula_sum   'Li4 Sm3 Tm1 Si4 Sn2'
_cell_volume   283.67224763
_cell_formula_units_Z   1
loop_
 _symmetry_equiv_pos_site_id
 _symmetry_equiv_pos_as_xyz
  1  'x, y, z'
loop_
 _atom_site_type_symbol
 _atom_site_label
 _atom_site_symmetry_multiplicity
 _atom_site_fract_x
 _atom_site_fract_y
 _atom_site_fract_z
 _atom_site_occupancy
  Li  Li0  1  0.184780  0.815220  0.055927  1
  Li  Li1  1  0.184780  0.815220  0.444073  1
  Li  Li2  1  0.816171  0.183829  0.946089  1
  Li  Li3  1  0.816171  0.183829  0.553911  1
  Sm  Sm4  1  0.649277  0.350723  0.750000  1
  Sm  Sm5  1  0.548159  0.451841  0.250000  1
  Sm  Sm6  1  0.450373  0.549627  0.750000  1
  Tm  Tm7  1  0.351964  0.648036  0.250000  1
  Si  Si8  1  0.057017  0.942983  0.926950  1
  Si  Si9  1  0.940973  0.059027  0.074060  1
  Si  Si10  1  0.940973  0.059027  0.425940  1
  Si  Si11  1  0.057017  0.942983  0.573050  1
  Sn  Sn12  1  0.721625  0.278375  0.250000  1
  Sn  Sn13  1  0.280723  0.719277  0.750000  1
