# generated using pymatgen
data_CsCe(AgSb)2
_symmetry_space_group_name_H-M   'P 1'
_cell_length_a   4.83561800
_cell_length_b   9.44980381
_cell_length_c   8.35219400
_cell_angle_alpha   89.83578484
_cell_angle_beta   90.00000000
_cell_angle_gamma   90.00000000
_symmetry_Int_Tables_number   1
_chemical_formula_structural   CsCe(AgSb)2
_chemical_formula_sum   'Cs2 Ce2 Ag4 Sb4'
_cell_volume   381.65729447
_cell_formula_units_Z   2
loop_
 _symmetry_equiv_pos_site_id
 _symmetry_equiv_pos_as_xyz
  1  'x, y, z'
loop_
 _atom_site_type_symbol
 _atom_site_label
 _atom_site_symmetry_multiplicity
 _atom_site_fract_x
 _atom_site_fract_y
 _atom_site_fract_z
 _atom_site_occupancy
  Cs  Cs0  1  0.250000  0.500738  0.242224  1
  Cs  Cs1  1  0.750000  0.499262  0.757776  1
  Ce  Ce2  1  0.250000  0.000224  0.255376  1
  Ce  Ce3  1  0.750000  0.999776  0.744624  1
  Ag  Ag4  1  0.250000  0.797931  0.583769  1
  Ag  Ag5  1  0.750000  0.202069  0.416231  1
  Ag  Ag6  1  0.250000  0.186269  0.916359  1
  Ag  Ag7  1  0.750000  0.813731  0.083641  1
  Sb  Sb8  1  0.750000  0.801470  0.418278  1
  Sb  Sb9  1  0.250000  0.198530  0.581722  1
  Sb  Sb10  1  0.750000  0.188553  0.083218  1
  Sb  Sb11  1  0.250000  0.811447  0.916782  1
