# generated using pymatgen
data_Tm20Ir3RuAu8
_symmetry_space_group_name_H-M   'P 1'
_cell_length_a   11.16900500
_cell_length_b   11.16900500
_cell_length_c   6.28873200
_cell_angle_alpha   90.00000000
_cell_angle_beta   90.00000000
_cell_angle_gamma   90.00000000
_symmetry_Int_Tables_number   1
_chemical_formula_structural   Tm20Ir3RuAu8
_chemical_formula_sum   'Tm20 Ir3 Ru1 Au8'
_cell_volume   784.49839244
_cell_formula_units_Z   1
loop_
 _symmetry_equiv_pos_site_id
 _symmetry_equiv_pos_as_xyz
  1  'x, y, z'
loop_
 _atom_site_type_symbol
 _atom_site_label
 _atom_site_symmetry_multiplicity
 _atom_site_fract_x
 _atom_site_fract_y
 _atom_site_fract_z
 _atom_site_occupancy
  Tm  Tm0  1  0.299999  0.082968  0.357756  1
  Tm  Tm1  1  0.299948  0.916914  0.859447  1
  Tm  Tm2  1  0.700052  0.083086  0.859447  1
  Tm  Tm3  1  0.700001  0.917032  0.357756  1
  Tm  Tm4  1  0.583086  0.799948  0.859447  1
  Tm  Tm5  1  0.582968  0.200001  0.357756  1
  Tm  Tm6  1  0.417032  0.799999  0.357756  1
  Tm  Tm7  1  0.416914  0.200052  0.859447  1
  Tm  Tm8  1  0.201150  0.416598  0.640947  1
  Tm  Tm9  1  0.200995  0.583433  0.140750  1
  Tm  Tm10  1  0.799005  0.416567  0.140750  1
  Tm  Tm11  1  0.798850  0.583402  0.640947  1
  Tm  Tm12  1  0.916567  0.700995  0.140750  1
  Tm  Tm13  1  0.916598  0.298850  0.640947  1
  Tm  Tm14  1  0.083402  0.701150  0.640947  1
  Tm  Tm15  1  0.083433  0.299005  0.140750  1
  Tm  Tm16  1  0.000000  0.000000  0.499850  1
  Tm  Tm17  1  0.000000  0.000000  0.999770  1
  Tm  Tm18  1  0.500000  0.500000  0.999770  1
  Tm  Tm19  1  0.500000  0.500000  0.499850  1
  Ir  Ir20  1  0.500000  0.000000  0.608605  1
  Ir  Ir21  1  0.000000  0.500000  0.892633  1
  Ir  Ir22  1  0.000000  0.500000  0.392396  1
  Ru  Ru23  1  0.500000  0.000000  0.109497  1
  Au  Au24  1  0.844033  0.156009  0.250276  1
  Au  Au25  1  0.844079  0.844018  0.750231  1
  Au  Au26  1  0.155921  0.155982  0.750231  1
  Au  Au27  1  0.155967  0.843991  0.250276  1
  Au  Au28  1  0.655982  0.344079  0.750231  1
  Au  Au29  1  0.656009  0.655967  0.250276  1
  Au  Au30  1  0.343991  0.344033  0.250276  1
  Au  Au31  1  0.344018  0.655921  0.750231  1
