# generated using pymatgen
data_Tb4Dy8GaCo4Sn
_symmetry_space_group_name_H-M   'P 1'
_cell_length_a   8.32357265
_cell_length_b   8.32357340
_cell_length_c   8.32357382
_cell_angle_alpha   107.17381985
_cell_angle_beta   109.11259586
_cell_angle_gamma   112.16670952
_symmetry_Int_Tables_number   1
_chemical_formula_structural   Tb4Dy8GaCo4Sn
_chemical_formula_sum   'Tb4 Dy8 Ga1 Co4 Sn1'
_cell_volume   443.06144345
_cell_formula_units_Z   1
loop_
 _symmetry_equiv_pos_site_id
 _symmetry_equiv_pos_as_xyz
  1  'x, y, z'
loop_
 _atom_site_type_symbol
 _atom_site_label
 _atom_site_symmetry_multiplicity
 _atom_site_fract_x
 _atom_site_fract_y
 _atom_site_fract_z
 _atom_site_occupancy
  Tb  Tb0  1  0.298590  0.268424  0.567012  1
  Tb  Tb1  1  0.701410  0.731576  0.432988  1
  Tb  Tb2  1  0.298590  0.731576  0.030166  1
  Tb  Tb3  1  0.701410  0.268424  0.969834  1
  Dy  Dy4  1  0.186828  0.511315  0.324487  1
  Dy  Dy5  1  0.186828  0.862341  0.675513  1
  Dy  Dy6  1  0.813172  0.488685  0.675513  1
  Dy  Dy7  1  0.813172  0.137659  0.324487  1
  Dy  Dy8  1  0.398728  0.217875  0.180853  1
  Dy  Dy9  1  0.037021  0.217875  0.819147  1
  Dy  Dy10  1  0.962979  0.782125  0.180853  1
  Dy  Dy11  1  0.601272  0.782125  0.819147  1
  Ga  Ga12  1  0.500000  0.500000  0.000000  1
  Co  Co13  1  0.156772  0.500000  0.656772  1
  Co  Co14  1  0.843228  0.500000  0.343228  1
  Co  Co15  1  0.000000  0.113787  0.113787  1
  Co  Co16  1  0.000000  0.886213  0.886213  1
  Sn  Sn17  1  0.500000  0.000000  0.500000  1
