# generated using pymatgen
data_Eu2BClO3
_symmetry_space_group_name_H-M   'P 1'
_cell_length_a   8.98724600
_cell_length_b   4.16854620
_cell_length_c   13.12676345
_cell_angle_alpha   80.56146556
_cell_angle_beta   90.00000000
_cell_angle_gamma   90.00000000
_symmetry_Int_Tables_number   1
_chemical_formula_structural   Eu2BClO3
_chemical_formula_sum   'Eu8 B4 Cl4 O12'
_cell_volume   485.12014426
_cell_formula_units_Z   4
loop_
 _symmetry_equiv_pos_site_id
 _symmetry_equiv_pos_as_xyz
  1  'x, y, z'
loop_
 _atom_site_type_symbol
 _atom_site_label
 _atom_site_symmetry_multiplicity
 _atom_site_fract_x
 _atom_site_fract_y
 _atom_site_fract_z
 _atom_site_occupancy
  Eu  Eu0  1  0.623341  0.677726  0.885247  1
  Eu  Eu1  1  0.376659  0.322274  0.114753  1
  Eu  Eu2  1  0.113994  0.712029  0.863833  1
  Eu  Eu3  1  0.876659  0.677726  0.385247  1
  Eu  Eu4  1  0.613994  0.287971  0.636167  1
  Eu  Eu5  1  0.386006  0.712029  0.363833  1
  Eu  Eu6  1  0.886006  0.287971  0.136167  1
  Eu  Eu7  1  0.123341  0.322274  0.614753  1
  B  B8  1  0.632739  0.709901  0.156647  1
  B  B9  1  0.867261  0.709901  0.656647  1
  B  B10  1  0.367261  0.290099  0.843353  1
  B  B11  1  0.132739  0.290099  0.343353  1
  Cl  Cl12  1  0.873599  0.196894  0.912697  1
  Cl  Cl13  1  0.126401  0.803106  0.087303  1
  Cl  Cl14  1  0.373599  0.803106  0.587303  1
  Cl  Cl15  1  0.626401  0.196894  0.412697  1
  O  O16  1  0.492651  0.798066  0.188051  1
  O  O17  1  0.992651  0.201934  0.311949  1
  O  O18  1  0.765329  0.773650  0.204026  1
  O  O19  1  0.638996  0.527245  0.076123  1
  O  O20  1  0.007349  0.798066  0.688051  1
  O  O21  1  0.734671  0.773650  0.704026  1
  O  O22  1  0.507349  0.201934  0.811949  1
  O  O23  1  0.265329  0.226350  0.295974  1
  O  O24  1  0.361004  0.472755  0.923877  1
  O  O25  1  0.138996  0.472755  0.423877  1
  O  O26  1  0.861004  0.527245  0.576123  1
  O  O27  1  0.234671  0.226350  0.795974  1
