# generated using pymatgen
data_Ac2LaCd3IrPd2
_symmetry_space_group_name_H-M   'P 1'
_cell_length_a   7.92102200
_cell_length_b   7.93761036
_cell_length_c   4.17803200
_cell_angle_alpha   90.00000000
_cell_angle_beta   90.00000000
_cell_angle_gamma   119.19757815
_symmetry_Int_Tables_number   1
_chemical_formula_structural   Ac2LaCd3IrPd2
_chemical_formula_sum   'Ac2 La1 Cd3 Ir1 Pd2'
_cell_volume   229.31290405
_cell_formula_units_Z   1
loop_
 _symmetry_equiv_pos_site_id
 _symmetry_equiv_pos_as_xyz
  1  'x, y, z'
loop_
 _atom_site_type_symbol
 _atom_site_label
 _atom_site_symmetry_multiplicity
 _atom_site_fract_x
 _atom_site_fract_y
 _atom_site_fract_z
 _atom_site_occupancy
  Ac  Ac0  1  0.988460  0.583794  0.500000  1
  Ac  Ac1  1  0.596355  0.012923  0.500000  1
  La  La2  1  0.421159  0.402788  0.500000  1
  Cd  Cd3  1  0.748144  0.752150  0.000000  1
  Cd  Cd4  1  0.244979  0.001153  0.000000  1
  Cd  Cd5  1  0.011759  0.248876  0.000000  1
  Ir  Ir6  1  0.657455  0.336125  0.000000  1
  Pd  Pd7  1  0.999038  0.999457  0.500000  1
  Pd  Pd8  1  0.332652  0.662734  0.000000  1
