# generated using pymatgen
data_ZrSc3Re24Mo
_symmetry_space_group_name_H-M   'P 1'
_cell_length_a   8.44242096
_cell_length_b   8.44242001
_cell_length_c   8.44241900
_cell_angle_alpha   109.46308669
_cell_angle_beta   109.46309161
_cell_angle_gamma   109.46309825
_symmetry_Int_Tables_number   1
_chemical_formula_structural   ZrSc3Re24Mo
_chemical_formula_sum   'Zr1 Sc3 Re24 Mo1'
_cell_volume   463.35046267
_cell_formula_units_Z   1
loop_
 _symmetry_equiv_pos_site_id
 _symmetry_equiv_pos_as_xyz
  1  'x, y, z'
loop_
 _atom_site_type_symbol
 _atom_site_label
 _atom_site_symmetry_multiplicity
 _atom_site_fract_x
 _atom_site_fract_y
 _atom_site_fract_z
 _atom_site_occupancy
  Zr  Zr0  1  0.002085  0.002085  0.002085  1
  Sc  Sc1  1  0.630878  0.000077  0.000077  1
  Sc  Sc2  1  0.000077  0.630878  0.000077  1
  Sc  Sc3  1  0.000077  0.000077  0.630878  1
  Re  Re4  1  0.394223  0.675722  0.995364  1
  Re  Re5  1  0.721127  0.323385  0.323385  1
  Re  Re6  1  0.394223  0.995364  0.675722  1
  Re  Re7  1  0.675722  0.394223  0.995364  1
  Re  Re8  1  0.995364  0.394223  0.675722  1
  Re  Re9  1  0.323385  0.721127  0.323385  1
  Re  Re10  1  0.323385  0.323385  0.721127  1
  Re  Re11  1  0.995364  0.675722  0.394223  1
  Re  Re12  1  0.675722  0.995364  0.394223  1
  Re  Re13  1  0.595421  0.595421  0.280738  1
  Re  Re14  1  0.280738  0.595421  0.595421  1
  Re  Re15  1  0.595421  0.280738  0.595421  1
  Re  Re16  1  0.378518  0.195614  0.001264  1
  Re  Re17  1  0.187284  0.810220  0.810220  1
  Re  Re18  1  0.378518  0.001264  0.195614  1
  Re  Re19  1  0.195614  0.378518  0.001264  1
  Re  Re20  1  0.001264  0.378518  0.195614  1
  Re  Re21  1  0.810220  0.187284  0.810220  1
  Re  Re22  1  0.810220  0.810220  0.187284  1
  Re  Re23  1  0.001264  0.195614  0.378518  1
  Re  Re24  1  0.195614  0.001264  0.378518  1
  Re  Re25  1  0.623461  0.623461  0.817105  1
  Re  Re26  1  0.817105  0.623461  0.623461  1
  Re  Re27  1  0.623461  0.817105  0.623461  1
  Mo  Mo28  1  0.374242  0.374242  0.374242  1
