# generated using pymatgen
data_Ba7Hg29Bi2
_symmetry_space_group_name_H-M   'P 1'
_cell_length_a   11.06523433
_cell_length_b   11.10460608
_cell_length_c   10.75771300
_cell_angle_alpha   90.00000000
_cell_angle_beta   90.00000000
_cell_angle_gamma   119.49200045
_symmetry_Int_Tables_number   1
_chemical_formula_structural   Ba7Hg29Bi2
_chemical_formula_sum   'Ba7 Hg29 Bi2'
_cell_volume   1150.57465350
_cell_formula_units_Z   1
loop_
 _symmetry_equiv_pos_site_id
 _symmetry_equiv_pos_as_xyz
  1  'x, y, z'
loop_
 _atom_site_type_symbol
 _atom_site_label
 _atom_site_symmetry_multiplicity
 _atom_site_fract_x
 _atom_site_fract_y
 _atom_site_fract_z
 _atom_site_occupancy
  Ba  Ba0  1  0.668966  0.339128  0.000000  1
  Ba  Ba1  1  0.997298  0.001980  0.000000  1
  Ba  Ba2  1  0.825013  0.661381  0.500000  1
  Ba  Ba3  1  0.335302  0.156380  0.500000  1
  Ba  Ba4  1  0.855116  0.190004  0.500000  1
  Ba  Ba5  1  0.336297  0.666882  0.784884  1
  Ba  Ba6  1  0.336297  0.666882  0.215116  1
  Hg  Hg7  1  0.606826  0.941923  0.000000  1
  Hg  Hg8  1  0.616309  0.683997  0.000000  1
  Hg  Hg9  1  0.339345  0.950267  0.000000  1
  Hg  Hg10  1  0.047223  0.376081  0.000000  1
  Hg  Hg11  1  0.832277  0.681672  0.825158  1
  Hg  Hg12  1  0.321405  0.158212  0.825478  1
  Hg  Hg13  1  0.828215  0.156726  0.827882  1
  Hg  Hg14  1  0.832277  0.681672  0.174842  1
  Hg  Hg15  1  0.321405  0.158212  0.174522  1
  Hg  Hg16  1  0.828215  0.156726  0.172118  1
  Hg  Hg17  1  0.663110  0.326044  0.643266  1
  Hg  Hg18  1  0.000297  0.999337  0.646781  1
  Hg  Hg19  1  0.000297  0.999337  0.353219  1
  Hg  Hg20  1  0.663110  0.326044  0.356734  1
  Hg  Hg21  1  0.956998  0.480715  0.732437  1
  Hg  Hg22  1  0.525851  0.478005  0.736339  1
  Hg  Hg23  1  0.514072  0.035599  0.734182  1
  Hg  Hg24  1  0.150178  0.840845  0.697791  1
  Hg  Hg25  1  0.689444  0.849318  0.687744  1
  Hg  Hg26  1  0.160333  0.311302  0.696882  1
  Hg  Hg27  1  0.689444  0.849318  0.312256  1
  Hg  Hg28  1  0.150178  0.840845  0.302209  1
  Hg  Hg29  1  0.160333  0.311302  0.303118  1
  Hg  Hg30  1  0.525851  0.478005  0.263661  1
  Hg  Hg31  1  0.956998  0.480715  0.267563  1
  Hg  Hg32  1  0.514072  0.035599  0.265818  1
  Hg  Hg33  1  0.143529  0.578029  0.500000  1
  Hg  Hg34  1  0.423548  0.554311  0.500000  1
  Hg  Hg35  1  0.445881  0.861191  0.500000  1
  Bi  Bi36  1  0.064843  0.668301  0.000000  1
  Bi  Bi37  1  0.340520  0.401042  0.000000  1
