# generated using pymatgen
data_Sm12Si3PI12
_symmetry_space_group_name_H-M   'P 1'
_cell_length_a   10.65093339
_cell_length_b   10.65093395
_cell_length_c   10.65093300
_cell_angle_alpha   109.46990314
_cell_angle_beta   109.46990742
_cell_angle_gamma   109.46990703
_symmetry_Int_Tables_number   1
_chemical_formula_structural   Sm12Si3PI12
_chemical_formula_sum   'Sm12 Si3 P1 I12'
_cell_volume   930.16985556
_cell_formula_units_Z   1
loop_
 _symmetry_equiv_pos_site_id
 _symmetry_equiv_pos_as_xyz
  1  'x, y, z'
loop_
 _atom_site_type_symbol
 _atom_site_label
 _atom_site_symmetry_multiplicity
 _atom_site_fract_x
 _atom_site_fract_y
 _atom_site_fract_z
 _atom_site_occupancy
  Sm  Sm0  1  0.459881  0.478058  0.231509  1
  Sm  Sm1  1  0.750000  0.231946  0.268054  1
  Sm  Sm2  1  0.750000  0.018393  0.481607  1
  Sm  Sm3  1  0.231509  0.459881  0.478058  1
  Sm  Sm4  1  0.268054  0.750000  0.231946  1
  Sm  Sm5  1  0.040119  0.268491  0.021942  1
  Sm  Sm6  1  0.021942  0.040119  0.268491  1
  Sm  Sm7  1  0.481607  0.750000  0.018393  1
  Sm  Sm8  1  0.478058  0.231509  0.459881  1
  Sm  Sm9  1  0.018393  0.481607  0.750000  1
  Sm  Sm10  1  0.268491  0.021942  0.040119  1
  Sm  Sm11  1  0.231946  0.268054  0.750000  1
  Si  Si12  1  0.499418  0.000582  0.250000  1
  Si  Si13  1  0.000582  0.250000  0.499418  1
  Si  Si14  1  0.250000  0.499418  0.000582  1
  P  P15  1  0.250000  0.250000  0.250000  1
  I  I16  1  0.250000  0.757612  0.742388  1
  I  I17  1  0.514758  0.507088  0.756504  1
  I  I18  1  0.985242  0.743496  0.992912  1
  I  I19  1  0.742388  0.250000  0.757612  1
  I  I20  1  0.992912  0.985242  0.743496  1
  I  I21  1  0.250000  0.993023  0.506977  1
  I  I22  1  0.756504  0.514758  0.507088  1
  I  I23  1  0.506977  0.250000  0.993023  1
  I  I24  1  0.757612  0.742388  0.250000  1
  I  I25  1  0.743496  0.992912  0.985242  1
  I  I26  1  0.993023  0.506977  0.250000  1
  I  I27  1  0.507088  0.756504  0.514758  1
