# generated using pymatgen
data_Yb2DyY(FeB4)4
_symmetry_space_group_name_H-M   'P 1'
_cell_length_a   3.35587300
_cell_length_b   5.88383095
_cell_length_c   11.38008717
_cell_angle_alpha   89.95257901
_cell_angle_beta   90.00000000
_cell_angle_gamma   90.00000000
_symmetry_Int_Tables_number   1
_chemical_formula_structural   Yb2DyY(FeB4)4
_chemical_formula_sum   'Yb2 Dy1 Y1 Fe4 B16'
_cell_volume   224.70417599
_cell_formula_units_Z   1
loop_
 _symmetry_equiv_pos_site_id
 _symmetry_equiv_pos_as_xyz
  1  'x, y, z'
loop_
 _atom_site_type_symbol
 _atom_site_label
 _atom_site_symmetry_multiplicity
 _atom_site_fract_x
 _atom_site_fract_y
 _atom_site_fract_z
 _atom_site_occupancy
  Yb  Yb0  1  0.000000  0.625697  0.850050  1
  Yb  Yb1  1  0.000000  0.374316  0.149970  1
  Dy  Dy2  1  0.000000  0.873403  0.348896  1
  Y  Y3  1  0.000000  0.126568  0.651090  1
  Fe  Fe4  1  0.000000  0.127498  0.915566  1
  Fe  Fe5  1  0.000000  0.872498  0.084548  1
  Fe  Fe6  1  0.000000  0.632848  0.587115  1
  Fe  Fe7  1  0.000000  0.367237  0.412718  1
  B  B8  1  0.500000  0.361075  0.967794  1
  B  B9  1  0.500000  0.638954  0.032257  1
  B  B10  1  0.500000  0.860062  0.531917  1
  B  B11  1  0.500000  0.139836  0.467900  1
  B  B12  1  0.500000  0.475638  0.690643  1
  B  B13  1  0.500000  0.524529  0.309386  1
  B  B14  1  0.500000  0.975602  0.810670  1
  B  B15  1  0.500000  0.024278  0.189404  1
  B  B16  1  0.500000  0.280877  0.818224  1
  B  B17  1  0.500000  0.719267  0.181894  1
  B  B18  1  0.500000  0.779419  0.683971  1
  B  B19  1  0.500000  0.220389  0.316056  1
  B  B20  1  0.500000  0.389249  0.546345  1
  B  B21  1  0.500000  0.610827  0.453535  1
  B  B22  1  0.500000  0.887017  0.954156  1
  B  B23  1  0.500000  0.112919  0.045895  1
