# generated using pymatgen
data_Zr2VB2Os5
_symmetry_space_group_name_H-M   'P 1'
_cell_length_a   9.46042700
_cell_length_b   9.46042700
_cell_length_c   3.07901600
_cell_angle_alpha   90.00000000
_cell_angle_beta   90.00000000
_cell_angle_gamma   90.00000000
_symmetry_Int_Tables_number   1
_chemical_formula_structural   Zr2VB2Os5
_chemical_formula_sum   'Zr4 V2 B4 Os10'
_cell_volume   275.57094370
_cell_formula_units_Z   2
loop_
 _symmetry_equiv_pos_site_id
 _symmetry_equiv_pos_as_xyz
  1  'x, y, z'
loop_
 _atom_site_type_symbol
 _atom_site_label
 _atom_site_symmetry_multiplicity
 _atom_site_fract_x
 _atom_site_fract_y
 _atom_site_fract_z
 _atom_site_occupancy
  Zr  Zr0  1  0.677149  0.177149  0.000000  1
  Zr  Zr1  1  0.322851  0.822851  0.000000  1
  Zr  Zr2  1  0.177149  0.322851  0.000000  1
  Zr  Zr3  1  0.822851  0.677149  0.000000  1
  V  V4  1  0.000000  0.000000  0.000000  1
  V  V5  1  0.500000  0.500000  0.000000  1
  B  B6  1  0.122854  0.622854  0.000000  1
  B  B7  1  0.877146  0.377146  0.000000  1
  B  B8  1  0.622854  0.877146  0.000000  1
  B  B9  1  0.377146  0.122854  0.000000  1
  Os  Os10  1  0.213490  0.068232  0.500000  1
  Os  Os11  1  0.786510  0.931768  0.500000  1
  Os  Os12  1  0.068232  0.786510  0.500000  1
  Os  Os13  1  0.713490  0.431768  0.500000  1
  Os  Os14  1  0.931768  0.213490  0.500000  1
  Os  Os15  1  0.286510  0.568232  0.500000  1
  Os  Os16  1  0.568232  0.713490  0.500000  1
  Os  Os17  1  0.431768  0.286510  0.500000  1
  Os  Os18  1  0.500000  0.000000  0.500000  1
  Os  Os19  1  0.000000  0.500000  0.500000  1
