# generated using pymatgen
data_Rb2GeP3Ir4
_symmetry_space_group_name_H-M   'P 1'
_cell_length_a   7.56153593
_cell_length_b   7.56153524
_cell_length_c   5.67171600
_cell_angle_alpha   90.00000000
_cell_angle_beta   90.00000000
_cell_angle_gamma   136.19424080
_symmetry_Int_Tables_number   1
_chemical_formula_structural   Rb2GeP3Ir4
_chemical_formula_sum   'Rb2 Ge1 P3 Ir4'
_cell_volume   224.47911140
_cell_formula_units_Z   1
loop_
 _symmetry_equiv_pos_site_id
 _symmetry_equiv_pos_as_xyz
  1  'x, y, z'
loop_
 _atom_site_type_symbol
 _atom_site_label
 _atom_site_symmetry_multiplicity
 _atom_site_fract_x
 _atom_site_fract_y
 _atom_site_fract_z
 _atom_site_occupancy
  Rb  Rb0  1  0.496455  0.503545  0.500000  1
  Rb  Rb1  1  0.994186  0.005814  0.000000  1
  Ge  Ge2  1  0.145091  0.854909  0.500000  1
  P  P3  1  0.662577  0.337423  0.000000  1
  P  P4  1  0.339493  0.660507  0.000000  1
  P  P5  1  0.839593  0.160407  0.500000  1
  Ir  Ir6  1  0.503382  0.999129  0.248892  1
  Ir  Ir7  1  0.000871  0.496618  0.751108  1
  Ir  Ir8  1  0.000871  0.496618  0.248892  1
  Ir  Ir9  1  0.503382  0.999129  0.751108  1
