# generated using pymatgen
data_Zr2TaTiRe2
_symmetry_space_group_name_H-M   'P 1'
_cell_length_a   5.39928981
_cell_length_b   5.31091002
_cell_length_c   8.94370800
_cell_angle_alpha   90.00000000
_cell_angle_beta   90.00000000
_cell_angle_gamma   119.45998241
_symmetry_Int_Tables_number   1
_chemical_formula_structural   Zr2TaTiRe2
_chemical_formula_sum   'Zr4 Ta2 Ti2 Re4'
_cell_volume   223.30139968
_cell_formula_units_Z   2
loop_
 _symmetry_equiv_pos_site_id
 _symmetry_equiv_pos_as_xyz
  1  'x, y, z'
loop_
 _atom_site_type_symbol
 _atom_site_label
 _atom_site_symmetry_multiplicity
 _atom_site_fract_x
 _atom_site_fract_y
 _atom_site_fract_z
 _atom_site_occupancy
  Zr  Zr0  1  0.331989  0.665995  0.436881  1
  Zr  Zr1  1  0.668011  0.334005  0.936881  1
  Zr  Zr2  1  0.668011  0.334005  0.563119  1
  Zr  Zr3  1  0.331989  0.665995  0.063119  1
  Ta  Ta4  1  0.659319  0.829659  0.750000  1
  Ta  Ta5  1  0.340681  0.170341  0.250000  1
  Ti  Ti6  1  0.000000  0.000000  0.500000  1
  Ti  Ti7  1  0.000000  0.000000  0.000000  1
  Re  Re8  1  0.834432  0.170659  0.250000  1
  Re  Re9  1  0.165568  0.336227  0.750000  1
  Re  Re10  1  0.165568  0.829341  0.750000  1
  Re  Re11  1  0.834432  0.663773  0.250000  1
