# generated using pymatgen
data_Nd4Ga4NiIr2Pd
_symmetry_space_group_name_H-M   'P 1'
_cell_length_a   4.46851400
_cell_length_b   7.09514041
_cell_length_c   7.72606161
_cell_angle_alpha   89.77717628
_cell_angle_beta   90.00000000
_cell_angle_gamma   90.00000000
_symmetry_Int_Tables_number   1
_chemical_formula_structural   Nd4Ga4NiIr2Pd
_chemical_formula_sum   'Nd4 Ga4 Ni1 Ir2 Pd1'
_cell_volume   244.95087781
_cell_formula_units_Z   1
loop_
 _symmetry_equiv_pos_site_id
 _symmetry_equiv_pos_as_xyz
  1  'x, y, z'
loop_
 _atom_site_type_symbol
 _atom_site_label
 _atom_site_symmetry_multiplicity
 _atom_site_fract_x
 _atom_site_fract_y
 _atom_site_fract_z
 _atom_site_occupancy
  Nd  Nd0  1  0.250000  0.023963  0.687161  1
  Nd  Nd1  1  0.250000  0.530361  0.806175  1
  Nd  Nd2  1  0.750000  0.976217  0.307883  1
  Nd  Nd3  1  0.750000  0.483703  0.196549  1
  Ga  Ga4  1  0.250000  0.161241  0.077773  1
  Ga  Ga5  1  0.250000  0.666455  0.430071  1
  Ga  Ga6  1  0.750000  0.828867  0.920951  1
  Ga  Ga7  1  0.750000  0.339803  0.572228  1
  Ni  Ni8  1  0.750000  0.709920  0.602674  1
  Ir  Ir9  1  0.250000  0.283647  0.398074  1
  Ir  Ir10  1  0.250000  0.783772  0.102680  1
  Pd  Pd11  1  0.750000  0.212051  0.897781  1
