# generated using pymatgen
data_Sm12Ga7SiRh8
_symmetry_space_group_name_H-M   'P 1'
_cell_length_a   5.63288957
_cell_length_b   8.10436984
_cell_length_c   13.52606300
_cell_angle_alpha   90.00000000
_cell_angle_beta   90.00000000
_cell_angle_gamma   89.94809651
_symmetry_Int_Tables_number   1
_chemical_formula_structural   Sm12Ga7SiRh8
_chemical_formula_sum   'Sm12 Ga7 Si1 Rh8'
_cell_volume   617.47832401
_cell_formula_units_Z   1
loop_
 _symmetry_equiv_pos_site_id
 _symmetry_equiv_pos_as_xyz
  1  'x, y, z'
loop_
 _atom_site_type_symbol
 _atom_site_label
 _atom_site_symmetry_multiplicity
 _atom_site_fract_x
 _atom_site_fract_y
 _atom_site_fract_z
 _atom_site_occupancy
  Sm  Sm0  1  0.631378  0.255351  0.250000  1
  Sm  Sm1  1  0.365411  0.742806  0.750000  1
  Sm  Sm2  1  0.366333  0.758607  0.250000  1
  Sm  Sm3  1  0.637429  0.248476  0.750000  1
  Sm  Sm4  1  0.148747  0.396168  0.097638  1
  Sm  Sm5  1  0.853538  0.602499  0.899373  1
  Sm  Sm6  1  0.853538  0.602499  0.600627  1
  Sm  Sm7  1  0.851548  0.897076  0.402545  1
  Sm  Sm8  1  0.148747  0.396168  0.402362  1
  Sm  Sm9  1  0.149692  0.104379  0.600562  1
  Sm  Sm10  1  0.149692  0.104379  0.899438  1
  Sm  Sm11  1  0.851548  0.897076  0.097455  1
  Ga  Ga12  1  0.128412  0.108657  0.250000  1
  Ga  Ga13  1  0.866724  0.893812  0.750000  1
  Ga  Ga14  1  0.867968  0.606797  0.250000  1
  Ga  Ga15  1  0.638035  0.250306  0.999167  1
  Ga  Ga16  1  0.363826  0.748525  0.998662  1
  Ga  Ga17  1  0.363826  0.748525  0.501338  1
  Ga  Ga18  1  0.638035  0.250306  0.500833  1
  Si  Si19  1  0.137611  0.392921  0.750000  1
  Rh  Rh20  1  0.359740  0.031917  0.091621  1
  Rh  Rh21  1  0.637574  0.967712  0.907647  1
  Rh  Rh22  1  0.637574  0.967712  0.592353  1
  Rh  Rh23  1  0.639029  0.532437  0.409334  1
  Rh  Rh24  1  0.359740  0.031917  0.408379  1
  Rh  Rh25  1  0.357636  0.465269  0.596959  1
  Rh  Rh26  1  0.357636  0.465269  0.903041  1
  Rh  Rh27  1  0.639029  0.532437  0.090666  1
