# generated using pymatgen
data_Ce2Ni2SbAsH2
_symmetry_space_group_name_H-M   'P 1'
_cell_length_a   4.12863500
_cell_length_b   8.39300449
_cell_length_c   7.35718397
_cell_angle_alpha   90.65123416
_cell_angle_beta   90.00000000
_cell_angle_gamma   90.00000000
_symmetry_Int_Tables_number   1
_chemical_formula_structural   Ce2Ni2SbAsH2
_chemical_formula_sum   'Ce4 Ni4 Sb2 As2 H4'
_cell_volume   254.92211193
_cell_formula_units_Z   2
loop_
 _symmetry_equiv_pos_site_id
 _symmetry_equiv_pos_as_xyz
  1  'x, y, z'
loop_
 _atom_site_type_symbol
 _atom_site_label
 _atom_site_symmetry_multiplicity
 _atom_site_fract_x
 _atom_site_fract_y
 _atom_site_fract_z
 _atom_site_occupancy
  Ce  Ce0  1  0.750000  0.500676  0.750686  1
  Ce  Ce1  1  0.250000  0.499324  0.249314  1
  Ce  Ce2  1  0.250000  0.989201  0.271771  1
  Ce  Ce3  1  0.750000  0.010799  0.728229  1
  Ni  Ni4  1  0.750000  0.234378  0.421912  1
  Ni  Ni5  1  0.250000  0.765622  0.578088  1
  Ni  Ni6  1  0.250000  0.272858  0.893238  1
  Ni  Ni7  1  0.750000  0.727142  0.106762  1
  Sb  Sb8  1  0.750000  0.224916  0.079042  1
  Sb  Sb9  1  0.250000  0.775084  0.920958  1
  As  As10  1  0.250000  0.276143  0.573255  1
  As  As11  1  0.750000  0.723857  0.426745  1
  H  H12  1  0.250000  0.958106  0.582953  1
  H  H13  1  0.750000  0.041894  0.417047  1
  H  H14  1  0.750000  0.537802  0.078862  1
  H  H15  1  0.250000  0.462198  0.921138  1
