# generated using pymatgen
data_Tb2YbHo(Al8Pt3)3
_symmetry_space_group_name_H-M   'P 1'
_cell_length_a   7.53394437
_cell_length_b   7.55261989
_cell_length_c   13.20316501
_cell_angle_alpha   84.60187902
_cell_angle_beta   79.11564205
_cell_angle_gamma   59.92334622
_symmetry_Int_Tables_number   1
_chemical_formula_structural   Tb2YbHo(Al8Pt3)3
_chemical_formula_sum   'Tb2 Yb1 Ho1 Al24 Pt9'
_cell_volume   638.42325134
_cell_formula_units_Z   1
loop_
 _symmetry_equiv_pos_site_id
 _symmetry_equiv_pos_as_xyz
  1  'x, y, z'
loop_
 _atom_site_type_symbol
 _atom_site_label
 _atom_site_symmetry_multiplicity
 _atom_site_fract_x
 _atom_site_fract_y
 _atom_site_fract_z
 _atom_site_occupancy
  Tb  Tb0  1  0.605399  0.832594  0.191749  1
  Tb  Tb1  1  0.733674  0.498398  0.808172  1
  Yb  Yb2  1  0.393817  0.168444  0.807367  1
  Ho  Ho3  1  0.266679  0.500660  0.192241  1
  Al  Al4  1  0.684011  0.834276  0.944698  1
  Al  Al5  1  0.315318  0.166675  0.054910  1
  Al  Al6  1  0.146700  0.832311  0.560976  1
  Al  Al7  1  0.853375  0.167818  0.438099  1
  Al  Al8  1  0.479974  0.166616  0.558842  1
  Al  Al9  1  0.520326  0.833638  0.440811  1
  Al  Al10  1  0.217550  0.165562  0.329226  1
  Al  Al11  1  0.781995  0.835651  0.670208  1
  Al  Al12  1  0.437007  0.505777  0.669789  1
  Al  Al13  1  0.562987  0.493233  0.329411  1
  Al  Al14  1  0.110607  0.159891  0.668498  1
  Al  Al15  1  0.890821  0.839736  0.330768  1
  Al  Al16  1  0.352171  0.499190  0.945186  1
  Al  Al17  1  0.646500  0.500638  0.056253  1
  Al  Al18  1  0.015541  0.167571  0.954512  1
  Al  Al19  1  0.984497  0.831719  0.047100  1
  Al  Al20  1  0.186974  0.499122  0.440795  1
  Al  Al21  1  0.813552  0.500381  0.558424  1
  Al  Al22  1  0.734134  0.164870  0.183688  1
  Al  Al23  1  0.266728  0.833205  0.816776  1
  Al  Al24  1  0.059192  0.632660  0.815772  1
  Al  Al25  1  0.939052  0.368866  0.184759  1
  Al  Al26  1  0.856769  0.042601  0.816408  1
  Al  Al27  1  0.144939  0.958017  0.184078  1
  Pt  Pt28  1  0.119924  0.492750  0.637910  1
  Pt  Pt29  1  0.880230  0.508071  0.361385  1
  Pt  Pt30  1  0.657018  0.171334  0.000688  1
  Pt  Pt31  1  0.342121  0.828364  0.001008  1
  Pt  Pt32  1  0.538059  0.166874  0.361483  1
  Pt  Pt33  1  0.461827  0.832770  0.637854  1
  Pt  Pt34  1  0.779805  0.174392  0.636555  1
  Pt  Pt35  1  0.221307  0.824929  0.362669  1
  Pt  Pt36  1  0.999419  0.500395  0.000930  1
