# generated using pymatgen
data_Nd4DyP12Ir13Ru6
_symmetry_space_group_name_H-M   'P 1'
_cell_length_a   12.70726932
_cell_length_b   12.69516998
_cell_length_c   4.01524000
_cell_angle_alpha   90.00000000
_cell_angle_beta   90.00000000
_cell_angle_gamma   119.75183433
_symmetry_Int_Tables_number   1
_chemical_formula_structural   Nd4DyP12Ir13Ru6
_chemical_formula_sum   'Nd4 Dy1 P12 Ir13 Ru6'
_cell_volume   562.35881266
_cell_formula_units_Z   1
loop_
 _symmetry_equiv_pos_site_id
 _symmetry_equiv_pos_as_xyz
  1  'x, y, z'
loop_
 _atom_site_type_symbol
 _atom_site_label
 _atom_site_symmetry_multiplicity
 _atom_site_fract_x
 _atom_site_fract_y
 _atom_site_fract_z
 _atom_site_occupancy
  Nd  Nd0  1  0.667828  0.333091  0.000000  1
  Nd  Nd1  1  0.815017  0.001739  0.500000  1
  Nd  Nd2  1  0.185272  0.185896  0.500000  1
  Nd  Nd3  1  0.999567  0.813762  0.500000  1
  Dy  Dy4  1  0.332990  0.665509  0.000000  1
  P  P5  1  0.642581  0.005251  0.000000  1
  P  P6  1  0.365638  0.364851  0.000000  1
  P  P7  1  0.998763  0.634462  0.000000  1
  P  P8  1  0.688965  0.520406  0.500000  1
  P  P9  1  0.830575  0.307942  0.500000  1
  P  P10  1  0.307804  0.826649  0.500000  1
  P  P11  1  0.518327  0.688298  0.500000  1
  P  P12  1  0.183328  0.000027  0.000000  1
  P  P13  1  0.817053  0.818672  0.000000  1
  P  P14  1  0.998773  0.183633  0.000000  1
  P  P15  1  0.479483  0.170127  0.500000  1
  P  P16  1  0.170198  0.481272  0.500000  1
  Ir  Ir17  1  0.621063  0.804762  0.000000  1
  Ir  Ir18  1  0.183124  0.379550  0.000000  1
  Ir  Ir19  1  0.379307  0.181187  0.000000  1
  Ir  Ir20  1  0.197393  0.817004  0.000000  1
  Ir  Ir21  1  0.801145  0.621510  0.000000  1
  Ir  Ir22  1  0.871594  0.508654  0.500000  1
  Ir  Ir23  1  0.490591  0.364733  0.500000  1
  Ir  Ir24  1  0.635354  0.125692  0.500000  1
  Ir  Ir25  1  0.129590  0.636359  0.500000  1
  Ir  Ir26  1  0.361640  0.493783  0.500000  1
  Ir  Ir27  1  0.502950  0.865083  0.500000  1
  Ir  Ir28  1  0.000583  0.000034  0.000000  1
  Ir  Ir29  1  0.457365  0.995747  0.000000  1
  Ru  Ru30  1  0.709577  0.711206  0.500000  1
  Ru  Ru31  1  0.002672  0.291454  0.500000  1
  Ru  Ru32  1  0.544062  0.547704  0.000000  1
  Ru  Ru33  1  0.001510  0.455025  0.000000  1
  Ru  Ru34  1  0.820311  0.200106  0.000000  1
  Ru  Ru35  1  0.288005  0.998819  0.500000  1
