# generated using pymatgen
data_K4CaFe3F14
_symmetry_space_group_name_H-M   'P 1'
_cell_length_a   7.94536570
_cell_length_b   7.94536492
_cell_length_c   7.89319053
_cell_angle_alpha   120.85916664
_cell_angle_beta   117.12767825
_cell_angle_gamma   92.14670043
_symmetry_Int_Tables_number   1
_chemical_formula_structural   K4CaFe3F14
_chemical_formula_sum   'K4 Ca1 Fe3 F14'
_cell_volume   355.87151148
_cell_formula_units_Z   1
loop_
 _symmetry_equiv_pos_site_id
 _symmetry_equiv_pos_as_xyz
  1  'x, y, z'
loop_
 _atom_site_type_symbol
 _atom_site_label
 _atom_site_symmetry_multiplicity
 _atom_site_fract_x
 _atom_site_fract_y
 _atom_site_fract_z
 _atom_site_occupancy
  K  K0  1  0.500000  0.500000  0.000000  1
  K  K1  1  0.000000  0.000000  0.000000  1
  K  K2  1  0.000000  0.500000  0.000000  1
  K  K3  1  0.000000  0.000000  0.500000  1
  Ca  Ca4  1  0.500000  0.500000  0.500000  1
  Fe  Fe5  1  0.500000  0.000000  0.000000  1
  Fe  Fe6  1  0.000000  0.500000  0.500000  1
  Fe  Fe7  1  0.500000  0.000000  0.500000  1
  F  F8  1  0.875957  0.586213  0.292745  1
  F  F9  1  0.206531  0.916787  0.292745  1
  F  F10  1  0.188294  0.792847  0.753115  1
  F  F11  1  0.454417  0.703824  0.376256  1
  F  F12  1  0.460268  0.064821  0.753115  1
  F  F13  1  0.172433  0.421839  0.376256  1
  F  F14  1  0.827567  0.578161  0.623744  1
  F  F15  1  0.539732  0.935179  0.246885  1
  F  F16  1  0.545583  0.296176  0.623744  1
  F  F17  1  0.811706  0.207153  0.246885  1
  F  F18  1  0.387685  0.232514  0.120199  1
  F  F19  1  0.124043  0.413787  0.707255  1
  F  F20  1  0.793469  0.083213  0.707255  1
  F  F21  1  0.612315  0.767486  0.879801  1
