# generated using pymatgen
data_Tb4Lu6OsRu3
_symmetry_space_group_name_H-M   'P 1'
_cell_length_a   6.26964493
_cell_length_b   7.26732905
_cell_length_c   8.36638733
_cell_angle_alpha   97.11961236
_cell_angle_beta   112.02138062
_cell_angle_gamma   89.91491040
_symmetry_Int_Tables_number   1
_chemical_formula_structural   Tb4Lu6OsRu3
_chemical_formula_sum   'Tb4 Lu6 Os1 Ru3'
_cell_volume   350.24710367
_cell_formula_units_Z   1
loop_
 _symmetry_equiv_pos_site_id
 _symmetry_equiv_pos_as_xyz
  1  'x, y, z'
loop_
 _atom_site_type_symbol
 _atom_site_label
 _atom_site_symmetry_multiplicity
 _atom_site_fract_x
 _atom_site_fract_y
 _atom_site_fract_z
 _atom_site_occupancy
  Tb  Tb0  1  0.521934  0.082730  0.810122  1
  Tb  Tb1  1  0.477869  0.919068  0.190656  1
  Tb  Tb2  1  0.714454  0.417317  0.190124  1
  Tb  Tb3  1  0.287984  0.583138  0.812682  1
  Lu  Lu4  1  0.298137  0.315652  0.433608  1
  Lu  Lu5  1  0.699710  0.683367  0.565147  1
  Lu  Lu6  1  0.865531  0.184957  0.566617  1
  Lu  Lu7  1  0.135306  0.813996  0.433117  1
  Lu  Lu8  1  0.080013  0.250428  0.000372  1
  Lu  Lu9  1  0.921065  0.749569  0.000263  1
  Os  Os10  1  0.316859  0.576632  0.220611  1
  Ru  Ru11  1  0.681766  0.423178  0.778007  1
  Ru  Ru12  1  0.094729  0.924600  0.776220  1
  Ru  Ru13  1  0.904640  0.075369  0.222453  1
