# generated using pymatgen
data_La2YAlC3
_symmetry_space_group_name_H-M   'P 1'
_cell_length_a   3.77118600
_cell_length_b   7.61867779
_cell_length_c   10.12011474
_cell_angle_alpha   88.65039788
_cell_angle_beta   90.00000000
_cell_angle_gamma   90.00000000
_symmetry_Int_Tables_number   1
_chemical_formula_structural   La2YAlC3
_chemical_formula_sum   'La4 Y2 Al2 C6'
_cell_volume   290.68492078
_cell_formula_units_Z   2
loop_
 _symmetry_equiv_pos_site_id
 _symmetry_equiv_pos_as_xyz
  1  'x, y, z'
loop_
 _atom_site_type_symbol
 _atom_site_label
 _atom_site_symmetry_multiplicity
 _atom_site_fract_x
 _atom_site_fract_y
 _atom_site_fract_z
 _atom_site_occupancy
  La  La0  1  0.500000  0.522667  0.186964  1
  La  La1  1  0.500000  0.477333  0.813036  1
  La  La2  1  0.000000  0.751211  0.466100  1
  La  La3  1  0.000000  0.248789  0.533900  1
  Y  Y4  1  0.500000  0.984662  0.201050  1
  Y  Y5  1  0.500000  0.015338  0.798950  1
  Al  Al6  1  0.000000  0.792952  0.006356  1
  Al  Al7  1  0.000000  0.207048  0.993644  1
  C  C8  1  0.500000  0.504459  0.565183  1
  C  C9  1  0.500000  0.495541  0.434817  1
  C  C10  1  0.500000  0.992968  0.565063  1
  C  C11  1  0.500000  0.007032  0.434937  1
  C  C12  1  0.000000  0.764888  0.205580  1
  C  C13  1  0.000000  0.235112  0.794420  1
