# generated using pymatgen
data_RbClOF4
_symmetry_space_group_name_H-M   'P 1'
_cell_length_a   5.71567500
_cell_length_b   5.76435400
_cell_length_c   14.31527500
_cell_angle_alpha   90.00000000
_cell_angle_beta   90.00000000
_cell_angle_gamma   90.00000000
_symmetry_Int_Tables_number   1
_chemical_formula_structural   RbClOF4
_chemical_formula_sum   'Rb4 Cl4 O4 F16'
_cell_volume   471.64785698
_cell_formula_units_Z   4
loop_
 _symmetry_equiv_pos_site_id
 _symmetry_equiv_pos_as_xyz
  1  'x, y, z'
loop_
 _atom_site_type_symbol
 _atom_site_label
 _atom_site_symmetry_multiplicity
 _atom_site_fract_x
 _atom_site_fract_y
 _atom_site_fract_z
 _atom_site_occupancy
  Rb  Rb0  1  0.750000  0.693378  0.880749  1
  Rb  Rb1  1  0.750000  0.193378  0.619251  1
  Rb  Rb2  1  0.250000  0.806622  0.380749  1
  Rb  Rb3  1  0.250000  0.306622  0.119251  1
  Cl  Cl4  1  0.750000  0.855789  0.140180  1
  Cl  Cl5  1  0.750000  0.355789  0.359820  1
  Cl  Cl6  1  0.250000  0.144211  0.859820  1
  Cl  Cl7  1  0.250000  0.644211  0.640180  1
  O  O8  1  0.250000  0.942320  0.917287  1
  O  O9  1  0.250000  0.442320  0.582713  1
  O  O10  1  0.750000  0.057680  0.082713  1
  O  O11  1  0.750000  0.557680  0.417287  1
  F  F12  1  0.024362  0.802630  0.572070  1
  F  F13  1  0.524362  0.697370  0.072070  1
  F  F14  1  0.975638  0.697370  0.072070  1
  F  F15  1  0.521182  0.960405  0.222605  1
  F  F16  1  0.475638  0.802630  0.572070  1
  F  F17  1  0.978818  0.460405  0.277395  1
  F  F18  1  0.024362  0.302630  0.927930  1
  F  F19  1  0.021182  0.539595  0.722605  1
  F  F20  1  0.975638  0.197370  0.427930  1
  F  F21  1  0.478818  0.539595  0.722605  1
  F  F22  1  0.475638  0.302630  0.927930  1
  F  F23  1  0.478818  0.039595  0.777395  1
  F  F24  1  0.521182  0.460405  0.277395  1
  F  F25  1  0.978818  0.960405  0.222605  1
  F  F26  1  0.524362  0.197370  0.427930  1
  F  F27  1  0.021182  0.039595  0.777395  1
