# generated using pymatgen
data_ErTh3Pd7Pt5
_symmetry_space_group_name_H-M   'P 1'
_cell_length_a   5.92510057
_cell_length_b   5.91875818
_cell_length_c   9.74485515
_cell_angle_alpha   89.99999733
_cell_angle_beta   89.92012450
_cell_angle_gamma   119.96460836
_symmetry_Int_Tables_number   1
_chemical_formula_structural   ErTh3Pd7Pt5
_chemical_formula_sum   'Er1 Th3 Pd7 Pt5'
_cell_volume   296.06464770
_cell_formula_units_Z   1
loop_
 _symmetry_equiv_pos_site_id
 _symmetry_equiv_pos_as_xyz
  1  'x, y, z'
loop_
 _atom_site_type_symbol
 _atom_site_label
 _atom_site_symmetry_multiplicity
 _atom_site_fract_x
 _atom_site_fract_y
 _atom_site_fract_z
 _atom_site_occupancy
  Er  Er0  1  0.333973  0.666987  0.250161  1
  Th  Th1  1  0.000017  0.000009  0.495224  1
  Th  Th2  1  0.999961  0.999981  0.005005  1
  Th  Th3  1  0.666334  0.333166  0.750098  1
  Pd  Pd4  1  0.001452  0.500726  0.001680  1
  Pd  Pd5  1  0.825394  0.650573  0.249587  1
  Pd  Pd6  1  0.350353  0.175177  0.249231  1
  Pd  Pd7  1  0.825394  0.174822  0.249587  1
  Pd  Pd8  1  0.173556  0.347677  0.750312  1
  Pd  Pd9  1  0.651338  0.825669  0.750719  1
  Pd  Pd10  1  0.173556  0.825878  0.750312  1
  Pt  Pt11  1  0.499216  0.500703  0.498035  1
  Pt  Pt12  1  0.499216  0.998512  0.498035  1
  Pt  Pt13  1  0.001593  0.500796  0.497959  1
  Pt  Pt14  1  0.499323  0.500808  0.002028  1
  Pt  Pt15  1  0.499323  0.998515  0.002028  1
