# generated using pymatgen
data_YU5(Ni3Sb4)2
_symmetry_space_group_name_H-M   'P 1'
_cell_length_a   8.14890585
_cell_length_b   8.14890520
_cell_length_c   8.14890546
_cell_angle_alpha   109.59332489
_cell_angle_beta   109.22728428
_cell_angle_gamma   109.59332653
_symmetry_Int_Tables_number   1
_chemical_formula_structural   YU5(Ni3Sb4)2
_chemical_formula_sum   'Y1 U5 Ni6 Sb8'
_cell_volume   416.55280178
_cell_formula_units_Z   1
loop_
 _symmetry_equiv_pos_site_id
 _symmetry_equiv_pos_as_xyz
  1  'x, y, z'
loop_
 _atom_site_type_symbol
 _atom_site_label
 _atom_site_symmetry_multiplicity
 _atom_site_fract_x
 _atom_site_fract_y
 _atom_site_fract_z
 _atom_site_occupancy
  Y  Y0  1  0.875000  0.250000  0.125000  1
  U  U1  1  0.625000  0.750000  0.375000  1
  U  U2  1  0.249510  0.123068  0.877921  1
  U  U3  1  0.754853  0.376932  0.626441  1
  U  U4  1  0.122079  0.871589  0.245147  1
  U  U5  1  0.373559  0.628411  0.750490  1
  Ni  Ni6  1  0.375000  0.250000  0.625000  1
  Ni  Ni7  1  0.125000  0.750000  0.875000  1
  Ni  Ni8  1  0.260621  0.631845  0.381334  1
  Ni  Ni9  1  0.749489  0.868155  0.128776  1
  Ni  Ni10  1  0.618666  0.379287  0.250511  1
  Ni  Ni11  1  0.871224  0.120713  0.739379  1
  Sb  Sb12  1  0.662117  0.497385  0.997134  1
  Sb  Sb13  1  0.499749  0.002615  0.664732  1
  Sb  Sb14  1  0.997825  0.662115  0.496121  1
  Sb  Sb15  1  0.834006  0.837885  0.835709  1
  Sb  Sb16  1  0.503879  0.001704  0.165994  1
  Sb  Sb17  1  0.164291  0.498296  0.002175  1
  Sb  Sb18  1  0.002866  0.164983  0.500251  1
  Sb  Sb19  1  0.335268  0.335017  0.337883  1
