# generated using pymatgen
data_SmEr5(AuO7)2
_symmetry_space_group_name_H-M   'P 1'
_cell_length_a   6.46557187
_cell_length_b   6.46557154
_cell_length_c   7.42986630
_cell_angle_alpha   90.08676525
_cell_angle_beta   89.91323432
_cell_angle_gamma   108.78258742
_symmetry_Int_Tables_number   1
_chemical_formula_structural   SmEr5(AuO7)2
_chemical_formula_sum   'Sm1 Er5 Au2 O14'
_cell_volume   294.05469583
_cell_formula_units_Z   1
loop_
 _symmetry_equiv_pos_site_id
 _symmetry_equiv_pos_as_xyz
  1  'x, y, z'
loop_
 _atom_site_type_symbol
 _atom_site_label
 _atom_site_symmetry_multiplicity
 _atom_site_fract_x
 _atom_site_fract_y
 _atom_site_fract_z
 _atom_site_occupancy
  Sm  Sm0  1  0.500000  0.500000  0.000000  1
  Er  Er1  1  0.500000  0.500000  0.500000  1
  Er  Er2  1  0.529064  0.998541  0.747791  1
  Er  Er3  1  0.998541  0.529064  0.252209  1
  Er  Er4  1  0.470936  0.001459  0.252209  1
  Er  Er5  1  0.001459  0.470936  0.747791  1
  Au  Au6  1  0.000000  0.000000  0.500000  1
  Au  Au7  1  0.000000  0.000000  0.000000  1
  O  O8  1  0.669203  0.918278  0.475064  1
  O  O9  1  0.918278  0.669203  0.524936  1
  O  O10  1  0.668708  0.922760  0.024445  1
  O  O11  1  0.922760  0.668708  0.975555  1
  O  O12  1  0.330797  0.081722  0.524936  1
  O  O13  1  0.081722  0.330797  0.475064  1
  O  O14  1  0.331292  0.077240  0.975555  1
  O  O15  1  0.077240  0.331292  0.024445  1
  O  O16  1  0.919526  0.080474  0.749850  1
  O  O17  1  0.080474  0.919526  0.250150  1
  O  O18  1  0.365390  0.634610  0.742851  1
  O  O19  1  0.634610  0.365390  0.257149  1
  O  O20  1  0.641116  0.358884  0.742907  1
  O  O21  1  0.358884  0.641116  0.257093  1
