# generated using pymatgen
data_HoEr2Ga2Co9B4
_symmetry_space_group_name_H-M   'P 1'
_cell_length_a   5.13610003
_cell_length_b   5.13525330
_cell_length_c   9.56337300
_cell_angle_alpha   89.99995159
_cell_angle_beta   90.00012870
_cell_angle_gamma   120.00889835
_symmetry_Int_Tables_number   1
_chemical_formula_structural   HoEr2Ga2Co9B4
_chemical_formula_sum   'Ho1 Er2 Ga2 Co9 B4'
_cell_volume   218.42287637
_cell_formula_units_Z   1
loop_
 _symmetry_equiv_pos_site_id
 _symmetry_equiv_pos_as_xyz
  1  'x, y, z'
loop_
 _atom_site_type_symbol
 _atom_site_label
 _atom_site_symmetry_multiplicity
 _atom_site_fract_x
 _atom_site_fract_y
 _atom_site_fract_z
 _atom_site_occupancy
  Ho  Ho0  1  0.999985  0.000001  0.000008  1
  Er  Er1  1  0.999994  0.999997  0.340309  1
  Er  Er2  1  0.999996  0.999999  0.659674  1
  Ga  Ga3  1  0.333804  0.666986  0.000060  1
  Ga  Ga4  1  0.666174  0.333014  0.000063  1
  Co  Co5  1  0.499998  0.999999  0.499977  1
  Co  Co6  1  0.499997  0.500001  0.499978  1
  Co  Co7  1  0.999996  0.499999  0.499978  1
  Co  Co8  1  0.499992  0.999999  0.207515  1
  Co  Co9  1  0.499990  0.500001  0.207506  1
  Co  Co10  1  0.999991  0.500000  0.207494  1
  Co  Co11  1  0.500000  0.000001  0.792491  1
  Co  Co12  1  0.499999  0.500002  0.792496  1
  Co  Co13  1  0.999998  0.499998  0.792513  1
  B  B14  1  0.333315  0.666686  0.349162  1
  B  B15  1  0.666671  0.333315  0.349161  1
  B  B16  1  0.666642  0.333312  0.650808  1
  B  B17  1  0.333353  0.666689  0.650808  1
