# generated using pymatgen
data_Y4Ga2B4IrRh9
_symmetry_space_group_name_H-M   'P 1'
_cell_length_a   9.51888955
_cell_length_b   9.51888955
_cell_length_c   3.21362400
_cell_angle_alpha   90.00000000
_cell_angle_beta   90.00000000
_cell_angle_gamma   90.33857860
_symmetry_Int_Tables_number   1
_chemical_formula_structural   Y4Ga2B4IrRh9
_chemical_formula_sum   'Y4 Ga2 B4 Ir1 Rh9'
_cell_volume   291.17900292
_cell_formula_units_Z   1
loop_
 _symmetry_equiv_pos_site_id
 _symmetry_equiv_pos_as_xyz
  1  'x, y, z'
loop_
 _atom_site_type_symbol
 _atom_site_label
 _atom_site_symmetry_multiplicity
 _atom_site_fract_x
 _atom_site_fract_y
 _atom_site_fract_z
 _atom_site_occupancy
  Y  Y0  1  0.824816  0.324816  0.000000  1
  Y  Y1  1  0.323108  0.176892  0.000000  1
  Y  Y2  1  0.676892  0.823108  0.000000  1
  Y  Y3  1  0.175184  0.675184  0.000000  1
  Ga  Ga4  1  0.000000  0.000000  0.000000  1
  Ga  Ga5  1  0.500000  0.500000  0.000000  1
  B  B6  1  0.621350  0.121350  0.000000  1
  B  B7  1  0.121446  0.378554  0.000000  1
  B  B8  1  0.878554  0.621446  0.000000  1
  B  B9  1  0.378650  0.878650  0.000000  1
  Ir  Ir10  1  0.500000  0.000000  0.500000  1
  Rh  Rh11  1  0.068989  0.219661  0.500000  1
  Rh  Rh12  1  0.219308  0.929305  0.500000  1
  Rh  Rh13  1  0.780692  0.070695  0.500000  1
  Rh  Rh14  1  0.931011  0.780339  0.500000  1
  Rh  Rh15  1  0.429305  0.719308  0.500000  1
  Rh  Rh16  1  0.570695  0.280692  0.500000  1
  Rh  Rh17  1  0.719661  0.568989  0.500000  1
  Rh  Rh18  1  0.280339  0.431011  0.500000  1
  Rh  Rh19  1  0.000000  0.500000  0.500000  1
