# generated using pymatgen
data_Tb8In(Pd7Pt5)2
_symmetry_space_group_name_H-M   'P 1'
_cell_length_a   8.42522913
_cell_length_b   8.43229100
_cell_length_c   8.41735713
_cell_angle_alpha   90.00000000
_cell_angle_beta   90.02006405
_cell_angle_gamma   90.00000000
_symmetry_Int_Tables_number   1
_chemical_formula_structural   Tb8In(Pd7Pt5)2
_chemical_formula_sum   'Tb8 In1 Pd14 Pt10'
_cell_volume   598.00254650
_cell_formula_units_Z   1
loop_
 _symmetry_equiv_pos_site_id
 _symmetry_equiv_pos_as_xyz
  1  'x, y, z'
loop_
 _atom_site_type_symbol
 _atom_site_label
 _atom_site_symmetry_multiplicity
 _atom_site_fract_x
 _atom_site_fract_y
 _atom_site_fract_z
 _atom_site_occupancy
  Tb  Tb0  1  0.251591  0.251235  0.251109  1
  Tb  Tb1  1  0.748630  0.747091  0.748170  1
  Tb  Tb2  1  0.748194  0.747950  0.251884  1
  Tb  Tb3  1  0.748630  0.252909  0.748170  1
  Tb  Tb4  1  0.251262  0.251907  0.749017  1
  Tb  Tb5  1  0.251591  0.748765  0.251109  1
  Tb  Tb6  1  0.251262  0.748093  0.749017  1
  Tb  Tb7  1  0.748194  0.252050  0.251884  1
  In  In8  1  0.000851  0.000000  0.000329  1
  Pd  Pd9  1  0.266086  0.000000  0.500230  1
  Pd  Pd10  1  0.500206  0.000000  0.732653  1
  Pd  Pd11  1  0.733242  0.000000  0.500179  1
  Pd  Pd12  1  0.000000  0.500000  0.265960  1
  Pd  Pd13  1  0.000029  0.500000  0.734227  1
  Pd  Pd14  1  0.500040  0.255139  0.499827  1
  Pd  Pd15  1  0.500040  0.744861  0.499827  1
  Pd  Pd16  1  0.500007  0.500000  0.255531  1
  Pd  Pd17  1  0.500010  0.500000  0.744266  1
  Pd  Pd18  1  0.688453  0.000000  0.999543  1
  Pd  Pd19  1  0.999501  0.312644  0.999988  1
  Pd  Pd20  1  0.999501  0.687356  0.999988  1
  Pd  Pd21  1  0.999451  0.000000  0.313294  1
  Pd  Pd22  1  0.999474  0.000000  0.686931  1
  Pt  Pt23  1  0.264979  0.500000  0.000035  1
  Pt  Pt24  1  0.733972  0.500000  0.000052  1
  Pt  Pt25  1  0.000069  0.265785  0.500082  1
  Pt  Pt26  1  0.499995  0.266059  0.999842  1
  Pt  Pt27  1  0.000069  0.734215  0.500082  1
  Pt  Pt28  1  0.499995  0.733941  0.999842  1
  Pt  Pt29  1  0.500222  0.000000  0.267233  1
  Pt  Pt30  1  0.254438  0.500000  0.500031  1
  Pt  Pt31  1  0.745740  0.500000  0.500048  1
  Pt  Pt32  1  0.314271  0.000000  0.999624  1
