# generated using pymatgen
data_Hf16Si16Mo3W
_symmetry_space_group_name_H-M   'P 1'
_cell_length_a   6.94946803
_cell_length_b   6.94946803
_cell_length_c   12.72465812
_cell_angle_alpha   90.01112234
_cell_angle_beta   89.98887766
_cell_angle_gamma   90.00156702
_symmetry_Int_Tables_number   1
_chemical_formula_structural   Hf16Si16Mo3W
_chemical_formula_sum   'Hf16 Si16 Mo3 W1'
_cell_volume   614.53868865
_cell_formula_units_Z   1
loop_
 _symmetry_equiv_pos_site_id
 _symmetry_equiv_pos_as_xyz
  1  'x, y, z'
loop_
 _atom_site_type_symbol
 _atom_site_label
 _atom_site_symmetry_multiplicity
 _atom_site_fract_x
 _atom_site_fract_y
 _atom_site_fract_z
 _atom_site_occupancy
  Hf  Hf0  1  0.496765  0.154726  0.530440  1
  Hf  Hf1  1  0.503125  0.845364  0.030443  1
  Hf  Hf2  1  0.654739  0.003248  0.280447  1
  Hf  Hf3  1  0.345227  0.996802  0.780537  1
  Hf  Hf4  1  0.845364  0.503125  0.969557  1
  Hf  Hf5  1  0.154726  0.496765  0.469560  1
  Hf  Hf6  1  0.003248  0.654739  0.719553  1
  Hf  Hf7  1  0.996802  0.345227  0.219463  1
  Hf  Hf8  1  0.498002  0.355151  0.124705  1
  Hf  Hf9  1  0.501995  0.644791  0.624721  1
  Hf  Hf10  1  0.855263  0.001996  0.874731  1
  Hf  Hf11  1  0.144710  0.997989  0.374714  1
  Hf  Hf12  1  0.644791  0.501995  0.375279  1
  Hf  Hf13  1  0.355151  0.498002  0.875295  1
  Hf  Hf14  1  0.001996  0.855263  0.125269  1
  Hf  Hf15  1  0.997989  0.144710  0.625286  1
  Si  Si16  1  0.797286  0.146349  0.071642  1
  Si  Si17  1  0.202830  0.853653  0.571647  1
  Si  Si18  1  0.646372  0.702873  0.821615  1
  Si  Si19  1  0.353651  0.297158  0.321643  1
  Si  Si20  1  0.853653  0.202830  0.428353  1
  Si  Si21  1  0.146349  0.797286  0.928358  1
  Si  Si22  1  0.702873  0.646372  0.178385  1
  Si  Si23  1  0.297158  0.353651  0.678357  1
  Si  Si24  1  0.546076  0.197372  0.933246  1
  Si  Si25  1  0.453806  0.802580  0.433242  1
  Si  Si26  1  0.697459  0.953768  0.683218  1
  Si  Si27  1  0.302579  0.046187  0.183233  1
  Si  Si28  1  0.802580  0.453806  0.566758  1
  Si  Si29  1  0.197372  0.546076  0.066754  1
  Si  Si30  1  0.953768  0.697459  0.316782  1
  Si  Si31  1  0.046187  0.302579  0.816767  1
  Mo  Mo32  1  0.672521  0.327486  0.750036  1
  Mo  Mo33  1  0.327486  0.672521  0.249964  1
  Mo  Mo34  1  0.827489  0.827489  0.500000  1
  W  W35  1  0.172613  0.172613  0.000000  1
