# generated using pymatgen
data_TmAg(CO3)2
_symmetry_space_group_name_H-M   'P 1'
_cell_length_a   6.37753949
_cell_length_b   6.37754006
_cell_length_c   6.37754018
_cell_angle_alpha   47.39570489
_cell_angle_beta   47.39570472
_cell_angle_gamma   47.39571597
_symmetry_Int_Tables_number   1
_chemical_formula_structural   TmAg(CO3)2
_chemical_formula_sum   'Tm1 Ag1 C2 O6'
_cell_volume   128.57165185
_cell_formula_units_Z   1
loop_
 _symmetry_equiv_pos_site_id
 _symmetry_equiv_pos_as_xyz
  1  'x, y, z'
loop_
 _atom_site_type_symbol
 _atom_site_label
 _atom_site_symmetry_multiplicity
 _atom_site_fract_x
 _atom_site_fract_y
 _atom_site_fract_z
 _atom_site_occupancy
  Tm  Tm0  1  0.000000  0.000000  0.000000  1
  Ag  Ag1  1  0.500000  0.500000  0.500000  1
  C  C2  1  0.257788  0.257788  0.257788  1
  C  C3  1  0.742212  0.742212  0.742212  1
  O  O4  1  0.027023  0.217358  0.528324  1
  O  O5  1  0.471676  0.972977  0.782642  1
  O  O6  1  0.782642  0.471676  0.972977  1
  O  O7  1  0.217358  0.528324  0.027023  1
  O  O8  1  0.528324  0.027023  0.217358  1
  O  O9  1  0.972977  0.782642  0.471676  1
