# generated using pymatgen
data_Ho16TcNi3Ag4
_symmetry_space_group_name_H-M   'P 1'
_cell_length_a   9.48490951
_cell_length_b   9.48490992
_cell_length_c   9.48490947
_cell_angle_alpha   59.24963147
_cell_angle_beta   59.24962798
_cell_angle_gamma   59.24962962
_symmetry_Int_Tables_number   1
_chemical_formula_structural   Ho16TcNi3Ag4
_chemical_formula_sum   'Ho16 Tc1 Ni3 Ag4'
_cell_volume   593.05892967
_cell_formula_units_Z   1
loop_
 _symmetry_equiv_pos_site_id
 _symmetry_equiv_pos_as_xyz
  1  'x, y, z'
loop_
 _atom_site_type_symbol
 _atom_site_label
 _atom_site_symmetry_multiplicity
 _atom_site_fract_x
 _atom_site_fract_y
 _atom_site_fract_z
 _atom_site_occupancy
  Ho  Ho0  1  0.348932  0.348932  0.348932  1
  Ho  Ho1  1  0.354822  0.354822  0.945757  1
  Ho  Ho2  1  0.354822  0.945757  0.354822  1
  Ho  Ho3  1  0.945757  0.354822  0.354822  1
  Ho  Ho4  1  0.811245  0.187765  0.187765  1
  Ho  Ho5  1  0.188688  0.811158  0.811158  1
  Ho  Ho6  1  0.187765  0.811245  0.187765  1
  Ho  Ho7  1  0.811158  0.188688  0.811158  1
  Ho  Ho8  1  0.187765  0.187765  0.811245  1
  Ho  Ho9  1  0.811158  0.811158  0.188688  1
  Ho  Ho10  1  0.934874  0.564604  0.564604  1
  Ho  Ho11  1  0.556560  0.938227  0.938227  1
  Ho  Ho12  1  0.564604  0.934874  0.564604  1
  Ho  Ho13  1  0.938227  0.556560  0.938227  1
  Ho  Ho14  1  0.564604  0.564604  0.934874  1
  Ho  Ho15  1  0.938227  0.938227  0.556560  1
  Tc  Tc16  1  0.144261  0.144261  0.144261  1
  Ni  Ni17  1  0.143403  0.143403  0.572579  1
  Ni  Ni18  1  0.143403  0.572579  0.143403  1
  Ni  Ni19  1  0.572579  0.143403  0.143403  1
  Ag  Ag20  1  0.581741  0.581741  0.581741  1
  Ag  Ag21  1  0.580496  0.580496  0.254412  1
  Ag  Ag22  1  0.580496  0.254412  0.580496  1
  Ag  Ag23  1  0.254412  0.580496  0.580496  1
