# generated using pymatgen
data_K3Sc(BrO3)6
_symmetry_space_group_name_H-M   'P 1'
_cell_length_a   7.29254510
_cell_length_b   7.23810841
_cell_length_c   10.72512677
_cell_angle_alpha   98.01331822
_cell_angle_beta   109.71341018
_cell_angle_gamma   105.43019895
_symmetry_Int_Tables_number   1
_chemical_formula_structural   K3Sc(BrO3)6
_chemical_formula_sum   'K3 Sc1 Br6 O18'
_cell_volume   497.07976993
_cell_formula_units_Z   1
loop_
 _symmetry_equiv_pos_site_id
 _symmetry_equiv_pos_as_xyz
  1  'x, y, z'
loop_
 _atom_site_type_symbol
 _atom_site_label
 _atom_site_symmetry_multiplicity
 _atom_site_fract_x
 _atom_site_fract_y
 _atom_site_fract_z
 _atom_site_occupancy
  K  K0  1  0.376728  0.548513  0.283378  1
  K  K1  1  0.623272  0.451487  0.716622  1
  K  K2  1  0.000000  0.500000  0.500000  1
  Sc  Sc3  1  0.000000  0.000000  0.000000  1
  Br  Br4  1  0.520819  0.046123  0.192802  1
  Br  Br5  1  0.479181  0.953877  0.807198  1
  Br  Br6  1  0.789529  0.569294  0.109881  1
  Br  Br7  1  0.210471  0.430706  0.890119  1
  Br  Br8  1  0.121124  0.091413  0.369698  1
  Br  Br9  1  0.878876  0.908587  0.630302  1
  O  O10  1  0.624623  0.673149  0.138609  1
  O  O11  1  0.375377  0.326851  0.861391  1
  O  O12  1  0.004012  0.360869  0.741824  1
  O  O13  1  0.995988  0.639131  0.258176  1
  O  O14  1  0.589618  0.293055  0.243642  1
  O  O15  1  0.410382  0.706945  0.756358  1
  O  O16  1  0.065936  0.120832  0.204884  1
  O  O17  1  0.934064  0.879168  0.795116  1
  O  O18  1  0.297314  0.973871  0.044197  1
  O  O19  1  0.702686  0.026129  0.955803  1
  O  O20  1  0.292713  0.315064  0.461891  1
  O  O21  1  0.707287  0.684936  0.538109  1
  O  O22  1  0.906064  0.093408  0.391677  1
  O  O23  1  0.093936  0.906592  0.608323  1
  O  O24  1  0.561366  0.044129  0.693228  1
  O  O25  1  0.438634  0.955871  0.306772  1
  O  O26  1  0.120376  0.306428  0.996279  1
  O  O27  1  0.879624  0.693572  0.003721  1
