# generated using pymatgen
data_Er6Zn22AgP
_symmetry_space_group_name_H-M   'P 1'
_cell_length_a   9.01979383
_cell_length_b   9.01947136
_cell_length_c   9.01880101
_cell_angle_alpha   59.99991721
_cell_angle_beta   59.99961113
_cell_angle_gamma   60.00008147
_symmetry_Int_Tables_number   1
_chemical_formula_structural   Er6Zn22AgP
_chemical_formula_sum   'Er6 Zn22 Ag1 P1'
_cell_volume   518.81224841
_cell_formula_units_Z   1
loop_
 _symmetry_equiv_pos_site_id
 _symmetry_equiv_pos_as_xyz
  1  'x, y, z'
loop_
 _atom_site_type_symbol
 _atom_site_label
 _atom_site_symmetry_multiplicity
 _atom_site_fract_x
 _atom_site_fract_y
 _atom_site_fract_z
 _atom_site_occupancy
  Er  Er0  1  0.711896  0.288108  0.288119  1
  Er  Er1  1  0.711895  0.288105  0.711887  1
  Er  Er2  1  0.711913  0.711905  0.288087  1
  Er  Er3  1  0.288104  0.711892  0.711881  1
  Er  Er4  1  0.288105  0.711895  0.288113  1
  Er  Er5  1  0.288087  0.288095  0.711913  1
  Zn  Zn6  1  0.623448  0.125523  0.125513  1
  Zn  Zn7  1  0.125521  0.623450  0.125512  1
  Zn  Zn8  1  0.125509  0.125509  0.623456  1
  Zn  Zn9  1  0.125510  0.125512  0.125528  1
  Zn  Zn10  1  0.376552  0.874477  0.874487  1
  Zn  Zn11  1  0.874479  0.376550  0.874488  1
  Zn  Zn12  1  0.874491  0.874491  0.376544  1
  Zn  Zn13  1  0.874490  0.874488  0.874472  1
  Zn  Zn14  1  0.500000  0.000000  0.000000  1
  Zn  Zn15  1  0.500000  0.000000  0.500000  1
  Zn  Zn16  1  0.500000  0.500000  0.000000  1
  Zn  Zn17  1  0.000000  0.500000  0.500000  1
  Zn  Zn18  1  0.000000  0.500000  0.000000  1
  Zn  Zn19  1  0.000000  0.000000  0.500000  1
  Zn  Zn20  1  0.008397  0.330556  0.330522  1
  Zn  Zn21  1  0.330556  0.008399  0.330522  1
  Zn  Zn22  1  0.330525  0.330526  0.008398  1
  Zn  Zn23  1  0.330530  0.330522  0.330551  1
  Zn  Zn24  1  0.991603  0.669444  0.669478  1
  Zn  Zn25  1  0.669444  0.991601  0.669478  1
  Zn  Zn26  1  0.669475  0.669474  0.991602  1
  Zn  Zn27  1  0.669470  0.669478  0.669449  1
  Ag  Ag28  1  0.000000  0.000000  0.000000  1
  P  P29  1  0.500000  0.500000  0.500000  1
