# generated using pymatgen
data_La2Tb8Y6Cd3Ni4Hg
_symmetry_space_group_name_H-M   'P 1'
_cell_length_a   9.64395954
_cell_length_b   9.64395960
_cell_length_c   9.63806900
_cell_angle_alpha   60.02020672
_cell_angle_beta   60.02020650
_cell_angle_gamma   60.07721138
_symmetry_Int_Tables_number   1
_chemical_formula_structural   La2Tb8Y6Cd3Ni4Hg
_chemical_formula_sum   'La2 Tb8 Y6 Cd3 Ni4 Hg1'
_cell_volume   634.41188011
_cell_formula_units_Z   1
loop_
 _symmetry_equiv_pos_site_id
 _symmetry_equiv_pos_as_xyz
  1  'x, y, z'
loop_
 _atom_site_type_symbol
 _atom_site_label
 _atom_site_symmetry_multiplicity
 _atom_site_fract_x
 _atom_site_fract_y
 _atom_site_fract_z
 _atom_site_occupancy
  La  La0  1  0.595853  0.595853  0.600933  1
  La  La1  1  0.596339  0.596339  0.206140  1
  Tb  Tb2  1  0.600640  0.196182  0.601819  1
  Tb  Tb3  1  0.196182  0.600640  0.601819  1
  Tb  Tb4  1  0.064342  0.438587  0.436504  1
  Tb  Tb5  1  0.438779  0.063801  0.060324  1
  Tb  Tb6  1  0.438587  0.064342  0.436504  1
  Tb  Tb7  1  0.063801  0.438779  0.060324  1
  Tb  Tb8  1  0.437866  0.437866  0.061975  1
  Tb  Tb9  1  0.061548  0.061548  0.438140  1
  Y  Y10  1  0.185714  0.815021  0.814199  1
  Y  Y11  1  0.815346  0.186495  0.183296  1
  Y  Y12  1  0.815021  0.185714  0.814199  1
  Y  Y13  1  0.186495  0.815346  0.183296  1
  Y  Y14  1  0.815078  0.815078  0.183839  1
  Y  Y15  1  0.187075  0.187075  0.812942  1
  Cd  Cd16  1  0.833031  0.833031  0.505298  1
  Cd  Cd17  1  0.834384  0.504164  0.830417  1
  Cd  Cd18  1  0.504164  0.834384  0.830417  1
  Ni  Ni19  1  0.389581  0.389581  0.397834  1
  Ni  Ni20  1  0.389541  0.389541  0.823124  1
  Ni  Ni21  1  0.387636  0.826323  0.393039  1
  Ni  Ni22  1  0.826323  0.387636  0.393039  1
  Hg  Hg23  1  0.836678  0.836678  0.830576  1
