# generated using pymatgen
data_CaTbLuZn11
_symmetry_space_group_name_H-M   'P 1'
_cell_length_a   4.34952544
_cell_length_b   8.20057216
_cell_length_c   8.20057300
_cell_angle_alpha   65.75511561
_cell_angle_beta   74.62136979
_cell_angle_gamma   74.62137082
_symmetry_Int_Tables_number   1
_chemical_formula_structural   CaTbLuZn11
_chemical_formula_sum   'Ca1 Tb1 Lu1 Zn11'
_cell_volume   253.05783068
_cell_formula_units_Z   1
loop_
 _symmetry_equiv_pos_site_id
 _symmetry_equiv_pos_as_xyz
  1  'x, y, z'
loop_
 _atom_site_type_symbol
 _atom_site_label
 _atom_site_symmetry_multiplicity
 _atom_site_fract_x
 _atom_site_fract_y
 _atom_site_fract_z
 _atom_site_occupancy
  Ca  Ca0  1  0.999540  0.000315  0.000315  1
  Tb  Tb1  1  0.297875  0.701949  0.701949  1
  Lu  Lu2  1  0.702255  0.297876  0.297876  1
  Zn  Zn3  1  0.999376  0.500878  0.500878  1
  Zn  Zn4  1  0.500576  0.686620  0.311980  1
  Zn  Zn5  1  0.500576  0.311980  0.686620  1
  Zn  Zn6  1  0.663517  0.693081  0.979950  1
  Zn  Zn7  1  0.335601  0.305862  0.023229  1
  Zn  Zn8  1  0.663517  0.979950  0.693081  1
  Zn  Zn9  1  0.335601  0.023229  0.305862  1
  Zn  Zn10  1  0.864992  0.418554  0.851821  1
  Zn  Zn11  1  0.135791  0.575904  0.151981  1
  Zn  Zn12  1  0.864992  0.851821  0.418554  1
  Zn  Zn13  1  0.135791  0.151981  0.575904  1
