# generated using pymatgen
data_Rb2TiAs2
_symmetry_space_group_name_H-M   'P 1'
_cell_length_a   8.67926382
_cell_length_b   8.67926413
_cell_length_c   8.67926441
_cell_angle_alpha   128.44800700
_cell_angle_beta   70.67253710
_cell_angle_gamma   135.16681632
_symmetry_Int_Tables_number   1
_chemical_formula_structural   Rb2TiAs2
_chemical_formula_sum   'Rb4 Ti2 As4'
_cell_volume   353.77802148
_cell_formula_units_Z   2
loop_
 _symmetry_equiv_pos_site_id
 _symmetry_equiv_pos_as_xyz
  1  'x, y, z'
loop_
 _atom_site_type_symbol
 _atom_site_label
 _atom_site_symmetry_multiplicity
 _atom_site_fract_x
 _atom_site_fract_y
 _atom_site_fract_z
 _atom_site_occupancy
  Rb  Rb0  1  0.849047  0.343065  0.192112  1
  Rb  Rb1  1  0.650952  0.843065  0.494019  1
  Rb  Rb2  1  0.349047  0.156935  0.505981  1
  Rb  Rb3  1  0.150953  0.656935  0.807888  1
  Ti  Ti4  1  0.250000  0.250000  0.000000  1
  Ti  Ti5  1  0.750000  0.750000  0.000000  1
  As  As6  1  0.403192  0.668276  0.071468  1
  As  As7  1  0.096808  0.168276  0.265085  1
  As  As8  1  0.903191  0.831723  0.734915  1
  As  As9  1  0.596809  0.331724  0.928532  1
