# generated using pymatgen
data_Os(RuO3)2
_symmetry_space_group_name_H-M   'P 1'
_cell_length_a   4.54291703
_cell_length_b   4.54291700
_cell_length_c   9.47580100
_cell_angle_alpha   90.00000000
_cell_angle_beta   90.00000000
_cell_angle_gamma   89.99289938
_symmetry_Int_Tables_number   1
_chemical_formula_structural   Os(RuO3)2
_chemical_formula_sum   'Os2 Ru4 O12'
_cell_volume   195.56247970
_cell_formula_units_Z   2
loop_
 _symmetry_equiv_pos_site_id
 _symmetry_equiv_pos_as_xyz
  1  'x, y, z'
loop_
 _atom_site_type_symbol
 _atom_site_label
 _atom_site_symmetry_multiplicity
 _atom_site_fract_x
 _atom_site_fract_y
 _atom_site_fract_z
 _atom_site_occupancy
  Os  Os0  1  0.000000  0.000000  0.000000  1
  Os  Os1  1  0.500002  0.499999  0.500000  1
  Ru  Ru2  1  0.500002  0.499999  0.166696  1
  Ru  Ru3  1  0.000000  0.000000  0.333315  1
  Ru  Ru4  1  0.000000  0.000000  0.666685  1
  Ru  Ru5  1  0.500002  0.499999  0.833305  1
  O  O6  1  0.698087  0.301913  0.000000  1
  O  O7  1  0.301912  0.698089  0.000000  1
  O  O8  1  0.190953  0.191055  0.164324  1
  O  O9  1  0.809049  0.808947  0.164324  1
  O  O10  1  0.690799  0.309095  0.335718  1
  O  O11  1  0.309201  0.690905  0.335718  1
  O  O12  1  0.801775  0.801775  0.500000  1
  O  O13  1  0.198226  0.198226  0.500000  1
  O  O14  1  0.690905  0.309201  0.664282  1
  O  O15  1  0.309095  0.690799  0.664282  1
  O  O16  1  0.191054  0.190951  0.835676  1
  O  O17  1  0.808945  0.809047  0.835676  1
