# generated using pymatgen
data_CaPr4Nd2FeI12
_symmetry_space_group_name_H-M   'P 1'
_cell_length_a   10.11680097
_cell_length_b   10.03114024
_cell_length_c   10.00758720
_cell_angle_alpha   106.83969451
_cell_angle_beta   106.74287511
_cell_angle_gamma   107.28151304
_symmetry_Int_Tables_number   1
_chemical_formula_structural   CaPr4Nd2FeI12
_chemical_formula_sum   'Ca1 Pr4 Nd2 Fe1 I12'
_cell_volume   846.82844414
_cell_formula_units_Z   1
loop_
 _symmetry_equiv_pos_site_id
 _symmetry_equiv_pos_as_xyz
  1  'x, y, z'
loop_
 _atom_site_type_symbol
 _atom_site_label
 _atom_site_symmetry_multiplicity
 _atom_site_fract_x
 _atom_site_fract_y
 _atom_site_fract_z
 _atom_site_occupancy
  Ca  Ca0  1  0.999871  0.999368  0.000084  1
  Pr  Pr1  1  0.190452  0.473540  0.398606  1
  Pr  Pr2  1  0.473867  0.403758  0.206780  1
  Pr  Pr3  1  0.597385  0.794170  0.525156  1
  Pr  Pr4  1  0.403346  0.206048  0.474671  1
  Nd  Nd5  1  0.807396  0.526727  0.601514  1
  Nd  Nd6  1  0.525529  0.595749  0.790557  1
  Fe  Fe7  1  0.500550  0.500437  0.500084  1
  I  I8  1  0.726252  0.184045  0.574212  1
  I  I9  1  0.960467  0.881540  0.657306  1
  I  I10  1  0.573815  0.726401  0.181953  1
  I  I11  1  0.117862  0.341732  0.036680  1
  I  I12  1  0.659540  0.960322  0.883674  1
  I  I13  1  0.878991  0.655918  0.961000  1
  I  I14  1  0.039875  0.116278  0.342828  1
  I  I15  1  0.815821  0.426279  0.273998  1
  I  I16  1  0.339693  0.037491  0.116114  1
  I  I17  1  0.276134  0.819034  0.427319  1
  I  I18  1  0.185690  0.574977  0.729688  1
  I  I19  1  0.427465  0.276185  0.817774  1
