# generated using pymatgen
data_Hf3NbSi3PRh4
_symmetry_space_group_name_H-M   'P 1'
_cell_length_a   3.83700500
_cell_length_b   6.50390824
_cell_length_c   7.43342345
_cell_angle_alpha   90.45675835
_cell_angle_beta   90.00000000
_cell_angle_gamma   90.00000000
_symmetry_Int_Tables_number   1
_chemical_formula_structural   Hf3NbSi3PRh4
_chemical_formula_sum   'Hf3 Nb1 Si3 P1 Rh4'
_cell_volume   185.49911594
_cell_formula_units_Z   1
loop_
 _symmetry_equiv_pos_site_id
 _symmetry_equiv_pos_as_xyz
  1  'x, y, z'
loop_
 _atom_site_type_symbol
 _atom_site_label
 _atom_site_symmetry_multiplicity
 _atom_site_fract_x
 _atom_site_fract_y
 _atom_site_fract_z
 _atom_site_occupancy
  Hf  Hf0  1  0.750000  0.475367  0.318835  1
  Hf  Hf1  1  0.250000  0.024787  0.819224  1
  Hf  Hf2  1  0.750000  0.975594  0.180637  1
  Nb  Nb3  1  0.250000  0.524001  0.677736  1
  Si  Si4  1  0.250000  0.769025  0.387068  1
  Si  Si5  1  0.750000  0.722113  0.872558  1
  Si  Si6  1  0.750000  0.237047  0.622031  1
  P  P7  1  0.250000  0.264433  0.120395  1
  Rh  Rh8  1  0.250000  0.649569  0.063813  1
  Rh  Rh9  1  0.250000  0.149791  0.433905  1
  Rh  Rh10  1  0.750000  0.858410  0.563689  1
  Rh  Rh11  1  0.750000  0.349864  0.940110  1
