# generated using pymatgen
data_Ho5Tl2In2IrPd
_symmetry_space_group_name_H-M   'P 1'
_cell_length_a   3.62409600
_cell_length_b   8.16786318
_cell_length_c   18.29501845
_cell_angle_alpha   90.01981870
_cell_angle_beta   90.00000000
_cell_angle_gamma   90.00000000
_symmetry_Int_Tables_number   1
_chemical_formula_structural   Ho5Tl2In2IrPd
_chemical_formula_sum   'Ho10 Tl4 In4 Ir2 Pd2'
_cell_volume   541.55300912
_cell_formula_units_Z   2
loop_
 _symmetry_equiv_pos_site_id
 _symmetry_equiv_pos_as_xyz
  1  'x, y, z'
loop_
 _atom_site_type_symbol
 _atom_site_label
 _atom_site_symmetry_multiplicity
 _atom_site_fract_x
 _atom_site_fract_y
 _atom_site_fract_z
 _atom_site_occupancy
  Ho  Ho0  1  0.000000  0.500000  0.500000  1
  Ho  Ho1  1  0.000000  0.000000  0.000000  1
  Ho  Ho2  1  0.000000  0.728861  0.278715  1
  Ho  Ho3  1  0.000000  0.271139  0.721285  1
  Ho  Ho4  1  0.000000  0.744333  0.781382  1
  Ho  Ho5  1  0.000000  0.255667  0.218618  1
  Ho  Ho6  1  0.000000  0.613235  0.089152  1
  Ho  Ho7  1  0.000000  0.386765  0.910848  1
  Ho  Ho8  1  0.000000  0.885136  0.587431  1
  Ho  Ho9  1  0.000000  0.114864  0.412569  1
  Tl  Tl10  1  0.500000  0.709426  0.934880  1
  Tl  Tl11  1  0.500000  0.290574  0.065120  1
  Tl  Tl12  1  0.500000  0.791771  0.433892  1
  Tl  Tl13  1  0.500000  0.208229  0.566108  1
  In  In14  1  0.500000  0.581548  0.648669  1
  In  In15  1  0.500000  0.418452  0.351331  1
  In  In16  1  0.500000  0.919968  0.150874  1
  In  In17  1  0.500000  0.080032  0.849126  1
  Ir  Ir18  1  0.500000  0.524729  0.197963  1
  Ir  Ir19  1  0.500000  0.475271  0.802037  1
  Pd  Pd20  1  0.500000  0.974731  0.698309  1
  Pd  Pd21  1  0.500000  0.025269  0.301691  1
