# generated using pymatgen
data_TbY7Ta4(TiSi2)8
_symmetry_space_group_name_H-M   'P 1'
_cell_length_a   7.04704402
_cell_length_b   7.04753316
_cell_length_c   12.98973303
_cell_angle_alpha   89.98916836
_cell_angle_beta   90.00172014
_cell_angle_gamma   89.98587832
_symmetry_Int_Tables_number   1
_chemical_formula_structural   TbY7Ta4(TiSi2)8
_chemical_formula_sum   'Tb1 Y7 Ta4 Ti8 Si16'
_cell_volume   645.12566058
_cell_formula_units_Z   1
loop_
 _symmetry_equiv_pos_site_id
 _symmetry_equiv_pos_as_xyz
  1  'x, y, z'
loop_
 _atom_site_type_symbol
 _atom_site_label
 _atom_site_symmetry_multiplicity
 _atom_site_fract_x
 _atom_site_fract_y
 _atom_site_fract_z
 _atom_site_occupancy
  Tb  Tb0  1  0.997579  0.659612  0.033120  1
  Y  Y1  1  0.340445  0.002197  0.466871  1
  Y  Y2  1  0.497813  0.840428  0.716905  1
  Y  Y3  1  0.502262  0.159605  0.216920  1
  Y  Y4  1  0.840423  0.497693  0.283105  1
  Y  Y5  1  0.159571  0.502218  0.783026  1
  Y  Y6  1  0.659601  0.997739  0.966887  1
  Y  Y7  1  0.002235  0.340479  0.533163  1
  Ta  Ta8  1  0.326902  0.326958  0.999982  1
  Ta  Ta9  1  0.173048  0.826864  0.250010  1
  Ta  Ta10  1  0.826936  0.173028  0.749946  1
  Ta  Ta11  1  0.673062  0.673100  0.499990  1
  Ti  Ti12  1  0.153083  0.008885  0.875993  1
  Ti  Ti13  1  0.491075  0.652988  0.126098  1
  Ti  Ti14  1  0.508964  0.346983  0.626016  1
  Ti  Ti15  1  0.653057  0.490973  0.873974  1
  Ti  Ti16  1  0.347034  0.509005  0.374001  1
  Ti  Ti17  1  0.846875  0.991041  0.376051  1
  Ti  Ti18  1  0.009026  0.153259  0.124059  1
  Ti  Ti19  1  0.990990  0.846972  0.623969  1
  Si  Si20  1  0.202086  0.129304  0.684980  1
  Si  Si21  1  0.370925  0.702071  0.934983  1
  Si  Si22  1  0.629306  0.297938  0.434980  1
  Si  Si23  1  0.701987  0.370665  0.064998  1
  Si  Si24  1  0.297933  0.629324  0.564990  1
  Si  Si25  1  0.797762  0.870808  0.185126  1
  Si  Si26  1  0.129317  0.202137  0.314989  1
  Si  Si27  1  0.870713  0.797878  0.814913  1
  Si  Si28  1  0.292043  0.953772  0.064474  1
  Si  Si29  1  0.546296  0.791958  0.314461  1
  Si  Si30  1  0.453743  0.208071  0.814436  1
  Si  Si31  1  0.791946  0.546347  0.685547  1
  Si  Si32  1  0.208055  0.453610  0.185602  1
  Si  Si33  1  0.707963  0.046290  0.564464  1
  Si  Si34  1  0.953654  0.291817  0.935467  1
  Si  Si35  1  0.046295  0.707982  0.435508  1
