# generated using pymatgen
data_Tb3NdCdPd
_symmetry_space_group_name_H-M   'P 1'
_cell_length_a   9.82819788
_cell_length_b   9.79479940
_cell_length_c   9.79479914
_cell_angle_alpha   60.22573720
_cell_angle_beta   59.88713721
_cell_angle_gamma   59.88713810
_symmetry_Int_Tables_number   1
_chemical_formula_structural   Tb3NdCdPd
_chemical_formula_sum   'Tb12 Nd4 Cd4 Pd4'
_cell_volume   666.71446946
_cell_formula_units_Z   4
loop_
 _symmetry_equiv_pos_site_id
 _symmetry_equiv_pos_as_xyz
  1  'x, y, z'
loop_
 _atom_site_type_symbol
 _atom_site_label
 _atom_site_symmetry_multiplicity
 _atom_site_fract_x
 _atom_site_fract_y
 _atom_site_fract_z
 _atom_site_occupancy
  Tb  Tb0  1  0.351807  0.352216  0.352216  1
  Tb  Tb1  1  0.352216  0.351807  0.943761  1
  Tb  Tb2  1  0.352216  0.943761  0.351807  1
  Tb  Tb3  1  0.943761  0.352216  0.352216  1
  Tb  Tb4  1  0.810385  0.189615  0.189615  1
  Tb  Tb5  1  0.189615  0.810385  0.810385  1
  Tb  Tb6  1  0.189722  0.810278  0.189722  1
  Tb  Tb7  1  0.810278  0.189722  0.810278  1
  Tb  Tb8  1  0.189722  0.189722  0.810278  1
  Tb  Tb9  1  0.810278  0.810278  0.189722  1
  Tb  Tb10  1  0.938220  0.561780  0.561780  1
  Tb  Tb11  1  0.561780  0.938220  0.938220  1
  Nd  Nd12  1  0.565177  0.934823  0.565177  1
  Nd  Nd13  1  0.934823  0.565177  0.934823  1
  Nd  Nd14  1  0.565177  0.565177  0.934823  1
  Nd  Nd15  1  0.934823  0.934823  0.565177  1
  Cd  Cd16  1  0.582378  0.579598  0.579598  1
  Cd  Cd17  1  0.579598  0.582378  0.258426  1
  Cd  Cd18  1  0.579598  0.258426  0.582378  1
  Cd  Cd19  1  0.258426  0.579598  0.579598  1
  Pd  Pd20  1  0.145249  0.143018  0.143018  1
  Pd  Pd21  1  0.143018  0.145249  0.568714  1
  Pd  Pd22  1  0.143018  0.568714  0.145249  1
  Pd  Pd23  1  0.568714  0.143018  0.143018  1
