# generated using pymatgen
data_La2CeScSb5
_symmetry_space_group_name_H-M   'P 1'
_cell_length_a   9.53035645
_cell_length_b   9.53035675
_cell_length_c   6.42548500
_cell_angle_alpha   90.00000000
_cell_angle_beta   90.00000000
_cell_angle_gamma   120.16576704
_symmetry_Int_Tables_number   1
_chemical_formula_structural   La2CeScSb5
_chemical_formula_sum   'La4 Ce2 Sc2 Sb10'
_cell_volume   504.57645997
_cell_formula_units_Z   2
loop_
 _symmetry_equiv_pos_site_id
 _symmetry_equiv_pos_as_xyz
  1  'x, y, z'
loop_
 _atom_site_type_symbol
 _atom_site_label
 _atom_site_symmetry_multiplicity
 _atom_site_fract_x
 _atom_site_fract_y
 _atom_site_fract_z
 _atom_site_occupancy
  La  La0  1  0.618011  0.001280  0.250000  1
  La  La1  1  0.381989  0.998720  0.750000  1
  La  La2  1  0.001280  0.618011  0.250000  1
  La  La3  1  0.998720  0.381989  0.750000  1
  Ce  Ce4  1  0.382608  0.382608  0.250000  1
  Ce  Ce5  1  0.617392  0.617392  0.750000  1
  Sc  Sc6  1  0.000000  0.000000  0.000000  1
  Sc  Sc7  1  0.000000  0.000000  0.500000  1
  Sb  Sb8  1  0.261427  0.003975  0.250000  1
  Sb  Sb9  1  0.738573  0.996025  0.750000  1
  Sb  Sb10  1  0.003975  0.261427  0.250000  1
  Sb  Sb11  1  0.996025  0.738573  0.750000  1
  Sb  Sb12  1  0.736160  0.736160  0.250000  1
  Sb  Sb13  1  0.263840  0.263840  0.750000  1
  Sb  Sb14  1  0.336752  0.663248  0.000000  1
  Sb  Sb15  1  0.663248  0.336752  0.000000  1
  Sb  Sb16  1  0.663248  0.336752  0.500000  1
  Sb  Sb17  1  0.336752  0.663248  0.500000  1
