# generated using pymatgen
data_Ac2Er5Co4Sn13
_symmetry_space_group_name_H-M   'P 1'
_cell_length_a   11.23919700
_cell_length_b   11.23919700
_cell_length_c   4.53716800
_cell_angle_alpha   90.00000000
_cell_angle_beta   90.00000000
_cell_angle_gamma   90.00000000
_symmetry_Int_Tables_number   1
_chemical_formula_structural   Ac2Er5Co4Sn13
_chemical_formula_sum   'Ac2 Er5 Co4 Sn13'
_cell_volume   573.13301643
_cell_formula_units_Z   1
loop_
 _symmetry_equiv_pos_site_id
 _symmetry_equiv_pos_as_xyz
  1  'x, y, z'
loop_
 _atom_site_type_symbol
 _atom_site_label
 _atom_site_symmetry_multiplicity
 _atom_site_fract_x
 _atom_site_fract_y
 _atom_site_fract_z
 _atom_site_occupancy
  Ac  Ac0  1  0.500000  0.000000  0.500000  1
  Ac  Ac1  1  0.000000  0.500000  0.500000  1
  Er  Er2  1  0.000000  0.000000  0.000000  1
  Er  Er3  1  0.335306  0.673037  0.500000  1
  Er  Er4  1  0.664694  0.326963  0.500000  1
  Er  Er5  1  0.326963  0.335306  0.500000  1
  Er  Er6  1  0.673037  0.664694  0.500000  1
  Co  Co7  1  0.121066  0.723141  0.000000  1
  Co  Co8  1  0.878934  0.276859  0.000000  1
  Co  Co9  1  0.276859  0.121066  0.000000  1
  Co  Co10  1  0.723141  0.878934  0.000000  1
  Sn  Sn11  1  0.281717  0.887783  0.000000  1
  Sn  Sn12  1  0.718283  0.112217  0.000000  1
  Sn  Sn13  1  0.112217  0.281717  0.000000  1
  Sn  Sn14  1  0.887783  0.718283  0.000000  1
  Sn  Sn15  1  0.079402  0.809927  0.500000  1
  Sn  Sn16  1  0.920598  0.190073  0.500000  1
  Sn  Sn17  1  0.190073  0.079402  0.500000  1
  Sn  Sn18  1  0.809927  0.920598  0.500000  1
  Sn  Sn19  1  0.520921  0.774852  0.000000  1
  Sn  Sn20  1  0.479079  0.225148  0.000000  1
  Sn  Sn21  1  0.225148  0.520921  0.000000  1
  Sn  Sn22  1  0.774852  0.479079  0.000000  1
  Sn  Sn23  1  0.500000  0.500000  0.000000  1
