# generated using pymatgen
data_NaZr2AsSe2
_symmetry_space_group_name_H-M   'P 1'
_cell_length_a   3.89314215
_cell_length_b   3.89158828
_cell_length_c   31.00146098
_cell_angle_alpha   90.00000045
_cell_angle_beta   90.00329373
_cell_angle_gamma   119.98678629
_symmetry_Int_Tables_number   1
_chemical_formula_structural   NaZr2AsSe2
_chemical_formula_sum   'Na3 Zr6 As3 Se6'
_cell_volume   406.81574332
_cell_formula_units_Z   3
loop_
 _symmetry_equiv_pos_site_id
 _symmetry_equiv_pos_as_xyz
  1  'x, y, z'
loop_
 _atom_site_type_symbol
 _atom_site_label
 _atom_site_symmetry_multiplicity
 _atom_site_fract_x
 _atom_site_fract_y
 _atom_site_fract_z
 _atom_site_occupancy
  Na  Na0  1  0.333420  0.666711  0.166741  1
  Na  Na1  1  0.000170  0.000086  0.499945  1
  Na  Na2  1  0.666608  0.333304  0.833342  1
  Zr  Zr3  1  0.333209  0.666604  0.047512  1
  Zr  Zr4  1  0.333186  0.666592  0.285881  1
  Zr  Zr5  1  0.000182  0.000091  0.380834  1
  Zr  Zr6  1  0.999458  0.999729  0.619128  1
  Zr  Zr7  1  0.667403  0.333702  0.714175  1
  Zr  Zr8  1  0.666694  0.333347  0.952478  1
  As  As9  1  0.999985  0.999993  0.999990  1
  As  As10  1  0.666711  0.333356  0.333345  1
  As  As11  1  0.333441  0.666720  0.666643  1
  Se  Se12  1  0.666919  0.333460  0.101484  1
  Se  Se13  1  0.999614  0.999807  0.231940  1
  Se  Se14  1  0.333432  0.666715  0.434760  1
  Se  Se15  1  0.666627  0.333314  0.565158  1
  Se  Se16  1  0.000075  0.000038  0.768164  1
  Se  Se17  1  0.332858  0.666428  0.898514  1
