# generated using pymatgen
data_Dy2Ga(Co2P)6
_symmetry_space_group_name_H-M   'P 1'
_cell_length_a   9.08310524
_cell_length_b   9.08744769
_cell_length_c   3.57368500
_cell_angle_alpha   90.00000000
_cell_angle_beta   90.00000000
_cell_angle_gamma   120.00788773
_symmetry_Int_Tables_number   1
_chemical_formula_structural   Dy2Ga(Co2P)6
_chemical_formula_sum   'Dy2 Ga1 Co12 P6'
_cell_volume   255.43984788
_cell_formula_units_Z   1
loop_
 _symmetry_equiv_pos_site_id
 _symmetry_equiv_pos_as_xyz
  1  'x, y, z'
loop_
 _atom_site_type_symbol
 _atom_site_label
 _atom_site_symmetry_multiplicity
 _atom_site_fract_x
 _atom_site_fract_y
 _atom_site_fract_z
 _atom_site_occupancy
  Dy  Dy0  1  0.333486  0.666562  0.000000  1
  Dy  Dy1  1  0.666732  0.333585  0.499999  1
  Ga  Ga2  1  0.000027  0.999956  0.000000  1
  Co  Co3  1  0.437744  0.060464  0.000000  1
  Co  Co4  1  0.162341  0.291010  0.000000  1
  Co  Co5  1  0.939391  0.377194  0.000000  1
  Co  Co6  1  0.622618  0.562271  0.000000  1
  Co  Co7  1  0.128863  0.837623  0.000000  1
  Co  Co8  1  0.709322  0.871437  0.000000  1
  Co  Co9  1  0.254208  0.114032  0.499999  1
  Co  Co10  1  0.885712  0.140256  0.499999  1
  Co  Co11  1  0.386416  0.438849  0.499999  1
  Co  Co12  1  0.052577  0.613698  0.499999  1
  Co  Co13  1  0.859554  0.745701  0.499999  1
  Co  Co14  1  0.561150  0.947360  0.499999  1
  P  P15  1  0.708700  0.112369  0.000000  1
  P  P16  1  0.403538  0.291231  0.000000  1
  P  P17  1  0.887764  0.596650  0.000000  1
  P  P18  1  0.110040  0.401642  0.499999  1
  P  P19  1  0.598203  0.708445  0.499999  1
  P  P20  1  0.291595  0.889624  0.499999  1
