# generated using pymatgen
data_La3Sm2(Sn5Ir2)2
_symmetry_space_group_name_H-M   'P 1'
_cell_length_a   14.19957000
_cell_length_b   14.19957000
_cell_length_c   4.69663300
_cell_angle_alpha   90.00000000
_cell_angle_beta   90.00000000
_cell_angle_gamma   90.00000000
_symmetry_Int_Tables_number   1
_chemical_formula_structural   La3Sm2(Sn5Ir2)2
_chemical_formula_sum   'La6 Sm4 Sn20 Ir8'
_cell_volume   946.97172371
_cell_formula_units_Z   2
loop_
 _symmetry_equiv_pos_site_id
 _symmetry_equiv_pos_as_xyz
  1  'x, y, z'
loop_
 _atom_site_type_symbol
 _atom_site_label
 _atom_site_symmetry_multiplicity
 _atom_site_fract_x
 _atom_site_fract_y
 _atom_site_fract_z
 _atom_site_occupancy
  La  La0  1  0.500000  0.500000  0.000000  1
  La  La1  1  0.000000  0.000000  0.000000  1
  La  La2  1  0.887448  0.387448  0.500000  1
  La  La3  1  0.112552  0.612552  0.500000  1
  La  La4  1  0.387448  0.112552  0.500000  1
  La  La5  1  0.612552  0.887448  0.500000  1
  Sm  Sm6  1  0.676245  0.176245  0.500000  1
  Sm  Sm7  1  0.323755  0.823755  0.500000  1
  Sm  Sm8  1  0.176245  0.323755  0.500000  1
  Sm  Sm9  1  0.823755  0.676245  0.500000  1
  Sn  Sn10  1  0.570079  0.070079  0.000000  1
  Sn  Sn11  1  0.429921  0.929921  0.000000  1
  Sn  Sn12  1  0.070079  0.429921  0.000000  1
  Sn  Sn13  1  0.929921  0.570079  0.000000  1
  Sn  Sn14  1  0.655145  0.698004  0.000000  1
  Sn  Sn15  1  0.344855  0.301996  0.000000  1
  Sn  Sn16  1  0.155145  0.801996  0.000000  1
  Sn  Sn17  1  0.844855  0.198004  0.000000  1
  Sn  Sn18  1  0.301996  0.655145  0.000000  1
  Sn  Sn19  1  0.698004  0.344855  0.000000  1
  Sn  Sn20  1  0.198004  0.155145  0.000000  1
  Sn  Sn21  1  0.801996  0.844855  0.000000  1
  Sn  Sn22  1  0.664063  0.505444  0.500000  1
  Sn  Sn23  1  0.335937  0.494556  0.500000  1
  Sn  Sn24  1  0.164063  0.994556  0.500000  1
  Sn  Sn25  1  0.835937  0.005444  0.500000  1
  Sn  Sn26  1  0.494556  0.664063  0.500000  1
  Sn  Sn27  1  0.505444  0.335937  0.500000  1
  Sn  Sn28  1  0.005444  0.164063  0.500000  1
  Sn  Sn29  1  0.994556  0.835937  0.500000  1
  Ir  Ir30  1  0.746439  0.528537  0.000000  1
  Ir  Ir31  1  0.253561  0.471463  0.000000  1
  Ir  Ir32  1  0.246439  0.971463  0.000000  1
  Ir  Ir33  1  0.753561  0.028537  0.000000  1
  Ir  Ir34  1  0.471463  0.746439  0.000000  1
  Ir  Ir35  1  0.528537  0.253561  0.000000  1
  Ir  Ir36  1  0.028537  0.246439  0.000000  1
  Ir  Ir37  1  0.971463  0.753561  0.000000  1
