# generated using pymatgen
data_Os(S2Cl3)2
_symmetry_space_group_name_H-M   'P 1'
_cell_length_a   7.07813300
_cell_length_b   7.21447611
_cell_length_c   7.82663900
_cell_angle_alpha   65.25365460
_cell_angle_beta   63.43731178
_cell_angle_gamma   60.99840895
_symmetry_Int_Tables_number   1
_chemical_formula_structural   Os(S2Cl3)2
_chemical_formula_sum   'Os1 S4 Cl6'
_cell_volume   302.07373442
_cell_formula_units_Z   1
loop_
 _symmetry_equiv_pos_site_id
 _symmetry_equiv_pos_as_xyz
  1  'x, y, z'
loop_
 _atom_site_type_symbol
 _atom_site_label
 _atom_site_symmetry_multiplicity
 _atom_site_fract_x
 _atom_site_fract_y
 _atom_site_fract_z
 _atom_site_occupancy
  Os  Os0  1  0.000000  0.000000  0.000000  1
  S  S1  1  0.556841  0.666239  0.321068  1
  S  S2  1  0.267064  0.601692  0.497207  1
  S  S3  1  0.732936  0.398308  0.502793  1
  S  S4  1  0.443161  0.333760  0.678933  1
  Cl  Cl5  1  0.038696  0.632352  0.173192  1
  Cl  Cl6  1  0.154440  0.015253  0.202152  1
  Cl  Cl7  1  0.641047  0.121512  0.216203  1
  Cl  Cl8  1  0.358952  0.878488  0.783798  1
  Cl  Cl9  1  0.845560  0.984746  0.797849  1
  Cl  Cl10  1  0.961305  0.367649  0.826807  1
