# generated using pymatgen
data_Li3Cr2Ni9P7
_symmetry_space_group_name_H-M   'P 1'
_cell_length_a   8.99781094
_cell_length_b   9.00567926
_cell_length_c   3.56594300
_cell_angle_alpha   90.00000000
_cell_angle_beta   90.00000000
_cell_angle_gamma   119.59859743
_symmetry_Int_Tables_number   1
_chemical_formula_structural   Li3Cr2Ni9P7
_chemical_formula_sum   'Li3 Cr2 Ni9 P7'
_cell_volume   251.24696766
_cell_formula_units_Z   1
loop_
 _symmetry_equiv_pos_site_id
 _symmetry_equiv_pos_as_xyz
  1  'x, y, z'
loop_
 _atom_site_type_symbol
 _atom_site_label
 _atom_site_symmetry_multiplicity
 _atom_site_fract_x
 _atom_site_fract_y
 _atom_site_fract_z
 _atom_site_occupancy
  Li  Li0  1  0.222115  0.100675  0.500000  1
  Li  Li1  1  0.332261  0.665405  0.000000  1
  Li  Li2  1  0.666828  0.333849  0.500000  1
  Cr  Cr3  1  0.874194  0.781230  0.500000  1
  Cr  Cr4  1  0.903675  0.124057  0.500000  1
  Ni  Ni5  1  0.711133  0.876710  0.000000  1
  Ni  Ni6  1  0.164349  0.279641  0.000000  1
  Ni  Ni7  1  0.122906  0.843413  0.000000  1
  Ni  Ni8  1  0.627259  0.567826  0.000000  1
  Ni  Ni9  1  0.938365  0.373222  0.000000  1
  Ni  Ni10  1  0.434896  0.060173  0.000000  1
  Ni  Ni11  1  0.561324  0.948341  0.500000  1
  Ni  Ni12  1  0.388521  0.435201  0.500000  1
  Ni  Ni13  1  0.052493  0.612254  0.500000  1
  P  P14  1  0.586033  0.709410  0.500000  1
  P  P15  1  0.120712  0.409054  0.500000  1
  P  P16  1  0.289912  0.871834  0.500000  1
  P  P17  1  0.991336  0.997030  0.000000  1
  P  P18  1  0.880475  0.587928  0.000000  1
  P  P19  1  0.706251  0.122928  0.000000  1
  P  P20  1  0.424963  0.299820  0.000000  1
