# generated using pymatgen
data_Er3Sc2SnSb2
_symmetry_space_group_name_H-M   'P 1'
_cell_length_a   8.74571772
_cell_length_b   8.73377920
_cell_length_c   6.13785700
_cell_angle_alpha   90.00000000
_cell_angle_beta   90.00000000
_cell_angle_gamma   119.95484394
_symmetry_Int_Tables_number   1
_chemical_formula_structural   Er3Sc2SnSb2
_chemical_formula_sum   'Er6 Sc4 Sn2 Sb4'
_cell_volume   406.20240956
_cell_formula_units_Z   2
loop_
 _symmetry_equiv_pos_site_id
 _symmetry_equiv_pos_as_xyz
  1  'x, y, z'
loop_
 _atom_site_type_symbol
 _atom_site_label
 _atom_site_symmetry_multiplicity
 _atom_site_fract_x
 _atom_site_fract_y
 _atom_site_fract_z
 _atom_site_occupancy
  Er  Er0  1  0.000552  0.756387  0.750000  1
  Er  Er1  1  0.000552  0.244165  0.250000  1
  Er  Er2  1  0.755575  0.756127  0.250000  1
  Er  Er3  1  0.755575  0.999448  0.750000  1
  Er  Er4  1  0.243770  0.242696  0.750000  1
  Er  Er5  1  0.243770  0.001073  0.250000  1
  Sc  Sc6  1  0.333717  0.666859  0.500000  1
  Sc  Sc7  1  0.666405  0.333202  0.000000  1
  Sc  Sc8  1  0.666405  0.333202  0.500000  1
  Sc  Sc9  1  0.333717  0.666859  0.000000  1
  Sn  Sn10  1  0.396030  0.999564  0.750000  1
  Sn  Sn11  1  0.396030  0.396466  0.250000  1
  Sb  Sb12  1  0.999740  0.604969  0.250000  1
  Sb  Sb13  1  0.999740  0.394771  0.750000  1
  Sb  Sb14  1  0.604212  0.604234  0.750000  1
  Sb  Sb15  1  0.604212  0.999978  0.250000  1
