# generated using pymatgen
data_ScU3Pb3O13
_symmetry_space_group_name_H-M   'P 1'
_cell_length_a   7.74685159
_cell_length_b   7.74685098
_cell_length_c   7.74685203
_cell_angle_alpha   62.48799532
_cell_angle_beta   62.48799518
_cell_angle_gamma   62.48799601
_symmetry_Int_Tables_number   1
_chemical_formula_structural   ScU3Pb3O13
_chemical_formula_sum   'Sc1 U3 Pb3 O13'
_cell_volume   346.97535084
_cell_formula_units_Z   1
loop_
 _symmetry_equiv_pos_site_id
 _symmetry_equiv_pos_as_xyz
  1  'x, y, z'
loop_
 _atom_site_type_symbol
 _atom_site_label
 _atom_site_symmetry_multiplicity
 _atom_site_fract_x
 _atom_site_fract_y
 _atom_site_fract_z
 _atom_site_occupancy
  Sc  Sc0  1  0.499049  0.499049  0.499049  1
  U  U1  1  0.999084  0.499616  0.499616  1
  U  U2  1  0.499616  0.499616  0.999084  1
  U  U3  1  0.499616  0.999084  0.499616  1
  Pb  Pb4  1  0.480181  0.009257  0.009257  1
  Pb  Pb5  1  0.009257  0.009257  0.480181  1
  Pb  Pb6  1  0.009257  0.480181  0.009257  1
  O  O7  1  0.820488  0.428930  0.428930  1
  O  O8  1  0.441199  0.818431  0.818431  1
  O  O9  1  0.428930  0.428930  0.820488  1
  O  O10  1  0.818431  0.818431  0.441199  1
  O  O11  1  0.818431  0.441199  0.818431  1
  O  O12  1  0.428930  0.820488  0.428930  1
  O  O13  1  0.181135  0.565999  0.565999  1
  O  O14  1  0.556835  0.180071  0.180071  1
  O  O15  1  0.565999  0.565999  0.181135  1
  O  O16  1  0.180071  0.180071  0.556835  1
  O  O17  1  0.180071  0.556835  0.180071  1
  O  O18  1  0.565999  0.181135  0.565999  1
  O  O19  1  0.142418  0.142418  0.142418  1
