# generated using pymatgen
data_Zr5Fe13(CoP2)6
_symmetry_space_group_name_H-M   'P 1'
_cell_length_a   11.79324073
_cell_length_b   11.78566114
_cell_length_c   3.62589600
_cell_angle_alpha   90.00000000
_cell_angle_beta   90.00000000
_cell_angle_gamma   120.14371822
_symmetry_Int_Tables_number   1
_chemical_formula_structural   Zr5Fe13(CoP2)6
_chemical_formula_sum   'Zr5 Fe13 Co6 P12'
_cell_volume   435.81514661
_cell_formula_units_Z   1
loop_
 _symmetry_equiv_pos_site_id
 _symmetry_equiv_pos_as_xyz
  1  'x, y, z'
loop_
 _atom_site_type_symbol
 _atom_site_label
 _atom_site_symmetry_multiplicity
 _atom_site_fract_x
 _atom_site_fract_y
 _atom_site_fract_z
 _atom_site_occupancy
  Zr  Zr0  1  0.334582  0.668507  0.500000  1
  Zr  Zr1  1  0.666489  0.332498  0.500000  1
  Zr  Zr2  1  0.812416  0.999559  0.000000  1
  Zr  Zr3  1  0.000062  0.812881  0.000000  1
  Zr  Zr4  1  0.186412  0.186587  0.000000  1
  Fe  Fe5  1  0.623202  0.801607  0.500000  1
  Fe  Fe6  1  0.197762  0.819513  0.500000  1
  Fe  Fe7  1  0.180660  0.378901  0.500000  1
  Fe  Fe8  1  0.378554  0.181087  0.500000  1
  Fe  Fe9  1  0.801544  0.620541  0.500000  1
  Fe  Fe10  1  0.818838  0.197484  0.500000  1
  Fe  Fe11  1  0.283740  0.000038  0.000000  1
  Fe  Fe12  1  0.999866  0.284405  0.000000  1
  Fe  Fe13  1  0.715850  0.714973  0.000000  1
  Fe  Fe14  1  0.446193  0.001527  0.500000  1
  Fe  Fe15  1  0.000209  0.446589  0.500000  1
  Fe  Fe16  1  0.553588  0.553750  0.500000  1
  Fe  Fe17  1  0.513912  0.874488  0.000000  1
  Co  Co18  1  0.125956  0.639565  0.000000  1
  Co  Co19  1  0.361340  0.486743  0.000000  1
  Co  Co20  1  0.486387  0.360996  0.000000  1
  Co  Co21  1  0.874432  0.513363  0.000000  1
  Co  Co22  1  0.638308  0.124710  0.000000  1
  Co  Co23  1  0.000127  0.000221  0.500000  1
  P  P24  1  0.179870  0.999934  0.500000  1
  P  P25  1  0.999569  0.179995  0.500000  1
  P  P26  1  0.820325  0.819700  0.500000  1
  P  P27  1  0.520712  0.689031  0.000000  1
  P  P28  1  0.314035  0.833901  0.000000  1
  P  P29  1  0.167881  0.480491  0.000000  1
  P  P30  1  0.479467  0.166852  0.000000  1
  P  P31  1  0.687524  0.519772  0.000000  1
  P  P32  1  0.832313  0.311916  0.000000  1
  P  P33  1  0.633177  0.997607  0.500000  1
  P  P34  1  0.000189  0.635455  0.500000  1
  P  P35  1  0.364510  0.364812  0.500000  1
