# generated using pymatgen
data_Sc21PaGaOs7
_symmetry_space_group_name_H-M   'P 1'
_cell_length_a   9.58395903
_cell_length_b   9.58395917
_cell_length_c   9.47872881
_cell_angle_alpha   59.86425571
_cell_angle_beta   59.86425460
_cell_angle_gamma   59.47719109
_symmetry_Int_Tables_number   1
_chemical_formula_structural   Sc21PaGaOs7
_chemical_formula_sum   'Sc21 Pa1 Ga1 Os7'
_cell_volume   611.91696977
_cell_formula_units_Z   1
loop_
 _symmetry_equiv_pos_site_id
 _symmetry_equiv_pos_as_xyz
  1  'x, y, z'
loop_
 _atom_site_type_symbol
 _atom_site_label
 _atom_site_symmetry_multiplicity
 _atom_site_fract_x
 _atom_site_fract_y
 _atom_site_fract_z
 _atom_site_occupancy
  Sc  Sc0  1  0.529766  0.145354  0.165969  1
  Sc  Sc1  1  0.157912  0.157912  0.529785  1
  Sc  Sc2  1  0.145354  0.529766  0.165969  1
  Sc  Sc3  1  0.843590  0.843590  0.465306  1
  Sc  Sc4  1  0.856123  0.467366  0.835608  1
  Sc  Sc5  1  0.467366  0.856123  0.835608  1
  Sc  Sc6  1  0.156686  0.156686  0.159656  1
  Sc  Sc7  1  0.195952  0.803912  0.200296  1
  Sc  Sc8  1  0.199982  0.802616  0.799321  1
  Sc  Sc9  1  0.803912  0.195952  0.200296  1
  Sc  Sc10  1  0.800125  0.800125  0.202196  1
  Sc  Sc11  1  0.198496  0.198496  0.800295  1
  Sc  Sc12  1  0.802616  0.199982  0.799321  1
  Sc  Sc13  1  0.377906  0.377906  0.393116  1
  Sc  Sc14  1  0.154592  0.614497  0.610972  1
  Sc  Sc15  1  0.614497  0.154592  0.610972  1
  Sc  Sc16  1  0.617432  0.617432  0.153531  1
  Sc  Sc17  1  0.381652  0.849209  0.386689  1
  Sc  Sc18  1  0.379229  0.379229  0.851160  1
  Sc  Sc19  1  0.849209  0.381652  0.386689  1
  Sc  Sc20  1  0.622103  0.622103  0.607332  1
  Pa  Pa21  1  0.843179  0.843179  0.839489  1
  Ga  Ga22  1  0.499718  0.499718  0.000026  1
  Os  Os23  1  0.995533  0.995533  0.508946  1
  Os  Os24  1  0.500088  0.001654  0.499428  1
  Os  Os25  1  0.001654  0.500088  0.499428  1
  Os  Os26  1  0.508905  0.996062  0.995461  1
  Os  Os27  1  0.996062  0.508905  0.995461  1
  Os  Os28  1  0.500454  0.500454  0.500794  1
  Os  Os29  1  0.999905  0.999905  0.000880  1
