# generated using pymatgen
data_DyFe2P3IrRh2
_symmetry_space_group_name_H-M   'P 1'
_cell_length_a   3.82423000
_cell_length_b   10.56235900
_cell_length_c   12.30970600
_cell_angle_alpha   90.00000000
_cell_angle_beta   90.00000000
_cell_angle_gamma   90.00000000
_symmetry_Int_Tables_number   1
_chemical_formula_structural   DyFe2P3IrRh2
_chemical_formula_sum   'Dy4 Fe8 P12 Ir4 Rh8'
_cell_volume   497.22460234
_cell_formula_units_Z   4
loop_
 _symmetry_equiv_pos_site_id
 _symmetry_equiv_pos_as_xyz
  1  'x, y, z'
loop_
 _atom_site_type_symbol
 _atom_site_label
 _atom_site_symmetry_multiplicity
 _atom_site_fract_x
 _atom_site_fract_y
 _atom_site_fract_z
 _atom_site_occupancy
  Dy  Dy0  1  0.250000  0.578829  0.711132  1
  Dy  Dy1  1  0.250000  0.921171  0.211132  1
  Dy  Dy2  1  0.750000  0.421171  0.288868  1
  Dy  Dy3  1  0.750000  0.078829  0.788868  1
  Fe  Fe4  1  0.250000  0.875965  0.697969  1
  Fe  Fe5  1  0.250000  0.624035  0.197969  1
  Fe  Fe6  1  0.750000  0.124035  0.302031  1
  Fe  Fe7  1  0.750000  0.375965  0.802031  1
  Fe  Fe8  1  0.250000  0.458357  0.934801  1
  Fe  Fe9  1  0.250000  0.041643  0.434801  1
  Fe  Fe10  1  0.750000  0.541643  0.065199  1
  Fe  Fe11  1  0.750000  0.958357  0.565199  1
  P  P12  1  0.250000  0.440780  0.111232  1
  P  P13  1  0.250000  0.059220  0.611232  1
  P  P14  1  0.750000  0.559220  0.888768  1
  P  P15  1  0.750000  0.940780  0.388768  1
  P  P16  1  0.250000  0.272254  0.863857  1
  P  P17  1  0.250000  0.227746  0.363857  1
  P  P18  1  0.750000  0.727746  0.136143  1
  P  P19  1  0.750000  0.772254  0.636143  1
  P  P20  1  0.250000  0.601676  0.380090  1
  P  P21  1  0.250000  0.898324  0.880090  1
  P  P22  1  0.750000  0.398324  0.619910  1
  P  P23  1  0.750000  0.101676  0.119910  1
  Ir  Ir24  1  0.250000  0.231364  0.173690  1
  Ir  Ir25  1  0.250000  0.268636  0.673690  1
  Ir  Ir26  1  0.750000  0.768636  0.826310  1
  Ir  Ir27  1  0.750000  0.731364  0.326310  1
  Rh  Rh28  1  0.250000  0.714914  0.990998  1
  Rh  Rh29  1  0.250000  0.785086  0.490998  1
  Rh  Rh30  1  0.750000  0.285086  0.009002  1
  Rh  Rh31  1  0.750000  0.214914  0.509002  1
  Rh  Rh32  1  0.250000  0.408494  0.477467  1
  Rh  Rh33  1  0.250000  0.091506  0.977467  1
  Rh  Rh34  1  0.750000  0.591506  0.522533  1
  Rh  Rh35  1  0.750000  0.908494  0.022533  1
