# generated using pymatgen
data_Tb7Ho5Fe2I17
_symmetry_space_group_name_H-M   'P 1'
_cell_length_a   9.76240201
_cell_length_b   11.72456766
_cell_length_c   11.74639816
_cell_angle_alpha   93.44828783
_cell_angle_beta   104.80331455
_cell_angle_gamma   114.04564322
_symmetry_Int_Tables_number   1
_chemical_formula_structural   Tb7Ho5Fe2I17
_chemical_formula_sum   'Tb7 Ho5 Fe2 I17'
_cell_volume   1166.34228439
_cell_formula_units_Z   1
loop_
 _symmetry_equiv_pos_site_id
 _symmetry_equiv_pos_as_xyz
  1  'x, y, z'
loop_
 _atom_site_type_symbol
 _atom_site_label
 _atom_site_symmetry_multiplicity
 _atom_site_fract_x
 _atom_site_fract_y
 _atom_site_fract_z
 _atom_site_occupancy
  Tb  Tb0  1  0.052770  0.504016  0.319557  1
  Tb  Tb1  1  0.992663  0.807239  0.590310  1
  Tb  Tb2  1  0.657245  0.241724  0.279548  1
  Tb  Tb3  1  0.008219  0.190067  0.412513  1
  Tb  Tb4  1  0.218115  0.671449  0.980669  1
  Tb  Tb5  1  0.253515  0.977432  0.888914  1
  Tb  Tb6  1  0.347197  0.758213  0.718399  1
  Ho  Ho7  1  0.950246  0.500815  0.682039  1
  Ho  Ho8  1  0.746927  0.024124  0.111873  1
  Ho  Ho9  1  0.134950  0.285623  0.153904  1
  Ho  Ho10  1  0.780577  0.327625  0.017949  1
  Ho  Ho11  1  0.858948  0.713186  0.846084  1
  Fe  Fe12  1  0.104340  0.738176  0.785740  1
  Fe  Fe13  1  0.895286  0.261997  0.214572  1
  I  I14  1  0.785242  0.527390  0.418686  1
  I  I15  1  0.648263  0.420622  0.764193  1
  I  I16  1  0.841920  0.896265  0.324896  1
  I  I17  1  0.325388  0.214617  0.365091  1
  I  I18  1  0.155540  0.102557  0.672561  1
  I  I19  1  0.585993  0.053365  0.844207  1
  I  I20  1  0.761358  0.192300  0.539290  1
  I  I21  1  0.553723  0.713586  0.955734  1
  I  I22  1  0.353190  0.575898  0.236350  1
  I  I23  1  0.214111  0.470722  0.582198  1
  I  I24  1  0.053883  0.367163  0.897602  1
  I  I25  1  0.449757  0.289125  0.044891  1
  I  I26  1  0.999592  0.000708  0.001029  1
  I  I27  1  0.240629  0.811558  0.460874  1
  I  I28  1  0.416726  0.946677  0.155918  1
  I  I29  1  0.672328  0.785193  0.633197  1
  I  I30  1  0.941360  0.630571  0.101209  1
