# generated using pymatgen
data_Ir2OsS8
_symmetry_space_group_name_H-M   'P 1'
_cell_length_a   5.69996062
_cell_length_b   5.68359016
_cell_length_c   5.67668657
_cell_angle_alpha   89.68060764
_cell_angle_beta   89.71039082
_cell_angle_gamma   89.55897986
_symmetry_Int_Tables_number   1
_chemical_formula_structural   Ir2OsS8
_chemical_formula_sum   'Ir2 Os1 S8'
_cell_volume   183.89268628
_cell_formula_units_Z   1
loop_
 _symmetry_equiv_pos_site_id
 _symmetry_equiv_pos_as_xyz
  1  'x, y, z'
loop_
 _atom_site_type_symbol
 _atom_site_label
 _atom_site_symmetry_multiplicity
 _atom_site_fract_x
 _atom_site_fract_y
 _atom_site_fract_z
 _atom_site_occupancy
  Ir  Ir0  1  0.500000  0.000000  0.500000  1
  Ir  Ir1  1  0.500000  0.500000  0.000000  1
  Os  Os2  1  0.000000  0.500000  0.500000  1
  S  S3  1  0.392758  0.891334  0.108111  1
  S  S4  1  0.106598  0.392451  0.888728  1
  S  S5  1  0.891342  0.112200  0.394968  1
  S  S6  1  0.607242  0.108666  0.891889  1
  S  S7  1  0.893402  0.607549  0.111272  1
  S  S8  1  0.108658  0.887800  0.605032  1
  S  S9  1  0.621187  0.613833  0.614270  1
  S  S10  1  0.378813  0.386167  0.385730  1
