# generated using pymatgen
data_Ta3BeNb3B3Ru10
_symmetry_space_group_name_H-M   'P 1'
_cell_length_a   9.45918889
_cell_length_b   9.45947794
_cell_length_c   3.05129000
_cell_angle_alpha   90.00000000
_cell_angle_beta   90.00000000
_cell_angle_gamma   90.29816292
_symmetry_Int_Tables_number   1
_chemical_formula_structural   Ta3BeNb3B3Ru10
_chemical_formula_sum   'Ta3 Be1 Nb3 B3 Ru10'
_cell_volume   273.02264619
_cell_formula_units_Z   1
loop_
 _symmetry_equiv_pos_site_id
 _symmetry_equiv_pos_as_xyz
  1  'x, y, z'
loop_
 _atom_site_type_symbol
 _atom_site_label
 _atom_site_symmetry_multiplicity
 _atom_site_fract_x
 _atom_site_fract_y
 _atom_site_fract_z
 _atom_site_occupancy
  Ta  Ta0  1  0.675594  0.174757  0.000000  1
  Ta  Ta1  1  0.500476  0.501278  0.000000  1
  Ta  Ta2  1  0.998927  0.999400  0.000000  1
  Be  Be3  1  0.621196  0.878863  0.000000  1
  Nb  Nb4  1  0.823684  0.676296  0.000000  1
  Nb  Nb5  1  0.175979  0.323975  0.000000  1
  Nb  Nb6  1  0.325247  0.824616  0.000000  1
  B  B7  1  0.379595  0.120297  0.000000  1
  B  B8  1  0.121344  0.621266  0.000000  1
  B  B9  1  0.878864  0.378772  0.000000  1
  Ru  Ru10  1  0.569395  0.712659  0.500000  1
  Ru  Ru11  1  0.428138  0.282578  0.500000  1
  Ru  Ru12  1  0.072741  0.781310  0.500000  1
  Ru  Ru13  1  0.928354  0.218647  0.500000  1
  Ru  Ru14  1  0.280779  0.570433  0.500000  1
  Ru  Ru15  1  0.718091  0.425772  0.500000  1
  Ru  Ru16  1  0.217534  0.072888  0.500000  1
  Ru  Ru17  1  0.787140  0.931675  0.500000  1
  Ru  Ru18  1  0.497659  0.004109  0.500000  1
  Ru  Ru19  1  0.999265  0.500410  0.500000  1
