# generated using pymatgen
data_Th3Mg2InPt3
_symmetry_space_group_name_H-M   'P 1'
_cell_length_a   7.59210008
_cell_length_b   7.59220942
_cell_length_c   4.13664900
_cell_angle_alpha   90.00000000
_cell_angle_beta   90.00000000
_cell_angle_gamma   119.24848069
_symmetry_Int_Tables_number   1
_chemical_formula_structural   Th3Mg2InPt3
_chemical_formula_sum   'Th3 Mg2 In1 Pt3'
_cell_volume   208.04087522
_cell_formula_units_Z   1
loop_
 _symmetry_equiv_pos_site_id
 _symmetry_equiv_pos_as_xyz
  1  'x, y, z'
loop_
 _atom_site_type_symbol
 _atom_site_label
 _atom_site_symmetry_multiplicity
 _atom_site_fract_x
 _atom_site_fract_y
 _atom_site_fract_z
 _atom_site_occupancy
  Th  Th0  1  0.590256  0.004402  0.500000  1
  Th  Th1  1  0.004388  0.590272  0.500000  1
  Th  Th2  1  0.411755  0.411764  0.500000  1
  Mg  Mg3  1  0.239289  0.999124  0.000000  1
  Mg  Mg4  1  0.999120  0.239307  0.000000  1
  In  In5  1  0.756929  0.756936  0.000000  1
  Pt  Pt6  1  0.014836  0.014846  0.500000  1
  Pt  Pt7  1  0.322848  0.660485  0.000000  1
  Pt  Pt8  1  0.660482  0.322865  0.000000  1
