# generated using pymatgen
data_Ba6GdDy(BO3)6
_symmetry_space_group_name_H-M   'P 1'
_cell_length_a   8.23841426
_cell_length_b   8.23841491
_cell_length_c   8.23841401
_cell_angle_alpha   105.59578137
_cell_angle_beta   105.59579596
_cell_angle_gamma   105.59579268
_symmetry_Int_Tables_number   1
_chemical_formula_structural   Ba6GdDy(BO3)6
_chemical_formula_sum   'Ba6 Gd1 Dy1 B6 O18'
_cell_volume   482.39600058
_cell_formula_units_Z   1
loop_
 _symmetry_equiv_pos_site_id
 _symmetry_equiv_pos_as_xyz
  1  'x, y, z'
loop_
 _atom_site_type_symbol
 _atom_site_label
 _atom_site_symmetry_multiplicity
 _atom_site_fract_x
 _atom_site_fract_y
 _atom_site_fract_z
 _atom_site_occupancy
  Ba  Ba0  1  0.349142  0.734657  0.841061  1
  Ba  Ba1  1  0.841061  0.349142  0.734657  1
  Ba  Ba2  1  0.734657  0.841061  0.349142  1
  Ba  Ba3  1  0.650858  0.265343  0.158939  1
  Ba  Ba4  1  0.158939  0.650858  0.265343  1
  Ba  Ba5  1  0.265343  0.158939  0.650858  1
  Gd  Gd6  1  0.000000  0.000000  0.000000  1
  Dy  Dy7  1  0.500000  0.500000  0.500000  1
  B  B8  1  0.709153  0.623004  0.956383  1
  B  B9  1  0.956383  0.709153  0.623004  1
  B  B10  1  0.623004  0.956383  0.709153  1
  B  B11  1  0.043617  0.290847  0.376996  1
  B  B12  1  0.376996  0.043617  0.290847  1
  B  B13  1  0.290847  0.376996  0.043617  1
  O  O14  1  0.063994  0.805065  0.551832  1
  O  O15  1  0.551832  0.063994  0.805065  1
  O  O16  1  0.426267  0.491068  0.212768  1
  O  O17  1  0.491068  0.212768  0.426267  1
  O  O18  1  0.212768  0.426267  0.491068  1
  O  O19  1  0.787232  0.573733  0.508932  1
  O  O20  1  0.573733  0.508932  0.787232  1
  O  O21  1  0.508932  0.787232  0.573733  1
  O  O22  1  0.259501  0.191412  0.984565  1
  O  O23  1  0.191412  0.984565  0.259501  1
  O  O24  1  0.984565  0.259501  0.191412  1
  O  O25  1  0.740499  0.808588  0.015435  1
  O  O26  1  0.808588  0.015435  0.740499  1
  O  O27  1  0.015435  0.740499  0.808588  1
  O  O28  1  0.194935  0.448168  0.936006  1
  O  O29  1  0.448168  0.936006  0.194935  1
  O  O30  1  0.936006  0.194935  0.448168  1
  O  O31  1  0.805065  0.551832  0.063994  1
