# generated using pymatgen
data_CaHo3MgSb3O14
_symmetry_space_group_name_H-M   'P 1'
_cell_length_a   7.26680141
_cell_length_b   7.26685157
_cell_length_c   7.26683678
_cell_angle_alpha   118.75777338
_cell_angle_beta   61.24274348
_cell_angle_gamma   118.75710180
_symmetry_Int_Tables_number   1
_chemical_formula_structural   CaHo3MgSb3O14
_chemical_formula_sum   'Ca1 Ho3 Mg1 Sb3 O14'
_cell_volume   278.92617945
_cell_formula_units_Z   1
loop_
 _symmetry_equiv_pos_site_id
 _symmetry_equiv_pos_as_xyz
  1  'x, y, z'
loop_
 _atom_site_type_symbol
 _atom_site_label
 _atom_site_symmetry_multiplicity
 _atom_site_fract_x
 _atom_site_fract_y
 _atom_site_fract_z
 _atom_site_occupancy
  Ca  Ca0  1  0.499956  0.499983  0.999989  1
  Ho  Ho1  1  0.999989  0.500023  0.000030  1
  Ho  Ho2  1  0.499989  0.000008  0.999914  1
  Ho  Ho3  1  0.500055  0.500103  0.499998  1
  Mg  Mg4  1  0.000070  0.999949  0.499950  1
  Sb  Sb5  1  0.500000  0.000007  0.499936  1
  Sb  Sb6  1  0.999980  0.499965  0.500053  1
  Sb  Sb7  1  0.999923  0.999944  0.000025  1
  O  O8  1  0.628332  0.371706  0.128312  1
  O  O9  1  0.371677  0.628363  0.871659  1
  O  O10  1  0.081307  0.327946  0.172086  1
  O  O11  1  0.672054  0.918615  0.172043  1
  O  O12  1  0.672077  0.327975  0.581365  1
  O  O13  1  0.918674  0.672060  0.827970  1
  O  O14  1  0.327940  0.081251  0.827925  1
  O  O15  1  0.327962  0.672093  0.418727  1
  O  O16  1  0.655136  0.912281  0.587725  1
  O  O17  1  0.087764  0.344837  0.587778  1
  O  O18  1  0.087746  0.912250  0.155145  1
  O  O19  1  0.344870  0.087787  0.412222  1
  O  O20  1  0.912258  0.655105  0.412276  1
  O  O21  1  0.912242  0.087753  0.844873  1
