# generated using pymatgen
data_Cs3RbCrMo3N8
_symmetry_space_group_name_H-M   'P 1'
_cell_length_a   6.09520700
_cell_length_b   8.60256824
_cell_length_c   12.20749619
_cell_angle_alpha   89.91723424
_cell_angle_beta   90.00000000
_cell_angle_gamma   90.00000000
_symmetry_Int_Tables_number   1
_chemical_formula_structural   Cs3RbCrMo3N8
_chemical_formula_sum   'Cs6 Rb2 Cr2 Mo6 N16'
_cell_volume   640.09248731
_cell_formula_units_Z   2
loop_
 _symmetry_equiv_pos_site_id
 _symmetry_equiv_pos_as_xyz
  1  'x, y, z'
loop_
 _atom_site_type_symbol
 _atom_site_label
 _atom_site_symmetry_multiplicity
 _atom_site_fract_x
 _atom_site_fract_y
 _atom_site_fract_z
 _atom_site_occupancy
  Cs  Cs0  1  0.750189  0.143121  0.002930  1
  Cs  Cs1  1  0.250189  0.856879  0.497070  1
  Cs  Cs2  1  0.250072  0.877248  0.002587  1
  Cs  Cs3  1  0.750072  0.122752  0.497413  1
  Cs  Cs4  1  0.276425  0.618884  0.760488  1
  Cs  Cs5  1  0.776425  0.381116  0.739512  1
  Rb  Rb6  1  0.714205  0.390659  0.263343  1
  Rb  Rb7  1  0.214205  0.609341  0.236657  1
  Cr  Cr8  1  0.251509  0.370478  0.000014  1
  Cr  Cr9  1  0.751509  0.629522  0.499986  1
  Mo  Mo10  1  0.751358  0.611052  0.000869  1
  Mo  Mo11  1  0.251358  0.388948  0.499131  1
  Mo  Mo12  1  0.230675  0.129658  0.247835  1
  Mo  Mo13  1  0.730675  0.870342  0.252165  1
  Mo  Mo14  1  0.769085  0.870359  0.748204  1
  Mo  Mo15  1  0.269085  0.129641  0.751796  1
  N  N16  1  0.959201  0.020170  0.250688  1
  N  N17  1  0.459201  0.979830  0.249312  1
  N  N18  1  0.036393  0.983895  0.750317  1
  N  N19  1  0.536393  0.016105  0.749683  1
  N  N20  1  0.254029  0.262520  0.370853  1
  N  N21  1  0.754029  0.737480  0.129147  1
  N  N22  1  0.751707  0.739192  0.873004  1
  N  N23  1  0.251707  0.260808  0.626996  1
  N  N24  1  0.754371  0.747715  0.621284  1
  N  N25  1  0.254371  0.252285  0.878716  1
  N  N26  1  0.249057  0.251886  0.121121  1
  N  N27  1  0.749057  0.748114  0.378879  1
  N  N28  1  0.506697  0.511406  0.499765  1
  N  N29  1  0.006697  0.488594  0.000235  1
  N  N30  1  0.495028  0.489722  0.002438  1
  N  N31  1  0.995028  0.510278  0.497562  1
