# generated using pymatgen
data_Li8Dy2Y6Sn5Sb3
_symmetry_space_group_name_H-M   'P 1'
_cell_length_a   9.38185800
_cell_length_b   9.38185719
_cell_length_c   7.24216600
_cell_angle_alpha   90.00000000
_cell_angle_beta   90.00000000
_cell_angle_gamma   119.99999582
_symmetry_Int_Tables_number   1
_chemical_formula_structural   Li8Dy2Y6Sn5Sb3
_chemical_formula_sum   'Li8 Dy2 Y6 Sn5 Sb3'
_cell_volume   552.04794584
_cell_formula_units_Z   1
loop_
 _symmetry_equiv_pos_site_id
 _symmetry_equiv_pos_as_xyz
  1  'x, y, z'
loop_
 _atom_site_type_symbol
 _atom_site_label
 _atom_site_symmetry_multiplicity
 _atom_site_fract_x
 _atom_site_fract_y
 _atom_site_fract_z
 _atom_site_occupancy
  Li  Li0  1  0.166698  0.333395  0.282659  1
  Li  Li1  1  0.166698  0.833302  0.282659  1
  Li  Li2  1  0.666605  0.833302  0.282659  1
  Li  Li3  1  0.833206  0.666410  0.785460  1
  Li  Li4  1  0.833206  0.166794  0.785460  1
  Li  Li5  1  0.333590  0.166794  0.785460  1
  Li  Li6  1  0.333333  0.666667  0.678050  1
  Li  Li7  1  0.666667  0.333333  0.182653  1
  Dy  Dy8  1  0.000000  0.000000  0.497508  1
  Dy  Dy9  1  0.000000  0.000000  0.003528  1
  Y  Y10  1  0.511966  0.023930  0.491260  1
  Y  Y11  1  0.511966  0.488034  0.491260  1
  Y  Y12  1  0.976070  0.488034  0.491260  1
  Y  Y13  1  0.490023  0.980047  0.995584  1
  Y  Y14  1  0.490023  0.509977  0.995584  1
  Y  Y15  1  0.019953  0.509977  0.995584  1
  Sn  Sn16  1  0.833476  0.666954  0.232558  1
  Sn  Sn17  1  0.833476  0.166524  0.232558  1
  Sn  Sn18  1  0.333046  0.166524  0.232558  1
  Sn  Sn19  1  0.333333  0.666667  0.258828  1
  Sn  Sn20  1  0.666667  0.333333  0.758906  1
  Sb  Sb21  1  0.166661  0.333321  0.733321  1
  Sb  Sb22  1  0.166661  0.833339  0.733321  1
  Sb  Sb23  1  0.666679  0.833339  0.733321  1
