# generated using pymatgen
data_Sc8Co11Si16Pd
_symmetry_space_group_name_H-M   'P 1'
_cell_length_a   5.24902202
_cell_length_b   6.78566944
_cell_length_c   13.82606900
_cell_angle_alpha   89.96583701
_cell_angle_beta   90.00493381
_cell_angle_gamma   89.87859169
_symmetry_Int_Tables_number   1
_chemical_formula_structural   Sc8Co11Si16Pd
_chemical_formula_sum   'Sc8 Co11 Si16 Pd1'
_cell_volume   492.45750470
_cell_formula_units_Z   1
loop_
 _symmetry_equiv_pos_site_id
 _symmetry_equiv_pos_as_xyz
  1  'x, y, z'
loop_
 _atom_site_type_symbol
 _atom_site_label
 _atom_site_symmetry_multiplicity
 _atom_site_fract_x
 _atom_site_fract_y
 _atom_site_fract_z
 _atom_site_occupancy
  Sc  Sc0  1  0.233667  0.400469  0.148394  1
  Sc  Sc1  1  0.730036  0.100563  0.146770  1
  Sc  Sc2  1  0.271155  0.099690  0.641216  1
  Sc  Sc3  1  0.766626  0.400541  0.641232  1
  Sc  Sc4  1  0.230890  0.600714  0.357146  1
  Sc  Sc5  1  0.731667  0.899235  0.357196  1
  Sc  Sc6  1  0.264991  0.899916  0.854614  1
  Sc  Sc7  1  0.772681  0.600894  0.852634  1
  Co  Co8  1  0.506468  0.226837  0.481995  1
  Co  Co9  1  0.771568  0.998306  0.748992  1
  Co  Co10  1  0.491857  0.222131  0.982872  1
  Co  Co11  1  0.725319  0.499341  0.250989  1
  Co  Co12  1  0.494506  0.772561  0.517831  1
  Co  Co13  1  0.005848  0.272905  0.482122  1
  Co  Co14  1  0.004758  0.729979  0.018310  1
  Co  Co15  1  0.225487  0.999886  0.251618  1
  Co  Co16  1  0.277668  0.502128  0.749659  1
  Co  Co17  1  0.505722  0.774240  0.019060  1
  Co  Co18  1  0.994703  0.726665  0.517614  1
  Si  Si19  1  0.228626  0.011297  0.074302  1
  Si  Si20  1  0.718209  0.519106  0.433226  1
  Si  Si21  1  0.782643  0.018794  0.566085  1
  Si  Si22  1  0.480853  0.752909  0.188121  1
  Si  Si23  1  0.020459  0.251706  0.803677  1
  Si  Si24  1  0.518683  0.247321  0.814102  1
  Si  Si25  1  0.218391  0.980666  0.433359  1
  Si  Si26  1  0.296782  0.528529  0.933057  1
  Si  Si27  1  0.980148  0.747599  0.187131  1
  Si  Si28  1  0.708606  0.489729  0.071623  1
  Si  Si29  1  0.281652  0.480871  0.566202  1
  Si  Si30  1  0.479765  0.247791  0.315372  1
  Si  Si31  1  0.020119  0.747853  0.684547  1
  Si  Si32  1  0.767551  0.970024  0.929156  1
  Si  Si33  1  0.519837  0.752494  0.684833  1
  Si  Si34  1  0.980572  0.252368  0.315072  1
  Pd  Pd35  1  0.991489  0.273939  0.979870  1
