# generated using pymatgen
data_Al3Sn(PPd6)2
_symmetry_space_group_name_H-M   'P 1'
_cell_length_a   3.40992300
_cell_length_b   6.81831357
_cell_length_c   11.79383251
_cell_angle_alpha   90.05662516
_cell_angle_beta   90.00000000
_cell_angle_gamma   90.00000000
_symmetry_Int_Tables_number   1
_chemical_formula_structural   Al3Sn(PPd6)2
_chemical_formula_sum   'Al3 Sn1 P2 Pd12'
_cell_volume   274.20557883
_cell_formula_units_Z   1
loop_
 _symmetry_equiv_pos_site_id
 _symmetry_equiv_pos_as_xyz
  1  'x, y, z'
loop_
 _atom_site_type_symbol
 _atom_site_label
 _atom_site_symmetry_multiplicity
 _atom_site_fract_x
 _atom_site_fract_y
 _atom_site_fract_z
 _atom_site_occupancy
  Al  Al0  1  0.000000  0.501149  0.166184  1
  Al  Al1  1  0.000000  0.498021  0.838370  1
  Al  Al2  1  0.000000  0.001500  0.328624  1
  Sn  Sn3  1  0.000000  0.999217  0.666822  1
  P  P4  1  0.500000  0.997958  0.005502  1
  P  P5  1  0.500000  0.502789  0.494748  1
  Pd  Pd6  1  0.000000  0.746099  0.003857  1
  Pd  Pd7  1  0.000000  0.248748  0.493048  1
  Pd  Pd8  1  0.000000  0.617737  0.626084  1
  Pd  Pd9  1  0.000000  0.130666  0.128200  1
  Pd  Pd10  1  0.000000  0.129379  0.879774  1
  Pd  Pd11  1  0.000000  0.626325  0.368444  1
  Pd  Pd12  1  0.500000  0.891344  0.486013  1
  Pd  Pd13  1  0.500000  0.403456  0.002360  1
  Pd  Pd14  1  0.500000  0.782750  0.810519  1
  Pd  Pd15  1  0.500000  0.304075  0.296878  1
  Pd  Pd16  1  0.500000  0.316908  0.705232  1
  Pd  Pd17  1  0.500000  0.802079  0.199342  1
