# generated using pymatgen
data_Pr12N11
_symmetry_space_group_name_H-M   'P 1'
_cell_length_a   9.77495087
_cell_length_b   9.77495200
_cell_length_c   6.38607293
_cell_angle_alpha   89.89542215
_cell_angle_beta   89.89542155
_cell_angle_gamma   44.45682870
_symmetry_Int_Tables_number   1
_chemical_formula_structural   Pr12N11
_chemical_formula_sum   'Pr12 N11'
_cell_volume   427.35697983
_cell_formula_units_Z   1
loop_
 _symmetry_equiv_pos_site_id
 _symmetry_equiv_pos_as_xyz
  1  'x, y, z'
loop_
 _atom_site_type_symbol
 _atom_site_label
 _atom_site_symmetry_multiplicity
 _atom_site_fract_x
 _atom_site_fract_y
 _atom_site_fract_z
 _atom_site_occupancy
  Pr  Pr0  1  0.500000  0.000000  0.500000  1
  Pr  Pr1  1  0.175397  0.650522  0.827542  1
  Pr  Pr2  1  0.824603  0.349478  0.172458  1
  Pr  Pr3  1  0.349478  0.824603  0.172458  1
  Pr  Pr4  1  0.000000  0.500000  0.500000  1
  Pr  Pr5  1  0.650522  0.175397  0.827542  1
  Pr  Pr6  1  0.912840  0.912840  0.351916  1
  Pr  Pr7  1  0.583108  0.583108  0.672408  1
  Pr  Pr8  1  0.247822  0.247822  0.001155  1
  Pr  Pr9  1  0.416892  0.416892  0.327592  1
  Pr  Pr10  1  0.087160  0.087160  0.648084  1
  Pr  Pr11  1  0.752178  0.752178  0.998845  1
  N  N12  1  0.753625  0.246375  0.500000  1
  N  N13  1  0.414695  0.917280  0.834187  1
  N  N14  1  0.082720  0.585305  0.165813  1
  N  N15  1  0.585305  0.082720  0.165813  1
  N  N16  1  0.246375  0.753625  0.500000  1
  N  N17  1  0.917280  0.414695  0.834187  1
  N  N18  1  0.835314  0.835314  0.661298  1
  N  N19  1  0.500000  0.500000  0.000000  1
  N  N20  1  0.164686  0.164686  0.338702  1
  N  N21  1  0.663974  0.663974  0.326195  1
  N  N22  1  0.336026  0.336026  0.673805  1
