# generated using pymatgen
data_Eu2LuNbO6
_symmetry_space_group_name_H-M   'P 1'
_cell_length_a   5.72091525
_cell_length_b   5.91158600
_cell_length_c   9.97389490
_cell_angle_alpha   90.00000000
_cell_angle_beta   124.86803145
_cell_angle_gamma   90.00000000
_symmetry_Int_Tables_number   1
_chemical_formula_structural   Eu2LuNbO6
_chemical_formula_sum   'Eu4 Lu2 Nb2 O12'
_cell_volume   276.75631461
_cell_formula_units_Z   2
loop_
 _symmetry_equiv_pos_site_id
 _symmetry_equiv_pos_as_xyz
  1  'x, y, z'
loop_
 _atom_site_type_symbol
 _atom_site_label
 _atom_site_symmetry_multiplicity
 _atom_site_fract_x
 _atom_site_fract_y
 _atom_site_fract_z
 _atom_site_occupancy
  Eu  Eu0  1  0.237061  0.447843  0.751995  1
  Eu  Eu1  1  0.237061  0.052157  0.251995  1
  Eu  Eu2  1  0.762939  0.552157  0.248005  1
  Eu  Eu3  1  0.762939  0.947843  0.748005  1
  Lu  Lu4  1  0.500000  0.500000  0.500000  1
  Lu  Lu5  1  0.500000  0.000000  0.000000  1
  Nb  Nb6  1  0.000000  0.500000  0.000000  1
  Nb  Nb7  1  0.000000  0.000000  0.500000  1
  O  O8  1  0.339212  0.035159  0.740000  1
  O  O9  1  0.339212  0.464841  0.240000  1
  O  O10  1  0.660788  0.964841  0.260000  1
  O  O11  1  0.660788  0.535159  0.760000  1
  O  O12  1  0.760892  0.196743  0.548780  1
  O  O13  1  0.760892  0.303257  0.048780  1
  O  O14  1  0.239108  0.803257  0.451220  1
  O  O15  1  0.239108  0.696743  0.951220  1
  O  O16  1  0.136844  0.215743  0.943513  1
  O  O17  1  0.136844  0.284257  0.443513  1
  O  O18  1  0.863156  0.784257  0.056487  1
  O  O19  1  0.863156  0.715743  0.556487  1
