# generated using pymatgen
data_Y4MnTc4Os3
_symmetry_space_group_name_H-M   'P 1'
_cell_length_a   5.28390604
_cell_length_b   5.38443482
_cell_length_c   9.00486245
_cell_angle_alpha   89.99999922
_cell_angle_beta   90.21187336
_cell_angle_gamma   120.63137637
_symmetry_Int_Tables_number   1
_chemical_formula_structural   Y4MnTc4Os3
_chemical_formula_sum   'Y4 Mn1 Tc4 Os3'
_cell_volume   220.44515226
_cell_formula_units_Z   1
loop_
 _symmetry_equiv_pos_site_id
 _symmetry_equiv_pos_as_xyz
  1  'x, y, z'
loop_
 _atom_site_type_symbol
 _atom_site_label
 _atom_site_symmetry_multiplicity
 _atom_site_fract_x
 _atom_site_fract_y
 _atom_site_fract_z
 _atom_site_occupancy
  Y  Y0  1  0.334454  0.667227  0.431233  1
  Y  Y1  1  0.666401  0.333200  0.564454  1
  Y  Y2  1  0.665717  0.332858  0.937621  1
  Y  Y3  1  0.335475  0.667738  0.065686  1
  Mn  Mn4  1  0.999024  0.999512  0.494837  1
  Tc  Tc5  1  0.339036  0.169518  0.251236  1
  Tc  Tc6  1  0.168969  0.831741  0.747352  1
  Tc  Tc7  1  0.168969  0.337227  0.747352  1
  Tc  Tc8  1  0.660763  0.830381  0.748580  1
  Os  Os9  1  0.001189  0.000595  0.004559  1
  Os  Os10  1  0.830002  0.170233  0.253545  1
  Os  Os11  1  0.830002  0.659770  0.253545  1
