# generated using pymatgen
data_NaLi4(Ni2P3)2
_symmetry_space_group_name_H-M   'P 1'
_cell_length_a   7.88984751
_cell_length_b   7.88984801
_cell_length_c   7.88984751
_cell_angle_alpha   152.02381426
_cell_angle_beta   115.19095643
_cell_angle_gamma   72.01432914
_symmetry_Int_Tables_number   1
_chemical_formula_structural   NaLi4(Ni2P3)2
_chemical_formula_sum   'Na1 Li4 Ni4 P6'
_cell_volume   205.86166787
_cell_formula_units_Z   1
loop_
 _symmetry_equiv_pos_site_id
 _symmetry_equiv_pos_as_xyz
  1  'x, y, z'
loop_
 _atom_site_type_symbol
 _atom_site_label
 _atom_site_symmetry_multiplicity
 _atom_site_fract_x
 _atom_site_fract_y
 _atom_site_fract_z
 _atom_site_occupancy
  Na  Na0  1  0.000000  0.000000  0.000000  1
  Li  Li1  1  0.716010  0.716010  0.000000  1
  Li  Li2  1  0.676808  0.500000  0.176808  1
  Li  Li3  1  0.323192  0.500000  0.823192  1
  Li  Li4  1  0.283990  0.283990  0.000000  1
  Ni  Ni5  1  0.907393  0.174213  0.733181  1
  Ni  Ni6  1  0.558967  0.825787  0.733181  1
  Ni  Ni7  1  0.441033  0.174213  0.266819  1
  Ni  Ni8  1  0.092607  0.825787  0.266819  1
  P  P9  1  0.968596  0.337781  0.630814  1
  P  P10  1  0.706966  0.337781  0.369186  1
  P  P11  1  0.585072  0.085072  0.500000  1
  P  P12  1  0.414928  0.914928  0.500000  1
  P  P13  1  0.293034  0.662219  0.630814  1
  P  P14  1  0.031404  0.662219  0.369186  1
