# generated using pymatgen
data_BeNb(BMo)3
_symmetry_space_group_name_H-M   'P 1'
_cell_length_a   4.61510485
_cell_length_b   4.61510413
_cell_length_c   6.30016900
_cell_angle_alpha   90.00000000
_cell_angle_beta   90.00000000
_cell_angle_gamma   139.16540390
_symmetry_Int_Tables_number   1
_chemical_formula_structural   BeNb(BMo)3
_chemical_formula_sum   'Be1 Nb1 B3 Mo3'
_cell_volume   87.74284582
_cell_formula_units_Z   1
loop_
 _symmetry_equiv_pos_site_id
 _symmetry_equiv_pos_as_xyz
  1  'x, y, z'
loop_
 _atom_site_type_symbol
 _atom_site_label
 _atom_site_symmetry_multiplicity
 _atom_site_fract_x
 _atom_site_fract_y
 _atom_site_fract_z
 _atom_site_occupancy
  Be  Be0  1  0.566627  0.433373  0.500000  1
  Nb  Nb1  1  0.850749  0.149251  0.000000  1
  B  B2  1  0.558830  0.441170  0.000000  1
  B  B3  1  0.438261  0.561739  0.248557  1
  B  B4  1  0.438261  0.561739  0.751443  1
  Mo  Mo5  1  0.855816  0.144184  0.500000  1
  Mo  Mo6  1  0.145727  0.854273  0.245009  1
  Mo  Mo7  1  0.145727  0.854273  0.754991  1
