# generated using pymatgen
data_Dy3Er7(AlCo5)2
_symmetry_space_group_name_H-M   'P 1'
_cell_length_a   5.45201692
_cell_length_b   5.45201755
_cell_length_c   20.46963353
_cell_angle_alpha   90.05279245
_cell_angle_beta   89.94720709
_cell_angle_gamma   137.19022437
_symmetry_Int_Tables_number   1
_chemical_formula_structural   Dy3Er7(AlCo5)2
_chemical_formula_sum   'Dy3 Er7 Al2 Co10'
_cell_volume   413.48165398
_cell_formula_units_Z   1
loop_
 _symmetry_equiv_pos_site_id
 _symmetry_equiv_pos_as_xyz
  1  'x, y, z'
loop_
 _atom_site_type_symbol
 _atom_site_label
 _atom_site_symmetry_multiplicity
 _atom_site_fract_x
 _atom_site_fract_y
 _atom_site_fract_z
 _atom_site_occupancy
  Dy  Dy0  1  0.291809  0.708191  0.066572  1
  Dy  Dy1  1  0.997974  0.002026  0.842196  1
  Dy  Dy2  1  0.708161  0.291839  0.566281  1
  Er  Er3  1  0.288969  0.711031  0.250227  1
  Er  Er4  1  0.711221  0.288779  0.749603  1
  Er  Er5  1  0.002875  0.997125  0.342222  1
  Er  Er6  1  0.996844  0.003156  0.657710  1
  Er  Er7  1  0.708648  0.291352  0.933762  1
  Er  Er8  1  0.003383  0.996617  0.158212  1
  Er  Er9  1  0.291805  0.708195  0.433148  1
  Al  Al10  1  0.999614  0.000386  0.499579  1
  Al  Al11  1  0.000407  0.999593  0.000014  1
  Co  Co12  1  0.293826  0.706174  0.654850  1
  Co  Co13  1  0.581504  0.418496  0.440936  1
  Co  Co14  1  0.414126  0.585874  0.749825  1
  Co  Co15  1  0.418137  0.581863  0.941568  1
  Co  Co16  1  0.585231  0.414769  0.250282  1
  Co  Co17  1  0.418284  0.581716  0.558297  1
  Co  Co18  1  0.706570  0.293430  0.345445  1
  Co  Co19  1  0.705789  0.294211  0.155138  1
  Co  Co20  1  0.581515  0.418485  0.058513  1
  Co  Co21  1  0.293306  0.706694  0.845619  1
