# generated using pymatgen
data_TcTeSeCl4
_symmetry_space_group_name_H-M   'P 1'
_cell_length_a   10.63535333
_cell_length_b   10.63535349
_cell_length_c   10.63535365
_cell_angle_alpha   115.53055056
_cell_angle_beta   115.53054740
_cell_angle_gamma   97.93302139
_symmetry_Int_Tables_number   1
_chemical_formula_structural   TcTeSeCl4
_chemical_formula_sum   'Tc4 Te4 Se4 Cl16'
_cell_volume   898.74958743
_cell_formula_units_Z   4
loop_
 _symmetry_equiv_pos_site_id
 _symmetry_equiv_pos_as_xyz
  1  'x, y, z'
loop_
 _atom_site_type_symbol
 _atom_site_label
 _atom_site_symmetry_multiplicity
 _atom_site_fract_x
 _atom_site_fract_y
 _atom_site_fract_z
 _atom_site_occupancy
  Tc  Tc0  1  0.690742  0.542964  0.089329  1
  Tc  Tc1  1  0.453634  0.601413  0.910671  1
  Tc  Tc2  1  0.398587  0.309258  0.852221  1
  Tc  Tc3  1  0.457036  0.546366  0.147779  1
  Te  Te4  1  0.917156  0.441813  0.099788  1
  Te  Te5  1  0.342025  0.817368  0.900212  1
  Te  Te6  1  0.182632  0.082844  0.524657  1
  Te  Te7  1  0.558187  0.657975  0.475343  1
  Se  Se8  1  0.554367  0.426505  0.787865  1
  Se  Se9  1  0.638639  0.766501  0.212135  1
  Se  Se10  1  0.233499  0.445633  0.872138  1
  Se  Se11  1  0.573495  0.361361  0.127862  1
  Cl  Cl12  1  0.861347  0.306138  0.821335  1
  Cl  Cl13  1  0.484803  0.040012  0.178665  1
  Cl  Cl14  1  0.959988  0.138653  0.444791  1
  Cl  Cl15  1  0.693862  0.515197  0.555209  1
  Cl  Cl16  1  0.893118  0.696885  0.093417  1
  Cl  Cl17  1  0.603467  0.799701  0.906583  1
  Cl  Cl18  1  0.200299  0.106882  0.803767  1
  Cl  Cl19  1  0.303115  0.396533  0.196233  1
  Cl  Cl20  1  0.909590  0.638461  0.373668  1
  Cl  Cl21  1  0.264793  0.535922  0.626332  1
  Cl  Cl22  1  0.464078  0.090410  0.728871  1
  Cl  Cl23  1  0.361539  0.735207  0.271129  1
  Cl  Cl24  1  0.871094  0.224373  0.115575  1
  Cl  Cl25  1  0.108797  0.755518  0.884425  1
  Cl  Cl26  1  0.244482  0.128906  0.353278  1
  Cl  Cl27  1  0.775627  0.891203  0.646722  1
