# generated using pymatgen
data_Nb12CoSi7(OsN)4
_symmetry_space_group_name_H-M   'P 1'
_cell_length_a   8.15845807
_cell_length_b   8.15845855
_cell_length_c   8.15845856
_cell_angle_alpha   60.30562687
_cell_angle_beta   60.30562692
_cell_angle_gamma   60.30562324
_symmetry_Int_Tables_number   1
_chemical_formula_structural   Nb12CoSi7(OsN)4
_chemical_formula_sum   'Nb12 Co1 Si7 Os4 N4'
_cell_volume   386.63616636
_cell_formula_units_Z   1
loop_
 _symmetry_equiv_pos_site_id
 _symmetry_equiv_pos_as_xyz
  1  'x, y, z'
loop_
 _atom_site_type_symbol
 _atom_site_label
 _atom_site_symmetry_multiplicity
 _atom_site_fract_x
 _atom_site_fract_y
 _atom_site_fract_z
 _atom_site_occupancy
  Nb  Nb0  1  0.809011  0.809011  0.190746  1
  Nb  Nb1  1  0.189941  0.189941  0.809577  1
  Nb  Nb2  1  0.809011  0.190746  0.809011  1
  Nb  Nb3  1  0.189941  0.809577  0.189941  1
  Nb  Nb4  1  0.190746  0.809011  0.809011  1
  Nb  Nb5  1  0.809577  0.189941  0.189941  1
  Nb  Nb6  1  0.437338  0.437338  0.064506  1
  Nb  Nb7  1  0.055713  0.055713  0.445206  1
  Nb  Nb8  1  0.437338  0.064506  0.437338  1
  Nb  Nb9  1  0.055713  0.445206  0.055713  1
  Nb  Nb10  1  0.064506  0.437338  0.437338  1
  Nb  Nb11  1  0.445206  0.055713  0.055713  1
  Co  Co12  1  0.832881  0.832881  0.832881  1
  Si  Si13  1  0.757019  0.414071  0.414071  1
  Si  Si14  1  0.414071  0.757019  0.414071  1
  Si  Si15  1  0.414071  0.414071  0.757019  1
  Si  Si16  1  0.414964  0.414964  0.414964  1
  Si  Si17  1  0.501931  0.836030  0.836030  1
  Si  Si18  1  0.836030  0.501931  0.836030  1
  Si  Si19  1  0.836030  0.836030  0.501931  1
  Os  Os20  1  0.133906  0.620159  0.620159  1
  Os  Os21  1  0.620159  0.133906  0.620159  1
  Os  Os22  1  0.620159  0.620159  0.133906  1
  Os  Os23  1  0.625235  0.625235  0.625235  1
  N  N24  1  0.628673  0.122523  0.122523  1
  N  N25  1  0.122523  0.628673  0.122523  1
  N  N26  1  0.122523  0.122523  0.628673  1
  N  N27  1  0.125787  0.125787  0.125787  1
