# generated using pymatgen
data_TbYbY4(Ni7B2)2
_symmetry_space_group_name_H-M   'P 1'
_cell_length_a   5.07083303
_cell_length_b   5.07264417
_cell_length_c   14.38557300
_cell_angle_alpha   89.99910876
_cell_angle_beta   90.00031393
_cell_angle_gamma   119.99622166
_symmetry_Int_Tables_number   1
_chemical_formula_structural   TbYbY4(Ni7B2)2
_chemical_formula_sum   'Tb1 Yb1 Y4 Ni14 B4'
_cell_volume   320.47048669
_cell_formula_units_Z   1
loop_
 _symmetry_equiv_pos_site_id
 _symmetry_equiv_pos_as_xyz
  1  'x, y, z'
loop_
 _atom_site_type_symbol
 _atom_site_label
 _atom_site_symmetry_multiplicity
 _atom_site_fract_x
 _atom_site_fract_y
 _atom_site_fract_z
 _atom_site_occupancy
  Tb  Tb0  1  0.333271  0.666609  0.751646  1
  Yb  Yb1  1  0.666640  0.333271  0.029840  1
  Y  Y2  1  0.333467  0.666806  0.971592  1
  Y  Y3  1  0.333350  0.666716  0.532204  1
  Y  Y4  1  0.666585  0.333247  0.466042  1
  Y  Y5  1  0.666712  0.333372  0.245372  1
  Ni  Ni6  1  0.834362  0.668733  0.649968  1
  Ni  Ni7  1  0.834368  0.165656  0.649939  1
  Ni  Ni8  1  0.331254  0.165643  0.649961  1
  Ni  Ni9  1  0.165551  0.331109  0.349810  1
  Ni  Ni10  1  0.165540  0.834416  0.349820  1
  Ni  Ni11  1  0.668911  0.834437  0.349813  1
  Ni  Ni12  1  0.165111  0.330207  0.149084  1
  Ni  Ni13  1  0.165109  0.834869  0.149068  1
  Ni  Ni14  1  0.669790  0.834877  0.149081  1
  Ni  Ni15  1  0.835069  0.670121  0.851132  1
  Ni  Ni16  1  0.835092  0.165010  0.851190  1
  Ni  Ni17  1  0.329890  0.164982  0.851162  1
  Ni  Ni18  1  0.000010  0.000015  0.500328  1
  Ni  Ni19  1  0.999940  0.999930  0.001162  1
  B  B20  1  0.666468  0.333135  0.751311  1
  B  B21  1  0.333554  0.666839  0.249497  1
  B  B22  1  0.000060  0.000101  0.750965  1
  B  B23  1  0.999896  0.999897  0.250011  1
