# generated using pymatgen
data_LiEr6Zn22C
_symmetry_space_group_name_H-M   'P 1'
_cell_length_a   8.90797857
_cell_length_b   8.90788821
_cell_length_c   8.90745100
_cell_angle_alpha   60.00102571
_cell_angle_beta   59.99905146
_cell_angle_gamma   60.00069085
_symmetry_Int_Tables_number   1
_chemical_formula_structural   LiEr6Zn22C
_chemical_formula_sum   'Li1 Er6 Zn22 C1'
_cell_volume   499.79842870
_cell_formula_units_Z   1
loop_
 _symmetry_equiv_pos_site_id
 _symmetry_equiv_pos_as_xyz
  1  'x, y, z'
loop_
 _atom_site_type_symbol
 _atom_site_label
 _atom_site_symmetry_multiplicity
 _atom_site_fract_x
 _atom_site_fract_y
 _atom_site_fract_z
 _atom_site_occupancy
  Li  Li0  1  0.000000  0.000000  0.000000  1
  Er  Er1  1  0.694959  0.305019  0.305048  1
  Er  Er2  1  0.305041  0.694981  0.694952  1
  Er  Er3  1  0.305009  0.695021  0.304980  1
  Er  Er4  1  0.694991  0.304979  0.695020  1
  Er  Er5  1  0.305033  0.304990  0.694992  1
  Er  Er6  1  0.694967  0.695010  0.305008  1
  Zn  Zn7  1  0.119637  0.119625  0.119580  1
  Zn  Zn8  1  0.880363  0.880375  0.880420  1
  Zn  Zn9  1  0.119641  0.119619  0.641163  1
  Zn  Zn10  1  0.119609  0.641144  0.119622  1
  Zn  Zn11  1  0.880359  0.880381  0.358837  1
  Zn  Zn12  1  0.880391  0.358856  0.880378  1
  Zn  Zn13  1  0.641171  0.119588  0.119623  1
  Zn  Zn14  1  0.358829  0.880412  0.880377  1
  Zn  Zn15  1  0.500000  0.000000  0.000000  1
  Zn  Zn16  1  0.000000  0.500000  0.500000  1
  Zn  Zn17  1  0.000000  0.500000  0.000000  1
  Zn  Zn18  1  0.500000  0.000000  0.500000  1
  Zn  Zn19  1  0.000000  0.000000  0.500000  1
  Zn  Zn20  1  0.500000  0.500000  0.000000  1
  Zn  Zn21  1  0.328578  0.328597  0.328572  1
  Zn  Zn22  1  0.671422  0.671403  0.671428  1
  Zn  Zn23  1  0.328586  0.328584  0.014255  1
  Zn  Zn24  1  0.328558  0.014238  0.328593  1
  Zn  Zn25  1  0.671414  0.671416  0.985745  1
  Zn  Zn26  1  0.671442  0.985762  0.671407  1
  Zn  Zn27  1  0.014227  0.328564  0.328606  1
  Zn  Zn28  1  0.985773  0.671436  0.671394  1
  C  C29  1  0.500000  0.500000  0.500000  1
