# generated using pymatgen
data_Sm11Tm(SiBr3)4
_symmetry_space_group_name_H-M   'P 1'
_cell_length_a   10.27700839
_cell_length_b   10.27745842
_cell_length_c   10.24560615
_cell_angle_alpha   109.50130369
_cell_angle_beta   109.50100048
_cell_angle_gamma   109.53905654
_symmetry_Int_Tables_number   1
_chemical_formula_structural   Sm11Tm(SiBr3)4
_chemical_formula_sum   'Sm11 Tm1 Si4 Br12'
_cell_volume   831.72897012
_cell_formula_units_Z   1
loop_
 _symmetry_equiv_pos_site_id
 _symmetry_equiv_pos_as_xyz
  1  'x, y, z'
loop_
 _atom_site_type_symbol
 _atom_site_label
 _atom_site_symmetry_multiplicity
 _atom_site_fract_x
 _atom_site_fract_y
 _atom_site_fract_z
 _atom_site_occupancy
  Sm  Sm0  1  0.262507  0.012568  0.024994  1
  Sm  Sm1  1  0.025534  0.263075  0.013040  1
  Sm  Sm2  1  0.487460  0.749921  0.012992  1
  Sm  Sm3  1  0.750881  0.238037  0.263142  1
  Sm  Sm4  1  0.012322  0.025144  0.263164  1
  Sm  Sm5  1  0.012668  0.488189  0.750755  1
  Sm  Sm6  1  0.238081  0.262547  0.750771  1
  Sm  Sm7  1  0.261774  0.748488  0.236828  1
  Sm  Sm8  1  0.237842  0.476036  0.488832  1
  Sm  Sm9  1  0.475034  0.488267  0.236806  1
  Sm  Sm10  1  0.751038  0.012850  0.488902  1
  Tm  Tm11  1  0.484360  0.234397  0.468805  1
  Si  Si12  1  0.000128  0.250120  0.500238  1
  Si  Si13  1  0.250074  0.500067  0.000161  1
  Si  Si14  1  0.500256  0.002663  0.253076  1
  Si  Si15  1  0.252809  0.250425  0.253076  1
  Br  Br16  1  0.755341  0.745390  0.250394  1
  Br  Br17  1  0.504971  0.249670  0.995400  1
  Br  Br18  1  0.257245  0.001920  0.505747  1
  Br  Br19  1  0.509768  0.499251  0.750017  1
  Br  Br20  1  0.995306  0.990234  0.745560  1
  Br  Br21  1  0.745227  0.995220  0.990464  1
  Br  Br22  1  0.504883  0.754852  0.509707  1
  Br  Br23  1  0.748499  0.503816  0.505752  1
  Br  Br24  1  0.995039  0.505014  0.250388  1
  Br  Br25  1  0.990487  0.745758  0.995414  1
  Br  Br26  1  0.250226  0.755307  0.745550  1
  Br  Br27  1  0.740240  0.250773  0.750028  1
