# generated using pymatgen
data_Ac16La4Si15Ru
_symmetry_space_group_name_H-M   'P 1'
_cell_length_a   8.19144145
_cell_length_b   8.21404933
_cell_length_c   16.41095200
_cell_angle_alpha   89.84202232
_cell_angle_beta   90.11827162
_cell_angle_gamma   90.08565527
_symmetry_Int_Tables_number   1
_chemical_formula_structural   Ac16La4Si15Ru
_chemical_formula_sum   'Ac16 La4 Si15 Ru1'
_cell_volume   1104.20155861
_cell_formula_units_Z   1
loop_
 _symmetry_equiv_pos_site_id
 _symmetry_equiv_pos_as_xyz
  1  'x, y, z'
loop_
 _atom_site_type_symbol
 _atom_site_label
 _atom_site_symmetry_multiplicity
 _atom_site_fract_x
 _atom_site_fract_y
 _atom_site_fract_z
 _atom_site_occupancy
  Ac  Ac0  1  0.472665  0.376510  0.128627  1
  Ac  Ac1  1  0.984812  0.115518  0.618539  1
  Ac  Ac2  1  0.879921  0.025466  0.878513  1
  Ac  Ac3  1  0.121121  0.968826  0.380709  1
  Ac  Ac4  1  0.523169  0.630805  0.626216  1
  Ac  Ac5  1  0.375157  0.476391  0.871969  1
  Ac  Ac6  1  0.618068  0.527117  0.372419  1
  Ac  Ac7  1  0.028620  0.878987  0.121026  1
  Ac  Ac8  1  0.611776  0.983133  0.448522  1
  Ac  Ac9  1  0.383927  0.014985  0.942089  1
  Ac  Ac10  1  0.982363  0.612742  0.554242  1
  Ac  Ac11  1  0.483989  0.882123  0.195418  1
  Ac  Ac12  1  0.515758  0.122543  0.690363  1
  Ac  Ac13  1  0.884494  0.487193  0.806533  1
  Ac  Ac14  1  0.115324  0.512384  0.306409  1
  Ac  Ac15  1  0.015854  0.379492  0.054431  1
  La  La16  1  0.310808  0.299370  0.502247  1
  La  La17  1  0.197316  0.815615  0.735867  1
  La  La18  1  0.809831  0.190010  0.251871  1
  La  La19  1  0.692924  0.695461  0.999614  1
  Si  Si20  1  0.713322  0.085171  0.062176  1
  Si  Si21  1  0.913978  0.287164  0.437444  1
  Si  Si22  1  0.416399  0.210558  0.312487  1
  Si  Si23  1  0.586678  0.785130  0.811246  1
  Si  Si24  1  0.212640  0.417436  0.689370  1
  Si  Si25  1  0.786181  0.583618  0.187741  1
  Si  Si26  1  0.080887  0.711653  0.939070  1
  Si  Si27  1  0.809986  0.826115  0.712590  1
  Si  Si28  1  0.187668  0.174492  0.215284  1
  Si  Si29  1  0.822487  0.807106  0.287150  1
  Si  Si30  1  0.316642  0.688521  0.465593  1
  Si  Si31  1  0.674251  0.310339  0.963335  1
  Si  Si32  1  0.692645  0.326116  0.536990  1
  Si  Si33  1  0.312295  0.676831  0.035931  1
  Si  Si34  1  0.171723  0.195400  0.788771  1
  Ru  Ru35  1  0.294323  0.919679  0.569198  1
