# generated using pymatgen
data_Ba3SrNd8Be4O20
_symmetry_space_group_name_H-M   'P 1'
_cell_length_a   7.42998233
_cell_length_b   6.74106491
_cell_length_c   9.81259865
_cell_angle_alpha   89.82999793
_cell_angle_beta   90.74099749
_cell_angle_gamma   90.14944317
_symmetry_Int_Tables_number   1
_chemical_formula_structural   Ba3SrNd8Be4O20
_chemical_formula_sum   'Ba3 Sr1 Nd8 Be4 O20'
_cell_volume   491.42886156
_cell_formula_units_Z   1
loop_
 _symmetry_equiv_pos_site_id
 _symmetry_equiv_pos_as_xyz
  1  'x, y, z'
loop_
 _atom_site_type_symbol
 _atom_site_label
 _atom_site_symmetry_multiplicity
 _atom_site_fract_x
 _atom_site_fract_y
 _atom_site_fract_z
 _atom_site_occupancy
  Ba  Ba0  1  0.019957  0.417851  0.325482  1
  Ba  Ba1  1  0.980290  0.582568  0.673263  1
  Ba  Ba2  1  0.020487  0.081829  0.827661  1
  Sr  Sr3  1  0.978191  0.918296  0.171377  1
  Nd  Nd4  1  0.744470  0.407118  0.022562  1
  Nd  Nd5  1  0.522175  0.917766  0.176015  1
  Nd  Nd6  1  0.478572  0.417378  0.323758  1
  Nd  Nd7  1  0.254843  0.908513  0.475973  1
  Nd  Nd8  1  0.745055  0.091614  0.519870  1
  Nd  Nd9  1  0.520549  0.584040  0.676261  1
  Nd  Nd10  1  0.479353  0.082015  0.824449  1
  Nd  Nd11  1  0.254946  0.593086  0.980529  1
  Be  Be12  1  0.257536  0.189268  0.097956  1
  Be  Be13  1  0.740884  0.694754  0.400176  1
  Be  Be14  1  0.261076  0.306695  0.596613  1
  Be  Be15  1  0.740564  0.807689  0.906428  1
  O  O16  1  0.275424  0.978530  0.011743  1
  O  O17  1  0.065913  0.303847  0.062411  1
  O  O18  1  0.440087  0.318060  0.067524  1
  O  O19  1  0.279503  0.666789  0.216919  1
  O  O20  1  0.723687  0.635838  0.229186  1
  O  O21  1  0.273214  0.126858  0.268953  1
  O  O22  1  0.719430  0.163897  0.281112  1
  O  O23  1  0.559681  0.820207  0.433492  1
  O  O24  1  0.934026  0.811263  0.431378  1
  O  O25  1  0.720906  0.482180  0.488307  1
  O  O26  1  0.280088  0.518663  0.509330  1
  O  O27  1  0.067972  0.192128  0.562205  1
  O  O28  1  0.441702  0.179907  0.564501  1
  O  O29  1  0.284848  0.834100  0.716712  1
  O  O30  1  0.721780  0.870191  0.732033  1
  O  O31  1  0.279958  0.368764  0.768717  1
  O  O32  1  0.715404  0.335105  0.784987  1
  O  O33  1  0.558789  0.681017  0.935560  1
  O  O34  1  0.933505  0.694672  0.942671  1
  O  O35  1  0.725134  0.017498  0.993882  1
