# generated using pymatgen
data_Ho16InHg3Pd4
_symmetry_space_group_name_H-M   'P 1'
_cell_length_a   9.65279825
_cell_length_b   9.65027458
_cell_length_c   9.61308276
_cell_angle_alpha   59.80183846
_cell_angle_beta   59.80944118
_cell_angle_gamma   59.93620051
_symmetry_Int_Tables_number   1
_chemical_formula_structural   Ho16InHg3Pd4
_chemical_formula_sum   'Ho16 In1 Hg3 Pd4'
_cell_volume   631.02978973
_cell_formula_units_Z   1
loop_
 _symmetry_equiv_pos_site_id
 _symmetry_equiv_pos_as_xyz
  1  'x, y, z'
loop_
 _atom_site_type_symbol
 _atom_site_label
 _atom_site_symmetry_multiplicity
 _atom_site_fract_x
 _atom_site_fract_y
 _atom_site_fract_z
 _atom_site_occupancy
  Ho  Ho0  1  0.354465  0.354459  0.353870  1
  Ho  Ho1  1  0.356324  0.356318  0.933226  1
  Ho  Ho2  1  0.358955  0.929571  0.357169  1
  Ho  Ho3  1  0.929597  0.358973  0.357180  1
  Ho  Ho4  1  0.811808  0.189511  0.188211  1
  Ho  Ho5  1  0.189939  0.811029  0.810154  1
  Ho  Ho6  1  0.189545  0.811808  0.188215  1
  Ho  Ho7  1  0.810996  0.189963  0.810155  1
  Ho  Ho8  1  0.189098  0.189115  0.811267  1
  Ho  Ho9  1  0.811018  0.811047  0.189103  1
  Ho  Ho10  1  0.938063  0.566367  0.565526  1
  Ho  Ho11  1  0.563958  0.936268  0.936068  1
  Ho  Ho12  1  0.566386  0.938076  0.565501  1
  Ho  Ho13  1  0.936255  0.563905  0.936140  1
  Ho  Ho14  1  0.566768  0.566733  0.937216  1
  Ho  Ho15  1  0.936289  0.936328  0.563476  1
  In  In16  1  0.582688  0.582702  0.584659  1
  Hg  Hg17  1  0.585965  0.585925  0.238250  1
  Hg  Hg18  1  0.585495  0.238043  0.587238  1
  Hg  Hg19  1  0.238026  0.585474  0.587246  1
  Pd  Pd20  1  0.145517  0.145526  0.147741  1
  Pd  Pd21  1  0.144570  0.144589  0.562240  1
  Pd  Pd22  1  0.143229  0.565030  0.145073  1
  Pd  Pd23  1  0.565047  0.143243  0.145076  1
