# generated using pymatgen
data_Dy3SnRh2Pb2Au
_symmetry_space_group_name_H-M   'P 1'
_cell_length_a   7.82768230
_cell_length_b   7.79439163
_cell_length_c   3.82883900
_cell_angle_alpha   90.00000000
_cell_angle_beta   90.00000000
_cell_angle_gamma   119.73788606
_symmetry_Int_Tables_number   1
_chemical_formula_structural   Dy3SnRh2Pb2Au
_chemical_formula_sum   'Dy3 Sn1 Rh2 Pb2 Au1'
_cell_volume   202.84026773
_cell_formula_units_Z   1
loop_
 _symmetry_equiv_pos_site_id
 _symmetry_equiv_pos_as_xyz
  1  'x, y, z'
loop_
 _atom_site_type_symbol
 _atom_site_label
 _atom_site_symmetry_multiplicity
 _atom_site_fract_x
 _atom_site_fract_y
 _atom_site_fract_z
 _atom_site_occupancy
  Dy  Dy0  1  0.390096  0.409170  0.500000  1
  Dy  Dy1  1  0.593087  0.986600  0.500000  1
  Dy  Dy2  1  0.017340  0.604019  0.500000  1
  Sn  Sn3  1  0.002635  0.261649  0.000000  1
  Rh  Rh4  1  0.326125  0.657155  0.000000  1
  Rh  Rh5  1  0.999708  0.011190  0.500000  1
  Pb  Pb6  1  0.737762  0.739615  0.000000  1
  Pb  Pb7  1  0.260681  0.999558  0.000000  1
  Au  Au8  1  0.672565  0.331044  0.000000  1
