# generated using pymatgen
data_Zr10ZnIn3SiSnBi2
_symmetry_space_group_name_H-M   'P 1'
_cell_length_a   8.74911922
_cell_length_b   8.74222695
_cell_length_c   5.92378100
_cell_angle_alpha   89.91821371
_cell_angle_beta   90.04085764
_cell_angle_gamma   119.97394228
_symmetry_Int_Tables_number   1
_chemical_formula_structural   Zr10ZnIn3SiSnBi2
_chemical_formula_sum   'Zr10 Zn1 In3 Si1 Sn1 Bi2'
_cell_volume   392.49087998
_cell_formula_units_Z   1
loop_
 _symmetry_equiv_pos_site_id
 _symmetry_equiv_pos_as_xyz
  1  'x, y, z'
loop_
 _atom_site_type_symbol
 _atom_site_label
 _atom_site_symmetry_multiplicity
 _atom_site_fract_x
 _atom_site_fract_y
 _atom_site_fract_z
 _atom_site_occupancy
  Zr  Zr0  1  0.671004  0.335334  0.005607  1
  Zr  Zr1  1  0.328996  0.664331  0.005607  1
  Zr  Zr2  1  0.328832  0.664735  0.494899  1
  Zr  Zr3  1  0.671168  0.335902  0.494899  1
  Zr  Zr4  1  0.745950  0.743410  0.740324  1
  Zr  Zr5  1  0.254050  0.997461  0.740324  1
  Zr  Zr6  1  0.000000  0.255426  0.742828  1
  Zr  Zr7  1  0.264154  0.268027  0.256500  1
  Zr  Zr8  1  0.735846  0.003873  0.256500  1
  Zr  Zr9  1  0.000000  0.729734  0.260239  1
  Zn  Zn10  1  0.000000  0.994874  0.016567  1
  In  In11  1  0.000000  0.610201  0.754998  1
  In  In12  1  0.615991  0.618134  0.246015  1
  In  In13  1  0.384009  0.002143  0.246015  1
  Si  Si14  1  0.000000  0.998441  0.485331  1
  Sn  Sn15  1  0.000000  0.387297  0.246119  1
  Bi  Bi16  1  0.394135  0.392407  0.753614  1
  Bi  Bi17  1  0.605865  0.998270  0.753614  1
