# generated using pymatgen
data_Rb2AlGa(SiSe4)2
_symmetry_space_group_name_H-M   'P 1'
_cell_length_a   16.95836200
_cell_length_b   7.26548937
_cell_length_c   7.80421757
_cell_angle_alpha   69.78466993
_cell_angle_beta   90.00000000
_cell_angle_gamma   90.00000000
_symmetry_Int_Tables_number   1
_chemical_formula_structural   Rb2AlGa(SiSe4)2
_chemical_formula_sum   'Rb4 Al2 Ga2 Si4 Se16'
_cell_volume   902.33212448
_cell_formula_units_Z   2
loop_
 _symmetry_equiv_pos_site_id
 _symmetry_equiv_pos_as_xyz
  1  'x, y, z'
loop_
 _atom_site_type_symbol
 _atom_site_label
 _atom_site_symmetry_multiplicity
 _atom_site_fract_x
 _atom_site_fract_y
 _atom_site_fract_z
 _atom_site_occupancy
  Rb  Rb0  1  0.396575  0.967933  0.182679  1
  Rb  Rb1  1  0.896575  0.032067  0.817321  1
  Rb  Rb2  1  0.602217  0.519171  0.825262  1
  Rb  Rb3  1  0.102217  0.480829  0.174738  1
  Al  Al4  1  0.582714  0.164883  0.477034  1
  Al  Al5  1  0.082714  0.835117  0.522966  1
  Ga  Ga6  1  0.272547  0.593302  0.706364  1
  Ga  Ga7  1  0.772547  0.406698  0.293636  1
  Si  Si8  1  0.421124  0.323754  0.537052  1
  Si  Si9  1  0.921124  0.676246  0.462948  1
  Si  Si10  1  0.725850  0.910944  0.270942  1
  Si  Si11  1  0.225850  0.089056  0.729058  1
  Se  Se12  1  0.598078  0.887048  0.375220  1
  Se  Se13  1  0.098078  0.112952  0.624780  1
  Se  Se14  1  0.412275  0.595343  0.622676  1
  Se  Se15  1  0.912275  0.404657  0.377324  1
  Se  Se16  1  0.800472  0.781138  0.537368  1
  Se  Se17  1  0.300472  0.218862  0.462632  1
  Se  Se18  1  0.200456  0.725210  0.427933  1
  Se  Se19  1  0.700456  0.274790  0.572067  1
  Se  Se20  1  0.763947  0.218634  0.085969  1
  Se  Se21  1  0.263947  0.781366  0.914031  1
  Se  Se22  1  0.236678  0.266338  0.920660  1
  Se  Se23  1  0.736678  0.733662  0.079340  1
  Se  Se24  1  0.995491  0.916852  0.257512  1
  Se  Se25  1  0.495491  0.083148  0.742488  1
  Se  Se26  1  0.991573  0.602007  0.730712  1
  Se  Se27  1  0.491573  0.397993  0.269288  1
