# generated using pymatgen
data_CeDy5MoO12
_symmetry_space_group_name_H-M   'P 1'
_cell_length_a   6.53377295
_cell_length_b   6.51267849
_cell_length_c   6.46611431
_cell_angle_alpha   98.59998245
_cell_angle_beta   98.98668799
_cell_angle_gamma   99.01272530
_symmetry_Int_Tables_number   1
_chemical_formula_structural   CeDy5MoO12
_chemical_formula_sum   'Ce1 Dy5 Mo1 O12'
_cell_volume   264.11105626
_cell_formula_units_Z   1
loop_
 _symmetry_equiv_pos_site_id
 _symmetry_equiv_pos_as_xyz
  1  'x, y, z'
loop_
 _atom_site_type_symbol
 _atom_site_label
 _atom_site_symmetry_multiplicity
 _atom_site_fract_x
 _atom_site_fract_y
 _atom_site_fract_z
 _atom_site_occupancy
  Ce  Ce0  1  0.605256  0.307320  0.140480  1
  Dy  Dy1  1  0.142156  0.611339  0.309091  1
  Dy  Dy2  1  0.690366  0.857239  0.392707  1
  Dy  Dy3  1  0.303062  0.139284  0.609745  1
  Dy  Dy4  1  0.866288  0.391501  0.695703  1
  Dy  Dy5  1  0.387143  0.694589  0.856494  1
  Mo  Mo6  1  0.996431  0.997649  0.000699  1
  O  O7  1  0.696211  0.927636  0.045989  1
  O  O8  1  0.957469  0.303075  0.070534  1
  O  O9  1  0.434508  0.586439  0.177527  1
  O  O10  1  0.072596  0.957856  0.300526  1
  O  O11  1  0.822723  0.566040  0.409880  1
  O  O12  1  0.589991  0.181789  0.431675  1
  O  O13  1  0.412183  0.825068  0.563666  1
  O  O14  1  0.179474  0.434404  0.589621  1
  O  O15  1  0.928103  0.042829  0.698895  1
  O  O16  1  0.568293  0.408880  0.826430  1
  O  O17  1  0.043933  0.697533  0.927046  1
  O  O18  1  0.303814  0.069531  0.953291  1
