# generated using pymatgen
data_NdTm2AuO7
_symmetry_space_group_name_H-M   'P 1'
_cell_length_a   6.44162973
_cell_length_b   6.44162915
_cell_length_c   7.48568000
_cell_angle_alpha   90.00000000
_cell_angle_beta   90.00000000
_cell_angle_gamma   108.48535135
_symmetry_Int_Tables_number   1
_chemical_formula_structural   NdTm2AuO7
_chemical_formula_sum   'Nd2 Tm4 Au2 O14'
_cell_volume   294.58895078
_cell_formula_units_Z   2
loop_
 _symmetry_equiv_pos_site_id
 _symmetry_equiv_pos_as_xyz
  1  'x, y, z'
loop_
 _atom_site_type_symbol
 _atom_site_label
 _atom_site_symmetry_multiplicity
 _atom_site_fract_x
 _atom_site_fract_y
 _atom_site_fract_z
 _atom_site_occupancy
  Nd  Nd0  1  0.000000  0.000000  0.000000  1
  Nd  Nd1  1  0.000000  0.000000  0.500000  1
  Tm  Tm2  1  0.490731  0.948558  0.750000  1
  Tm  Tm3  1  0.509269  0.051442  0.250000  1
  Tm  Tm4  1  0.948558  0.490731  0.750000  1
  Tm  Tm5  1  0.051442  0.509269  0.250000  1
  Au  Au6  1  0.500000  0.500000  0.000000  1
  Au  Au7  1  0.500000  0.500000  0.500000  1
  O  O8  1  0.606705  0.606705  0.750000  1
  O  O9  1  0.393295  0.393295  0.250000  1
  O  O10  1  0.839549  0.129401  0.750000  1
  O  O11  1  0.160451  0.870599  0.250000  1
  O  O12  1  0.129401  0.839549  0.750000  1
  O  O13  1  0.870599  0.160451  0.250000  1
  O  O14  1  0.433529  0.169713  0.970954  1
  O  O15  1  0.566471  0.830287  0.470954  1
  O  O16  1  0.169713  0.433529  0.970954  1
  O  O17  1  0.830287  0.566471  0.470954  1
  O  O18  1  0.433529  0.169713  0.529046  1
  O  O19  1  0.566471  0.830287  0.029046  1
  O  O20  1  0.830287  0.566471  0.029046  1
  O  O21  1  0.169713  0.433529  0.529046  1
