# generated using pymatgen
data_Ce4ReTc3Os4
_symmetry_space_group_name_H-M   'P 1'
_cell_length_a   5.31055457
_cell_length_b   5.09263589
_cell_length_c   9.22053400
_cell_angle_alpha   90.00000000
_cell_angle_beta   90.00000000
_cell_angle_gamma   114.92800085
_symmetry_Int_Tables_number   1
_chemical_formula_structural   Ce4ReTc3Os4
_chemical_formula_sum   'Ce4 Re1 Tc3 Os4'
_cell_volume   226.13529646
_cell_formula_units_Z   1
loop_
 _symmetry_equiv_pos_site_id
 _symmetry_equiv_pos_as_xyz
  1  'x, y, z'
loop_
 _atom_site_type_symbol
 _atom_site_label
 _atom_site_symmetry_multiplicity
 _atom_site_fract_x
 _atom_site_fract_y
 _atom_site_fract_z
 _atom_site_occupancy
  Ce  Ce0  1  0.331343  0.664784  0.435534  1
  Ce  Ce1  1  0.666215  0.337500  0.565459  1
  Ce  Ce2  1  0.666215  0.337500  0.934541  1
  Ce  Ce3  1  0.331343  0.664784  0.064466  1
  Re  Re4  1  0.834699  0.163424  0.250000  1
  Tc  Tc5  1  0.835961  0.656031  0.250000  1
  Tc  Tc6  1  0.170393  0.827807  0.750000  1
  Tc  Tc7  1  0.166109  0.336619  0.750000  1
  Os  Os8  1  0.995539  0.006183  0.499938  1
  Os  Os9  1  0.995539  0.006183  0.000062  1
  Os  Os10  1  0.345900  0.165995  0.250000  1
  Os  Os11  1  0.660745  0.833190  0.750000  1
