# generated using pymatgen
data_Nb6Zn5CuC2
_symmetry_space_group_name_H-M   'P 1'
_cell_length_a   8.33475851
_cell_length_b   8.33475792
_cell_length_c   8.34399800
_cell_angle_alpha   59.96332829
_cell_angle_beta   59.96333065
_cell_angle_gamma   59.84678524
_symmetry_Int_Tables_number   1
_chemical_formula_structural   Nb6Zn5CuC2
_chemical_formula_sum   'Nb12 Zn10 Cu2 C4'
_cell_volume   409.16588626
_cell_formula_units_Z   2
loop_
 _symmetry_equiv_pos_site_id
 _symmetry_equiv_pos_as_xyz
  1  'x, y, z'
loop_
 _atom_site_type_symbol
 _atom_site_label
 _atom_site_symmetry_multiplicity
 _atom_site_fract_x
 _atom_site_fract_y
 _atom_site_fract_z
 _atom_site_occupancy
  Nb  Nb0  1  0.432836  0.432836  0.067164  1
  Nb  Nb1  1  0.067290  0.431787  0.069693  1
  Nb  Nb2  1  0.431787  0.067290  0.069693  1
  Nb  Nb3  1  0.068917  0.068917  0.431083  1
  Nb  Nb4  1  0.431787  0.067290  0.431230  1
  Nb  Nb5  1  0.067290  0.431787  0.431230  1
  Nb  Nb6  1  0.817164  0.817164  0.182836  1
  Nb  Nb7  1  0.182710  0.818213  0.180307  1
  Nb  Nb8  1  0.818213  0.182710  0.180307  1
  Nb  Nb9  1  0.181083  0.181083  0.818917  1
  Nb  Nb10  1  0.818213  0.182710  0.818770  1
  Nb  Nb11  1  0.182710  0.818213  0.818770  1
  Zn  Zn12  1  0.830536  0.830536  0.502265  1
  Zn  Zn13  1  0.827662  0.505374  0.833482  1
  Zn  Zn14  1  0.505374  0.827662  0.833482  1
  Zn  Zn15  1  0.830536  0.830536  0.836662  1
  Zn  Zn16  1  0.419464  0.419464  0.747735  1
  Zn  Zn17  1  0.422338  0.744626  0.416518  1
  Zn  Zn18  1  0.744626  0.422338  0.416518  1
  Zn  Zn19  1  0.419464  0.419464  0.413338  1
  Zn  Zn20  1  0.625000  0.125000  0.625000  1
  Zn  Zn21  1  0.125000  0.625000  0.625000  1
  Cu  Cu22  1  0.625000  0.625000  0.125000  1
  Cu  Cu23  1  0.625000  0.625000  0.625000  1
  C  C24  1  0.125000  0.125000  0.625000  1
  C  C25  1  0.125000  0.625000  0.125000  1
  C  C26  1  0.625000  0.125000  0.125000  1
  C  C27  1  0.125000  0.125000  0.125000  1
