# generated using pymatgen
data_Rb5PtAu5
_symmetry_space_group_name_H-M   'P 1'
_cell_length_a   14.54962735
_cell_length_b   14.54962615
_cell_length_c   5.41549500
_cell_angle_alpha   90.00000000
_cell_angle_beta   90.00000000
_cell_angle_gamma   159.42870277
_symmetry_Int_Tables_number   1
_chemical_formula_structural   Rb5PtAu5
_chemical_formula_sum   'Rb5 Pt1 Au5'
_cell_volume   402.81891192
_cell_formula_units_Z   1
loop_
 _symmetry_equiv_pos_site_id
 _symmetry_equiv_pos_as_xyz
  1  'x, y, z'
loop_
 _atom_site_type_symbol
 _atom_site_label
 _atom_site_symmetry_multiplicity
 _atom_site_fract_x
 _atom_site_fract_y
 _atom_site_fract_z
 _atom_site_occupancy
  Rb  Rb0  1  0.000366  0.999634  0.000000  1
  Rb  Rb1  1  0.625943  0.374057  0.000000  1
  Rb  Rb2  1  0.376855  0.623145  0.000000  1
  Rb  Rb3  1  0.803566  0.196433  0.500000  1
  Rb  Rb4  1  0.192868  0.807131  0.500000  1
  Pt  Pt5  1  0.743391  0.256609  0.000000  1
  Au  Au6  1  0.256701  0.743299  0.000000  1
  Au  Au7  1  0.927096  0.072904  0.500000  1
  Au  Au8  1  0.552338  0.447661  0.500000  1
  Au  Au9  1  0.448278  0.551721  0.500000  1
  Au  Au10  1  0.072596  0.927404  0.500000  1
