# generated using pymatgen
data_MgSc11Pt3I16
_symmetry_space_group_name_H-M   'P 1'
_cell_length_a   9.30895915
_cell_length_b   12.05753409
_cell_length_c   12.66745117
_cell_angle_alpha   117.09514494
_cell_angle_beta   101.43603569
_cell_angle_gamma   101.35407068
_symmetry_Int_Tables_number   1
_chemical_formula_structural   MgSc11Pt3I16
_chemical_formula_sum   'Mg1 Sc11 Pt3 I16'
_cell_volume   1171.54165159
_cell_formula_units_Z   1
loop_
 _symmetry_equiv_pos_site_id
 _symmetry_equiv_pos_as_xyz
  1  'x, y, z'
loop_
 _atom_site_type_symbol
 _atom_site_label
 _atom_site_symmetry_multiplicity
 _atom_site_fract_x
 _atom_site_fract_y
 _atom_site_fract_z
 _atom_site_occupancy
  Mg  Mg0  1  0.080610  0.277835  0.363493  1
  Sc  Sc1  1  0.910467  0.729599  0.641302  1
  Sc  Sc2  1  0.775794  0.536524  0.329503  1
  Sc  Sc3  1  0.210221  0.460360  0.659421  1
  Sc  Sc4  1  0.270760  0.725946  0.638640  1
  Sc  Sc5  1  0.721996  0.270037  0.358983  1
  Sc  Sc6  1  0.137063  0.526943  0.333206  1
  Sc  Sc7  1  0.851813  0.466323  0.672212  1
  Sc  Sc8  1  0.400831  0.357058  0.275001  1
  Sc  Sc9  1  0.591886  0.637836  0.722577  1
  Sc  Sc10  1  0.453278  0.307613  0.518461  1
  Sc  Sc11  1  0.539245  0.687529  0.477500  1
  Pt  Pt12  1  0.992847  0.513994  0.508717  1
  Pt  Pt13  1  0.347365  0.502809  0.501155  1
  Pt  Pt14  1  0.656445  0.497496  0.499098  1
  I  I15  1  0.390651  0.733831  0.878467  1
  I  I16  1  0.607419  0.262162  0.117977  1
  I  I17  1  0.192140  0.961952  0.782365  1
  I  I18  1  0.817736  0.044320  0.221147  1
  I  I19  1  0.356734  0.096021  0.251738  1
  I  I20  1  0.662625  0.899741  0.745709  1
  I  I21  1  0.570228  0.439009  0.797921  1
  I  I22  1  0.452128  0.560789  0.201722  1
  I  I23  1  0.301403  0.817737  0.459054  1
  I  I24  1  0.696510  0.177104  0.539154  1
  I  I25  1  0.168196  0.174013  0.539985  1
  I  I26  1  0.836596  0.827628  0.466858  1
  I  I27  1  0.927973  0.573951  0.163115  1
  I  I28  1  0.076169  0.429396  0.839037  1
  I  I29  1  0.927005  0.741032  0.884171  1
  I  I30  1  0.075869  0.263412  0.112311  1
