# generated using pymatgen
data_Nd4Cd2Si3Ge
_symmetry_space_group_name_H-M   'P 1'
_cell_length_a   7.40251821
_cell_length_b   7.40251821
_cell_length_c   4.36544000
_cell_angle_alpha   90.00000000
_cell_angle_beta   90.00000000
_cell_angle_gamma   90.17062148
_symmetry_Int_Tables_number   1
_chemical_formula_structural   Nd4Cd2Si3Ge
_chemical_formula_sum   'Nd4 Cd2 Si3 Ge1'
_cell_volume   239.21315893
_cell_formula_units_Z   1
loop_
 _symmetry_equiv_pos_site_id
 _symmetry_equiv_pos_as_xyz
  1  'x, y, z'
loop_
 _atom_site_type_symbol
 _atom_site_label
 _atom_site_symmetry_multiplicity
 _atom_site_fract_x
 _atom_site_fract_y
 _atom_site_fract_z
 _atom_site_occupancy
  Nd  Nd0  1  0.681220  0.179316  0.500000  1
  Nd  Nd1  1  0.320684  0.818780  0.500000  1
  Nd  Nd2  1  0.177877  0.322123  0.500000  1
  Nd  Nd3  1  0.820955  0.679045  0.500000  1
  Cd  Cd4  1  0.500805  0.502068  0.000000  1
  Cd  Cd5  1  0.997932  0.999195  0.000000  1
  Si  Si6  1  0.114680  0.614727  0.000000  1
  Si  Si7  1  0.885273  0.385320  0.000000  1
  Si  Si8  1  0.617642  0.882358  0.000000  1
  Ge  Ge9  1  0.382932  0.117068  0.000000  1
