# generated using pymatgen
data_TbDy3Co8(PRu)12
_symmetry_space_group_name_H-M   'P 1'
_cell_length_a   3.78605900
_cell_length_b   10.62359710
_cell_length_c   12.10384311
_cell_angle_alpha   90.01548495
_cell_angle_beta   90.00000000
_cell_angle_gamma   90.00000000
_symmetry_Int_Tables_number   1
_chemical_formula_structural   TbDy3Co8(PRu)12
_chemical_formula_sum   'Tb1 Dy3 Co8 P12 Ru12'
_cell_volume   486.83549950
_cell_formula_units_Z   1
loop_
 _symmetry_equiv_pos_site_id
 _symmetry_equiv_pos_as_xyz
  1  'x, y, z'
loop_
 _atom_site_type_symbol
 _atom_site_label
 _atom_site_symmetry_multiplicity
 _atom_site_fract_x
 _atom_site_fract_y
 _atom_site_fract_z
 _atom_site_occupancy
  Tb  Tb0  1  0.250000  0.584463  0.706671  1
  Dy  Dy1  1  0.250000  0.915565  0.206748  1
  Dy  Dy2  1  0.750000  0.415491  0.293342  1
  Dy  Dy3  1  0.750000  0.084507  0.793312  1
  Co  Co4  1  0.250000  0.887931  0.695819  1
  Co  Co5  1  0.250000  0.612178  0.195882  1
  Co  Co6  1  0.750000  0.112147  0.304195  1
  Co  Co7  1  0.750000  0.387606  0.804280  1
  Co  Co8  1  0.250000  0.462873  0.935069  1
  Co  Co9  1  0.250000  0.037071  0.434887  1
  Co  Co10  1  0.750000  0.537057  0.065159  1
  Co  Co11  1  0.750000  0.963084  0.564908  1
  P  P12  1  0.250000  0.425735  0.112727  1
  P  P13  1  0.250000  0.074299  0.612649  1
  P  P14  1  0.750000  0.574370  0.887605  1
  P  P15  1  0.750000  0.925746  0.387373  1
  P  P16  1  0.250000  0.271875  0.871281  1
  P  P17  1  0.250000  0.228065  0.371313  1
  P  P18  1  0.750000  0.728108  0.128677  1
  P  P19  1  0.750000  0.772126  0.628546  1
  P  P20  1  0.250000  0.601336  0.387082  1
  P  P21  1  0.250000  0.898677  0.887042  1
  P  P22  1  0.750000  0.398384  0.612774  1
  P  P23  1  0.750000  0.101359  0.112914  1
  Ru  Ru24  1  0.250000  0.706194  0.986430  1
  Ru  Ru25  1  0.250000  0.793821  0.486427  1
  Ru  Ru26  1  0.750000  0.293757  0.013566  1
  Ru  Ru27  1  0.750000  0.206157  0.513520  1
  Ru  Ru28  1  0.250000  0.405233  0.485658  1
  Ru  Ru29  1  0.250000  0.094634  0.985740  1
  Ru  Ru30  1  0.750000  0.594625  0.513907  1
  Ru  Ru31  1  0.750000  0.905397  0.014319  1
  Ru  Ru32  1  0.250000  0.223696  0.180367  1
  Ru  Ru33  1  0.250000  0.276164  0.680302  1
  Ru  Ru34  1  0.750000  0.776448  0.819877  1
  Ru  Ru35  1  0.750000  0.723825  0.319635  1
