# generated using pymatgen
data_Er13Tm7(SiBi2)4
_symmetry_space_group_name_H-M   'P 1'
_cell_length_a   11.90911402
_cell_length_b   9.12374900
_cell_length_c   7.98743501
_cell_angle_alpha   89.99698642
_cell_angle_beta   89.99374524
_cell_angle_gamma   89.99860044
_symmetry_Int_Tables_number   1
_chemical_formula_structural   Er13Tm7(SiBi2)4
_chemical_formula_sum   'Er13 Tm7 Si4 Bi8'
_cell_volume   867.88087256
_cell_formula_units_Z   1
loop_
 _symmetry_equiv_pos_site_id
 _symmetry_equiv_pos_as_xyz
  1  'x, y, z'
loop_
 _atom_site_type_symbol
 _atom_site_label
 _atom_site_symmetry_multiplicity
 _atom_site_fract_x
 _atom_site_fract_y
 _atom_site_fract_z
 _atom_site_occupancy
  Er  Er0  1  0.438645  0.445198  0.320862  1
  Er  Er1  1  0.938641  0.445169  0.179191  1
  Er  Er2  1  0.438655  0.054768  0.320844  1
  Er  Er3  1  0.061358  0.945135  0.820813  1
  Er  Er4  1  0.561358  0.554883  0.679213  1
  Er  Er5  1  0.211005  0.749933  0.166209  1
  Er  Er6  1  0.710933  0.750083  0.333874  1
  Er  Er7  1  0.788995  0.249906  0.833763  1
  Er  Er8  1  0.289067  0.250007  0.666216  1
  Er  Er9  1  0.294207  0.749958  0.639073  1
  Er  Er10  1  0.794073  0.749995  0.860916  1
  Er  Er11  1  0.705860  0.249920  0.361002  1
  Er  Er12  1  0.205821  0.249929  0.139000  1
  Tm  Tm13  1  0.061340  0.555041  0.821092  1
  Tm  Tm14  1  0.561331  0.944937  0.678883  1
  Tm  Tm15  1  0.938635  0.055059  0.178912  1
  Tm  Tm16  1  0.001126  0.750045  0.460809  1
  Tm  Tm17  1  0.501137  0.750032  0.039108  1
  Tm  Tm18  1  0.998851  0.250009  0.539189  1
  Tm  Tm19  1  0.498874  0.249933  0.960714  1
  Si  Si20  1  0.476659  0.750231  0.409787  1
  Si  Si21  1  0.976585  0.750199  0.090302  1
  Si  Si22  1  0.523470  0.249568  0.590472  1
  Si  Si23  1  0.023404  0.250193  0.909669  1
  Bi  Bi24  1  0.325153  0.510635  0.933691  1
  Bi  Bi25  1  0.825209  0.989334  0.566235  1
  Bi  Bi26  1  0.674823  0.010623  0.066246  1
  Bi  Bi27  1  0.174738  0.489337  0.433832  1
  Bi  Bi28  1  0.674800  0.489385  0.066216  1
  Bi  Bi29  1  0.174770  0.010588  0.433851  1
  Bi  Bi30  1  0.325218  0.989355  0.933834  1
  Bi  Bi31  1  0.825259  0.510608  0.566182  1
