# generated using pymatgen
data_Tm5TlSi2
_symmetry_space_group_name_H-M   'P 1'
_cell_length_a   7.57346778
_cell_length_b   7.57346654
_cell_length_c   8.71950272
_cell_angle_alpha   115.73969511
_cell_angle_beta   115.73969928
_cell_angle_gamma   90.00000286
_symmetry_Int_Tables_number   1
_chemical_formula_structural   Tm5TlSi2
_chemical_formula_sum   'Tm10 Tl2 Si4'
_cell_volume   394.68818745
_cell_formula_units_Z   2
loop_
 _symmetry_equiv_pos_site_id
 _symmetry_equiv_pos_as_xyz
  1  'x, y, z'
loop_
 _atom_site_type_symbol
 _atom_site_label
 _atom_site_symmetry_multiplicity
 _atom_site_fract_x
 _atom_site_fract_y
 _atom_site_fract_z
 _atom_site_occupancy
  Tm  Tm0  1  0.500000  0.500000  0.000000  1
  Tm  Tm1  1  0.000000  0.000000  0.000000  1
  Tm  Tm2  1  0.973723  0.805738  0.279461  1
  Tm  Tm3  1  0.305738  0.473723  0.279461  1
  Tm  Tm4  1  0.805738  0.305738  0.279461  1
  Tm  Tm5  1  0.473723  0.973723  0.279461  1
  Tm  Tm6  1  0.026277  0.194262  0.720539  1
  Tm  Tm7  1  0.694262  0.526277  0.720539  1
  Tm  Tm8  1  0.194262  0.694262  0.720539  1
  Tm  Tm9  1  0.526277  0.026277  0.720539  1
  Tl  Tl10  1  0.750000  0.750000  0.500000  1
  Tl  Tl11  1  0.250000  0.250000  0.500000  1
  Si  Si12  1  0.631533  0.868467  0.000000  1
  Si  Si13  1  0.368467  0.131533  0.000000  1
  Si  Si14  1  0.868467  0.368467  0.000000  1
  Si  Si15  1  0.131533  0.631533  0.000000  1
