# generated using pymatgen
data_V3Si3Mo2H
_symmetry_space_group_name_H-M   'P 1'
_cell_length_a   4.86459202
_cell_length_b   7.22332169
_cell_length_c   7.21945209
_cell_angle_alpha   119.99509299
_cell_angle_beta   90.00773975
_cell_angle_gamma   90.00198418
_symmetry_Int_Tables_number   1
_chemical_formula_structural   V3Si3Mo2H
_chemical_formula_sum   'V6 Si6 Mo4 H2'
_cell_volume   219.70488589
_cell_formula_units_Z   2
loop_
 _symmetry_equiv_pos_site_id
 _symmetry_equiv_pos_as_xyz
  1  'x, y, z'
loop_
 _atom_site_type_symbol
 _atom_site_label
 _atom_site_symmetry_multiplicity
 _atom_site_fract_x
 _atom_site_fract_y
 _atom_site_fract_z
 _atom_site_occupancy
  V  V0  1  0.497064  0.332226  0.666480  1
  V  V1  1  0.497083  0.665836  0.333511  1
  V  V2  1  0.002916  0.665848  0.333516  1
  V  V3  1  0.002924  0.332224  0.666476  1
  V  V4  1  0.250032  0.243582  0.243899  1
  V  V5  1  0.250054  0.999753  0.756185  1
  Si  Si6  1  0.750148  0.599052  0.000174  1
  Si  Si7  1  0.750156  0.400663  0.400959  1
  Si  Si8  1  0.750194  0.999324  0.598870  1
  Si  Si9  1  0.249874  0.397104  0.000139  1
  Si  Si10  1  0.249869  0.597706  0.596135  1
  Si  Si11  1  0.249839  0.001149  0.403869  1
  Mo  Mo12  1  0.749929  0.244541  0.999900  1
  Mo  Mo13  1  0.749950  0.755415  0.752716  1
  Mo  Mo14  1  0.749923  0.002719  0.247319  1
  Mo  Mo15  1  0.250060  0.755967  0.000023  1
  H  H16  1  0.492350  0.003446  0.999914  1
  H  H17  1  0.007640  0.003447  0.999916  1
