# generated using pymatgen
data_Dy3YEr4(Si3Rh)4
_symmetry_space_group_name_H-M   'P 1'
_cell_length_a   8.15115307
_cell_length_b   8.15375798
_cell_length_c   7.86402300
_cell_angle_alpha   90.00000000
_cell_angle_beta   90.00000000
_cell_angle_gamma   120.01056878
_symmetry_Int_Tables_number   1
_chemical_formula_structural   Dy3YEr4(Si3Rh)4
_chemical_formula_sum   'Dy3 Y1 Er4 Si12 Rh4'
_cell_volume   452.59110117
_cell_formula_units_Z   1
loop_
 _symmetry_equiv_pos_site_id
 _symmetry_equiv_pos_as_xyz
  1  'x, y, z'
loop_
 _atom_site_type_symbol
 _atom_site_label
 _atom_site_symmetry_multiplicity
 _atom_site_fract_x
 _atom_site_fract_y
 _atom_site_fract_z
 _atom_site_occupancy
  Dy  Dy0  1  0.000212  0.000106  0.250000  1
  Dy  Dy1  1  0.491178  0.508709  0.250000  1
  Dy  Dy2  1  0.491178  0.982469  0.250000  1
  Y  Y3  1  0.000064  0.000032  0.750000  1
  Er  Er4  1  0.015850  0.507924  0.250000  1
  Er  Er5  1  0.509018  0.490922  0.750000  1
  Er  Er6  1  0.981914  0.490957  0.750000  1
  Er  Er7  1  0.509018  0.018096  0.750000  1
  Si  Si8  1  0.833168  0.166936  0.501173  1
  Si  Si9  1  0.833168  0.666233  0.501173  1
  Si  Si10  1  0.334177  0.167089  0.501406  1
  Si  Si11  1  0.833168  0.166936  0.998827  1
  Si  Si12  1  0.833168  0.666233  0.998827  1
  Si  Si13  1  0.334177  0.167089  0.998594  1
  Si  Si14  1  0.167207  0.832490  0.999825  1
  Si  Si15  1  0.665384  0.832692  0.998769  1
  Si  Si16  1  0.167207  0.334716  0.999825  1
  Si  Si17  1  0.167207  0.832490  0.500175  1
  Si  Si18  1  0.665384  0.832692  0.501231  1
  Si  Si19  1  0.167207  0.334716  0.500175  1
  Rh  Rh20  1  0.667558  0.333779  0.469254  1
  Rh  Rh21  1  0.667558  0.333779  0.030746  1
  Rh  Rh22  1  0.332917  0.666459  0.962301  1
  Rh  Rh23  1  0.332917  0.666459  0.537699  1
