# generated using pymatgen
data_La4Pd2RhAu
_symmetry_space_group_name_H-M   'P 1'
_cell_length_a   4.76814400
_cell_length_b   5.80217506
_cell_length_c   7.48479032
_cell_angle_alpha   91.02892796
_cell_angle_beta   90.00000000
_cell_angle_gamma   90.00000000
_symmetry_Int_Tables_number   1
_chemical_formula_structural   La4Pd2RhAu
_chemical_formula_sum   'La4 Pd2 Rh1 Au1'
_cell_volume   207.03787248
_cell_formula_units_Z   1
loop_
 _symmetry_equiv_pos_site_id
 _symmetry_equiv_pos_as_xyz
  1  'x, y, z'
loop_
 _atom_site_type_symbol
 _atom_site_label
 _atom_site_symmetry_multiplicity
 _atom_site_fract_x
 _atom_site_fract_y
 _atom_site_fract_z
 _atom_site_occupancy
  La  La0  1  0.250000  0.634225  0.173142  1
  La  La1  1  0.750000  0.347220  0.823577  1
  La  La2  1  0.750000  0.143466  0.303737  1
  La  La3  1  0.250000  0.861075  0.694412  1
  Pd  Pd4  1  0.750000  0.844061  0.956166  1
  Pd  Pd5  1  0.250000  0.346133  0.541272  1
  Rh  Rh6  1  0.250000  0.176110  0.045994  1
  Au  Au7  1  0.750000  0.647711  0.461700  1
