# generated using pymatgen
data_LaZnGaPt3
_symmetry_space_group_name_H-M   'P 1'
_cell_length_a   5.62245800
_cell_length_b   5.62245710
_cell_length_c   4.07874300
_cell_angle_alpha   90.00000000
_cell_angle_beta   90.00000000
_cell_angle_gamma   119.99999352
_symmetry_Int_Tables_number   1
_chemical_formula_structural   LaZnGaPt3
_chemical_formula_sum   'La1 Zn1 Ga1 Pt3'
_cell_volume   111.66302065
_cell_formula_units_Z   1
loop_
 _symmetry_equiv_pos_site_id
 _symmetry_equiv_pos_as_xyz
  1  'x, y, z'
loop_
 _atom_site_type_symbol
 _atom_site_label
 _atom_site_symmetry_multiplicity
 _atom_site_fract_x
 _atom_site_fract_y
 _atom_site_fract_z
 _atom_site_occupancy
  La  La0  1  0.000000  0.000000  0.000000  1
  Zn  Zn1  1  0.666667  0.333333  0.000000  1
  Ga  Ga2  1  0.333333  0.666667  0.000000  1
  Pt  Pt3  1  0.500343  0.499657  0.500000  1
  Pt  Pt4  1  0.500343  0.000687  0.500000  1
  Pt  Pt5  1  0.999313  0.499657  0.500000  1
