# generated using pymatgen
data_Tb10Zn3B16Au
_symmetry_space_group_name_H-M   'P 1'
_cell_length_a   7.20990759
_cell_length_b   7.20990759
_cell_length_c   8.53580400
_cell_angle_alpha   90.00000000
_cell_angle_beta   90.00000000
_cell_angle_gamma   90.07605100
_symmetry_Int_Tables_number   1
_chemical_formula_structural   Tb10Zn3B16Au
_chemical_formula_sum   'Tb10 Zn3 B16 Au1'
_cell_volume   443.71432324
_cell_formula_units_Z   1
loop_
 _symmetry_equiv_pos_site_id
 _symmetry_equiv_pos_as_xyz
  1  'x, y, z'
loop_
 _atom_site_type_symbol
 _atom_site_label
 _atom_site_symmetry_multiplicity
 _atom_site_fract_x
 _atom_site_fract_y
 _atom_site_fract_z
 _atom_site_occupancy
  Tb  Tb0  1  0.681270  0.181270  0.211101  1
  Tb  Tb1  1  0.317969  0.817969  0.789078  1
  Tb  Tb2  1  0.317969  0.817969  0.210922  1
  Tb  Tb3  1  0.817981  0.681978  0.211443  1
  Tb  Tb4  1  0.817981  0.681978  0.788557  1
  Tb  Tb5  1  0.681270  0.181270  0.788899  1
  Tb  Tb6  1  0.181978  0.317981  0.788557  1
  Tb  Tb7  1  0.181978  0.317981  0.211443  1
  Tb  Tb8  1  0.000563  0.997681  0.500000  1
  Tb  Tb9  1  0.497681  0.500563  0.500000  1
  Zn  Zn10  1  0.878845  0.378845  0.500000  1
  Zn  Zn11  1  0.381871  0.118143  0.500000  1
  Zn  Zn12  1  0.618143  0.881871  0.500000  1
  B  B13  1  0.171766  0.040599  0.000000  1
  B  B14  1  0.828255  0.959472  0.000000  1
  B  B15  1  0.959271  0.172086  0.000000  1
  B  B16  1  0.328011  0.540749  0.000000  1
  B  B17  1  0.040749  0.828011  0.000000  1
  B  B18  1  0.672086  0.459271  0.000000  1
  B  B19  1  0.540599  0.671766  0.000000  1
  B  B20  1  0.459472  0.328255  0.000000  1
  B  B21  1  0.090699  0.590699  0.000000  1
  B  B22  1  0.909270  0.409270  0.000000  1
  B  B23  1  0.409157  0.090893  0.000000  1
  B  B24  1  0.590893  0.909157  0.000000  1
  B  B25  1  0.999948  0.000416  0.154512  1
  B  B26  1  0.999948  0.000416  0.845488  1
  B  B27  1  0.500416  0.499948  0.845488  1
  B  B28  1  0.500416  0.499948  0.154512  1
  Au  Au29  1  0.123544  0.623544  0.500000  1
