# generated using pymatgen
data_NdDy19Sn16
_symmetry_space_group_name_H-M   'P 1'
_cell_length_a   8.06902661
_cell_length_b   8.18989257
_cell_length_c   15.55923500
_cell_angle_alpha   89.98693163
_cell_angle_beta   89.55844537
_cell_angle_gamma   89.89262008
_symmetry_Int_Tables_number   1
_chemical_formula_structural   NdDy19Sn16
_chemical_formula_sum   'Nd1 Dy19 Sn16'
_cell_volume   1028.19129749
_cell_formula_units_Z   1
loop_
 _symmetry_equiv_pos_site_id
 _symmetry_equiv_pos_as_xyz
  1  'x, y, z'
loop_
 _atom_site_type_symbol
 _atom_site_label
 _atom_site_symmetry_multiplicity
 _atom_site_fract_x
 _atom_site_fract_y
 _atom_site_fract_z
 _atom_site_occupancy
  Nd  Nd0  1  0.018535  0.179957  0.903258  1
  Dy  Dy1  1  0.366797  0.836894  0.878061  1
  Dy  Dy2  1  0.869269  0.663905  0.620809  1
  Dy  Dy3  1  0.630525  0.162410  0.378071  1
  Dy  Dy4  1  0.133832  0.337989  0.122977  1
  Dy  Dy5  1  0.632865  0.162347  0.122727  1
  Dy  Dy6  1  0.130453  0.337663  0.378338  1
  Dy  Dy7  1  0.369708  0.837807  0.621472  1
  Dy  Dy8  1  0.866964  0.661562  0.877955  1
  Dy  Dy9  1  0.524621  0.322438  0.901394  1
  Dy  Dy10  1  0.026159  0.178346  0.599123  1
  Dy  Dy11  1  0.475424  0.678092  0.400964  1
  Dy  Dy12  1  0.977416  0.820515  0.098683  1
  Dy  Dy13  1  0.477725  0.678128  0.098489  1
  Dy  Dy14  1  0.975618  0.821713  0.401123  1
  Dy  Dy15  1  0.523572  0.322369  0.597540  1
  Dy  Dy16  1  0.199283  0.503140  0.748844  1
  Dy  Dy17  1  0.699560  0.996714  0.748300  1
  Dy  Dy18  1  0.800696  0.496990  0.250531  1
  Dy  Dy19  1  0.300838  0.003103  0.250668  1
  Sn  Sn20  1  0.294855  0.034043  0.043873  1
  Sn  Sn21  1  0.789774  0.464966  0.457760  1
  Sn  Sn22  1  0.710758  0.966939  0.541784  1
  Sn  Sn23  1  0.209707  0.536519  0.958223  1
  Sn  Sn24  1  0.702618  0.959350  0.959191  1
  Sn  Sn25  1  0.209744  0.536005  0.541557  1
  Sn  Sn26  1  0.290075  0.034794  0.457796  1
  Sn  Sn27  1  0.792790  0.463089  0.042315  1
  Sn  Sn28  1  0.565724  0.620628  0.749750  1
  Sn  Sn29  1  0.066163  0.878705  0.750192  1
  Sn  Sn30  1  0.434292  0.380774  0.250461  1
  Sn  Sn31  1  0.934336  0.119734  0.250549  1
  Sn  Sn32  1  0.333422  0.147725  0.749798  1
  Sn  Sn33  1  0.828394  0.354479  0.747760  1
  Sn  Sn34  1  0.668828  0.852004  0.249745  1
  Sn  Sn35  1  0.168663  0.648165  0.249913  1
