# generated using pymatgen
data_TbLuIr2F14
_symmetry_space_group_name_H-M   'P 1'
_cell_length_a   5.52386140
_cell_length_b   8.87184849
_cell_length_c   11.91478355
_cell_angle_alpha   62.66074559
_cell_angle_beta   90.14147475
_cell_angle_gamma   89.97531445
_symmetry_Int_Tables_number   1
_chemical_formula_structural   TbLuIr2F14
_chemical_formula_sum   'Tb2 Lu2 Ir4 F28'
_cell_volume   518.68307500
_cell_formula_units_Z   2
loop_
 _symmetry_equiv_pos_site_id
 _symmetry_equiv_pos_as_xyz
  1  'x, y, z'
loop_
 _atom_site_type_symbol
 _atom_site_label
 _atom_site_symmetry_multiplicity
 _atom_site_fract_x
 _atom_site_fract_y
 _atom_site_fract_z
 _atom_site_occupancy
  Tb  Tb0  1  0.759621  0.182969  0.235053  1
  Tb  Tb1  1  0.240379  0.817031  0.764947  1
  Lu  Lu2  1  0.261055  0.812423  0.265503  1
  Lu  Lu3  1  0.738945  0.187577  0.734497  1
  Ir  Ir4  1  0.757870  0.728510  0.045410  1
  Ir  Ir5  1  0.242130  0.271490  0.954590  1
  Ir  Ir6  1  0.257669  0.276331  0.457485  1
  Ir  Ir7  1  0.742331  0.723669  0.542515  1
  F  F8  1  0.944249  0.704880  0.414071  1
  F  F9  1  0.055751  0.295120  0.585929  1
  F  F10  1  0.443208  0.293189  0.082950  1
  F  F11  1  0.556792  0.706811  0.917050  1
  F  F12  1  0.466244  0.731984  0.140181  1
  F  F13  1  0.533756  0.268016  0.859819  1
  F  F14  1  0.967683  0.272458  0.362885  1
  F  F15  1  0.032317  0.727542  0.637115  1
  F  F16  1  0.958229  0.748679  0.175471  1
  F  F17  1  0.041771  0.251321  0.824529  1
  F  F18  1  0.453242  0.257676  0.326608  1
  F  F19  1  0.546758  0.742324  0.673392  1
  F  F20  1  0.767070  0.482108  0.142547  1
  F  F21  1  0.232930  0.517892  0.857453  1
  F  F22  1  0.267568  0.522966  0.359430  1
  F  F23  1  0.732432  0.477034  0.640570  1
  F  F24  1  0.945248  0.280799  0.043853  1
  F  F25  1  0.054752  0.719201  0.956147  1
  F  F26  1  0.442761  0.719069  0.452009  1
  F  F27  1  0.557239  0.280931  0.547991  1
  F  F28  1  0.741246  0.970336  0.449415  1
  F  F29  1  0.258754  0.029664  0.550585  1
  F  F30  1  0.239814  0.025457  0.050549  1
  F  F31  1  0.760186  0.974543  0.949451  1
  F  F32  1  0.577314  0.965416  0.231572  1
  F  F33  1  0.422686  0.034584  0.768428  1
  F  F34  1  0.088010  0.022650  0.268275  1
  F  F35  1  0.911990  0.977350  0.731725  1
