# generated using pymatgen
data_Ho5Er(FeCo3)4
_symmetry_space_group_name_H-M   'P 1'
_cell_length_a   7.58289312
_cell_length_b   7.58490513
_cell_length_c   7.58490502
_cell_angle_alpha   109.47906089
_cell_angle_beta   109.47673677
_cell_angle_gamma   109.47674300
_symmetry_Int_Tables_number   1
_chemical_formula_structural   Ho5Er(FeCo3)4
_chemical_formula_sum   'Ho5 Er1 Fe4 Co12'
_cell_volume   335.74698148
_cell_formula_units_Z   1
loop_
 _symmetry_equiv_pos_site_id
 _symmetry_equiv_pos_as_xyz
  1  'x, y, z'
loop_
 _atom_site_type_symbol
 _atom_site_label
 _atom_site_symmetry_multiplicity
 _atom_site_fract_x
 _atom_site_fract_y
 _atom_site_fract_z
 _atom_site_occupancy
  Ho  Ho0  1  0.717000  0.716776  0.000000  1
  Ho  Ho1  1  0.283105  0.999863  0.282981  1
  Ho  Ho2  1  0.999880  0.283371  0.283371  1
  Ho  Ho3  1  0.283105  0.282981  0.999863  1
  Ho  Ho4  1  0.717000  0.000000  0.716776  1
  Er  Er5  1  0.999824  0.715897  0.715897  1
  Fe  Fe6  1  0.999967  0.999897  0.500205  1
  Fe  Fe7  1  0.999967  0.500205  0.999897  1
  Fe  Fe8  1  0.499732  0.000011  0.000011  1
  Fe  Fe9  1  0.500380  0.500209  0.500209  1
  Co  Co10  1  0.335713  0.335718  0.671497  1
  Co  Co11  1  0.664299  0.000042  0.335820  1
  Co  Co12  1  0.999963  0.664226  0.336012  1
  Co  Co13  1  0.664299  0.335820  0.000042  1
  Co  Co14  1  0.335713  0.671497  0.335718  1
  Co  Co15  1  0.999963  0.336012  0.664226  1
  Co  Co16  1  0.335498  0.664270  0.999835  1
  Co  Co17  1  0.335498  0.999835  0.664270  1
  Co  Co18  1  0.671897  0.336088  0.336088  1
  Co  Co19  1  0.664511  0.664309  0.328750  1
  Co  Co20  1  0.664511  0.328750  0.664309  1
  Co  Co21  1  0.328172  0.664222  0.664222  1
