# generated using pymatgen
data_TbHo7Sc8(Si4Ag)4
_symmetry_space_group_name_H-M   'P 1'
_cell_length_a   6.82525504
_cell_length_b   7.41936711
_cell_length_c   14.09888222
_cell_angle_alpha   90.01788343
_cell_angle_beta   90.00915167
_cell_angle_gamma   89.99136757
_symmetry_Int_Tables_number   1
_chemical_formula_structural   TbHo7Sc8(Si4Ag)4
_chemical_formula_sum   'Tb1 Ho7 Sc8 Si16 Ag4'
_cell_volume   713.95427069
_cell_formula_units_Z   1
loop_
 _symmetry_equiv_pos_site_id
 _symmetry_equiv_pos_as_xyz
  1  'x, y, z'
loop_
 _atom_site_type_symbol
 _atom_site_label
 _atom_site_symmetry_multiplicity
 _atom_site_fract_x
 _atom_site_fract_y
 _atom_site_fract_z
 _atom_site_occupancy
  Tb  Tb0  1  0.009553  0.180035  0.097575  1
  Ho  Ho1  1  0.990416  0.819787  0.902304  1
  Ho  Ho2  1  0.490448  0.680189  0.902338  1
  Ho  Ho3  1  0.990400  0.819815  0.597649  1
  Ho  Ho4  1  0.509596  0.319922  0.097638  1
  Ho  Ho5  1  0.009577  0.180157  0.402294  1
  Ho  Ho6  1  0.509583  0.319838  0.402352  1
  Ho  Ho7  1  0.490435  0.680168  0.597642  1
  Sc  Sc8  1  0.330016  0.180219  0.626801  1
  Sc  Sc9  1  0.669959  0.819780  0.373238  1
  Sc  Sc10  1  0.170013  0.680195  0.373208  1
  Sc  Sc11  1  0.669871  0.819699  0.126801  1
  Sc  Sc12  1  0.830000  0.319791  0.626803  1
  Sc  Sc13  1  0.330060  0.180183  0.873184  1
  Sc  Sc14  1  0.829940  0.319829  0.873145  1
  Sc  Sc15  1  0.170038  0.680148  0.126795  1
  Si  Si16  1  0.029722  0.099101  0.749988  1
  Si  Si17  1  0.970193  0.900698  0.250131  1
  Si  Si18  1  0.470258  0.599144  0.250023  1
  Si  Si19  1  0.529727  0.400905  0.750001  1
  Si  Si20  1  0.283710  0.880781  0.750005  1
  Si  Si21  1  0.716006  0.119057  0.250162  1
  Si  Si22  1  0.216455  0.381004  0.250124  1
  Si  Si23  1  0.783742  0.619222  0.749998  1
  Si  Si24  1  0.161353  0.461865  0.532485  1
  Si  Si25  1  0.838650  0.538126  0.467530  1
  Si  Si26  1  0.338642  0.961897  0.467519  1
  Si  Si27  1  0.838586  0.538392  0.032415  1
  Si  Si28  1  0.661354  0.038114  0.532487  1
  Si  Si29  1  0.161454  0.462169  0.967422  1
  Si  Si30  1  0.661168  0.038031  0.967480  1
  Si  Si31  1  0.339023  0.961694  0.032375  1
  Ag  Ag32  1  0.158470  0.517304  0.749998  1
  Ag  Ag33  1  0.841493  0.482790  0.250046  1
  Ag  Ag34  1  0.341613  0.017266  0.250042  1
  Ag  Ag35  1  0.658475  0.982687  0.750003  1
