# generated using pymatgen
data_LiPr(NbS2)6
_symmetry_space_group_name_H-M   'P 1'
_cell_length_a   5.84013000
_cell_length_b   5.84013005
_cell_length_c   13.71232200
_cell_angle_alpha   90.00000000
_cell_angle_beta   90.00000000
_cell_angle_gamma   119.99999971
_symmetry_Int_Tables_number   1
_chemical_formula_structural   LiPr(NbS2)6
_chemical_formula_sum   'Li1 Pr1 Nb6 S12'
_cell_volume   405.02951207
_cell_formula_units_Z   1
loop_
 _symmetry_equiv_pos_site_id
 _symmetry_equiv_pos_as_xyz
  1  'x, y, z'
loop_
 _atom_site_type_symbol
 _atom_site_label
 _atom_site_symmetry_multiplicity
 _atom_site_fract_x
 _atom_site_fract_y
 _atom_site_fract_z
 _atom_site_occupancy
  Li  Li0  1  0.000000  0.000000  0.000000  1
  Pr  Pr1  1  0.000000  0.000000  0.500000  1
  Nb  Nb2  1  0.000000  0.000000  0.764291  1
  Nb  Nb3  1  0.000000  0.000000  0.235709  1
  Nb  Nb4  1  0.333333  0.666667  0.233436  1
  Nb  Nb5  1  0.666667  0.333333  0.766564  1
  Nb  Nb6  1  0.666667  0.333333  0.233436  1
  Nb  Nb7  1  0.333333  0.666667  0.766564  1
  S  S8  1  0.333264  0.000000  0.120930  1
  S  S9  1  0.000000  0.333264  0.120930  1
  S  S10  1  0.666736  0.666736  0.120930  1
  S  S11  1  0.338095  0.338095  0.650448  1
  S  S12  1  0.661905  0.661905  0.349552  1
  S  S13  1  0.661905  0.000000  0.650448  1
  S  S14  1  0.000000  0.661905  0.650448  1
  S  S15  1  0.000000  0.666736  0.879070  1
  S  S16  1  0.333264  0.333264  0.879070  1
  S  S17  1  0.000000  0.338095  0.349552  1
  S  S18  1  0.338095  0.000000  0.349552  1
  S  S19  1  0.666736  0.000000  0.879070  1
