# generated using pymatgen
data_Ce(TmCo)3
_symmetry_space_group_name_H-M   'P 1'
_cell_length_a   5.74472258
_cell_length_b   5.74472134
_cell_length_c   13.88310800
_cell_angle_alpha   90.00000000
_cell_angle_beta   90.00000000
_cell_angle_gamma   141.86526388
_symmetry_Int_Tables_number   1
_chemical_formula_structural   Ce(TmCo)3
_chemical_formula_sum   'Ce2 Tm6 Co6'
_cell_volume   282.92461163
_cell_formula_units_Z   2
loop_
 _symmetry_equiv_pos_site_id
 _symmetry_equiv_pos_as_xyz
  1  'x, y, z'
loop_
 _atom_site_type_symbol
 _atom_site_label
 _atom_site_symmetry_multiplicity
 _atom_site_fract_x
 _atom_site_fract_y
 _atom_site_fract_z
 _atom_site_occupancy
  Ce  Ce0  1  0.500000  0.500000  0.500000  1
  Ce  Ce1  1  0.500000  0.500000  0.000000  1
  Tm  Tm2  1  0.781757  0.218243  0.383027  1
  Tm  Tm3  1  0.218243  0.781757  0.616973  1
  Tm  Tm4  1  0.781757  0.218243  0.116973  1
  Tm  Tm5  1  0.218243  0.781757  0.883027  1
  Tm  Tm6  1  0.506046  0.493954  0.250000  1
  Tm  Tm7  1  0.493954  0.506046  0.750000  1
  Co  Co8  1  0.081036  0.918964  0.395836  1
  Co  Co9  1  0.918964  0.081036  0.604164  1
  Co  Co10  1  0.081036  0.918964  0.104164  1
  Co  Co11  1  0.918964  0.081036  0.895836  1
  Co  Co12  1  0.207472  0.792528  0.250000  1
  Co  Co13  1  0.792528  0.207472  0.750000  1
