# generated using pymatgen
data_Dy7Er2Tm7(Ga3Co)2
_symmetry_space_group_name_H-M   'P 1'
_cell_length_a   9.91365605
_cell_length_b   9.91365831
_cell_length_c   6.92482400
_cell_angle_alpha   89.99907454
_cell_angle_beta   90.00055869
_cell_angle_gamma   119.98801209
_symmetry_Int_Tables_number   1
_chemical_formula_structural   Dy7Er2Tm7(Ga3Co)2
_chemical_formula_sum   'Dy7 Er2 Tm7 Ga6 Co2'
_cell_volume   589.46715898
_cell_formula_units_Z   1
loop_
 _symmetry_equiv_pos_site_id
 _symmetry_equiv_pos_as_xyz
  1  'x, y, z'
loop_
 _atom_site_type_symbol
 _atom_site_label
 _atom_site_symmetry_multiplicity
 _atom_site_fract_x
 _atom_site_fract_y
 _atom_site_fract_z
 _atom_site_occupancy
  Dy  Dy0  1  0.073268  0.536560  0.207635  1
  Dy  Dy1  1  0.463441  0.926733  0.207629  1
  Dy  Dy2  1  0.536162  0.463840  0.708148  1
  Dy  Dy3  1  0.927551  0.463778  0.708198  1
  Dy  Dy4  1  0.536218  0.072440  0.708186  1
  Dy  Dy5  1  0.999994  0.000000  0.232066  1
  Dy  Dy6  1  0.000028  0.999974  0.731181  1
  Er  Er7  1  0.666594  0.333403  0.327032  1
  Er  Er8  1  0.463237  0.536770  0.207483  1
  Tm  Tm9  1  0.173488  0.826516  0.512330  1
  Tm  Tm10  1  0.652830  0.826313  0.512173  1
  Tm  Tm11  1  0.173692  0.347174  0.512172  1
  Tm  Tm12  1  0.826950  0.173057  0.011448  1
  Tm  Tm13  1  0.346167  0.173244  0.011604  1
  Tm  Tm14  1  0.826758  0.653839  0.011604  1
  Tm  Tm15  1  0.333434  0.666562  0.825682  1
  Ga  Ga16  1  0.163625  0.836367  0.957526  1
  Ga  Ga17  1  0.672602  0.836190  0.957699  1
  Ga  Ga18  1  0.163806  0.327392  0.957701  1
  Ga  Ga19  1  0.837035  0.162972  0.458451  1
  Ga  Ga20  1  0.325956  0.162992  0.458340  1
  Ga  Ga21  1  0.837006  0.674044  0.458340  1
  Co  Co22  1  0.333495  0.666502  0.445558  1
  Co  Co23  1  0.666660  0.333340  0.946651  1
