# generated using pymatgen
data_Dy3Y9Pd4
_symmetry_space_group_name_H-M   'P 1'
_cell_length_a   6.51030990
_cell_length_b   7.06802917
_cell_length_c   9.71056928
_cell_angle_alpha   89.94142318
_cell_angle_beta   90.00553624
_cell_angle_gamma   90.12547288
_symmetry_Int_Tables_number   1
_chemical_formula_structural   Dy3Y9Pd4
_chemical_formula_sum   'Dy3 Y9 Pd4'
_cell_volume   446.83112388
_cell_formula_units_Z   1
loop_
 _symmetry_equiv_pos_site_id
 _symmetry_equiv_pos_as_xyz
  1  'x, y, z'
loop_
 _atom_site_type_symbol
 _atom_site_label
 _atom_site_symmetry_multiplicity
 _atom_site_fract_x
 _atom_site_fract_y
 _atom_site_fract_z
 _atom_site_occupancy
  Dy  Dy0  1  0.175423  0.179837  0.061084  1
  Dy  Dy1  1  0.824337  0.820249  0.938724  1
  Dy  Dy2  1  0.675952  0.319711  0.938842  1
  Y  Y3  1  0.634736  0.023929  0.248979  1
  Y  Y4  1  0.365109  0.976685  0.750645  1
  Y  Y5  1  0.134333  0.476513  0.750521  1
  Y  Y6  1  0.865293  0.523847  0.248757  1
  Y  Y7  1  0.825069  0.819201  0.560020  1
  Y  Y8  1  0.325194  0.680443  0.059894  1
  Y  Y9  1  0.175136  0.180547  0.440094  1
  Y  Y10  1  0.324986  0.680684  0.439859  1
  Y  Y11  1  0.674886  0.319307  0.559973  1
  Pd  Pd12  1  0.439103  0.387482  0.248976  1
  Pd  Pd13  1  0.561900  0.610569  0.752302  1
  Pd  Pd14  1  0.938106  0.111039  0.752492  1
  Pd  Pd15  1  0.060436  0.889955  0.248838  1
