# generated using pymatgen
data_P2Pd3SeS7
_symmetry_space_group_name_H-M   'P 1'
_cell_length_a   7.29278996
_cell_length_b   7.29278951
_cell_length_c   7.51403893
_cell_angle_alpha   90.82187236
_cell_angle_beta   89.17812589
_cell_angle_gamma   119.58718627
_symmetry_Int_Tables_number   1
_chemical_formula_structural   P2Pd3SeS7
_chemical_formula_sum   'P2 Pd3 Se1 S7'
_cell_volume   347.47471954
_cell_formula_units_Z   1
loop_
 _symmetry_equiv_pos_site_id
 _symmetry_equiv_pos_as_xyz
  1  'x, y, z'
loop_
 _atom_site_type_symbol
 _atom_site_label
 _atom_site_symmetry_multiplicity
 _atom_site_fract_x
 _atom_site_fract_y
 _atom_site_fract_z
 _atom_site_occupancy
  P  P0  1  0.669675  0.330325  0.683750  1
  P  P1  1  0.335251  0.664749  0.320711  1
  Pd  Pd2  1  0.498417  0.501583  0.997027  1
  Pd  Pd3  1  0.995333  0.498328  0.999168  1
  Pd  Pd4  1  0.501672  0.004667  0.999168  1
  Se  Se5  1  0.174785  0.825215  0.180305  1
  S  S6  1  0.342286  0.657714  0.575147  1
  S  S7  1  0.671691  0.328309  0.428498  1
  S  S8  1  0.814623  0.185377  0.825146  1
  S  S9  1  0.811189  0.621924  0.826494  1
  S  S10  1  0.378076  0.188811  0.826494  1
  S  S11  1  0.621016  0.814015  0.169046  1
  S  S12  1  0.185985  0.378984  0.169046  1
