# generated using pymatgen
data_Mn9CrCo6
_symmetry_space_group_name_H-M   'P 1'
_cell_length_a   5.74243600
_cell_length_b   5.75358200
_cell_length_c   5.75358200
_cell_angle_alpha   90.00000000
_cell_angle_beta   90.00000000
_cell_angle_gamma   90.00000000
_symmetry_Int_Tables_number   1
_chemical_formula_structural   Mn9CrCo6
_chemical_formula_sum   'Mn9 Cr1 Co6'
_cell_volume   190.09591210
_cell_formula_units_Z   1
loop_
 _symmetry_equiv_pos_site_id
 _symmetry_equiv_pos_as_xyz
  1  'x, y, z'
loop_
 _atom_site_type_symbol
 _atom_site_label
 _atom_site_symmetry_multiplicity
 _atom_site_fract_x
 _atom_site_fract_y
 _atom_site_fract_z
 _atom_site_occupancy
  Mn  Mn0  1  0.747723  0.749389  0.749389  1
  Mn  Mn1  1  0.252277  0.749389  0.749389  1
  Mn  Mn2  1  0.252277  0.250611  0.250611  1
  Mn  Mn3  1  0.747723  0.250611  0.749389  1
  Mn  Mn4  1  0.747723  0.749389  0.250611  1
  Mn  Mn5  1  0.747723  0.250611  0.250611  1
  Mn  Mn6  1  0.252277  0.250611  0.749389  1
  Mn  Mn7  1  0.252277  0.749389  0.250611  1
  Mn  Mn8  1  0.000000  0.000000  0.000000  1
  Cr  Cr9  1  0.000000  0.500000  0.500000  1
  Co  Co10  1  0.500000  0.000000  0.000000  1
  Co  Co11  1  0.500000  0.500000  0.000000  1
  Co  Co12  1  0.500000  0.000000  0.500000  1
  Co  Co13  1  0.000000  0.000000  0.500000  1
  Co  Co14  1  0.500000  0.500000  0.500000  1
  Co  Co15  1  0.000000  0.500000  0.000000  1
