# generated using pymatgen
data_CrCl8
_symmetry_space_group_name_H-M   'P 1'
_cell_length_a   8.16389167
_cell_length_b   8.16389176
_cell_length_c   8.16389242
_cell_angle_alpha   121.01630081
_cell_angle_beta   121.01629991
_cell_angle_gamma   88.24855643
_symmetry_Int_Tables_number   1
_chemical_formula_structural   CrCl8
_chemical_formula_sum   'Cr1 Cl8'
_cell_volume   378.64601164
_cell_formula_units_Z   1
loop_
 _symmetry_equiv_pos_site_id
 _symmetry_equiv_pos_as_xyz
  1  'x, y, z'
loop_
 _atom_site_type_symbol
 _atom_site_label
 _atom_site_symmetry_multiplicity
 _atom_site_fract_x
 _atom_site_fract_y
 _atom_site_fract_z
 _atom_site_occupancy
  Cr  Cr0  1  0.000000  0.000000  0.000000  1
  Cl  Cl1  1  0.414834  0.414834  0.000000  1
  Cl  Cl2  1  0.585166  0.585166  0.000000  1
  Cl  Cl3  1  0.664857  0.164857  0.500000  1
  Cl  Cl4  1  0.835143  0.335143  0.500000  1
  Cl  Cl5  1  0.104118  0.319335  0.215215  1
  Cl  Cl6  1  0.104118  0.888903  0.784785  1
  Cl  Cl7  1  0.680665  0.895882  0.784785  1
  Cl  Cl8  1  0.111097  0.895882  0.215215  1
