# generated using pymatgen
data_Zr24BeSe7
_symmetry_space_group_name_H-M   'P 1'
_cell_length_a   10.97677972
_cell_length_b   10.98892321
_cell_length_c   5.48717731
_cell_angle_alpha   89.84094594
_cell_angle_beta   90.04234272
_cell_angle_gamma   89.91192347
_symmetry_Int_Tables_number   1
_chemical_formula_structural   Zr24BeSe7
_chemical_formula_sum   'Zr24 Be1 Se7'
_cell_volume   661.87621562
_cell_formula_units_Z   1
loop_
 _symmetry_equiv_pos_site_id
 _symmetry_equiv_pos_as_xyz
  1  'x, y, z'
loop_
 _atom_site_type_symbol
 _atom_site_label
 _atom_site_symmetry_multiplicity
 _atom_site_fract_x
 _atom_site_fract_y
 _atom_site_fract_z
 _atom_site_occupancy
  Zr  Zr0  1  0.027826  0.855526  0.277194  1
  Zr  Zr1  1  0.359111  0.474803  0.780569  1
  Zr  Zr2  1  0.639792  0.523990  0.785331  1
  Zr  Zr3  1  0.975027  0.139028  0.285361  1
  Zr  Zr4  1  0.473234  0.639387  0.217079  1
  Zr  Zr5  1  0.138905  0.020609  0.716759  1
  Zr  Zr6  1  0.863159  0.971299  0.719033  1
  Zr  Zr7  1  0.524338  0.360026  0.216828  1
  Zr  Zr8  1  0.284169  0.819006  0.981866  1
  Zr  Zr9  1  0.316952  0.213624  0.487078  1
  Zr  Zr10  1  0.682896  0.785484  0.486767  1
  Zr  Zr11  1  0.715586  0.182389  0.984708  1
  Zr  Zr12  1  0.209816  0.682764  0.520381  1
  Zr  Zr13  1  0.182180  0.284720  0.016022  1
  Zr  Zr14  1  0.819180  0.715504  0.008544  1
  Zr  Zr15  1  0.785542  0.317914  0.514364  1
  Zr  Zr16  1  0.897361  0.414457  0.045191  1
  Zr  Zr17  1  0.917709  0.608476  0.553205  1
  Zr  Zr18  1  0.085071  0.396506  0.543522  1
  Zr  Zr19  1  0.100093  0.590621  0.034893  1
  Zr  Zr20  1  0.603468  0.085082  0.455225  1
  Zr  Zr21  1  0.585631  0.897815  0.956479  1
  Zr  Zr22  1  0.414512  0.102672  0.955928  1
  Zr  Zr23  1  0.396323  0.914814  0.457961  1
  Be  Be24  1  0.039138  0.796888  0.788766  1
  Se  Se25  1  0.537074  0.292656  0.711157  1
  Se  Se26  1  0.794608  0.961001  0.210256  1
  Se  Se27  1  0.206349  0.036627  0.210513  1
  Se  Se28  1  0.463184  0.707739  0.712661  1
  Se  Se29  1  0.963078  0.205973  0.790140  1
  Se  Se30  1  0.708378  0.538374  0.290073  1
  Se  Se31  1  0.290314  0.464227  0.286142  1
