# generated using pymatgen
data_Y7Th(NiHg)2
_symmetry_space_group_name_H-M   'P 1'
_cell_length_a   9.60770285
_cell_length_b   9.60770394
_cell_length_c   9.61590700
_cell_angle_alpha   59.97175593
_cell_angle_beta   59.97175218
_cell_angle_gamma   59.82367854
_symmetry_Int_Tables_number   1
_chemical_formula_structural   Y7Th(NiHg)2
_chemical_formula_sum   'Y14 Th2 Ni4 Hg4'
_cell_volume   626.53785096
_cell_formula_units_Z   2
loop_
 _symmetry_equiv_pos_site_id
 _symmetry_equiv_pos_as_xyz
  1  'x, y, z'
loop_
 _atom_site_type_symbol
 _atom_site_label
 _atom_site_symmetry_multiplicity
 _atom_site_fract_x
 _atom_site_fract_y
 _atom_site_fract_z
 _atom_site_occupancy
  Y  Y0  1  0.601252  0.193999  0.602374  1
  Y  Y1  1  0.193999  0.601252  0.602374  1
  Y  Y2  1  0.062138  0.439649  0.437604  1
  Y  Y3  1  0.439649  0.062138  0.060608  1
  Y  Y4  1  0.439649  0.062138  0.437604  1
  Y  Y5  1  0.062138  0.439649  0.060608  1
  Y  Y6  1  0.438672  0.438672  0.061328  1
  Y  Y7  1  0.061194  0.061194  0.438806  1
  Y  Y8  1  0.187542  0.813224  0.814962  1
  Y  Y9  1  0.813224  0.187542  0.184273  1
  Y  Y10  1  0.813224  0.187542  0.814962  1
  Y  Y11  1  0.187542  0.813224  0.184273  1
  Y  Y12  1  0.813270  0.813270  0.186730  1
  Y  Y13  1  0.185963  0.185963  0.814037  1
  Th  Th14  1  0.595101  0.595101  0.601468  1
  Th  Th15  1  0.595101  0.595101  0.208331  1
  Ni  Ni16  1  0.394770  0.394770  0.391284  1
  Ni  Ni17  1  0.394770  0.394770  0.819178  1
  Ni  Ni18  1  0.399041  0.816933  0.392014  1
  Ni  Ni19  1  0.816933  0.399041  0.392014  1
  Hg  Hg20  1  0.837349  0.837349  0.833903  1
  Hg  Hg21  1  0.837349  0.837349  0.491396  1
  Hg  Hg22  1  0.838423  0.491706  0.834935  1
  Hg  Hg23  1  0.491706  0.838423  0.834935  1
