# generated using pymatgen
data_Tb7Dy13(Cd3Ru)2
_symmetry_space_group_name_H-M   'P 1'
_cell_length_a   9.61825304
_cell_length_b   9.61825323
_cell_length_c   9.86731801
_cell_angle_alpha   89.99646304
_cell_angle_beta   90.00353452
_cell_angle_gamma   120.00950267
_symmetry_Int_Tables_number   1
_chemical_formula_structural   Tb7Dy13(Cd3Ru)2
_chemical_formula_sum   'Tb7 Dy13 Cd6 Ru2'
_cell_volume   790.46121763
_cell_formula_units_Z   1
loop_
 _symmetry_equiv_pos_site_id
 _symmetry_equiv_pos_as_xyz
  1  'x, y, z'
loop_
 _atom_site_type_symbol
 _atom_site_label
 _atom_site_symmetry_multiplicity
 _atom_site_fract_x
 _atom_site_fract_y
 _atom_site_fract_z
 _atom_site_occupancy
  Tb  Tb0  1  0.209830  0.790170  0.439845  1
  Tb  Tb1  1  0.541218  0.458782  0.250005  1
  Tb  Tb2  1  0.541285  0.082507  0.249968  1
  Tb  Tb3  1  0.917493  0.458715  0.249968  1
  Tb  Tb4  1  0.458787  0.541213  0.750003  1
  Tb  Tb5  1  0.458827  0.917590  0.750044  1
  Tb  Tb6  1  0.082410  0.541173  0.750044  1
  Dy  Dy7  1  0.999966  0.000034  0.500014  1
  Dy  Dy8  1  0.000003  0.999997  0.000005  1
  Dy  Dy9  1  0.209860  0.419632  0.439854  1
  Dy  Dy10  1  0.580368  0.790140  0.439854  1
  Dy  Dy11  1  0.790120  0.209880  0.560196  1
  Dy  Dy12  1  0.790064  0.580211  0.560206  1
  Dy  Dy13  1  0.419789  0.209936  0.560206  1
  Dy  Dy14  1  0.790120  0.209880  0.939807  1
  Dy  Dy15  1  0.790118  0.580237  0.939818  1
  Dy  Dy16  1  0.419763  0.209882  0.939818  1
  Dy  Dy17  1  0.209843  0.790157  0.060091  1
  Dy  Dy18  1  0.209885  0.419733  0.060162  1
  Dy  Dy19  1  0.580267  0.790115  0.060162  1
  Cd  Cd20  1  0.885463  0.114537  0.250009  1
  Cd  Cd21  1  0.885447  0.770931  0.249985  1
  Cd  Cd22  1  0.229069  0.114553  0.249985  1
  Cd  Cd23  1  0.114521  0.885479  0.750025  1
  Cd  Cd24  1  0.114532  0.229075  0.750002  1
  Cd  Cd25  1  0.770925  0.885468  0.750002  1
  Ru  Ru26  1  0.333364  0.666636  0.249940  1
  Ru  Ru27  1  0.666664  0.333336  0.749981  1
