# generated using pymatgen
data_Nd2Ga2NiIr
_symmetry_space_group_name_H-M   'P 1'
_cell_length_a   4.46405500
_cell_length_b   7.11194100
_cell_length_c   7.56871800
_cell_angle_alpha   90.00000000
_cell_angle_beta   90.00000000
_cell_angle_gamma   90.00000000
_symmetry_Int_Tables_number   1
_chemical_formula_structural   Nd2Ga2NiIr
_chemical_formula_sum   'Nd4 Ga4 Ni2 Ir2'
_cell_volume   240.29238400
_cell_formula_units_Z   2
loop_
 _symmetry_equiv_pos_site_id
 _symmetry_equiv_pos_as_xyz
  1  'x, y, z'
loop_
 _atom_site_type_symbol
 _atom_site_label
 _atom_site_symmetry_multiplicity
 _atom_site_fract_x
 _atom_site_fract_y
 _atom_site_fract_z
 _atom_site_occupancy
  Nd  Nd0  1  0.250000  0.025217  0.807247  1
  Nd  Nd1  1  0.250000  0.525217  0.692753  1
  Nd  Nd2  1  0.750000  0.981987  0.195186  1
  Nd  Nd3  1  0.750000  0.481987  0.304814  1
  Ga  Ga4  1  0.250000  0.173486  0.426026  1
  Ga  Ga5  1  0.250000  0.673486  0.073974  1
  Ga  Ga6  1  0.750000  0.828894  0.587686  1
  Ga  Ga7  1  0.750000  0.328894  0.912314  1
  Ni  Ni8  1  0.750000  0.196787  0.594570  1
  Ni  Ni9  1  0.750000  0.696787  0.905430  1
  Ir  Ir10  1  0.250000  0.793629  0.404778  1
  Ir  Ir11  1  0.250000  0.293629  0.095222  1
