# generated using pymatgen
data_LiTb11Dy5Cd3Co4
_symmetry_space_group_name_H-M   'P 1'
_cell_length_a   9.53166068
_cell_length_b   9.52749605
_cell_length_c   9.56673037
_cell_angle_alpha   60.03388866
_cell_angle_beta   60.00811325
_cell_angle_gamma   59.96540827
_symmetry_Int_Tables_number   1
_chemical_formula_structural   LiTb11Dy5Cd3Co4
_chemical_formula_sum   'Li1 Tb11 Dy5 Cd3 Co4'
_cell_volume   614.35569805
_cell_formula_units_Z   1
loop_
 _symmetry_equiv_pos_site_id
 _symmetry_equiv_pos_as_xyz
  1  'x, y, z'
loop_
 _atom_site_type_symbol
 _atom_site_label
 _atom_site_symmetry_multiplicity
 _atom_site_fract_x
 _atom_site_fract_y
 _atom_site_fract_z
 _atom_site_occupancy
  Li  Li0  1  0.821081  0.821244  0.534105  1
  Tb  Tb1  1  0.813804  0.187352  0.812834  1
  Tb  Tb2  1  0.435045  0.062814  0.436331  1
  Tb  Tb3  1  0.595592  0.215161  0.597909  1
  Tb  Tb4  1  0.811172  0.810714  0.187861  1
  Tb  Tb5  1  0.215161  0.595921  0.597150  1
  Tb  Tb6  1  0.810561  0.189976  0.188570  1
  Tb  Tb7  1  0.062796  0.435064  0.436360  1
  Tb  Tb8  1  0.189917  0.811108  0.187456  1
  Tb  Tb9  1  0.596526  0.597629  0.209213  1
  Tb  Tb10  1  0.187919  0.187299  0.812283  1
  Tb  Tb11  1  0.062648  0.437859  0.059552  1
  Dy  Dy12  1  0.438992  0.438875  0.058824  1
  Dy  Dy13  1  0.593917  0.593760  0.596352  1
  Dy  Dy14  1  0.188222  0.813136  0.812187  1
  Dy  Dy15  1  0.063537  0.063159  0.434456  1
  Dy  Dy16  1  0.438087  0.062354  0.059846  1
  Cd  Cd17  1  0.831367  0.831335  0.826625  1
  Cd  Cd18  1  0.508132  0.830471  0.828444  1
  Cd  Cd19  1  0.830294  0.508443  0.828336  1
  Co  Co20  1  0.392062  0.391825  0.388585  1
  Co  Co21  1  0.828274  0.393078  0.389407  1
  Co  Co22  1  0.392615  0.828487  0.389920  1
  Co  Co23  1  0.392283  0.392940  0.827390  1
