# generated using pymatgen
data_MgAl2IrPt2
_symmetry_space_group_name_H-M   'P 1'
_cell_length_a   2.94975500
_cell_length_b   2.94975500
_cell_length_c   10.22741300
_cell_angle_alpha   90.00000000
_cell_angle_beta   90.00000000
_cell_angle_gamma   90.00000000
_symmetry_Int_Tables_number   1
_chemical_formula_structural   MgAl2IrPt2
_chemical_formula_sum   'Mg1 Al2 Ir1 Pt2'
_cell_volume   88.98927852
_cell_formula_units_Z   1
loop_
 _symmetry_equiv_pos_site_id
 _symmetry_equiv_pos_as_xyz
  1  'x, y, z'
loop_
 _atom_site_type_symbol
 _atom_site_label
 _atom_site_symmetry_multiplicity
 _atom_site_fract_x
 _atom_site_fract_y
 _atom_site_fract_z
 _atom_site_occupancy
  Mg  Mg0  1  0.000000  0.000000  0.000000  1
  Al  Al1  1  0.000000  0.000000  0.344495  1
  Al  Al2  1  0.000000  0.000000  0.655505  1
  Ir  Ir3  1  0.500000  0.500000  0.500000  1
  Pt  Pt4  1  0.500000  0.500000  0.188689  1
  Pt  Pt5  1  0.500000  0.500000  0.811311  1
