# generated using pymatgen
data_Mo2(IrOs)3
_symmetry_space_group_name_H-M   'P 1'
_cell_length_a   5.54787800
_cell_length_b   5.55630421
_cell_length_c   4.39888200
_cell_angle_alpha   90.00000000
_cell_angle_beta   90.00000000
_cell_angle_gamma   119.94985871
_symmetry_Int_Tables_number   1
_chemical_formula_structural   Mo2(IrOs)3
_chemical_formula_sum   'Mo2 Ir3 Os3'
_cell_volume   117.49112715
_cell_formula_units_Z   1
loop_
 _symmetry_equiv_pos_site_id
 _symmetry_equiv_pos_as_xyz
  1  'x, y, z'
loop_
 _atom_site_type_symbol
 _atom_site_label
 _atom_site_symmetry_multiplicity
 _atom_site_fract_x
 _atom_site_fract_y
 _atom_site_fract_z
 _atom_site_occupancy
  Mo  Mo0  1  0.332850  0.665701  0.250000  1
  Mo  Mo1  1  0.666395  0.332788  0.750000  1
  Ir  Ir2  1  0.332000  0.167144  0.250000  1
  Ir  Ir3  1  0.835143  0.167144  0.250000  1
  Ir  Ir4  1  0.163559  0.327117  0.750000  1
  Os  Os5  1  0.834173  0.668347  0.250000  1
  Os  Os6  1  0.168751  0.835880  0.750000  1
  Os  Os7  1  0.667130  0.835880  0.750000  1
