# generated using pymatgen
data_CaTb5PrCoI12
_symmetry_space_group_name_H-M   'P 1'
_cell_length_a   9.78432298
_cell_length_b   9.85613608
_cell_length_c   9.85594485
_cell_angle_alpha   106.78873696
_cell_angle_beta   107.16525573
_cell_angle_gamma   106.69614215
_symmetry_Int_Tables_number   1
_chemical_formula_structural   CaTb5PrCoI12
_chemical_formula_sum   'Ca1 Tb5 Pr1 Co1 I12'
_cell_volume   794.04877439
_cell_formula_units_Z   1
loop_
 _symmetry_equiv_pos_site_id
 _symmetry_equiv_pos_as_xyz
  1  'x, y, z'
loop_
 _atom_site_type_symbol
 _atom_site_label
 _atom_site_symmetry_multiplicity
 _atom_site_fract_x
 _atom_site_fract_y
 _atom_site_fract_z
 _atom_site_occupancy
  Ca  Ca0  1  0.500307  0.499726  0.499997  1
  Tb  Tb1  1  0.975006  0.903331  0.703457  1
  Tb  Tb2  1  0.025705  0.096751  0.297154  1
  Tb  Tb3  1  0.098525  0.296975  0.025749  1
  Tb  Tb4  1  0.281808  0.024064  0.092567  1
  Tb  Tb5  1  0.905055  0.703738  0.975263  1
  Pr  Pr6  1  0.709214  0.976087  0.905397  1
  Co  Co7  1  0.999697  0.000644  0.000101  1
  I  I8  1  0.541093  0.613145  0.847163  1
  I  I9  1  0.457604  0.376454  0.151151  1
  I  I10  1  0.315467  0.927239  0.777753  1
  I  I11  1  0.379081  0.150246  0.455612  1
  I  I12  1  0.927968  0.777462  0.319137  1
  I  I13  1  0.682802  0.075566  0.232333  1
  I  I14  1  0.072620  0.222801  0.681047  1
  I  I15  1  0.780833  0.328251  0.928766  1
  I  I16  1  0.226073  0.682997  0.073717  1
  I  I17  1  0.851580  0.544122  0.622497  1
  I  I18  1  0.149185  0.456226  0.377377  1
  I  I19  1  0.620377  0.844174  0.533765  1
