# generated using pymatgen
data_Nd4SmNb3(Co4P3)4
_symmetry_space_group_name_H-M   'P 1'
_cell_length_a   12.33740553
_cell_length_b   12.33740633
_cell_length_c   3.76124300
_cell_angle_alpha   90.00000000
_cell_angle_beta   90.00000000
_cell_angle_gamma   119.96648689
_symmetry_Int_Tables_number   1
_chemical_formula_structural   Nd4SmNb3(Co4P3)4
_chemical_formula_sum   'Nd4 Sm1 Nb3 Co16 P12'
_cell_volume   495.97101300
_cell_formula_units_Z   1
loop_
 _symmetry_equiv_pos_site_id
 _symmetry_equiv_pos_as_xyz
  1  'x, y, z'
loop_
 _atom_site_type_symbol
 _atom_site_label
 _atom_site_symmetry_multiplicity
 _atom_site_fract_x
 _atom_site_fract_y
 _atom_site_fract_z
 _atom_site_occupancy
  Nd  Nd0  1  0.815944  0.000178  0.500000  1
  Nd  Nd1  1  0.000178  0.815944  0.500000  1
  Nd  Nd2  1  0.333247  0.666689  0.000000  1
  Nd  Nd3  1  0.666689  0.333247  0.000000  1
  Sm  Sm4  1  0.184716  0.184716  0.500000  1
  Nb  Nb5  1  0.442270  0.000267  0.000000  1
  Nb  Nb6  1  0.000267  0.442270  0.000000  1
  Nb  Nb7  1  0.557067  0.557067  0.000000  1
  Co  Co8  1  0.280571  0.000944  0.500000  1
  Co  Co9  1  0.000944  0.280571  0.500000  1
  Co  Co10  1  0.719124  0.719124  0.500000  1
  Co  Co11  1  0.624944  0.801686  0.000000  1
  Co  Co12  1  0.198234  0.823673  0.000000  1
  Co  Co13  1  0.177109  0.374207  0.000000  1
  Co  Co14  1  0.374207  0.177109  0.000000  1
  Co  Co15  1  0.801686  0.624944  0.000000  1
  Co  Co16  1  0.823673  0.198234  0.000000  1
  Co  Co17  1  0.520067  0.874816  0.500000  1
  Co  Co18  1  0.124973  0.645373  0.500000  1
  Co  Co19  1  0.354208  0.479096  0.500000  1
  Co  Co20  1  0.479096  0.354208  0.500000  1
  Co  Co21  1  0.874816  0.520067  0.500000  1
  Co  Co22  1  0.645373  0.124973  0.500000  1
  Co  Co23  1  0.000664  0.000664  0.000000  1
  P  P24  1  0.181237  0.001406  0.000000  1
  P  P25  1  0.001406  0.181237  0.000000  1
  P  P26  1  0.818791  0.818791  0.000000  1
  P  P27  1  0.523720  0.689884  0.500000  1
  P  P28  1  0.309659  0.834119  0.500000  1
  P  P29  1  0.166333  0.476150  0.500000  1
  P  P30  1  0.476150  0.166333  0.500000  1
  P  P31  1  0.689884  0.523720  0.500000  1
  P  P32  1  0.834119  0.309659  0.500000  1
  P  P33  1  0.639588  0.999989  0.000000  1
  P  P34  1  0.999989  0.639588  0.000000  1
  P  P35  1  0.359055  0.359055  0.000000  1
