# generated using pymatgen
data_Dy6Tm3Lu7(CdIr)4
_symmetry_space_group_name_H-M   'P 1'
_cell_length_a   9.52530923
_cell_length_b   9.52460892
_cell_length_c   9.54162600
_cell_angle_alpha   59.94088069
_cell_angle_beta   59.94331853
_cell_angle_gamma   59.87228851
_symmetry_Int_Tables_number   1
_chemical_formula_structural   Dy6Tm3Lu7(CdIr)4
_chemical_formula_sum   'Dy6 Tm3 Lu7 Cd4 Ir4'
_cell_volume   610.98817009
_cell_formula_units_Z   1
loop_
 _symmetry_equiv_pos_site_id
 _symmetry_equiv_pos_as_xyz
  1  'x, y, z'
loop_
 _atom_site_type_symbol
 _atom_site_label
 _atom_site_symmetry_multiplicity
 _atom_site_fract_x
 _atom_site_fract_y
 _atom_site_fract_z
 _atom_site_occupancy
  Dy  Dy0  1  0.189732  0.810576  0.810606  1
  Dy  Dy1  1  0.810671  0.189654  0.188974  1
  Dy  Dy2  1  0.810671  0.189654  0.810701  1
  Dy  Dy3  1  0.189732  0.810576  0.189085  1
  Dy  Dy4  1  0.810759  0.810792  0.189224  1
  Dy  Dy5  1  0.189329  0.189397  0.810637  1
  Tm  Tm6  1  0.599148  0.599203  0.598012  1
  Tm  Tm7  1  0.599148  0.599203  0.203637  1
  Tm  Tm8  1  0.599632  0.203333  0.598517  1
  Lu  Lu9  1  0.203897  0.599467  0.598318  1
  Lu  Lu10  1  0.061613  0.437162  0.438711  1
  Lu  Lu11  1  0.437126  0.061601  0.062621  1
  Lu  Lu12  1  0.437126  0.061601  0.438654  1
  Lu  Lu13  1  0.061613  0.437162  0.062514  1
  Lu  Lu14  1  0.437983  0.437905  0.062056  1
  Lu  Lu15  1  0.062204  0.062122  0.437836  1
  Cd  Cd16  1  0.830211  0.830038  0.830711  1
  Cd  Cd17  1  0.830211  0.830038  0.509039  1
  Cd  Cd18  1  0.830625  0.507258  0.831059  1
  Cd  Cd19  1  0.507172  0.830559  0.831135  1
  Ir  Ir20  1  0.391718  0.392358  0.390844  1
  Ir  Ir21  1  0.391718  0.392358  0.825080  1
  Ir  Ir22  1  0.392005  0.825678  0.391159  1
  Ir  Ir23  1  0.825955  0.392306  0.390870  1
