# generated using pymatgen
data_Tb2Y(In2Pd)2
_symmetry_space_group_name_H-M   'P 1'
_cell_length_a   7.87580103
_cell_length_b   7.88557121
_cell_length_c   3.90419500
_cell_angle_alpha   90.00000000
_cell_angle_beta   90.00000000
_cell_angle_gamma   119.96943388
_symmetry_Int_Tables_number   1
_chemical_formula_structural   Tb2Y(In2Pd)2
_chemical_formula_sum   'Tb2 Y1 In4 Pd2'
_cell_volume   210.05049478
_cell_formula_units_Z   1
loop_
 _symmetry_equiv_pos_site_id
 _symmetry_equiv_pos_as_xyz
  1  'x, y, z'
loop_
 _atom_site_type_symbol
 _atom_site_label
 _atom_site_symmetry_multiplicity
 _atom_site_fract_x
 _atom_site_fract_y
 _atom_site_fract_z
 _atom_site_occupancy
  Tb  Tb0  1  0.024273  0.612193  0.500000  1
  Tb  Tb1  1  0.587428  0.975424  0.500000  1
  Y  Y2  1  0.388171  0.411383  0.500000  1
  In  In3  1  0.001967  0.257048  0.000000  1
  In  In4  1  0.666642  0.333869  0.000000  1
  In  In5  1  0.743007  0.744307  0.000000  1
  In  In6  1  0.255034  0.998226  0.000000  1
  Pd  Pd7  1  0.333399  0.667308  0.000000  1
  Pd  Pd8  1  0.000078  0.000243  0.500000  1
