# generated using pymatgen
data_Sm4GaPd11Pt
_symmetry_space_group_name_H-M   'P 1'
_cell_length_a   7.41849637
_cell_length_b   7.41849596
_cell_length_c   7.41849671
_cell_angle_alpha   108.69560404
_cell_angle_beta   109.86041243
_cell_angle_gamma   109.86042386
_symmetry_Int_Tables_number   1
_chemical_formula_structural   Sm4GaPd11Pt
_chemical_formula_sum   'Sm4 Ga1 Pd11 Pt1'
_cell_volume   314.24338589
_cell_formula_units_Z   1
loop_
 _symmetry_equiv_pos_site_id
 _symmetry_equiv_pos_as_xyz
  1  'x, y, z'
loop_
 _atom_site_type_symbol
 _atom_site_label
 _atom_site_symmetry_multiplicity
 _atom_site_fract_x
 _atom_site_fract_y
 _atom_site_fract_z
 _atom_site_occupancy
  Sm  Sm0  1  0.508696  0.978068  0.978068  1
  Sm  Sm1  1  0.000000  0.978068  0.469372  1
  Sm  Sm2  1  0.491304  0.469372  0.469372  1
  Sm  Sm3  1  0.000000  0.469372  0.978068  1
  Ga  Ga4  1  0.000000  0.451421  0.451421  1
  Pd  Pd5  1  0.248631  0.964118  0.212749  1
  Pd  Pd6  1  0.000000  0.738531  0.738531  1
  Pd  Pd7  1  0.287723  0.769768  0.482045  1
  Pd  Pd8  1  0.712277  0.482045  0.194322  1
  Pd  Pd9  1  0.500000  0.229836  0.729836  1
  Pd  Pd10  1  0.712277  0.194322  0.482045  1
  Pd  Pd11  1  0.751369  0.715486  0.964118  1
  Pd  Pd12  1  0.751369  0.964118  0.715486  1
  Pd  Pd13  1  0.287723  0.482045  0.769768  1
  Pd  Pd14  1  0.500000  0.729836  0.229836  1
  Pd  Pd15  1  0.248631  0.212749  0.964118  1
  Pt  Pt16  1  0.000000  0.170844  0.170844  1
