# generated using pymatgen
data_Tm2PaSn3Ir2Pt
_symmetry_space_group_name_H-M   'P 1'
_cell_length_a   7.44862088
_cell_length_b   7.49279109
_cell_length_c   3.98835600
_cell_angle_alpha   90.00000000
_cell_angle_beta   90.00000000
_cell_angle_gamma   119.93591816
_symmetry_Int_Tables_number   1
_chemical_formula_structural   Tm2PaSn3Ir2Pt
_chemical_formula_sum   'Tm2 Pa1 Sn3 Ir2 Pt1'
_cell_volume   192.89639776
_cell_formula_units_Z   1
loop_
 _symmetry_equiv_pos_site_id
 _symmetry_equiv_pos_as_xyz
  1  'x, y, z'
loop_
 _atom_site_type_symbol
 _atom_site_label
 _atom_site_symmetry_multiplicity
 _atom_site_fract_x
 _atom_site_fract_y
 _atom_site_fract_z
 _atom_site_occupancy
  Tm  Tm0  1  0.599388  0.596163  0.500000  1
  Tm  Tm1  1  0.404255  0.002977  0.500000  1
  Pa  Pa2  1  0.990338  0.404504  0.500000  1
  Sn  Sn3  1  0.997822  0.753559  0.000000  1
  Sn  Sn4  1  0.270069  0.255510  0.000000  1
  Sn  Sn5  1  0.731057  0.987219  0.000000  1
  Ir  Ir6  1  0.689579  0.335381  0.000000  1
  Ir  Ir7  1  0.000497  0.013786  0.500000  1
  Pt  Pt8  1  0.316995  0.650903  0.000000  1
