# generated using pymatgen
data_Hf18Ta3Be2Re5
_symmetry_space_group_name_H-M   'P 1'
_cell_length_a   8.64291684
_cell_length_b   8.64291661
_cell_length_c   8.58220900
_cell_angle_alpha   90.00000000
_cell_angle_beta   90.00000000
_cell_angle_gamma   120.24550222
_symmetry_Int_Tables_number   1
_chemical_formula_structural   Hf18Ta3Be2Re5
_chemical_formula_sum   'Hf18 Ta3 Be2 Re5'
_cell_volume   553.82259987
_cell_formula_units_Z   1
loop_
 _symmetry_equiv_pos_site_id
 _symmetry_equiv_pos_as_xyz
  1  'x, y, z'
loop_
 _atom_site_type_symbol
 _atom_site_label
 _atom_site_symmetry_multiplicity
 _atom_site_fract_x
 _atom_site_fract_y
 _atom_site_fract_z
 _atom_site_occupancy
  Hf  Hf0  1  0.200241  0.799759  0.447032  1
  Hf  Hf1  1  0.200652  0.401391  0.448641  1
  Hf  Hf2  1  0.598609  0.799348  0.448641  1
  Hf  Hf3  1  0.798891  0.201109  0.554561  1
  Hf  Hf4  1  0.799814  0.599869  0.553748  1
  Hf  Hf5  1  0.400131  0.200186  0.553748  1
  Hf  Hf6  1  0.798891  0.201109  0.945439  1
  Hf  Hf7  1  0.799814  0.599869  0.946252  1
  Hf  Hf8  1  0.400131  0.200186  0.946252  1
  Hf  Hf9  1  0.200241  0.799759  0.052968  1
  Hf  Hf10  1  0.200652  0.401391  0.051359  1
  Hf  Hf11  1  0.598609  0.799348  0.051359  1
  Hf  Hf12  1  0.539704  0.460296  0.250000  1
  Hf  Hf13  1  0.536775  0.078403  0.250000  1
  Hf  Hf14  1  0.921597  0.463225  0.250000  1
  Hf  Hf15  1  0.460403  0.539597  0.750000  1
  Hf  Hf16  1  0.460061  0.920688  0.750000  1
  Hf  Hf17  1  0.079312  0.539939  0.750000  1
  Ta  Ta18  1  0.886815  0.113185  0.250000  1
  Ta  Ta19  1  0.001220  0.998780  0.502810  1
  Ta  Ta20  1  0.001220  0.998780  0.997190  1
  Be  Be21  1  0.333212  0.666788  0.250000  1
  Be  Be22  1  0.666376  0.333624  0.750000  1
  Re  Re23  1  0.887355  0.771862  0.250000  1
  Re  Re24  1  0.228138  0.112645  0.250000  1
  Re  Re25  1  0.114202  0.885798  0.750000  1
  Re  Re26  1  0.114993  0.228059  0.750000  1
  Re  Re27  1  0.771941  0.885007  0.750000  1
