# generated using pymatgen
data_Tb2Tm2B12IrRh
_symmetry_space_group_name_H-M   'P 1'
_cell_length_a   3.64012700
_cell_length_b   9.15561323
_cell_length_c   11.51440079
_cell_angle_alpha   90.06444175
_cell_angle_beta   90.00000000
_cell_angle_gamma   90.00000000
_symmetry_Int_Tables_number   1
_chemical_formula_structural   Tb2Tm2B12IrRh
_chemical_formula_sum   'Tb4 Tm4 B24 Ir2 Rh2'
_cell_volume   383.74704263
_cell_formula_units_Z   2
loop_
 _symmetry_equiv_pos_site_id
 _symmetry_equiv_pos_as_xyz
  1  'x, y, z'
loop_
 _atom_site_type_symbol
 _atom_site_label
 _atom_site_symmetry_multiplicity
 _atom_site_fract_x
 _atom_site_fract_y
 _atom_site_fract_z
 _atom_site_occupancy
  Tb  Tb0  1  0.500000  0.323235  0.413789  1
  Tb  Tb1  1  0.500000  0.676765  0.586211  1
  Tb  Tb2  1  0.500000  0.178661  0.912798  1
  Tb  Tb3  1  0.500000  0.821339  0.087202  1
  Tm  Tm4  1  0.500000  0.445272  0.126418  1
  Tm  Tm5  1  0.500000  0.554728  0.873582  1
  Tm  Tm6  1  0.500000  0.056422  0.625727  1
  Tm  Tm7  1  0.500000  0.943578  0.374273  1
  B  B8  1  0.000000  0.108147  0.470481  1
  B  B9  1  0.000000  0.891853  0.529519  1
  B  B10  1  0.000000  0.392383  0.970817  1
  B  B11  1  0.000000  0.607617  0.029183  1
  B  B12  1  0.000000  0.131788  0.316072  1
  B  B13  1  0.000000  0.868212  0.683928  1
  B  B14  1  0.000000  0.367803  0.816143  1
  B  B15  1  0.000000  0.632197  0.183857  1
  B  B16  1  0.000000  0.054289  0.066557  1
  B  B17  1  0.000000  0.945711  0.933443  1
  B  B18  1  0.000000  0.446141  0.566100  1
  B  B19  1  0.000000  0.553859  0.433900  1
  B  B20  1  0.000000  0.482833  0.286294  1
  B  B21  1  0.000000  0.517167  0.713706  1
  B  B22  1  0.000000  0.017563  0.785937  1
  B  B23  1  0.000000  0.982437  0.214063  1
  B  B24  1  0.000000  0.250972  0.079920  1
  B  B25  1  0.000000  0.749028  0.920080  1
  B  B26  1  0.000000  0.250029  0.579911  1
  B  B27  1  0.000000  0.749971  0.420089  1
  B  B28  1  0.000000  0.294165  0.234513  1
  B  B29  1  0.000000  0.705835  0.765487  1
  B  B30  1  0.000000  0.205949  0.734855  1
  B  B31  1  0.000000  0.794051  0.265145  1
  Ir  Ir32  1  0.500000  0.139201  0.178930  1
  Ir  Ir33  1  0.500000  0.860799  0.821070  1
  Rh  Rh34  1  0.500000  0.360131  0.680587  1
  Rh  Rh35  1  0.500000  0.639869  0.319413  1
