# generated using pymatgen
data_Rb2Re6Se11
_symmetry_space_group_name_H-M   'P 1'
_cell_length_a   12.59871369
_cell_length_b   12.59871311
_cell_length_c   12.59871339
_cell_angle_alpha   45.73911027
_cell_angle_beta   45.73911324
_cell_angle_gamma   45.73911271
_symmetry_Int_Tables_number   1
_chemical_formula_structural   Rb2Re6Se11
_chemical_formula_sum   'Rb4 Re12 Se22'
_cell_volume   935.02068286
_cell_formula_units_Z   2
loop_
 _symmetry_equiv_pos_site_id
 _symmetry_equiv_pos_as_xyz
  1  'x, y, z'
loop_
 _atom_site_type_symbol
 _atom_site_label
 _atom_site_symmetry_multiplicity
 _atom_site_fract_x
 _atom_site_fract_y
 _atom_site_fract_z
 _atom_site_occupancy
  Rb  Rb0  1  0.309422  0.309422  0.309422  1
  Rb  Rb1  1  0.190578  0.190578  0.190578  1
  Rb  Rb2  1  0.690578  0.690578  0.690578  1
  Rb  Rb3  1  0.809422  0.809422  0.809422  1
  Re  Re4  1  0.617443  0.303544  0.480592  1
  Re  Re5  1  0.480592  0.617443  0.303544  1
  Re  Re6  1  0.803544  0.117443  0.980592  1
  Re  Re7  1  0.980592  0.803544  0.117443  1
  Re  Re8  1  0.117443  0.980592  0.803544  1
  Re  Re9  1  0.696456  0.519408  0.382557  1
  Re  Re10  1  0.382557  0.696456  0.519408  1
  Re  Re11  1  0.519408  0.382557  0.696456  1
  Re  Re12  1  0.303544  0.480592  0.617443  1
  Re  Re13  1  0.882557  0.019408  0.196456  1
  Re  Re14  1  0.019408  0.196456  0.882557  1
  Re  Re15  1  0.196456  0.882557  0.019408  1
  Se  Se16  1  0.091903  0.091903  0.091903  1
  Se  Se17  1  0.408097  0.408097  0.408097  1
  Se  Se18  1  0.908097  0.908097  0.908097  1
  Se  Se19  1  0.591903  0.591903  0.591903  1
  Se  Se20  1  0.250000  0.962531  0.537469  1
  Se  Se21  1  0.537469  0.250000  0.962531  1
  Se  Se22  1  0.962531  0.537469  0.250000  1
  Se  Se23  1  0.750000  0.037469  0.462531  1
  Se  Se24  1  0.462531  0.750000  0.037469  1
  Se  Se25  1  0.037469  0.462531  0.750000  1
  Se  Se26  1  0.059089  0.715831  0.315610  1
  Se  Se27  1  0.315610  0.059089  0.715831  1
  Se  Se28  1  0.715831  0.315610  0.059089  1
  Se  Se29  1  0.440911  0.184390  0.784169  1
  Se  Se30  1  0.784169  0.440911  0.184390  1
  Se  Se31  1  0.184390  0.784169  0.440911  1
  Se  Se32  1  0.815610  0.215831  0.559089  1
  Se  Se33  1  0.215831  0.559089  0.815610  1
  Se  Se34  1  0.559089  0.815610  0.215831  1
  Se  Se35  1  0.284169  0.684390  0.940911  1
  Se  Se36  1  0.684390  0.940911  0.284169  1
  Se  Se37  1  0.940911  0.284169  0.684390  1
