# generated using pymatgen
data_Tb2CoNi7(P3W)2
_symmetry_space_group_name_H-M   'P 1'
_cell_length_a   3.70279300
_cell_length_b   10.53068600
_cell_length_c   12.10086100
_cell_angle_alpha   90.00000000
_cell_angle_beta   90.00000000
_cell_angle_gamma   90.00000000
_symmetry_Int_Tables_number   1
_chemical_formula_structural   Tb2CoNi7(P3W)2
_chemical_formula_sum   'Tb4 Co2 Ni14 P12 W4'
_cell_volume   471.84827284
_cell_formula_units_Z   2
loop_
 _symmetry_equiv_pos_site_id
 _symmetry_equiv_pos_as_xyz
  1  'x, y, z'
loop_
 _atom_site_type_symbol
 _atom_site_label
 _atom_site_symmetry_multiplicity
 _atom_site_fract_x
 _atom_site_fract_y
 _atom_site_fract_z
 _atom_site_occupancy
  Tb  Tb0  1  0.250000  0.584596  0.706490  1
  Tb  Tb1  1  0.250000  0.915404  0.206490  1
  Tb  Tb2  1  0.750000  0.416064  0.293176  1
  Tb  Tb3  1  0.750000  0.083936  0.793176  1
  Co  Co4  1  0.750000  0.532542  0.066287  1
  Co  Co5  1  0.750000  0.967458  0.566287  1
  Ni  Ni6  1  0.250000  0.408128  0.488490  1
  Ni  Ni7  1  0.250000  0.091872  0.988490  1
  Ni  Ni8  1  0.750000  0.591432  0.511910  1
  Ni  Ni9  1  0.750000  0.908568  0.011910  1
  Ni  Ni10  1  0.250000  0.221747  0.176056  1
  Ni  Ni11  1  0.250000  0.278253  0.676056  1
  Ni  Ni12  1  0.750000  0.780017  0.823862  1
  Ni  Ni13  1  0.750000  0.719983  0.323862  1
  Ni  Ni14  1  0.250000  0.883436  0.702312  1
  Ni  Ni15  1  0.250000  0.616564  0.202312  1
  Ni  Ni16  1  0.750000  0.116488  0.296877  1
  Ni  Ni17  1  0.750000  0.383512  0.796877  1
  Ni  Ni18  1  0.250000  0.465291  0.933019  1
  Ni  Ni19  1  0.250000  0.034709  0.433019  1
  P  P20  1  0.250000  0.422655  0.115237  1
  P  P21  1  0.250000  0.077345  0.615237  1
  P  P22  1  0.750000  0.579886  0.885798  1
  P  P23  1  0.750000  0.920114  0.385798  1
  P  P24  1  0.250000  0.266701  0.867066  1
  P  P25  1  0.250000  0.233299  0.367066  1
  P  P26  1  0.750000  0.731545  0.132721  1
  P  P27  1  0.750000  0.768455  0.632721  1
  P  P28  1  0.250000  0.597453  0.390410  1
  P  P29  1  0.250000  0.902547  0.890410  1
  P  P30  1  0.750000  0.401860  0.610297  1
  P  P31  1  0.750000  0.098140  0.110297  1
  W  W32  1  0.250000  0.706728  0.988649  1
  W  W33  1  0.250000  0.793272  0.488649  1
  W  W34  1  0.750000  0.293298  0.011341  1
  W  W35  1  0.750000  0.206702  0.511341  1
