# generated using pymatgen
data_Lu2Co3Si7Ru9
_symmetry_space_group_name_H-M   'P 1'
_cell_length_a   9.47454900
_cell_length_b   9.47454828
_cell_length_c   3.81790400
_cell_angle_alpha   90.00000000
_cell_angle_beta   90.00000000
_cell_angle_gamma   119.99999997
_symmetry_Int_Tables_number   1
_chemical_formula_structural   Lu2Co3Si7Ru9
_chemical_formula_sum   'Lu2 Co3 Si7 Ru9'
_cell_volume   296.80601300
_cell_formula_units_Z   1
loop_
 _symmetry_equiv_pos_site_id
 _symmetry_equiv_pos_as_xyz
  1  'x, y, z'
loop_
 _atom_site_type_symbol
 _atom_site_label
 _atom_site_symmetry_multiplicity
 _atom_site_fract_x
 _atom_site_fract_y
 _atom_site_fract_z
 _atom_site_occupancy
  Lu  Lu0  1  0.333333  0.666667  0.000000  1
  Lu  Lu1  1  0.000000  0.000000  0.500000  1
  Co  Co2  1  0.937986  0.457832  0.000000  1
  Co  Co3  1  0.519845  0.062014  0.000000  1
  Co  Co4  1  0.542168  0.480155  0.000000  1
  Si  Si5  1  0.958893  0.227250  0.000000  1
  Si  Si6  1  0.268357  0.041107  0.000000  1
  Si  Si7  1  0.772750  0.731643  0.000000  1
  Si  Si8  1  0.058375  0.618345  0.500000  1
  Si  Si9  1  0.559969  0.941625  0.500000  1
  Si  Si10  1  0.381655  0.440031  0.500000  1
  Si  Si11  1  0.666667  0.333333  0.000000  1
  Ru  Ru12  1  0.725976  0.963382  0.000000  1
  Ru  Ru13  1  0.237406  0.274024  0.000000  1
  Ru  Ru14  1  0.036618  0.762594  0.000000  1
  Ru  Ru15  1  0.102903  0.390718  0.500000  1
  Ru  Ru16  1  0.287815  0.897097  0.500000  1
  Ru  Ru17  1  0.609282  0.712185  0.500000  1
  Ru  Ru18  1  0.764948  0.227720  0.500000  1
  Ru  Ru19  1  0.462772  0.235052  0.500000  1
  Ru  Ru20  1  0.772280  0.537228  0.500000  1
