# generated using pymatgen
data_TbYb8LuIr4
_symmetry_space_group_name_H-M   'P 1'
_cell_length_a   8.50432671
_cell_length_b   8.50432660
_cell_length_c   7.31496837
_cell_angle_alpha   82.71733368
_cell_angle_beta   82.71733285
_cell_angle_gamma   45.07328438
_symmetry_Int_Tables_number   1
_chemical_formula_structural   TbYb8LuIr4
_chemical_formula_sum   'Tb1 Yb8 Lu1 Ir4'
_cell_volume   371.02471294
_cell_formula_units_Z   1
loop_
 _symmetry_equiv_pos_site_id
 _symmetry_equiv_pos_as_xyz
  1  'x, y, z'
loop_
 _atom_site_type_symbol
 _atom_site_label
 _atom_site_symmetry_multiplicity
 _atom_site_fract_x
 _atom_site_fract_y
 _atom_site_fract_z
 _atom_site_occupancy
  Tb  Tb0  1  0.434473  0.565527  0.750000  1
  Yb  Yb1  1  0.359668  0.204579  0.320062  1
  Yb  Yb2  1  0.199062  0.972530  0.078911  1
  Yb  Yb3  1  0.800502  0.028112  0.923824  1
  Yb  Yb4  1  0.971888  0.199498  0.576176  1
  Yb  Yb5  1  0.642121  0.795767  0.679005  1
  Yb  Yb6  1  0.204233  0.357879  0.820995  1
  Yb  Yb7  1  0.795421  0.640332  0.179938  1
  Yb  Yb8  1  0.027470  0.800938  0.421089  1
  Lu  Lu9  1  0.562761  0.437239  0.250000  1
  Ir  Ir10  1  0.400067  0.811589  0.422762  1
  Ir  Ir11  1  0.188411  0.599933  0.077238  1
  Ir  Ir12  1  0.811588  0.397663  0.927512  1
  Ir  Ir13  1  0.602337  0.188412  0.572488  1
