# generated using pymatgen
data_Er2Tm3SnSb2
_symmetry_space_group_name_H-M   'P 1'
_cell_length_a   8.85369100
_cell_length_b   8.85583014
_cell_length_c   6.33108900
_cell_angle_alpha   90.00000000
_cell_angle_beta   90.00000000
_cell_angle_gamma   119.99201360
_symmetry_Int_Tables_number   1
_chemical_formula_structural   Er2Tm3SnSb2
_chemical_formula_sum   'Er4 Tm6 Sn2 Sb4'
_cell_volume   429.92988423
_cell_formula_units_Z   2
loop_
 _symmetry_equiv_pos_site_id
 _symmetry_equiv_pos_as_xyz
  1  'x, y, z'
loop_
 _atom_site_type_symbol
 _atom_site_label
 _atom_site_symmetry_multiplicity
 _atom_site_fract_x
 _atom_site_fract_y
 _atom_site_fract_z
 _atom_site_occupancy
  Er  Er0  1  0.242195  0.000000  0.250000  1
  Er  Er1  1  0.757900  0.000000  0.750000  1
  Er  Er2  1  0.997128  0.241387  0.250000  1
  Er  Er3  1  0.755740  0.758613  0.250000  1
  Tm  Tm4  1  0.334286  0.668557  0.999989  1
  Tm  Tm5  1  0.665730  0.331443  0.500011  1
  Tm  Tm6  1  0.665730  0.331443  0.999989  1
  Tm  Tm7  1  0.334286  0.668557  0.500011  1
  Tm  Tm8  1  0.244094  0.241112  0.750000  1
  Tm  Tm9  1  0.002982  0.758888  0.750000  1
  Sn  Sn10  1  0.605859  0.000000  0.250000  1
  Sn  Sn11  1  0.393551  0.000000  0.750000  1
  Sb  Sb12  1  0.999092  0.608823  0.250000  1
  Sb  Sb13  1  0.390269  0.391177  0.250000  1
  Sb  Sb14  1  0.609925  0.608691  0.750000  1
  Sb  Sb15  1  0.001235  0.391309  0.750000  1
