# generated using pymatgen
data_Sc4Fe3Co7(SiB2)2
_symmetry_space_group_name_H-M   'P 1'
_cell_length_a   8.77009841
_cell_length_b   8.75749342
_cell_length_c   2.88086000
_cell_angle_alpha   90.00000000
_cell_angle_beta   90.00000000
_cell_angle_gamma   89.96468276
_symmetry_Int_Tables_number   1
_chemical_formula_structural   Sc4Fe3Co7(SiB2)2
_chemical_formula_sum   'Sc4 Fe3 Co7 Si2 B4'
_cell_volume   221.26175740
_cell_formula_units_Z   1
loop_
 _symmetry_equiv_pos_site_id
 _symmetry_equiv_pos_as_xyz
  1  'x, y, z'
loop_
 _atom_site_type_symbol
 _atom_site_label
 _atom_site_symmetry_multiplicity
 _atom_site_fract_x
 _atom_site_fract_y
 _atom_site_fract_z
 _atom_site_occupancy
  Sc  Sc0  1  0.177245  0.670977  0.000000  1
  Sc  Sc1  1  0.675131  0.825185  0.000000  1
  Sc  Sc2  1  0.325592  0.177845  0.000000  1
  Sc  Sc3  1  0.826425  0.325050  0.000000  1
  Fe  Fe4  1  0.998101  0.499964  0.500000  1
  Fe  Fe5  1  0.500090  0.000151  0.500000  1
  Fe  Fe6  1  0.285467  0.430807  0.500000  1
  Co  Co7  1  0.713652  0.569648  0.500000  1
  Co  Co8  1  0.571156  0.284700  0.500000  1
  Co  Co9  1  0.431863  0.716828  0.500000  1
  Co  Co10  1  0.930344  0.784688  0.500000  1
  Co  Co11  1  0.784684  0.069011  0.500000  1
  Co  Co12  1  0.214818  0.930266  0.500000  1
  Co  Co13  1  0.067646  0.213595  0.500000  1
  Si  Si14  1  0.999673  0.999995  0.000000  1
  Si  Si15  1  0.496313  0.499760  0.000000  1
  B  B16  1  0.379013  0.879473  0.000000  1
  B  B17  1  0.878460  0.619943  0.000000  1
  B  B18  1  0.123762  0.380776  0.000000  1
  B  B19  1  0.620565  0.121338  0.000000  1
