# generated using pymatgen
data_Ca2Al20Ir3Ru
_symmetry_space_group_name_H-M   'P 1'
_cell_length_a   6.87449826
_cell_length_b   6.87588105
_cell_length_c   9.15929971
_cell_angle_alpha   90.02543807
_cell_angle_beta   90.07550365
_cell_angle_gamma   96.79648264
_symmetry_Int_Tables_number   1
_chemical_formula_structural   Ca2Al20Ir3Ru
_chemical_formula_sum   'Ca2 Al20 Ir3 Ru1'
_cell_volume   429.90106081
_cell_formula_units_Z   1
loop_
 _symmetry_equiv_pos_site_id
 _symmetry_equiv_pos_as_xyz
  1  'x, y, z'
loop_
 _atom_site_type_symbol
 _atom_site_label
 _atom_site_symmetry_multiplicity
 _atom_site_fract_x
 _atom_site_fract_y
 _atom_site_fract_z
 _atom_site_occupancy
  Ca  Ca0  1  0.873351  0.125389  0.749951  1
  Ca  Ca1  1  0.126649  0.874611  0.250049  1
  Al  Al2  1  0.620290  0.376665  0.551140  1
  Al  Al3  1  0.379710  0.623335  0.448860  1
  Al  Al4  1  0.379360  0.621168  0.052064  1
  Al  Al5  1  0.620640  0.378832  0.947936  1
  Al  Al6  1  0.223644  0.220892  0.498544  1
  Al  Al7  1  0.776356  0.779108  0.501456  1
  Al  Al8  1  0.777452  0.778070  0.000673  1
  Al  Al9  1  0.222548  0.221930  0.999327  1
  Al  Al10  1  0.842059  0.158511  0.102786  1
  Al  Al11  1  0.157941  0.841489  0.897214  1
  Al  Al12  1  0.159723  0.842865  0.600874  1
  Al  Al13  1  0.840277  0.157135  0.399126  1
  Al  Al14  1  0.855539  0.587247  0.749674  1
  Al  Al15  1  0.144461  0.412753  0.250326  1
  Al  Al16  1  0.413677  0.143359  0.748462  1
  Al  Al17  1  0.586323  0.856641  0.251538  1
  Al  Al18  1  0.223749  0.479950  0.750250  1
  Al  Al19  1  0.776251  0.520050  0.249750  1
  Al  Al20  1  0.519998  0.777638  0.747495  1
  Al  Al21  1  0.480002  0.222362  0.252505  1
  Ir  Ir22  1  0.000000  0.500000  0.500000  1
  Ir  Ir23  1  0.000000  0.500000  0.000000  1
  Ir  Ir24  1  0.500000  0.000000  0.000000  1
  Ru  Ru25  1  0.500000  0.000000  0.500000  1
