# generated using pymatgen
data_Li2Dy11Y7(Cd3Ni)2
_symmetry_space_group_name_H-M   'P 1'
_cell_length_a   9.55279418
_cell_length_b   9.55929671
_cell_length_c   9.48780008
_cell_angle_alpha   90.00000172
_cell_angle_beta   90.06435676
_cell_angle_gamma   120.02252029
_symmetry_Int_Tables_number   1
_chemical_formula_structural   Li2Dy11Y7(Cd3Ni)2
_chemical_formula_sum   'Li2 Dy11 Y7 Cd6 Ni2'
_cell_volume   750.15939910
_cell_formula_units_Z   1
loop_
 _symmetry_equiv_pos_site_id
 _symmetry_equiv_pos_as_xyz
  1  'x, y, z'
loop_
 _atom_site_type_symbol
 _atom_site_label
 _atom_site_symmetry_multiplicity
 _atom_site_fract_x
 _atom_site_fract_y
 _atom_site_fract_z
 _atom_site_occupancy
  Li  Li0  1  0.999841  0.999920  0.500082  1
  Li  Li1  1  0.999893  0.999947  0.000026  1
  Dy  Dy2  1  0.208462  0.791602  0.437676  1
  Dy  Dy3  1  0.208462  0.416860  0.437676  1
  Dy  Dy4  1  0.583083  0.791542  0.438021  1
  Dy  Dy5  1  0.791625  0.208581  0.562281  1
  Dy  Dy6  1  0.791625  0.583044  0.562281  1
  Dy  Dy7  1  0.416738  0.208369  0.561967  1
  Dy  Dy8  1  0.791819  0.208851  0.937683  1
  Dy  Dy9  1  0.791819  0.582968  0.937683  1
  Dy  Dy10  1  0.417031  0.208516  0.937853  1
  Dy  Dy11  1  0.208345  0.791500  0.062457  1
  Dy  Dy12  1  0.208345  0.416845  0.062457  1
  Y  Y13  1  0.543151  0.455981  0.250145  1
  Y  Y14  1  0.543151  0.087170  0.250145  1
  Y  Y15  1  0.913194  0.456597  0.250166  1
  Y  Y16  1  0.456850  0.543637  0.749775  1
  Y  Y17  1  0.456850  0.913213  0.749775  1
  Y  Y18  1  0.087309  0.543655  0.750021  1
  Y  Y19  1  0.584394  0.792197  0.061243  1
  Cd  Cd20  1  0.892290  0.107428  0.249940  1
  Cd  Cd21  1  0.892290  0.784861  0.249940  1
  Cd  Cd22  1  0.215867  0.107933  0.250058  1
  Cd  Cd23  1  0.107579  0.892469  0.750009  1
  Cd  Cd24  1  0.107579  0.215112  0.750009  1
  Cd  Cd25  1  0.783969  0.891985  0.750133  1
  Ni  Ni26  1  0.331954  0.665978  0.250581  1
  Ni  Ni27  1  0.666484  0.333241  0.749918  1
