# generated using pymatgen
data_PrNdRe2TcB6
_symmetry_space_group_name_H-M   'P 1'
_cell_length_a   6.31485053
_cell_length_b   6.31485000
_cell_length_c   7.64563604
_cell_angle_alpha   90.62154288
_cell_angle_beta   90.62153992
_cell_angle_gamma   114.52483793
_symmetry_Int_Tables_number   1
_chemical_formula_structural   PrNdRe2TcB6
_chemical_formula_sum   'Pr2 Nd2 Re4 Tc2 B12'
_cell_volume   277.32524539
_cell_formula_units_Z   2
loop_
 _symmetry_equiv_pos_site_id
 _symmetry_equiv_pos_as_xyz
  1  'x, y, z'
loop_
 _atom_site_type_symbol
 _atom_site_label
 _atom_site_symmetry_multiplicity
 _atom_site_fract_x
 _atom_site_fract_y
 _atom_site_fract_z
 _atom_site_occupancy
  Pr  Pr0  1  0.093212  0.441715  0.326711  1
  Pr  Pr1  1  0.558285  0.906788  0.173289  1
  Nd  Nd2  1  0.905357  0.558122  0.674002  1
  Nd  Nd3  1  0.441878  0.094643  0.825998  1
  Re  Re4  1  0.989411  0.804486  0.087866  1
  Re  Re5  1  0.195514  0.010589  0.412134  1
  Re  Re6  1  0.010612  0.195066  0.911367  1
  Re  Re7  1  0.804934  0.989388  0.588633  1
  Tc  Tc8  1  0.583565  0.416435  0.250000  1
  Tc  Tc9  1  0.415839  0.584161  0.750000  1
  B  B10  1  0.241985  0.153241  0.131704  1
  B  B11  1  0.846759  0.758015  0.368296  1
  B  B12  1  0.758332  0.845962  0.867342  1
  B  B13  1  0.154038  0.241668  0.632658  1
  B  B14  1  0.583396  0.157337  0.483389  1
  B  B15  1  0.842663  0.416604  0.016611  1
  B  B16  1  0.416823  0.843341  0.519009  1
  B  B17  1  0.156659  0.583177  0.980991  1
  B  B18  1  0.441216  0.349843  0.533009  1
  B  B19  1  0.650157  0.558784  0.966991  1
  B  B20  1  0.559761  0.650396  0.468016  1
  B  B21  1  0.349604  0.440239  0.031984  1
