# generated using pymatgen
data_ScMn(GeRu2)2
_symmetry_space_group_name_H-M   'P 1'
_cell_length_a   4.29713100
_cell_length_b   4.29713100
_cell_length_c   6.13999500
_cell_angle_alpha   90.00000000
_cell_angle_beta   90.00000000
_cell_angle_gamma   90.00000000
_symmetry_Int_Tables_number   1
_chemical_formula_structural   ScMn(GeRu2)2
_chemical_formula_sum   'Sc1 Mn1 Ge2 Ru4'
_cell_volume   113.37706354
_cell_formula_units_Z   1
loop_
 _symmetry_equiv_pos_site_id
 _symmetry_equiv_pos_as_xyz
  1  'x, y, z'
loop_
 _atom_site_type_symbol
 _atom_site_label
 _atom_site_symmetry_multiplicity
 _atom_site_fract_x
 _atom_site_fract_y
 _atom_site_fract_z
 _atom_site_occupancy
  Sc  Sc0  1  0.000000  0.000000  0.500000  1
  Mn  Mn1  1  0.500000  0.500000  0.000000  1
  Ge  Ge2  1  0.000000  0.000000  0.000000  1
  Ge  Ge3  1  0.500000  0.500000  0.500000  1
  Ru  Ru4  1  0.500000  0.000000  0.235184  1
  Ru  Ru5  1  0.000000  0.500000  0.235184  1
  Ru  Ru6  1  0.500000  0.000000  0.764815  1
  Ru  Ru7  1  0.000000  0.500000  0.764815  1
