# generated using pymatgen
data_Tc5(NiAs6)2
_symmetry_space_group_name_H-M   'P 1'
_cell_length_a   3.22678200
_cell_length_b   12.63079200
_cell_length_c   15.73487100
_cell_angle_alpha   90.00000000
_cell_angle_beta   90.00000000
_cell_angle_gamma   90.00000000
_symmetry_Int_Tables_number   1
_chemical_formula_structural   Tc5(NiAs6)2
_chemical_formula_sum   'Tc10 Ni4 As24'
_cell_volume   641.30318346
_cell_formula_units_Z   2
loop_
 _symmetry_equiv_pos_site_id
 _symmetry_equiv_pos_as_xyz
  1  'x, y, z'
loop_
 _atom_site_type_symbol
 _atom_site_label
 _atom_site_symmetry_multiplicity
 _atom_site_fract_x
 _atom_site_fract_y
 _atom_site_fract_z
 _atom_site_occupancy
  Tc  Tc0  1  0.000000  0.184586  0.598729  1
  Tc  Tc1  1  0.000000  0.815414  0.401271  1
  Tc  Tc2  1  0.500000  0.684586  0.901271  1
  Tc  Tc3  1  0.500000  0.315414  0.098729  1
  Tc  Tc4  1  0.000000  0.577344  0.761725  1
  Tc  Tc5  1  0.000000  0.422656  0.238275  1
  Tc  Tc6  1  0.500000  0.077344  0.738275  1
  Tc  Tc7  1  0.500000  0.922656  0.261725  1
  Tc  Tc8  1  0.000000  0.000000  0.000000  1
  Tc  Tc9  1  0.500000  0.500000  0.500000  1
  Ni  Ni10  1  0.000000  0.371090  0.844425  1
  Ni  Ni11  1  0.000000  0.628910  0.155575  1
  Ni  Ni12  1  0.500000  0.871090  0.655575  1
  Ni  Ni13  1  0.500000  0.128910  0.344425  1
  As  As14  1  0.000000  0.592361  0.598842  1
  As  As15  1  0.000000  0.407639  0.401158  1
  As  As16  1  0.500000  0.092361  0.901158  1
  As  As17  1  0.500000  0.907639  0.098842  1
  As  As18  1  0.000000  0.930960  0.764440  1
  As  As19  1  0.000000  0.069040  0.235560  1
  As  As20  1  0.500000  0.430960  0.735560  1
  As  As21  1  0.500000  0.569040  0.264440  1
  As  As22  1  0.000000  0.776473  0.245501  1
  As  As23  1  0.000000  0.223527  0.754499  1
  As  As24  1  0.500000  0.276473  0.254499  1
  As  As25  1  0.500000  0.723527  0.745501  1
  As  As26  1  0.000000  0.841842  0.909340  1
  As  As27  1  0.000000  0.158158  0.090660  1
  As  As28  1  0.500000  0.341842  0.590660  1
  As  As29  1  0.500000  0.658158  0.409340  1
  As  As30  1  0.000000  0.534612  0.922352  1
  As  As31  1  0.000000  0.465388  0.077648  1
  As  As32  1  0.500000  0.034612  0.577648  1
  As  As33  1  0.500000  0.965388  0.422352  1
  As  As34  1  0.000000  0.791654  0.560756  1
  As  As35  1  0.000000  0.208346  0.439244  1
  As  As36  1  0.500000  0.291654  0.939244  1
  As  As37  1  0.500000  0.708346  0.060756  1
