# generated using pymatgen
data_PrNd3Er4(ReB6)4
_symmetry_space_group_name_H-M   'P 1'
_cell_length_a   3.72196900
_cell_length_b   9.23709001
_cell_length_c   11.70199902
_cell_angle_alpha   89.99365141
_cell_angle_beta   90.00000000
_cell_angle_gamma   90.00000000
_symmetry_Int_Tables_number   1
_chemical_formula_structural   PrNd3Er4(ReB6)4
_chemical_formula_sum   'Pr1 Nd3 Er4 Re4 B24'
_cell_volume   402.31662748
_cell_formula_units_Z   1
loop_
 _symmetry_equiv_pos_site_id
 _symmetry_equiv_pos_as_xyz
  1  'x, y, z'
loop_
 _atom_site_type_symbol
 _atom_site_label
 _atom_site_symmetry_multiplicity
 _atom_site_fract_x
 _atom_site_fract_y
 _atom_site_fract_z
 _atom_site_occupancy
  Pr  Pr0  1  0.000000  0.322501  0.414382  1
  Nd  Nd1  1  0.000000  0.677370  0.585737  1
  Nd  Nd2  1  0.000000  0.822678  0.085566  1
  Nd  Nd3  1  0.000000  0.177283  0.914366  1
  Er  Er4  1  0.000000  0.942964  0.369346  1
  Er  Er5  1  0.000000  0.056900  0.630707  1
  Er  Er6  1  0.000000  0.443084  0.130441  1
  Er  Er7  1  0.000000  0.556966  0.869531  1
  Re  Re8  1  0.000000  0.639913  0.318840  1
  Re  Re9  1  0.000000  0.360422  0.681383  1
  Re  Re10  1  0.000000  0.139354  0.180771  1
  Re  Re11  1  0.000000  0.860404  0.818937  1
  B  B12  1  0.500000  0.555721  0.430244  1
  B  B13  1  0.500000  0.444971  0.570145  1
  B  B14  1  0.500000  0.055103  0.069547  1
  B  B15  1  0.500000  0.944794  0.930329  1
  B  B16  1  0.500000  0.750454  0.415761  1
  B  B17  1  0.500000  0.249707  0.584827  1
  B  B18  1  0.500000  0.250267  0.084090  1
  B  B19  1  0.500000  0.749720  0.915734  1
  B  B20  1  0.500000  0.791898  0.265875  1
  B  B21  1  0.500000  0.208136  0.734267  1
  B  B22  1  0.500000  0.291577  0.233630  1
  B  B23  1  0.500000  0.708194  0.765974  1
  B  B24  1  0.500000  0.629620  0.185930  1
  B  B25  1  0.500000  0.370580  0.814057  1
  B  B26  1  0.500000  0.129101  0.313513  1
  B  B27  1  0.500000  0.870509  0.686108  1
  B  B28  1  0.500000  0.983599  0.213205  1
  B  B29  1  0.500000  0.016214  0.786714  1
  B  B30  1  0.500000  0.484238  0.286396  1
  B  B31  1  0.500000  0.516363  0.713501  1
  B  B32  1  0.500000  0.595909  0.026407  1
  B  B33  1  0.500000  0.404152  0.973553  1
  B  B34  1  0.500000  0.095137  0.473750  1
  B  B35  1  0.500000  0.904195  0.526434  1
