# generated using pymatgen
data_LaNd5(IrI3)2
_symmetry_space_group_name_H-M   'P 1'
_cell_length_a   10.87039619
_cell_length_b   10.90861698
_cell_length_c   10.90861731
_cell_angle_alpha   109.94837014
_cell_angle_beta   109.81241280
_cell_angle_gamma   108.79611118
_symmetry_Int_Tables_number   1
_chemical_formula_structural   LaNd5(IrI3)2
_chemical_formula_sum   'La2 Nd10 Ir4 I12'
_cell_volume   993.92496312
_cell_formula_units_Z   2
loop_
 _symmetry_equiv_pos_site_id
 _symmetry_equiv_pos_as_xyz
  1  'x, y, z'
loop_
 _atom_site_type_symbol
 _atom_site_label
 _atom_site_symmetry_multiplicity
 _atom_site_fract_x
 _atom_site_fract_y
 _atom_site_fract_z
 _atom_site_occupancy
  La  La0  1  0.275850  0.025222  0.050983  1
  La  La1  1  0.224150  0.275134  0.749371  1
  Nd  Nd2  1  0.459031  0.478878  0.230998  1
  Nd  Nd3  1  0.757829  0.230630  0.277306  1
  Nd  Nd4  1  0.742171  0.019478  0.472801  1
  Nd  Nd5  1  0.229288  0.452763  0.472946  1
  Nd  Nd6  1  0.270712  0.743658  0.223474  1
  Nd  Nd7  1  0.040969  0.271968  0.019848  1
  Nd  Nd8  1  0.021248  0.041082  0.269831  1
  Nd  Nd9  1  0.478752  0.748583  0.019836  1
  Nd  Nd10  1  0.480611  0.230321  0.460796  1
  Nd  Nd11  1  0.019389  0.480184  0.749711  1
  Ir  Ir12  1  0.250092  0.248378  0.249460  1
  Ir  Ir13  1  0.499850  0.000934  0.249444  1
  Ir  Ir14  1  0.000150  0.249594  0.501084  1
  Ir  Ir15  1  0.249908  0.499368  0.998286  1
  I  I16  1  0.249550  0.756153  0.741406  1
  I  I17  1  0.518583  0.511474  0.758242  1
  I  I18  1  0.981417  0.739659  0.992890  1
  I  I19  1  0.741292  0.250597  0.758049  1
  I  I20  1  0.988007  0.983505  0.741270  1
  I  I21  1  0.250450  0.991856  0.506602  1
  I  I22  1  0.758708  0.516755  0.509304  1
  I  I23  1  0.511993  0.253263  0.995497  1
  I  I24  1  0.758586  0.741859  0.250115  1
  I  I25  1  0.741414  0.991529  0.983275  1
  I  I26  1  0.992116  0.508926  0.250365  1
  I  I27  1  0.507884  0.758249  0.516809  1
