# generated using pymatgen
data_CaTbEr6(B6Os)4
_symmetry_space_group_name_H-M   'P 1'
_cell_length_a   3.63631900
_cell_length_b   9.12361486
_cell_length_c   11.51376046
_cell_angle_alpha   89.90424273
_cell_angle_beta   90.00000000
_cell_angle_gamma   90.00000000
_symmetry_Int_Tables_number   1
_chemical_formula_structural   CaTbEr6(B6Os)4
_chemical_formula_sum   'Ca1 Tb1 Er6 B24 Os4'
_cell_volume   381.98429021
_cell_formula_units_Z   1
loop_
 _symmetry_equiv_pos_site_id
 _symmetry_equiv_pos_as_xyz
  1  'x, y, z'
loop_
 _atom_site_type_symbol
 _atom_site_label
 _atom_site_symmetry_multiplicity
 _atom_site_fract_x
 _atom_site_fract_y
 _atom_site_fract_z
 _atom_site_occupancy
  Ca  Ca0  1  0.000000  0.321987  0.413539  1
  Tb  Tb1  1  0.000000  0.676654  0.585510  1
  Er  Er2  1  0.000000  0.821993  0.086518  1
  Er  Er3  1  0.000000  0.178670  0.914613  1
  Er  Er4  1  0.000000  0.944122  0.371690  1
  Er  Er5  1  0.000000  0.057650  0.627560  1
  Er  Er6  1  0.000000  0.443117  0.128190  1
  Er  Er7  1  0.000000  0.556128  0.873106  1
  B  B8  1  0.500000  0.554064  0.432079  1
  B  B9  1  0.500000  0.445957  0.567927  1
  B  B10  1  0.500000  0.052954  0.066322  1
  B  B11  1  0.500000  0.946403  0.933133  1
  B  B12  1  0.500000  0.748656  0.418587  1
  B  B13  1  0.500000  0.251677  0.581561  1
  B  B14  1  0.500000  0.247690  0.080070  1
  B  B15  1  0.500000  0.751794  0.920093  1
  B  B16  1  0.500000  0.791697  0.265570  1
  B  B17  1  0.500000  0.209123  0.734593  1
  B  B18  1  0.500000  0.290041  0.232764  1
  B  B19  1  0.500000  0.709486  0.767188  1
  B  B20  1  0.500000  0.631817  0.185227  1
  B  B21  1  0.500000  0.368410  0.815528  1
  B  B22  1  0.500000  0.130625  0.313543  1
  B  B23  1  0.500000  0.869315  0.685777  1
  B  B24  1  0.500000  0.982491  0.211845  1
  B  B25  1  0.500000  0.017612  0.787528  1
  B  B26  1  0.500000  0.483495  0.286679  1
  B  B27  1  0.500000  0.516554  0.713601  1
  B  B28  1  0.500000  0.607645  0.029836  1
  B  B29  1  0.500000  0.392475  0.970558  1
  B  B30  1  0.500000  0.103081  0.471322  1
  B  B31  1  0.500000  0.896008  0.528825  1
  Os  Os32  1  0.000000  0.639857  0.319636  1
  Os  Os33  1  0.000000  0.361733  0.680902  1
  Os  Os34  1  0.000000  0.135930  0.176741  1
  Os  Os35  1  0.000000  0.863089  0.821841  1
