# generated using pymatgen
data_Ba3CaHfSe6
_symmetry_space_group_name_H-M   'P 1'
_cell_length_a   8.79080772
_cell_length_b   8.79080830
_cell_length_c   8.79080893
_cell_angle_alpha   92.01956389
_cell_angle_beta   92.01955710
_cell_angle_gamma   92.01956699
_symmetry_Int_Tables_number   1
_chemical_formula_structural   Ba3CaHfSe6
_chemical_formula_sum   'Ba6 Ca2 Hf2 Se12'
_cell_volume   678.04233371
_cell_formula_units_Z   2
loop_
 _symmetry_equiv_pos_site_id
 _symmetry_equiv_pos_as_xyz
  1  'x, y, z'
loop_
 _atom_site_type_symbol
 _atom_site_label
 _atom_site_symmetry_multiplicity
 _atom_site_fract_x
 _atom_site_fract_y
 _atom_site_fract_z
 _atom_site_occupancy
  Ba  Ba0  1  0.874499  0.625501  0.250000  1
  Ba  Ba1  1  0.250000  0.874499  0.625501  1
  Ba  Ba2  1  0.625501  0.250000  0.874499  1
  Ba  Ba3  1  0.750000  0.125501  0.374499  1
  Ba  Ba4  1  0.374499  0.750000  0.125501  1
  Ba  Ba5  1  0.125501  0.374499  0.750000  1
  Ca  Ca6  1  0.250000  0.250000  0.250000  1
  Ca  Ca7  1  0.750000  0.750000  0.750000  1
  Hf  Hf8  1  0.500000  0.500000  0.500000  1
  Hf  Hf9  1  0.000000  0.000000  0.000000  1
  Se  Se10  1  0.207346  0.546538  0.416565  1
  Se  Se11  1  0.416565  0.207346  0.546538  1
  Se  Se12  1  0.546538  0.416565  0.207346  1
  Se  Se13  1  0.916565  0.046538  0.707346  1
  Se  Se14  1  0.707346  0.916565  0.046538  1
  Se  Se15  1  0.046538  0.707346  0.916565  1
  Se  Se16  1  0.792654  0.453462  0.583435  1
  Se  Se17  1  0.583435  0.792654  0.453462  1
  Se  Se18  1  0.453462  0.583435  0.792654  1
  Se  Se19  1  0.083435  0.953462  0.292654  1
  Se  Se20  1  0.292654  0.083435  0.953462  1
  Se  Se21  1  0.953462  0.292654  0.083435  1
