# generated using pymatgen
data_K3ScRhO6
_symmetry_space_group_name_H-M   'P 1'
_cell_length_a   7.11984227
_cell_length_b   7.11998405
_cell_length_c   7.11969947
_cell_angle_alpha   95.91919475
_cell_angle_beta   95.91936939
_cell_angle_gamma   95.92403707
_symmetry_Int_Tables_number   1
_chemical_formula_structural   K3ScRhO6
_chemical_formula_sum   'K6 Sc2 Rh2 O12'
_cell_volume   354.70970966
_cell_formula_units_Z   2
loop_
 _symmetry_equiv_pos_site_id
 _symmetry_equiv_pos_as_xyz
  1  'x, y, z'
loop_
 _atom_site_type_symbol
 _atom_site_label
 _atom_site_symmetry_multiplicity
 _atom_site_fract_x
 _atom_site_fract_y
 _atom_site_fract_z
 _atom_site_occupancy
  K  K0  1  0.750000  0.383729  0.116273  1
  K  K1  1  0.616276  0.883731  0.250009  1
  K  K2  1  0.116263  0.750009  0.383734  1
  K  K3  1  0.883738  0.249991  0.616266  1
  K  K4  1  0.383724  0.116269  0.749991  1
  K  K5  1  0.250001  0.616271  0.883727  1
  Sc  Sc6  1  0.249998  0.250006  0.250001  1
  Sc  Sc7  1  0.750002  0.749994  0.749999  1
  Rh  Rh8  1  0.000000  0.000000  0.000000  1
  Rh  Rh9  1  0.500000  0.500000  0.500000  1
  O  O10  1  0.904764  0.732624  0.021105  1
  O  O11  1  0.267367  0.978906  0.095230  1
  O  O12  1  0.404768  0.521107  0.232629  1
  O  O13  1  0.978906  0.095246  0.267384  1
  O  O14  1  0.521090  0.232635  0.404764  1
  O  O15  1  0.767375  0.595233  0.478899  1
  O  O16  1  0.232625  0.404767  0.521102  1
  O  O17  1  0.478911  0.767365  0.595236  1
  O  O18  1  0.021094  0.904753  0.732616  1
  O  O19  1  0.595232  0.478893  0.767371  1
  O  O20  1  0.732632  0.021093  0.904769  1
  O  O21  1  0.095236  0.267375  0.978895  1
