# generated using pymatgen
data_NbBrF8
_symmetry_space_group_name_H-M   'P 1'
_cell_length_a   5.99039100
_cell_length_b   10.24253200
_cell_length_c   11.23724100
_cell_angle_alpha   90.00000000
_cell_angle_beta   90.00000000
_cell_angle_gamma   90.00000000
_symmetry_Int_Tables_number   1
_chemical_formula_structural   NbBrF8
_chemical_formula_sum   'Nb4 Br4 F32'
_cell_volume   689.48082844
_cell_formula_units_Z   4
loop_
 _symmetry_equiv_pos_site_id
 _symmetry_equiv_pos_as_xyz
  1  'x, y, z'
loop_
 _atom_site_type_symbol
 _atom_site_label
 _atom_site_symmetry_multiplicity
 _atom_site_fract_x
 _atom_site_fract_y
 _atom_site_fract_z
 _atom_site_occupancy
  Nb  Nb0  1  0.887284  0.000000  0.250000  1
  Nb  Nb1  1  0.112716  0.500000  0.250000  1
  Nb  Nb2  1  0.112716  0.000000  0.750000  1
  Nb  Nb3  1  0.887284  0.500000  0.750000  1
  Br  Br4  1  0.500000  0.750000  0.052424  1
  Br  Br5  1  0.500000  0.250000  0.447576  1
  Br  Br6  1  0.500000  0.250000  0.947576  1
  Br  Br7  1  0.500000  0.750000  0.552424  1
  F  F8  1  0.099513  0.385232  0.816355  1
  F  F9  1  0.099513  0.614768  0.683645  1
  F  F10  1  0.900487  0.885232  0.683645  1
  F  F11  1  0.900487  0.114768  0.816355  1
  F  F12  1  0.900487  0.614768  0.183645  1
  F  F13  1  0.900487  0.385232  0.316355  1
  F  F14  1  0.099513  0.114768  0.316355  1
  F  F15  1  0.099513  0.885232  0.183645  1
  F  F16  1  0.634742  0.884963  0.185937  1
  F  F17  1  0.634742  0.115037  0.314063  1
  F  F18  1  0.365258  0.384963  0.314063  1
  F  F19  1  0.365258  0.615037  0.185937  1
  F  F20  1  0.365258  0.115037  0.814063  1
  F  F21  1  0.365258  0.884963  0.685937  1
  F  F22  1  0.634742  0.615037  0.685937  1
  F  F23  1  0.634742  0.384963  0.814063  1
  F  F24  1  0.616523  0.855547  0.943092  1
  F  F25  1  0.616523  0.144453  0.556908  1
  F  F26  1  0.383477  0.355547  0.556908  1
  F  F27  1  0.383477  0.644453  0.943092  1
  F  F28  1  0.383477  0.144453  0.056908  1
  F  F29  1  0.383477  0.855547  0.443092  1
  F  F30  1  0.616523  0.644453  0.443092  1
  F  F31  1  0.616523  0.355547  0.056908  1
  F  F32  1  0.859738  0.901521  0.393584  1
  F  F33  1  0.859738  0.098479  0.106416  1
  F  F34  1  0.140262  0.401521  0.106416  1
  F  F35  1  0.140262  0.598479  0.393584  1
  F  F36  1  0.140262  0.098479  0.606416  1
  F  F37  1  0.140262  0.901521  0.893584  1
  F  F38  1  0.859738  0.598479  0.893584  1
  F  F39  1  0.859738  0.401521  0.606416  1
