# generated using pymatgen
data_Li4Si2Ag
_symmetry_space_group_name_H-M   'P 1'
_cell_length_a   6.56132988
_cell_length_b   6.56132955
_cell_length_c   6.56132926
_cell_angle_alpha   39.05009375
_cell_angle_beta   39.05009419
_cell_angle_gamma   39.05009469
_symmetry_Int_Tables_number   1
_chemical_formula_structural   Li4Si2Ag
_chemical_formula_sum   'Li4 Si2 Ag1'
_cell_volume   100.83451749
_cell_formula_units_Z   1
loop_
 _symmetry_equiv_pos_site_id
 _symmetry_equiv_pos_as_xyz
  1  'x, y, z'
loop_
 _atom_site_type_symbol
 _atom_site_label
 _atom_site_symmetry_multiplicity
 _atom_site_fract_x
 _atom_site_fract_y
 _atom_site_fract_z
 _atom_site_occupancy
  Li  Li0  1  0.355358  0.355358  0.355358  1
  Li  Li1  1  0.497658  0.497658  0.497658  1
  Li  Li2  1  0.646628  0.646628  0.646628  1
  Li  Li3  1  0.788092  0.788092  0.788092  1
  Si  Si4  1  0.065437  0.065437  0.065437  1
  Si  Si5  1  0.932141  0.932141  0.932141  1
  Ag  Ag6  1  0.214686  0.214686  0.214686  1
