# generated using pymatgen
data_Nd2ErPa(Al3Ir)6
_symmetry_space_group_name_H-M   'P 1'
_cell_length_a   7.60134201
_cell_length_b   7.60072137
_cell_length_c   9.48137100
_cell_angle_alpha   90.00000000
_cell_angle_beta   90.00000000
_cell_angle_gamma   119.53594660
_symmetry_Int_Tables_number   1
_chemical_formula_structural   Nd2ErPa(Al3Ir)6
_chemical_formula_sum   'Nd2 Er1 Pa1 Al18 Ir6'
_cell_volume   476.60515222
_cell_formula_units_Z   1
loop_
 _symmetry_equiv_pos_site_id
 _symmetry_equiv_pos_as_xyz
  1  'x, y, z'
loop_
 _atom_site_type_symbol
 _atom_site_label
 _atom_site_symmetry_multiplicity
 _atom_site_fract_x
 _atom_site_fract_y
 _atom_site_fract_z
 _atom_site_occupancy
  Nd  Nd0  1  0.004869  0.329382  0.750000  1
  Nd  Nd1  1  0.329919  0.004635  0.750000  1
  Er  Er2  1  0.673585  0.994444  0.250000  1
  Pa  Pa3  1  0.996427  0.672654  0.250000  1
  Al  Al4  1  0.131349  0.130495  0.250000  1
  Al  Al5  1  0.869412  0.870941  0.750000  1
  Al  Al6  1  0.999740  0.331821  0.078078  1
  Al  Al7  1  0.997098  0.664620  0.925300  1
  Al  Al8  1  0.997098  0.664620  0.574700  1
  Al  Al9  1  0.339881  0.003778  0.421810  1
  Al  Al10  1  0.999740  0.331821  0.421922  1
  Al  Al11  1  0.665185  0.998230  0.570706  1
  Al  Al12  1  0.665185  0.998230  0.929294  1
  Al  Al13  1  0.339881  0.003778  0.078190  1
  Al  Al14  1  0.333530  0.333617  0.548521  1
  Al  Al15  1  0.663212  0.666240  0.446721  1
  Al  Al16  1  0.663212  0.666240  0.053279  1
  Al  Al17  1  0.333530  0.333617  0.951479  1
  Al  Al18  1  0.340553  0.548828  0.250000  1
  Al  Al19  1  0.659394  0.452545  0.750000  1
  Al  Al20  1  0.548130  0.342790  0.250000  1
  Al  Al21  1  0.453538  0.661012  0.750000  1
  Ir  Ir22  1  0.673728  0.330585  0.003957  1
  Ir  Ir23  1  0.326462  0.672000  0.004185  1
  Ir  Ir24  1  0.326462  0.672000  0.495815  1
  Ir  Ir25  1  0.673728  0.330585  0.496043  1
  Ir  Ir26  1  0.997577  0.995245  0.005710  1
  Ir  Ir27  1  0.997577  0.995245  0.494290  1
