# generated using pymatgen
data_Dy4Lu4Tc3B24Rh
_symmetry_space_group_name_H-M   'P 1'
_cell_length_a   3.64143000
_cell_length_b   9.08902981
_cell_length_c   11.47760237
_cell_angle_alpha   90.09237001
_cell_angle_beta   90.00000000
_cell_angle_gamma   90.00000000
_symmetry_Int_Tables_number   1
_chemical_formula_structural   Dy4Lu4Tc3B24Rh
_chemical_formula_sum   'Dy4 Lu4 Tc3 B24 Rh1'
_cell_volume   379.87446756
_cell_formula_units_Z   1
loop_
 _symmetry_equiv_pos_site_id
 _symmetry_equiv_pos_as_xyz
  1  'x, y, z'
loop_
 _atom_site_type_symbol
 _atom_site_label
 _atom_site_symmetry_multiplicity
 _atom_site_fract_x
 _atom_site_fract_y
 _atom_site_fract_z
 _atom_site_occupancy
  Dy  Dy0  1  0.500000  0.317813  0.415730  1
  Dy  Dy1  1  0.500000  0.678715  0.590719  1
  Dy  Dy2  1  0.500000  0.178048  0.912814  1
  Dy  Dy3  1  0.500000  0.826296  0.081446  1
  Lu  Lu4  1  0.500000  0.440452  0.128660  1
  Lu  Lu5  1  0.500000  0.557182  0.870987  1
  Lu  Lu6  1  0.500000  0.056191  0.629487  1
  Lu  Lu7  1  0.500000  0.943943  0.369964  1
  Tc  Tc8  1  0.500000  0.138857  0.180996  1
  Tc  Tc9  1  0.500000  0.861271  0.820020  1
  Tc  Tc10  1  0.500000  0.362058  0.678666  1
  B  B11  1  0.000000  0.099303  0.472045  1
  B  B12  1  0.000000  0.897642  0.527449  1
  B  B13  1  0.000000  0.399561  0.972660  1
  B  B14  1  0.000000  0.601533  0.028549  1
  B  B15  1  0.000000  0.129577  0.315619  1
  B  B16  1  0.000000  0.869771  0.684891  1
  B  B17  1  0.000000  0.370566  0.814813  1
  B  B18  1  0.000000  0.630324  0.183447  1
  B  B19  1  0.000000  0.053820  0.066801  1
  B  B20  1  0.000000  0.947189  0.932350  1
  B  B21  1  0.000000  0.446160  0.566827  1
  B  B22  1  0.000000  0.554203  0.433704  1
  B  B23  1  0.000000  0.482343  0.287406  1
  B  B24  1  0.000000  0.518824  0.712885  1
  B  B25  1  0.000000  0.018536  0.786525  1
  B  B26  1  0.000000  0.981836  0.212531  1
  B  B27  1  0.000000  0.250397  0.081595  1
  B  B28  1  0.000000  0.750555  0.918578  1
  B  B29  1  0.000000  0.249072  0.581298  1
  B  B30  1  0.000000  0.750071  0.419956  1
  B  B31  1  0.000000  0.292233  0.235514  1
  B  B32  1  0.000000  0.707890  0.765694  1
  B  B33  1  0.000000  0.208039  0.734414  1
  B  B34  1  0.000000  0.791435  0.264789  1
  Rh  Rh35  1  0.500000  0.638294  0.320173  1
