# generated using pymatgen
data_GeH4F6
_symmetry_space_group_name_H-M   'P 1'
_cell_length_a   4.02941266
_cell_length_b   4.88037307
_cell_length_c   7.02569128
_cell_angle_alpha   106.18458864
_cell_angle_beta   85.37055838
_cell_angle_gamma   101.31728657
_symmetry_Int_Tables_number   1
_chemical_formula_structural   GeH4F6
_chemical_formula_sum   'Ge1 H4 F6'
_cell_volume   130.05535996
_cell_formula_units_Z   1
loop_
 _symmetry_equiv_pos_site_id
 _symmetry_equiv_pos_as_xyz
  1  'x, y, z'
loop_
 _atom_site_type_symbol
 _atom_site_label
 _atom_site_symmetry_multiplicity
 _atom_site_fract_x
 _atom_site_fract_y
 _atom_site_fract_z
 _atom_site_occupancy
  Ge  Ge0  1  0.841831  0.896591  0.516822  1
  H  H1  1  0.506485  0.297916  0.980104  1
  H  H2  1  0.093383  0.500342  0.677025  1
  H  H3  1  0.773370  0.063627  0.101592  1
  H  H4  1  0.247589  0.590974  0.164009  1
  F  F5  1  0.151354  0.670021  0.355877  1
  F  F6  1  0.637133  0.132292  0.941777  1
  F  F7  1  0.189704  0.230955  0.597481  1
  F  F8  1  0.339462  0.526039  0.022736  1
  F  F9  1  0.890213  0.034935  0.211877  1
  F  F10  1  0.009862  0.691279  0.731511  1
