# generated using pymatgen
data_Tb2YbTmB16
_symmetry_space_group_name_H-M   'P 1'
_cell_length_a   7.10271347
_cell_length_b   7.10271351
_cell_length_c   4.02319700
_cell_angle_alpha   90.00000000
_cell_angle_beta   90.00000000
_cell_angle_gamma   89.68825958
_symmetry_Int_Tables_number   1
_chemical_formula_structural   Tb2YbTmB16
_chemical_formula_sum   'Tb2 Yb1 Tm1 B16'
_cell_volume   202.96140610
_cell_formula_units_Z   1
loop_
 _symmetry_equiv_pos_site_id
 _symmetry_equiv_pos_as_xyz
  1  'x, y, z'
loop_
 _atom_site_type_symbol
 _atom_site_label
 _atom_site_symmetry_multiplicity
 _atom_site_fract_x
 _atom_site_fract_y
 _atom_site_fract_z
 _atom_site_occupancy
  Tb  Tb0  1  0.317568  0.182581  0.000000  1
  Tb  Tb1  1  0.682581  0.817568  0.000000  1
  Yb  Yb2  1  0.817838  0.317838  0.000000  1
  Tm  Tm3  1  0.180142  0.680142  0.000000  1
  B  B4  1  0.500665  0.500226  0.797078  1
  B  B5  1  0.000226  0.000665  0.797078  1
  B  B6  1  0.500665  0.500226  0.202922  1
  B  B7  1  0.000226  0.000665  0.202922  1
  B  B8  1  0.586650  0.086650  0.500000  1
  B  B9  1  0.413338  0.913338  0.500000  1
  B  B10  1  0.087382  0.413502  0.500000  1
  B  B11  1  0.913502  0.587382  0.500000  1
  B  B12  1  0.675806  0.538065  0.500000  1
  B  B13  1  0.322919  0.463521  0.500000  1
  B  B14  1  0.175884  0.959889  0.500000  1
  B  B15  1  0.824717  0.038416  0.500000  1
  B  B16  1  0.459889  0.675884  0.500000  1
  B  B17  1  0.538416  0.324717  0.500000  1
  B  B18  1  0.038065  0.175806  0.500000  1
  B  B19  1  0.963521  0.822919  0.500000  1
