# generated using pymatgen
data_Ho6Zn19Ag4C
_symmetry_space_group_name_H-M   'P 1'
_cell_length_a   9.01925860
_cell_length_b   8.99173391
_cell_length_c   8.99173300
_cell_angle_alpha   60.04258489
_cell_angle_beta   59.96807360
_cell_angle_gamma   59.96807285
_symmetry_Int_Tables_number   1
_chemical_formula_structural   Ho6Zn19Ag4C
_chemical_formula_sum   'Ho6 Zn19 Ag4 C1'
_cell_volume   515.55189081
_cell_formula_units_Z   1
loop_
 _symmetry_equiv_pos_site_id
 _symmetry_equiv_pos_as_xyz
  1  'x, y, z'
loop_
 _atom_site_type_symbol
 _atom_site_label
 _atom_site_symmetry_multiplicity
 _atom_site_fract_x
 _atom_site_fract_y
 _atom_site_fract_z
 _atom_site_occupancy
  Ho  Ho0  1  0.697192  0.303944  0.303944  1
  Ho  Ho1  1  0.305066  0.694280  0.694280  1
  Ho  Ho2  1  0.306531  0.693831  0.305869  1
  Ho  Ho3  1  0.695910  0.304559  0.693627  1
  Ho  Ho4  1  0.306531  0.305869  0.693831  1
  Ho  Ho5  1  0.695910  0.693627  0.304559  1
  Zn  Zn6  1  0.880526  0.877358  0.363055  1
  Zn  Zn7  1  0.880526  0.363055  0.877358  1
  Zn  Zn8  1  0.633189  0.120886  0.120886  1
  Zn  Zn9  1  0.359220  0.880070  0.880070  1
  Zn  Zn10  1  0.498890  0.999390  0.999390  1
  Zn  Zn11  1  0.999122  0.501244  0.501244  1
  Zn  Zn12  1  0.999370  0.498366  0.999720  1
  Zn  Zn13  1  0.505003  0.998647  0.496829  1
  Zn  Zn14  1  0.999370  0.999720  0.498366  1
  Zn  Zn15  1  0.505003  0.496829  0.998647  1
  Zn  Zn16  1  0.329007  0.328009  0.328009  1
  Zn  Zn17  1  0.671409  0.671980  0.671980  1
  Zn  Zn18  1  0.328011  0.329352  0.014476  1
  Zn  Zn19  1  0.328011  0.014476  0.329352  1
  Zn  Zn20  1  0.672207  0.670913  0.983926  1
  Zn  Zn21  1  0.672207  0.983926  0.670913  1
  Zn  Zn22  1  0.016106  0.327961  0.327961  1
  Zn  Zn23  1  0.985157  0.671917  0.671917  1
  Zn  Zn24  1  0.987297  0.007274  0.007274  1
  Ag  Ag25  1  0.121003  0.116953  0.116953  1
  Ag  Ag26  1  0.877415  0.882805  0.882805  1
  Ag  Ag27  1  0.121582  0.118259  0.645649  1
  Ag  Ag28  1  0.121582  0.645649  0.118259  1
  C  C29  1  0.501647  0.498851  0.498851  1
