# generated using pymatgen
data_Lu6Al24Os7Pt
_symmetry_space_group_name_H-M   'P 1'
_cell_length_a   8.78618376
_cell_length_b   8.78618342
_cell_length_c   9.51202026
_cell_angle_alpha   89.61805509
_cell_angle_beta   90.38194750
_cell_angle_gamma   119.94613550
_symmetry_Int_Tables_number   1
_chemical_formula_structural   Lu6Al24Os7Pt
_chemical_formula_sum   'Lu6 Al24 Os7 Pt1'
_cell_volume   636.24816172
_cell_formula_units_Z   1
loop_
 _symmetry_equiv_pos_site_id
 _symmetry_equiv_pos_as_xyz
  1  'x, y, z'
loop_
 _atom_site_type_symbol
 _atom_site_label
 _atom_site_symmetry_multiplicity
 _atom_site_fract_x
 _atom_site_fract_y
 _atom_site_fract_z
 _atom_site_occupancy
  Lu  Lu0  1  0.191517  0.389168  0.251684  1
  Lu  Lu1  1  0.808483  0.610832  0.748316  1
  Lu  Lu2  1  0.610832  0.808483  0.251684  1
  Lu  Lu3  1  0.389168  0.191517  0.748316  1
  Lu  Lu4  1  0.195993  0.804007  0.251583  1
  Lu  Lu5  1  0.804007  0.195993  0.748417  1
  Al  Al6  1  0.331744  0.668256  0.023446  1
  Al  Al7  1  0.668256  0.331744  0.976554  1
  Al  Al8  1  0.666346  0.333654  0.519915  1
  Al  Al9  1  0.333654  0.666346  0.480085  1
  Al  Al10  1  0.163843  0.325255  0.578211  1
  Al  Al11  1  0.836157  0.674745  0.421789  1
  Al  Al12  1  0.674745  0.836157  0.578211  1
  Al  Al13  1  0.842025  0.675716  0.078573  1
  Al  Al14  1  0.325255  0.163843  0.421789  1
  Al  Al15  1  0.157975  0.324284  0.921427  1
  Al  Al16  1  0.163307  0.836693  0.576358  1
  Al  Al17  1  0.324284  0.157975  0.078573  1
  Al  Al18  1  0.836693  0.163307  0.423642  1
  Al  Al19  1  0.675716  0.842025  0.921427  1
  Al  Al20  1  0.837059  0.162941  0.076533  1
  Al  Al21  1  0.162941  0.837059  0.923467  1
  Al  Al22  1  0.560069  0.121472  0.249038  1
  Al  Al23  1  0.439931  0.878528  0.750962  1
  Al  Al24  1  0.878528  0.439931  0.249038  1
  Al  Al25  1  0.121472  0.560069  0.750962  1
  Al  Al26  1  0.561309  0.438691  0.251795  1
  Al  Al27  1  0.438691  0.561309  0.748205  1
  Al  Al28  1  0.999631  0.000369  0.250123  1
  Al  Al29  1  0.000369  0.999631  0.749877  1
  Os  Os30  1  0.500000  0.000000  0.000000  1
  Os  Os31  1  0.000000  0.500000  0.000000  1
  Os  Os32  1  0.500000  0.000000  0.500000  1
  Os  Os33  1  0.000000  0.500000  0.500000  1
  Os  Os34  1  0.500000  0.500000  0.500000  1
  Os  Os35  1  0.000000  0.000000  0.000000  1
  Os  Os36  1  0.000000  0.000000  0.500000  1
  Pt  Pt37  1  0.500000  0.500000  0.000000  1
