# generated using pymatgen
data_Pa2Cr2Co10As7
_symmetry_space_group_name_H-M   'P 1'
_cell_length_a   3.79393500
_cell_length_b   9.36482385
_cell_length_c   9.40129872
_cell_angle_alpha   119.67001859
_cell_angle_beta   90.00000000
_cell_angle_gamma   90.00000000
_symmetry_Int_Tables_number   1
_chemical_formula_structural   Pa2Cr2Co10As7
_chemical_formula_sum   'Pa2 Cr2 Co10 As7'
_cell_volume   290.23011789
_cell_formula_units_Z   1
loop_
 _symmetry_equiv_pos_site_id
 _symmetry_equiv_pos_as_xyz
  1  'x, y, z'
loop_
 _atom_site_type_symbol
 _atom_site_label
 _atom_site_symmetry_multiplicity
 _atom_site_fract_x
 _atom_site_fract_y
 _atom_site_fract_z
 _atom_site_occupancy
  Pa  Pa0  1  0.000000  0.670277  0.334478  1
  Pa  Pa1  1  0.500000  0.332749  0.667880  1
  Cr  Cr2  1  0.500000  0.783967  0.890846  1
  Cr  Cr3  1  0.500000  0.113105  0.218233  1
  Co  Co4  1  0.000000  0.559386  0.931369  1
  Co  Co5  1  0.000000  0.370583  0.438570  1
  Co  Co6  1  0.000000  0.066074  0.630840  1
  Co  Co7  1  0.500000  0.098423  0.879220  1
  Co  Co8  1  0.000000  0.873888  0.154786  1
  Co  Co9  1  0.000000  0.282856  0.129448  1
  Co  Co10  1  0.000000  0.848077  0.721086  1
  Co  Co11  1  0.500000  0.942221  0.382048  1
  Co  Co12  1  0.500000  0.437452  0.054931  1
  Co  Co13  1  0.500000  0.618066  0.562349  1
  As  As14  1  0.000000  0.002706  0.999872  1
  As  As15  1  0.500000  0.707430  0.108617  1
  As  As16  1  0.500000  0.406496  0.293233  1
  As  As17  1  0.500000  0.890641  0.600253  1
  As  As18  1  0.000000  0.593595  0.702080  1
  As  As19  1  0.000000  0.108019  0.406694  1
  As  As20  1  0.000000  0.293987  0.893171  1
