# generated using pymatgen
data_NdHo3Zn2(Co2B)6
_symmetry_space_group_name_H-M   'P 1'
_cell_length_a   5.11838103
_cell_length_b   5.11837443
_cell_length_c   12.67003200
_cell_angle_alpha   89.99995853
_cell_angle_beta   89.99999785
_cell_angle_gamma   120.00152847
_symmetry_Int_Tables_number   1
_chemical_formula_structural   NdHo3Zn2(Co2B)6
_chemical_formula_sum   'Nd1 Ho3 Zn2 Co12 B6'
_cell_volume   287.45265257
_cell_formula_units_Z   1
loop_
 _symmetry_equiv_pos_site_id
 _symmetry_equiv_pos_as_xyz
  1  'x, y, z'
loop_
 _atom_site_type_symbol
 _atom_site_label
 _atom_site_symmetry_multiplicity
 _atom_site_fract_x
 _atom_site_fract_y
 _atom_site_fract_z
 _atom_site_occupancy
  Nd  Nd0  1  0.000007  0.999984  0.999884  1
  Ho  Ho1  1  0.000000  0.000004  0.261821  1
  Ho  Ho2  1  0.999998  0.000003  0.499963  1
  Ho  Ho3  1  0.999998  0.000001  0.738100  1
  Zn  Zn4  1  0.333337  0.666550  0.000024  1
  Zn  Zn5  1  0.666673  0.333425  0.000024  1
  Co  Co6  1  0.499997  0.000002  0.613058  1
  Co  Co7  1  0.499999  0.999998  0.836424  1
  Co  Co8  1  0.500002  0.500000  0.836416  1
  Co  Co9  1  0.499999  0.500004  0.386953  1
  Co  Co10  1  0.999996  0.500002  0.613060  1
  Co  Co11  1  0.000001  0.500002  0.163592  1
  Co  Co12  1  0.000000  0.499999  0.836443  1
  Co  Co13  1  0.500000  0.500001  0.163626  1
  Co  Co14  1  0.499998  0.000004  0.386954  1
  Co  Co15  1  0.500001  0.000001  0.163590  1
  Co  Co16  1  0.499998  0.500003  0.613082  1
  Co  Co17  1  0.999998  0.500004  0.386956  1
  B  B18  1  0.666725  0.333328  0.728983  1
  B  B19  1  0.333274  0.666672  0.728983  1
  B  B20  1  0.333315  0.666698  0.271030  1
  B  B21  1  0.666694  0.333397  0.500003  1
  B  B22  1  0.666684  0.333308  0.271030  1
  B  B23  1  0.333302  0.666609  0.500003  1
