# generated using pymatgen
data_Tb5TlBi2S
_symmetry_space_group_name_H-M   'P 1'
_cell_length_a   9.23419200
_cell_length_b   9.23419232
_cell_length_c   6.60647900
_cell_angle_alpha   90.00000000
_cell_angle_beta   90.00000000
_cell_angle_gamma   120.07551403
_symmetry_Int_Tables_number   1
_chemical_formula_structural   Tb5TlBi2S
_chemical_formula_sum   'Tb10 Tl2 Bi4 S2'
_cell_volume   487.49204752
_cell_formula_units_Z   2
loop_
 _symmetry_equiv_pos_site_id
 _symmetry_equiv_pos_as_xyz
  1  'x, y, z'
loop_
 _atom_site_type_symbol
 _atom_site_label
 _atom_site_symmetry_multiplicity
 _atom_site_fract_x
 _atom_site_fract_y
 _atom_site_fract_z
 _atom_site_occupancy
  Tb  Tb0  1  0.242392  0.242392  0.750000  1
  Tb  Tb1  1  0.005298  0.757174  0.750000  1
  Tb  Tb2  1  0.243255  0.000059  0.250000  1
  Tb  Tb3  1  0.757174  0.005298  0.750000  1
  Tb  Tb4  1  0.330657  0.667905  0.502052  1
  Tb  Tb5  1  0.667905  0.330657  0.502052  1
  Tb  Tb6  1  0.756983  0.756983  0.250000  1
  Tb  Tb7  1  0.000059  0.243255  0.250000  1
  Tb  Tb8  1  0.330657  0.667905  0.997948  1
  Tb  Tb9  1  0.667905  0.330657  0.997948  1
  Tl  Tl10  1  0.000174  0.395516  0.750000  1
  Tl  Tl11  1  0.395516  0.000174  0.750000  1
  Bi  Bi12  1  0.602853  0.999774  0.250000  1
  Bi  Bi13  1  0.999774  0.602853  0.250000  1
  Bi  Bi14  1  0.606541  0.606541  0.750000  1
  Bi  Bi15  1  0.394865  0.394865  0.250000  1
  S  S16  1  0.998998  0.998998  0.000567  1
  S  S17  1  0.998998  0.998998  0.499433  1
