# generated using pymatgen
data_Y6Sn6PtRh5
_symmetry_space_group_name_H-M   'P 1'
_cell_length_a   7.56527700
_cell_length_b   7.56527682
_cell_length_c   7.81381100
_cell_angle_alpha   90.00000000
_cell_angle_beta   90.00000000
_cell_angle_gamma   120.00001389
_symmetry_Int_Tables_number   1
_chemical_formula_structural   Y6Sn6PtRh5
_chemical_formula_sum   'Y6 Sn6 Pt1 Rh5'
_cell_volume   387.29610698
_cell_formula_units_Z   1
loop_
 _symmetry_equiv_pos_site_id
 _symmetry_equiv_pos_as_xyz
  1  'x, y, z'
loop_
 _atom_site_type_symbol
 _atom_site_label
 _atom_site_symmetry_multiplicity
 _atom_site_fract_x
 _atom_site_fract_y
 _atom_site_fract_z
 _atom_site_occupancy
  Y  Y0  1  0.404405  0.997972  0.249416  1
  Y  Y1  1  0.593568  0.595595  0.249416  1
  Y  Y2  1  0.002028  0.406432  0.249416  1
  Y  Y3  1  0.404248  0.997671  0.750558  1
  Y  Y4  1  0.593423  0.595752  0.750558  1
  Y  Y5  1  0.002329  0.406577  0.750558  1
  Sn  Sn6  1  0.261454  0.259882  0.999987  1
  Sn  Sn7  1  0.998429  0.738546  0.999987  1
  Sn  Sn8  1  0.004916  0.745126  0.500000  1
  Sn  Sn9  1  0.740209  0.995084  0.500000  1
  Sn  Sn10  1  0.254874  0.259791  0.500000  1
  Sn  Sn11  1  0.740118  0.001571  0.999987  1
  Pt  Pt12  1  0.666667  0.333333  0.500380  1
  Rh  Rh13  1  0.000000  0.000000  0.750515  1
  Rh  Rh14  1  0.000000  0.000000  0.249438  1
  Rh  Rh15  1  0.666667  0.333333  0.999634  1
  Rh  Rh16  1  0.333333  0.666667  0.499761  1
  Rh  Rh17  1  0.333333  0.666667  0.000385  1
