# generated using pymatgen
data_MgSi4(IrRh2)2
_symmetry_space_group_name_H-M   'P 1'
_cell_length_a   7.03837654
_cell_length_b   7.03837652
_cell_length_c   3.72316700
_cell_angle_alpha   90.00000000
_cell_angle_beta   90.00000000
_cell_angle_gamma   119.88505309
_symmetry_Int_Tables_number   1
_chemical_formula_structural   MgSi4(IrRh2)2
_chemical_formula_sum   'Mg1 Si4 Ir2 Rh4'
_cell_volume   159.91529805
_cell_formula_units_Z   1
loop_
 _symmetry_equiv_pos_site_id
 _symmetry_equiv_pos_as_xyz
  1  'x, y, z'
loop_
 _atom_site_type_symbol
 _atom_site_label
 _atom_site_symmetry_multiplicity
 _atom_site_fract_x
 _atom_site_fract_y
 _atom_site_fract_z
 _atom_site_occupancy
  Mg  Mg0  1  0.000074  0.999926  0.000000  1
  Si  Si1  1  0.801018  0.198982  0.500000  1
  Si  Si2  1  0.397199  0.198358  0.500000  1
  Si  Si3  1  0.333939  0.666061  0.000000  1
  Si  Si4  1  0.801642  0.602801  0.500000  1
  Ir  Ir5  1  0.532210  0.066305  0.000000  1
  Ir  Ir6  1  0.933695  0.467790  0.000000  1
  Rh  Rh7  1  0.191647  0.808353  0.500000  1
  Rh  Rh8  1  0.191507  0.382599  0.500000  1
  Rh  Rh9  1  0.533001  0.466999  0.000000  1
  Rh  Rh10  1  0.617401  0.808493  0.500000  1
