# generated using pymatgen
data_Dy2Lu2BBr6
_symmetry_space_group_name_H-M   'P 1'
_cell_length_a   3.91026100
_cell_length_b   13.03444600
_cell_length_c   13.51224400
_cell_angle_alpha   90.00000000
_cell_angle_beta   90.00000000
_cell_angle_gamma   90.00000000
_symmetry_Int_Tables_number   1
_chemical_formula_structural   Dy2Lu2BBr6
_chemical_formula_sum   'Dy4 Lu4 B2 Br12'
_cell_volume   688.69321222
_cell_formula_units_Z   2
loop_
 _symmetry_equiv_pos_site_id
 _symmetry_equiv_pos_as_xyz
  1  'x, y, z'
loop_
 _atom_site_type_symbol
 _atom_site_label
 _atom_site_symmetry_multiplicity
 _atom_site_fract_x
 _atom_site_fract_y
 _atom_site_fract_z
 _atom_site_occupancy
  Dy  Dy0  1  0.500000  0.122982  0.855525  1
  Dy  Dy1  1  0.500000  0.877018  0.144475  1
  Dy  Dy2  1  0.500000  0.622982  0.644475  1
  Dy  Dy3  1  0.500000  0.377018  0.355525  1
  Lu  Lu4  1  0.000000  0.099244  0.078782  1
  Lu  Lu5  1  0.000000  0.900756  0.921218  1
  Lu  Lu6  1  0.000000  0.599244  0.421218  1
  Lu  Lu7  1  0.000000  0.400756  0.578782  1
  B  B8  1  0.500000  0.000000  0.000000  1
  B  B9  1  0.500000  0.500000  0.500000  1
  Br  Br10  1  0.500000  0.270307  0.679890  1
  Br  Br11  1  0.500000  0.729693  0.320110  1
  Br  Br12  1  0.500000  0.770307  0.820110  1
  Br  Br13  1  0.500000  0.229693  0.179890  1
  Br  Br14  1  0.000000  0.262104  0.933309  1
  Br  Br15  1  0.000000  0.737896  0.066691  1
  Br  Br16  1  0.000000  0.482927  0.238713  1
  Br  Br17  1  0.000000  0.517073  0.761287  1
  Br  Br18  1  0.000000  0.982927  0.261287  1
  Br  Br19  1  0.000000  0.017073  0.738713  1
  Br  Br20  1  0.000000  0.237896  0.433309  1
  Br  Br21  1  0.000000  0.762104  0.566691  1
