# generated using pymatgen
data_BaLiNdS3
_symmetry_space_group_name_H-M   'P 1'
_cell_length_a   7.15040364
_cell_length_b   7.15040311
_cell_length_c   10.68227400
_cell_angle_alpha   90.00000000
_cell_angle_beta   90.00000000
_cell_angle_gamma   145.99835248
_symmetry_Int_Tables_number   1
_chemical_formula_structural   BaLiNdS3
_chemical_formula_sum   'Ba2 Li2 Nd2 S6'
_cell_volume   305.42526760
_cell_formula_units_Z   2
loop_
 _symmetry_equiv_pos_site_id
 _symmetry_equiv_pos_as_xyz
  1  'x, y, z'
loop_
 _atom_site_type_symbol
 _atom_site_label
 _atom_site_symmetry_multiplicity
 _atom_site_fract_x
 _atom_site_fract_y
 _atom_site_fract_z
 _atom_site_occupancy
  Ba  Ba0  1  0.752238  0.247761  0.250000  1
  Ba  Ba1  1  0.247761  0.752238  0.750000  1
  Li  Li2  1  0.026011  0.973987  0.250000  1
  Li  Li3  1  0.973987  0.026011  0.750000  1
  Nd  Nd4  1  0.499999  0.499999  0.000000  1
  Nd  Nd5  1  0.499999  0.499999  0.500000  1
  S  S6  1  0.131314  0.868685  0.069357  1
  S  S7  1  0.429616  0.570382  0.250000  1
  S  S8  1  0.131314  0.868685  0.430643  1
  S  S9  1  0.868685  0.131314  0.569358  1
  S  S10  1  0.570382  0.429616  0.750000  1
  S  S11  1  0.868685  0.131314  0.930643  1
