# generated using pymatgen
data_YHoAl3(Ga2Ir)3
_symmetry_space_group_name_H-M   'P 1'
_cell_length_a   7.55801360
_cell_length_b   7.55935421
_cell_length_c   9.53705698
_cell_angle_alpha   90.11988312
_cell_angle_beta   89.95096159
_cell_angle_gamma   119.69581011
_symmetry_Int_Tables_number   1
_chemical_formula_structural   YHoAl3(Ga2Ir)3
_chemical_formula_sum   'Y2 Ho2 Al6 Ga12 Ir6'
_cell_volume   473.32503601
_cell_formula_units_Z   2
loop_
 _symmetry_equiv_pos_site_id
 _symmetry_equiv_pos_as_xyz
  1  'x, y, z'
loop_
 _atom_site_type_symbol
 _atom_site_label
 _atom_site_symmetry_multiplicity
 _atom_site_fract_x
 _atom_site_fract_y
 _atom_site_fract_z
 _atom_site_occupancy
  Y  Y0  1  0.998782  0.667369  0.250923  1
  Y  Y1  1  0.001218  0.332631  0.749077  1
  Ho  Ho2  1  0.672752  0.001134  0.255037  1
  Ho  Ho3  1  0.327248  0.998866  0.744963  1
  Al  Al4  1  0.663686  0.997704  0.928748  1
  Al  Al5  1  0.336314  0.002296  0.071252  1
  Al  Al6  1  0.332444  0.332262  0.552444  1
  Al  Al7  1  0.667556  0.667738  0.447556  1
  Al  Al8  1  0.668013  0.667750  0.054163  1
  Al  Al9  1  0.331987  0.332250  0.945837  1
  Ga  Ga10  1  0.129180  0.125869  0.249255  1
  Ga  Ga11  1  0.870820  0.874131  0.750745  1
  Ga  Ga12  1  0.998906  0.333323  0.078441  1
  Ga  Ga13  1  0.001094  0.666677  0.921559  1
  Ga  Ga14  1  0.997779  0.664433  0.579786  1
  Ga  Ga15  1  0.335681  0.000160  0.418319  1
  Ga  Ga16  1  0.002221  0.335567  0.420214  1
  Ga  Ga17  1  0.664319  0.999840  0.581681  1
  Ga  Ga18  1  0.347018  0.551615  0.250000  1
  Ga  Ga19  1  0.652982  0.448385  0.750000  1
  Ga  Ga20  1  0.547771  0.343606  0.248938  1
  Ga  Ga21  1  0.452229  0.656394  0.751062  1
  Ir  Ir22  1  0.667449  0.326005  0.999227  1
  Ir  Ir23  1  0.332551  0.673995  0.000773  1
  Ir  Ir24  1  0.330407  0.669642  0.500914  1
  Ir  Ir25  1  0.669593  0.330358  0.499086  1
  Ir  Ir26  1  0.000000  0.000000  0.000000  1
  Ir  Ir27  1  0.000000  0.000000  0.500000  1
