# generated using pymatgen
data_CeTmZr3Si4
_symmetry_space_group_name_H-M   'P 1'
_cell_length_a   7.35031338
_cell_length_b   7.14089496
_cell_length_c   7.31955013
_cell_angle_alpha   71.85977945
_cell_angle_beta   89.71568722
_cell_angle_gamma   90.27855238
_symmetry_Int_Tables_number   1
_chemical_formula_structural   CeTmZr3Si4
_chemical_formula_sum   'Ce2 Tm2 Zr6 Si8'
_cell_volume   365.07930786
_cell_formula_units_Z   2
loop_
 _symmetry_equiv_pos_site_id
 _symmetry_equiv_pos_as_xyz
  1  'x, y, z'
loop_
 _atom_site_type_symbol
 _atom_site_label
 _atom_site_symmetry_multiplicity
 _atom_site_fract_x
 _atom_site_fract_y
 _atom_site_fract_z
 _atom_site_occupancy
  Ce  Ce0  1  0.169438  0.573920  0.312450  1
  Ce  Ce1  1  0.830562  0.426080  0.687550  1
  Tm  Tm2  1  0.673237  0.927827  0.693021  1
  Tm  Tm3  1  0.326763  0.072173  0.306979  1
  Zr  Zr4  1  0.677101  0.750629  0.250136  1
  Zr  Zr5  1  0.322899  0.249371  0.749864  1
  Zr  Zr6  1  0.180628  0.750447  0.752694  1
  Zr  Zr7  1  0.819372  0.249553  0.247306  1
  Zr  Zr8  1  0.000000  0.000000  0.000000  1
  Zr  Zr9  1  0.500000  0.500000  0.000000  1
  Si  Si10  1  0.967402  0.874333  0.417754  1
  Si  Si11  1  0.032598  0.125667  0.582246  1
  Si  Si12  1  0.469983  0.630624  0.583780  1
  Si  Si13  1  0.530017  0.369376  0.416220  1
  Si  Si14  1  0.875434  0.628545  0.991314  1
  Si  Si15  1  0.124566  0.371455  0.008686  1
  Si  Si16  1  0.378029  0.873347  0.008718  1
  Si  Si17  1  0.621971  0.126653  0.991282  1
