# generated using pymatgen
data_Tb3Dy13Tl5InCo2
_symmetry_space_group_name_H-M   'P 1'
_cell_length_a   10.34711008
_cell_length_b   10.34710957
_cell_length_c   7.11075401
_cell_angle_alpha   89.99173650
_cell_angle_beta   90.00826246
_cell_angle_gamma   119.96496040
_symmetry_Int_Tables_number   1
_chemical_formula_structural   Tb3Dy13Tl5InCo2
_chemical_formula_sum   'Tb3 Dy13 Tl5 In1 Co2'
_cell_volume   659.53467187
_cell_formula_units_Z   1
loop_
 _symmetry_equiv_pos_site_id
 _symmetry_equiv_pos_as_xyz
  1  'x, y, z'
loop_
 _atom_site_type_symbol
 _atom_site_label
 _atom_site_symmetry_multiplicity
 _atom_site_fract_x
 _atom_site_fract_y
 _atom_site_fract_z
 _atom_site_occupancy
  Tb  Tb0  1  0.535935  0.073670  0.790926  1
  Tb  Tb1  1  0.926330  0.464065  0.790926  1
  Tb  Tb2  1  0.537314  0.462686  0.792194  1
  Dy  Dy3  1  0.462181  0.924138  0.293472  1
  Dy  Dy4  1  0.075862  0.537819  0.293472  1
  Dy  Dy5  1  0.461876  0.538124  0.292962  1
  Dy  Dy6  1  0.821422  0.643699  0.493339  1
  Dy  Dy7  1  0.356301  0.178578  0.493339  1
  Dy  Dy8  1  0.822072  0.177928  0.493709  1
  Dy  Dy9  1  0.177667  0.355997  0.995363  1
  Dy  Dy10  1  0.644003  0.822333  0.995363  1
  Dy  Dy11  1  0.178018  0.821982  0.997497  1
  Dy  Dy12  1  0.666802  0.333198  0.184413  1
  Dy  Dy13  1  0.333099  0.666901  0.684938  1
  Dy  Dy14  1  0.000857  0.999143  0.776442  1
  Dy  Dy15  1  0.000761  0.999238  0.278321  1
  Tl  Tl16  1  0.836914  0.674020  0.043477  1
  Tl  Tl17  1  0.325980  0.163086  0.043476  1
  Tl  Tl18  1  0.836970  0.163030  0.043305  1
  Tl  Tl19  1  0.163069  0.326326  0.543857  1
  Tl  Tl20  1  0.673674  0.836931  0.543857  1
  In  In21  1  0.162819  0.837181  0.542499  1
  Co  Co22  1  0.666650  0.333350  0.563462  1
  Co  Co23  1  0.333426  0.666574  0.065299  1
