# generated using pymatgen
data_YbInCu3Ir
_symmetry_space_group_name_H-M   'P 1'
_cell_length_a   5.22617802
_cell_length_b   5.22617877
_cell_length_c   5.22618061
_cell_angle_alpha   57.88557893
_cell_angle_beta   57.88557777
_cell_angle_gamma   57.88557117
_symmetry_Int_Tables_number   1
_chemical_formula_structural   YbInCu3Ir
_chemical_formula_sum   'Yb1 In1 Cu3 Ir1'
_cell_volume   96.03553328
_cell_formula_units_Z   1
loop_
 _symmetry_equiv_pos_site_id
 _symmetry_equiv_pos_as_xyz
  1  'x, y, z'
loop_
 _atom_site_type_symbol
 _atom_site_label
 _atom_site_symmetry_multiplicity
 _atom_site_fract_x
 _atom_site_fract_y
 _atom_site_fract_z
 _atom_site_occupancy
  Yb  Yb0  1  0.248784  0.248784  0.248784  1
  In  In1  1  0.994888  0.994888  0.994888  1
  Cu  Cu2  1  0.624653  0.624653  0.128795  1
  Cu  Cu3  1  0.624653  0.128795  0.624653  1
  Cu  Cu4  1  0.128795  0.624653  0.624653  1
  Ir  Ir5  1  0.628227  0.628227  0.628227  1
