# generated using pymatgen
data_Hf16Ir5Pd3N4
_symmetry_space_group_name_H-M   'P 1'
_cell_length_a   8.73328583
_cell_length_b   8.73328462
_cell_length_c   8.73328510
_cell_angle_alpha   60.07564974
_cell_angle_beta   60.07565759
_cell_angle_gamma   60.07565779
_symmetry_Int_Tables_number   1
_chemical_formula_structural   Hf16Ir5Pd3N4
_chemical_formula_sum   'Hf16 Ir5 Pd3 N4'
_cell_volume   471.80427954
_cell_formula_units_Z   1
loop_
 _symmetry_equiv_pos_site_id
 _symmetry_equiv_pos_as_xyz
  1  'x, y, z'
loop_
 _atom_site_type_symbol
 _atom_site_label
 _atom_site_symmetry_multiplicity
 _atom_site_fract_x
 _atom_site_fract_y
 _atom_site_fract_z
 _atom_site_occupancy
  Hf  Hf0  1  0.127685  0.622990  0.622990  1
  Hf  Hf1  1  0.622990  0.127685  0.622990  1
  Hf  Hf2  1  0.622990  0.622990  0.127685  1
  Hf  Hf3  1  0.627271  0.627271  0.627271  1
  Hf  Hf4  1  0.818712  0.818712  0.181323  1
  Hf  Hf5  1  0.182247  0.182247  0.817194  1
  Hf  Hf6  1  0.818712  0.181323  0.818712  1
  Hf  Hf7  1  0.182247  0.817194  0.182247  1
  Hf  Hf8  1  0.181323  0.818712  0.818712  1
  Hf  Hf9  1  0.817194  0.182247  0.182247  1
  Hf  Hf10  1  0.433561  0.433561  0.068864  1
  Hf  Hf11  1  0.064693  0.064693  0.434796  1
  Hf  Hf12  1  0.433561  0.068864  0.433561  1
  Hf  Hf13  1  0.064693  0.434796  0.064693  1
  Hf  Hf14  1  0.068864  0.433561  0.433561  1
  Hf  Hf15  1  0.434796  0.064693  0.064693  1
  Ir  Ir16  1  0.404592  0.404592  0.404592  1
  Ir  Ir17  1  0.479801  0.841915  0.841915  1
  Ir  Ir18  1  0.841915  0.479801  0.841915  1
  Ir  Ir19  1  0.841915  0.841915  0.479801  1
  Ir  Ir20  1  0.839076  0.839076  0.839076  1
  Pd  Pd21  1  0.773181  0.409886  0.409886  1
  Pd  Pd22  1  0.409886  0.773181  0.409886  1
  Pd  Pd23  1  0.409886  0.409886  0.773181  1
  N  N24  1  0.625302  0.123978  0.123978  1
  N  N25  1  0.123978  0.625302  0.123978  1
  N  N26  1  0.123978  0.123978  0.625302  1
  N  N27  1  0.124954  0.124954  0.124954  1
