# generated using pymatgen
data_Dy2Er4Zn23P
_symmetry_space_group_name_H-M   'P 1'
_cell_length_a   9.02190561
_cell_length_b   9.02192832
_cell_length_c   9.01977300
_cell_angle_alpha   60.00770804
_cell_angle_beta   60.00784478
_cell_angle_gamma   59.98718134
_symmetry_Int_Tables_number   1
_chemical_formula_structural   Dy2Er4Zn23P
_chemical_formula_sum   'Dy2 Er4 Zn23 P1'
_cell_volume   519.14323308
_cell_formula_units_Z   1
loop_
 _symmetry_equiv_pos_site_id
 _symmetry_equiv_pos_as_xyz
  1  'x, y, z'
loop_
 _atom_site_type_symbol
 _atom_site_label
 _atom_site_symmetry_multiplicity
 _atom_site_fract_x
 _atom_site_fract_y
 _atom_site_fract_z
 _atom_site_occupancy
  Dy  Dy0  1  0.711652  0.288344  0.288128  1
  Dy  Dy1  1  0.711658  0.288342  0.711875  1
  Er  Er2  1  0.710833  0.711301  0.288931  1
  Er  Er3  1  0.288205  0.711791  0.711600  1
  Er  Er4  1  0.288207  0.711790  0.288404  1
  Er  Er5  1  0.288696  0.289173  0.711068  1
  Zn  Zn6  1  0.624541  0.123832  0.125815  1
  Zn  Zn7  1  0.124595  0.625861  0.124771  1
  Zn  Zn8  1  0.126158  0.124381  0.625238  1
  Zn  Zn9  1  0.126151  0.124384  0.124225  1
  Zn  Zn10  1  0.374139  0.875409  0.875224  1
  Zn  Zn11  1  0.876168  0.375459  0.874187  1
  Zn  Zn12  1  0.875616  0.873845  0.374761  1
  Zn  Zn13  1  0.875617  0.873843  0.875777  1
  Zn  Zn14  1  0.499524  0.999826  0.000467  1
  Zn  Zn15  1  0.499525  0.999827  0.500180  1
  Zn  Zn16  1  0.499323  0.500676  0.000001  1
  Zn  Zn17  1  0.000173  0.500475  0.499819  1
  Zn  Zn18  1  0.000173  0.500477  0.999532  1
  Zn  Zn19  1  0.000649  0.999352  0.500000  1
  Zn  Zn20  1  0.999759  0.000244  0.999996  1
  Zn  Zn21  1  0.012873  0.329394  0.328868  1
  Zn  Zn22  1  0.329541  0.010926  0.329764  1
  Zn  Zn23  1  0.328956  0.329688  0.011910  1
  Zn  Zn24  1  0.328953  0.329692  0.329449  1
  Zn  Zn25  1  0.989076  0.670458  0.670232  1
  Zn  Zn26  1  0.670606  0.987127  0.671133  1
  Zn  Zn27  1  0.670308  0.671045  0.988096  1
  Zn  Zn28  1  0.670315  0.671042  0.670553  1
  P  P29  1  0.498009  0.501995  0.499999  1
