# generated using pymatgen
data_Li2MnAlH6
_symmetry_space_group_name_H-M   'P 1'
_cell_length_a   4.88465524
_cell_length_b   4.48731014
_cell_length_c   4.85487296
_cell_angle_alpha   90.24199336
_cell_angle_beta   59.62433300
_cell_angle_gamma   90.78667859
_symmetry_Int_Tables_number   1
_chemical_formula_structural   Li2MnAlH6
_chemical_formula_sum   'Li2 Mn1 Al1 H6'
_cell_volume   91.79709196
_cell_formula_units_Z   1
loop_
 _symmetry_equiv_pos_site_id
 _symmetry_equiv_pos_as_xyz
  1  'x, y, z'
loop_
 _atom_site_type_symbol
 _atom_site_label
 _atom_site_symmetry_multiplicity
 _atom_site_fract_x
 _atom_site_fract_y
 _atom_site_fract_z
 _atom_site_occupancy
  Li  Li0  1  0.053606  0.737051  0.352831  1
  Li  Li1  1  0.721061  0.789685  0.018189  1
  Mn  Mn2  1  0.387547  0.762692  0.685960  1
  Al  Al3  1  0.387827  0.262841  0.685581  1
  H  H4  1  0.675211  0.976801  0.664731  1
  H  H5  1  0.118748  0.969470  0.976429  1
  H  H6  1  0.371002  0.970331  0.415436  1
  H  H7  1  0.099391  0.548699  0.708099  1
  H  H8  1  0.656659  0.556648  0.395180  1
  H  H9  1  0.403656  0.555711  0.956919  1
