# generated using pymatgen
data_YTm2(Al3Os)4
_symmetry_space_group_name_H-M   'P 1'
_cell_length_a   8.80672900
_cell_length_b   8.80394509
_cell_length_c   9.56613500
_cell_angle_alpha   90.00000000
_cell_angle_beta   90.00000000
_cell_angle_gamma   120.01046450
_symmetry_Int_Tables_number   1
_chemical_formula_structural   YTm2(Al3Os)4
_chemical_formula_sum   'Y2 Tm4 Al24 Os8'
_cell_volume   642.26357170
_cell_formula_units_Z   2
loop_
 _symmetry_equiv_pos_site_id
 _symmetry_equiv_pos_as_xyz
  1  'x, y, z'
loop_
 _atom_site_type_symbol
 _atom_site_label
 _atom_site_symmetry_multiplicity
 _atom_site_fract_x
 _atom_site_fract_y
 _atom_site_fract_z
 _atom_site_occupancy
  Y  Y0  1  0.193170  0.386340  0.250000  1
  Y  Y1  1  0.806830  0.613660  0.750000  1
  Tm  Tm2  1  0.610777  0.805657  0.250000  1
  Tm  Tm3  1  0.389223  0.194343  0.750000  1
  Tm  Tm4  1  0.194880  0.805657  0.250000  1
  Tm  Tm5  1  0.805120  0.194343  0.750000  1
  Al  Al6  1  0.333437  0.666874  0.017819  1
  Al  Al7  1  0.666563  0.333126  0.982181  1
  Al  Al8  1  0.666563  0.333126  0.517819  1
  Al  Al9  1  0.333437  0.666874  0.482181  1
  Al  Al10  1  0.163575  0.327149  0.576022  1
  Al  Al11  1  0.836425  0.672851  0.423978  1
  Al  Al12  1  0.672570  0.836277  0.574475  1
  Al  Al13  1  0.836425  0.672851  0.076022  1
  Al  Al14  1  0.327430  0.163723  0.425525  1
  Al  Al15  1  0.163575  0.327149  0.923978  1
  Al  Al16  1  0.163707  0.836277  0.574475  1
  Al  Al17  1  0.327430  0.163723  0.074475  1
  Al  Al18  1  0.836293  0.163723  0.425525  1
  Al  Al19  1  0.672570  0.836277  0.925525  1
  Al  Al20  1  0.836293  0.163723  0.074475  1
  Al  Al21  1  0.163707  0.836277  0.925525  1
  Al  Al22  1  0.561132  0.122264  0.250000  1
  Al  Al23  1  0.438868  0.877736  0.750000  1
  Al  Al24  1  0.877304  0.439331  0.250000  1
  Al  Al25  1  0.122696  0.560669  0.750000  1
  Al  Al26  1  0.562027  0.439331  0.250000  1
  Al  Al27  1  0.437973  0.560669  0.750000  1
  Al  Al28  1  0.998979  0.997958  0.250000  1
  Al  Al29  1  0.001021  0.002042  0.750000  1
  Os  Os30  1  0.500000  0.000000  0.000000  1
  Os  Os31  1  0.000000  0.500000  0.000000  1
  Os  Os32  1  0.500000  0.000000  0.500000  1
  Os  Os33  1  0.500000  0.500000  0.000000  1
  Os  Os34  1  0.000000  0.500000  0.500000  1
  Os  Os35  1  0.500000  0.500000  0.500000  1
  Os  Os36  1  0.000000  0.000000  0.000000  1
  Os  Os37  1  0.000000  0.000000  0.500000  1
