# generated using pymatgen
data_Nb3(InSe3)2
_symmetry_space_group_name_H-M   'P 1'
_cell_length_a   9.06093600
_cell_length_b   9.06093614
_cell_length_c   9.06093515
_cell_angle_alpha   39.41689630
_cell_angle_beta   39.41689734
_cell_angle_gamma   39.41689227
_symmetry_Int_Tables_number   1
_chemical_formula_structural   Nb3(InSe3)2
_chemical_formula_sum   'Nb3 In2 Se6'
_cell_volume   269.93787869
_cell_formula_units_Z   1
loop_
 _symmetry_equiv_pos_site_id
 _symmetry_equiv_pos_as_xyz
  1  'x, y, z'
loop_
 _atom_site_type_symbol
 _atom_site_label
 _atom_site_symmetry_multiplicity
 _atom_site_fract_x
 _atom_site_fract_y
 _atom_site_fract_z
 _atom_site_occupancy
  Nb  Nb0  1  0.333199  0.333199  0.333199  1
  Nb  Nb1  1  0.666801  0.666801  0.666801  1
  Nb  Nb2  1  0.000000  0.000000  0.000000  1
  In  In3  1  0.166622  0.166622  0.166622  1
  In  In4  1  0.833378  0.833378  0.833378  1
  Se  Se5  1  0.399823  0.731923  0.066986  1
  Se  Se6  1  0.066986  0.399823  0.731923  1
  Se  Se7  1  0.731923  0.066986  0.399823  1
  Se  Se8  1  0.268077  0.600177  0.933014  1
  Se  Se9  1  0.933014  0.268077  0.600177  1
  Se  Se10  1  0.600177  0.933014  0.268077  1
