# generated using pymatgen
data_NdNpB6Ru
_symmetry_space_group_name_H-M   'P 1'
_cell_length_a   3.65606500
_cell_length_b   9.40371500
_cell_length_c   11.49010800
_cell_angle_alpha   90.00000000
_cell_angle_beta   90.00000000
_cell_angle_gamma   90.00000000
_symmetry_Int_Tables_number   1
_chemical_formula_structural   NdNpB6Ru
_chemical_formula_sum   'Nd4 Np4 B24 Ru4'
_cell_volume   395.03672991
_cell_formula_units_Z   4
loop_
 _symmetry_equiv_pos_site_id
 _symmetry_equiv_pos_as_xyz
  1  'x, y, z'
loop_
 _atom_site_type_symbol
 _atom_site_label
 _atom_site_symmetry_multiplicity
 _atom_site_fract_x
 _atom_site_fract_y
 _atom_site_fract_z
 _atom_site_occupancy
  Nd  Nd0  1  0.000000  0.338913  0.407013  1
  Nd  Nd1  1  0.000000  0.661087  0.592987  1
  Nd  Nd2  1  0.000000  0.838913  0.092987  1
  Nd  Nd3  1  0.000000  0.161087  0.907013  1
  Np  Np4  1  0.000000  0.959719  0.401461  1
  Np  Np5  1  0.000000  0.040281  0.598539  1
  Np  Np6  1  0.000000  0.459719  0.098539  1
  Np  Np7  1  0.000000  0.540281  0.901461  1
  B  B8  1  0.500000  0.556023  0.427582  1
  B  B9  1  0.500000  0.443977  0.572418  1
  B  B10  1  0.500000  0.056023  0.072418  1
  B  B11  1  0.500000  0.943977  0.927582  1
  B  B12  1  0.500000  0.746130  0.421496  1
  B  B13  1  0.500000  0.253870  0.578504  1
  B  B14  1  0.500000  0.246130  0.078504  1
  B  B15  1  0.500000  0.753870  0.921496  1
  B  B16  1  0.500000  0.804501  0.275289  1
  B  B17  1  0.500000  0.195499  0.724711  1
  B  B18  1  0.500000  0.304501  0.224711  1
  B  B19  1  0.500000  0.695499  0.775289  1
  B  B20  1  0.500000  0.644809  0.187893  1
  B  B21  1  0.500000  0.355191  0.812107  1
  B  B22  1  0.500000  0.144809  0.312107  1
  B  B23  1  0.500000  0.855191  0.687893  1
  B  B24  1  0.500000  0.991753  0.221650  1
  B  B25  1  0.500000  0.008247  0.778350  1
  B  B26  1  0.500000  0.491753  0.278350  1
  B  B27  1  0.500000  0.508247  0.721650  1
  B  B28  1  0.500000  0.639974  0.038466  1
  B  B29  1  0.500000  0.360026  0.961534  1
  B  B30  1  0.500000  0.139974  0.461534  1
  B  B31  1  0.500000  0.860026  0.538466  1
  Ru  Ru32  1  0.000000  0.648132  0.318119  1
  Ru  Ru33  1  0.000000  0.351868  0.681881  1
  Ru  Ru34  1  0.000000  0.148132  0.181881  1
  Ru  Ru35  1  0.000000  0.851868  0.818119  1
