# generated using pymatgen
data_Ca3TmIr8
_symmetry_space_group_name_H-M   'P 1'
_cell_length_a   5.35087400
_cell_length_b   5.35087552
_cell_length_c   8.73044800
_cell_angle_alpha   90.00000000
_cell_angle_beta   90.00000000
_cell_angle_gamma   120.00000294
_symmetry_Int_Tables_number   1
_chemical_formula_structural   Ca3TmIr8
_chemical_formula_sum   'Ca3 Tm1 Ir8'
_cell_volume   216.47947281
_cell_formula_units_Z   1
loop_
 _symmetry_equiv_pos_site_id
 _symmetry_equiv_pos_as_xyz
  1  'x, y, z'
loop_
 _atom_site_type_symbol
 _atom_site_label
 _atom_site_symmetry_multiplicity
 _atom_site_fract_x
 _atom_site_fract_y
 _atom_site_fract_z
 _atom_site_occupancy
  Ca  Ca0  1  0.333334  0.666668  0.071513  1
  Ca  Ca1  1  0.333334  0.666668  0.431732  1
  Ca  Ca2  1  0.666667  0.333333  0.563579  1
  Tm  Tm3  1  0.666667  0.333333  0.930986  1
  Ir  Ir4  1  0.000000  0.000000  0.000588  1
  Ir  Ir5  1  0.341103  0.170552  0.247963  1
  Ir  Ir6  1  0.829448  0.170552  0.247963  1
  Ir  Ir7  1  0.829448  0.658895  0.247963  1
  Ir  Ir8  1  0.000000  0.000000  0.500070  1
  Ir  Ir9  1  0.170559  0.341117  0.752547  1
  Ir  Ir10  1  0.170560  0.829442  0.752547  1
  Ir  Ir11  1  0.658883  0.829442  0.752547  1
