# generated using pymatgen
data_Rb2TaAuSe4
_symmetry_space_group_name_H-M   'P 1'
_cell_length_a   14.53689898
_cell_length_b   12.95125304
_cell_length_c   7.85089618
_cell_angle_alpha   84.90771005
_cell_angle_beta   62.54910665
_cell_angle_gamma   32.54318680
_symmetry_Int_Tables_number   1
_chemical_formula_structural   Rb2TaAuSe4
_chemical_formula_sum   'Rb4 Ta2 Au2 Se8'
_cell_volume   549.03157192
_cell_formula_units_Z   2
loop_
 _symmetry_equiv_pos_site_id
 _symmetry_equiv_pos_as_xyz
  1  'x, y, z'
loop_
 _atom_site_type_symbol
 _atom_site_label
 _atom_site_symmetry_multiplicity
 _atom_site_fract_x
 _atom_site_fract_y
 _atom_site_fract_z
 _atom_site_occupancy
  Rb  Rb0  1  0.429433  0.429433  0.070567  1
  Rb  Rb1  1  0.820567  0.820567  0.179433  1
  Rb  Rb2  1  0.070567  0.070567  0.429433  1
  Rb  Rb3  1  0.179433  0.179433  0.820567  1
  Ta  Ta4  1  0.000000  0.000000  0.000000  1
  Ta  Ta5  1  0.250000  0.250000  0.250000  1
  Au  Au6  1  0.500000  0.500000  0.500000  1
  Au  Au7  1  0.750000  0.750000  0.750000  1
  Se  Se8  1  0.736001  0.378276  0.062564  1
  Se  Se9  1  0.823157  0.062564  0.378276  1
  Se  Se10  1  0.062564  0.823157  0.736001  1
  Se  Se11  1  0.378276  0.736001  0.823157  1
  Se  Se12  1  0.513999  0.871724  0.187436  1
  Se  Se13  1  0.871724  0.513999  0.426843  1
  Se  Se14  1  0.187436  0.426843  0.513999  1
  Se  Se15  1  0.426843  0.187436  0.871724  1
