# generated using pymatgen
data_BaTi9TcS16
_symmetry_space_group_name_H-M   'P 1'
_cell_length_a   6.76065342
_cell_length_b   9.07295612
_cell_length_c   9.47115485
_cell_angle_alpha   72.04580613
_cell_angle_beta   68.97669255
_cell_angle_gamma   79.01827178
_symmetry_Int_Tables_number   1
_chemical_formula_structural   BaTi9TcS16
_chemical_formula_sum   'Ba1 Ti9 Tc1 S16'
_cell_volume   513.78049064
_cell_formula_units_Z   1
loop_
 _symmetry_equiv_pos_site_id
 _symmetry_equiv_pos_as_xyz
  1  'x, y, z'
loop_
 _atom_site_type_symbol
 _atom_site_label
 _atom_site_symmetry_multiplicity
 _atom_site_fract_x
 _atom_site_fract_y
 _atom_site_fract_z
 _atom_site_occupancy
  Ba  Ba0  1  0.001132  0.000527  0.000411  1
  Ti  Ti1  1  0.320696  0.408005  0.150151  1
  Ti  Ti2  1  0.688375  0.580888  0.861558  1
  Ti  Ti3  1  0.158248  0.579461  0.863117  1
  Ti  Ti4  1  0.504905  0.000078  0.498731  1
  Ti  Ti5  1  0.996012  0.003262  0.498806  1
  Ti  Ti6  1  0.836765  0.677971  0.490449  1
  Ti  Ti7  1  0.334118  0.670331  0.490878  1
  Ti  Ti8  1  0.662318  0.329234  0.510104  1
  Ti  Ti9  1  0.168277  0.325234  0.504890  1
  Tc  Tc10  1  0.827077  0.422762  0.139273  1
  S  S11  1  0.630220  0.828251  0.322924  1
  S  S12  1  0.132934  0.827907  0.321113  1
  S  S13  1  0.869203  0.172824  0.676336  1
  S  S14  1  0.369272  0.172563  0.676249  1
  S  S15  1  0.960637  0.487458  0.328424  1
  S  S16  1  0.468392  0.486937  0.327089  1
  S  S17  1  0.534473  0.516202  0.672790  1
  S  S18  1  0.035749  0.513111  0.671247  1
  S  S19  1  0.331193  0.670130  0.999793  1
  S  S20  1  0.825146  0.689454  0.998825  1
  S  S21  1  0.170562  0.316301  0.000677  1
  S  S22  1  0.672326  0.318359  0.001726  1
  S  S23  1  0.794221  0.161382  0.329841  1
  S  S24  1  0.294682  0.152155  0.332302  1
  S  S25  1  0.706359  0.845092  0.666899  1
  S  S26  1  0.206708  0.844124  0.665399  1
