# generated using pymatgen
data_NaNdPbI6
_symmetry_space_group_name_H-M   'P 1'
_cell_length_a   8.77450650
_cell_length_b   8.77457924
_cell_length_c   8.77448054
_cell_angle_alpha   54.55970895
_cell_angle_beta   54.56031926
_cell_angle_gamma   54.55967600
_symmetry_Int_Tables_number   1
_chemical_formula_structural   NaNdPbI6
_chemical_formula_sum   'Na1 Nd1 Pb1 I6'
_cell_volume   417.12886998
_cell_formula_units_Z   1
loop_
 _symmetry_equiv_pos_site_id
 _symmetry_equiv_pos_as_xyz
  1  'x, y, z'
loop_
 _atom_site_type_symbol
 _atom_site_label
 _atom_site_symmetry_multiplicity
 _atom_site_fract_x
 _atom_site_fract_y
 _atom_site_fract_z
 _atom_site_occupancy
  Na  Na0  1  0.670191  0.670182  0.670187  1
  Nd  Nd1  1  0.999931  0.999938  0.999938  1
  Pb  Pb2  1  0.330296  0.330298  0.330295  1
  I  I3  1  0.241508  0.601326  0.914865  1
  I  I4  1  0.601318  0.914866  0.241514  1
  I  I5  1  0.914875  0.241507  0.601313  1
  I  I6  1  0.755760  0.396822  0.089300  1
  I  I7  1  0.396815  0.089302  0.755768  1
  I  I8  1  0.089307  0.755760  0.396819  1
