# generated using pymatgen
data_Ho4FeB14
_symmetry_space_group_name_H-M   'P 1'
_cell_length_a   7.19636600
_cell_length_b   7.19636600
_cell_length_c   7.53006600
_cell_angle_alpha   90.00000000
_cell_angle_beta   90.00000000
_cell_angle_gamma   90.00000000
_symmetry_Int_Tables_number   1
_chemical_formula_structural   Ho4FeB14
_chemical_formula_sum   'Ho8 Fe2 B28'
_cell_volume   389.96467554
_cell_formula_units_Z   2
loop_
 _symmetry_equiv_pos_site_id
 _symmetry_equiv_pos_as_xyz
  1  'x, y, z'
loop_
 _atom_site_type_symbol
 _atom_site_label
 _atom_site_symmetry_multiplicity
 _atom_site_fract_x
 _atom_site_fract_y
 _atom_site_fract_z
 _atom_site_occupancy
  Ho  Ho0  1  0.191699  0.329719  0.000000  1
  Ho  Ho1  1  0.670281  0.191699  0.000000  1
  Ho  Ho2  1  0.329719  0.808301  0.000000  1
  Ho  Ho3  1  0.691699  0.170281  0.500000  1
  Ho  Ho4  1  0.308301  0.829719  0.500000  1
  Ho  Ho5  1  0.808301  0.670281  0.000000  1
  Ho  Ho6  1  0.829719  0.691699  0.500000  1
  Ho  Ho7  1  0.170281  0.308301  0.500000  1
  Fe  Fe8  1  0.000000  0.000000  0.000000  1
  Fe  Fe9  1  0.500000  0.500000  0.500000  1
  B  B10  1  0.174322  0.038560  0.230612  1
  B  B11  1  0.961440  0.174322  0.230612  1
  B  B12  1  0.038560  0.825678  0.230612  1
  B  B13  1  0.674322  0.461440  0.269388  1
  B  B14  1  0.325678  0.538560  0.269388  1
  B  B15  1  0.825678  0.961440  0.230612  1
  B  B16  1  0.538560  0.674322  0.269388  1
  B  B17  1  0.461440  0.325678  0.269388  1
  B  B18  1  0.825678  0.961440  0.769388  1
  B  B19  1  0.038560  0.825678  0.769388  1
  B  B20  1  0.961440  0.174322  0.769388  1
  B  B21  1  0.325678  0.538560  0.730612  1
  B  B22  1  0.674322  0.461440  0.730612  1
  B  B23  1  0.174322  0.038560  0.769388  1
  B  B24  1  0.461440  0.325678  0.730612  1
  B  B25  1  0.538560  0.674322  0.730612  1
  B  B26  1  0.087130  0.587130  0.250000  1
  B  B27  1  0.412870  0.087130  0.250000  1
  B  B28  1  0.587130  0.912870  0.250000  1
  B  B29  1  0.912870  0.412870  0.250000  1
  B  B30  1  0.912870  0.412870  0.750000  1
  B  B31  1  0.587130  0.912870  0.750000  1
  B  B32  1  0.412870  0.087130  0.750000  1
  B  B33  1  0.087130  0.587130  0.750000  1
  B  B34  1  0.000000  0.000000  0.388595  1
  B  B35  1  0.500000  0.500000  0.111405  1
  B  B36  1  0.000000  0.000000  0.611405  1
  B  B37  1  0.500000  0.500000  0.888595  1
