# generated using pymatgen
data_TmNbSnB2Ru5
_symmetry_space_group_name_H-M   'P 1'
_cell_length_a   9.61212892
_cell_length_b   9.61212921
_cell_length_c   3.09094500
_cell_angle_alpha   90.00000000
_cell_angle_beta   90.00000000
_cell_angle_gamma   91.59543302
_symmetry_Int_Tables_number   1
_chemical_formula_structural   TmNbSnB2Ru5
_chemical_formula_sum   'Tm2 Nb2 Sn2 B4 Ru10'
_cell_volume   285.47104990
_cell_formula_units_Z   2
loop_
 _symmetry_equiv_pos_site_id
 _symmetry_equiv_pos_as_xyz
  1  'x, y, z'
loop_
 _atom_site_type_symbol
 _atom_site_label
 _atom_site_symmetry_multiplicity
 _atom_site_fract_x
 _atom_site_fract_y
 _atom_site_fract_z
 _atom_site_occupancy
  Tm  Tm0  1  0.823968  0.676032  0.000000  1
  Tm  Tm1  1  0.176032  0.323968  0.000000  1
  Nb  Nb2  1  0.325679  0.825679  0.000000  1
  Nb  Nb3  1  0.674321  0.174321  0.000000  1
  Sn  Sn4  1  0.500000  0.500000  0.000000  1
  Sn  Sn5  1  0.000000  0.000000  0.000000  1
  B  B6  1  0.620297  0.879703  0.000000  1
  B  B7  1  0.379703  0.120297  0.000000  1
  B  B8  1  0.121559  0.621559  0.000000  1
  B  B9  1  0.878441  0.378441  0.000000  1
  Ru  Ru10  1  0.556697  0.727495  0.500000  1
  Ru  Ru11  1  0.443303  0.272505  0.500000  1
  Ru  Ru12  1  0.085209  0.782808  0.500000  1
  Ru  Ru13  1  0.914791  0.217192  0.500000  1
  Ru  Ru14  1  0.282808  0.585209  0.500000  1
  Ru  Ru15  1  0.717192  0.414791  0.500000  1
  Ru  Ru16  1  0.227495  0.056697  0.500000  1
  Ru  Ru17  1  0.772505  0.943303  0.500000  1
  Ru  Ru18  1  0.500000  0.000000  0.500000  1
  Ru  Ru19  1  0.000000  0.500000  0.500000  1
