# generated using pymatgen
data_Ce4ErOsPb3
_symmetry_space_group_name_H-M   'P 1'
_cell_length_a   9.60863069
_cell_length_b   9.60863111
_cell_length_c   6.34585500
_cell_angle_alpha   90.00000000
_cell_angle_beta   90.00000000
_cell_angle_gamma   119.33727977
_symmetry_Int_Tables_number   1
_chemical_formula_structural   Ce4ErOsPb3
_chemical_formula_sum   'Ce8 Er2 Os2 Pb6'
_cell_volume   510.74656620
_cell_formula_units_Z   2
loop_
 _symmetry_equiv_pos_site_id
 _symmetry_equiv_pos_as_xyz
  1  'x, y, z'
loop_
 _atom_site_type_symbol
 _atom_site_label
 _atom_site_symmetry_multiplicity
 _atom_site_fract_x
 _atom_site_fract_y
 _atom_site_fract_z
 _atom_site_occupancy
  Ce  Ce0  1  0.237539  0.001406  0.250000  1
  Ce  Ce1  1  0.762461  0.998594  0.750000  1
  Ce  Ce2  1  0.332137  0.667863  0.500000  1
  Ce  Ce3  1  0.667863  0.332137  0.500000  1
  Ce  Ce4  1  0.001406  0.237539  0.250000  1
  Ce  Ce5  1  0.998594  0.762461  0.750000  1
  Ce  Ce6  1  0.332137  0.667863  0.000000  1
  Ce  Ce7  1  0.667863  0.332137  0.000000  1
  Er  Er8  1  0.247564  0.247564  0.750000  1
  Er  Er9  1  0.752436  0.752436  0.250000  1
  Os  Os10  1  0.000000  0.000000  0.000000  1
  Os  Os11  1  0.000000  0.000000  0.500000  1
  Pb  Pb12  1  0.398761  0.398761  0.250000  1
  Pb  Pb13  1  0.601239  0.601239  0.750000  1
  Pb  Pb14  1  0.002573  0.396615  0.750000  1
  Pb  Pb15  1  0.603385  0.997427  0.250000  1
  Pb  Pb16  1  0.396615  0.002573  0.750000  1
  Pb  Pb17  1  0.997427  0.603385  0.250000  1
