# generated using pymatgen
data_SrNdBO4
_symmetry_space_group_name_H-M   'P 1'
_cell_length_a   3.81894500
_cell_length_b   9.97050500
_cell_length_c   11.10586900
_cell_angle_alpha   90.00000000
_cell_angle_beta   90.00000000
_cell_angle_gamma   90.00000000
_symmetry_Int_Tables_number   1
_chemical_formula_structural   SrNdBO4
_chemical_formula_sum   'Sr4 Nd4 B4 O16'
_cell_volume   422.87606621
_cell_formula_units_Z   4
loop_
 _symmetry_equiv_pos_site_id
 _symmetry_equiv_pos_as_xyz
  1  'x, y, z'
loop_
 _atom_site_type_symbol
 _atom_site_label
 _atom_site_symmetry_multiplicity
 _atom_site_fract_x
 _atom_site_fract_y
 _atom_site_fract_z
 _atom_site_occupancy
  Sr  Sr0  1  0.250000  0.665994  0.081330  1
  Sr  Sr1  1  0.750000  0.334006  0.918670  1
  Sr  Sr2  1  0.750000  0.165994  0.418670  1
  Sr  Sr3  1  0.250000  0.834006  0.581330  1
  Nd  Nd4  1  0.250000  0.085939  0.114413  1
  Nd  Nd5  1  0.750000  0.914061  0.885587  1
  Nd  Nd6  1  0.750000  0.585939  0.385587  1
  Nd  Nd7  1  0.250000  0.414061  0.614413  1
  B  B8  1  0.250000  0.366953  0.202828  1
  B  B9  1  0.750000  0.633047  0.797172  1
  B  B10  1  0.750000  0.866953  0.297172  1
  B  B11  1  0.250000  0.133047  0.702828  1
  O  O12  1  0.250000  0.494937  0.252264  1
  O  O13  1  0.750000  0.505063  0.747736  1
  O  O14  1  0.750000  0.994937  0.247736  1
  O  O15  1  0.250000  0.005063  0.752264  1
  O  O16  1  0.250000  0.252353  0.275981  1
  O  O17  1  0.750000  0.747647  0.724019  1
  O  O18  1  0.750000  0.752353  0.224019  1
  O  O19  1  0.250000  0.247647  0.775981  1
  O  O20  1  0.250000  0.350989  0.076743  1
  O  O21  1  0.750000  0.649011  0.923257  1
  O  O22  1  0.750000  0.850989  0.423257  1
  O  O23  1  0.250000  0.149011  0.576743  1
  O  O24  1  0.250000  0.612909  0.500395  1
  O  O25  1  0.750000  0.387091  0.499605  1
  O  O26  1  0.750000  0.112909  0.999605  1
  O  O27  1  0.250000  0.887091  0.000395  1
