# generated using pymatgen
data_CsZrF5
_symmetry_space_group_name_H-M   'P 1'
_cell_length_a   6.18478000
_cell_length_b   8.50394200
_cell_length_c   11.30480500
_cell_angle_alpha   90.00000000
_cell_angle_beta   90.00000000
_cell_angle_gamma   90.00000000
_symmetry_Int_Tables_number   1
_chemical_formula_structural   CsZrF5
_chemical_formula_sum   'Cs4 Zr4 F20'
_cell_volume   594.57633658
_cell_formula_units_Z   4
loop_
 _symmetry_equiv_pos_site_id
 _symmetry_equiv_pos_as_xyz
  1  'x, y, z'
loop_
 _atom_site_type_symbol
 _atom_site_label
 _atom_site_symmetry_multiplicity
 _atom_site_fract_x
 _atom_site_fract_y
 _atom_site_fract_z
 _atom_site_occupancy
  Cs  Cs0  1  0.500000  0.889580  0.976098  1
  Cs  Cs1  1  0.500000  0.110420  0.476098  1
  Cs  Cs2  1  0.000000  0.369580  0.122030  1
  Cs  Cs3  1  0.000000  0.630420  0.622030  1
  Zr  Zr4  1  0.000000  0.883749  0.242512  1
  Zr  Zr5  1  0.500000  0.575780  0.340500  1
  Zr  Zr6  1  0.500000  0.424220  0.840500  1
  Zr  Zr7  1  0.000000  0.116251  0.742512  1
  F  F8  1  0.267912  0.546109  0.919585  1
  F  F9  1  0.749519  0.704334  0.244785  1
  F  F10  1  0.231109  0.046346  0.235664  1
  F  F11  1  0.749519  0.295666  0.744785  1
  F  F12  1  0.500000  0.238082  0.948932  1
  F  F13  1  0.768891  0.953654  0.735664  1
  F  F14  1  0.500000  0.558027  0.694006  1
  F  F15  1  0.231109  0.953654  0.735664  1
  F  F16  1  0.000000  0.837545  0.068929  1
  F  F17  1  0.768891  0.046346  0.235664  1
  F  F18  1  0.500000  0.441973  0.194006  1
  F  F19  1  0.732088  0.453891  0.419585  1
  F  F20  1  0.250481  0.704334  0.244785  1
  F  F21  1  0.000000  0.854431  0.418435  1
  F  F22  1  0.000000  0.162455  0.568929  1
  F  F23  1  0.250481  0.295666  0.744785  1
  F  F24  1  0.000000  0.145569  0.918435  1
  F  F25  1  0.267912  0.453891  0.419585  1
  F  F26  1  0.500000  0.761918  0.448932  1
  F  F27  1  0.732088  0.546109  0.919585  1
