# generated using pymatgen
data_La8HoPt6
_symmetry_space_group_name_H-M   'P 1'
_cell_length_a   7.81021731
_cell_length_b   7.81021751
_cell_length_c   7.81021732
_cell_angle_alpha   71.71766837
_cell_angle_beta   71.71767279
_cell_angle_gamma   71.71767026
_symmetry_Int_Tables_number   1
_chemical_formula_structural   La8HoPt6
_chemical_formula_sum   'La8 Ho1 Pt6'
_cell_volume   417.11005046
_cell_formula_units_Z   1
loop_
 _symmetry_equiv_pos_site_id
 _symmetry_equiv_pos_as_xyz
  1  'x, y, z'
loop_
 _atom_site_type_symbol
 _atom_site_label
 _atom_site_symmetry_multiplicity
 _atom_site_fract_x
 _atom_site_fract_y
 _atom_site_fract_z
 _atom_site_occupancy
  La  La0  1  0.800630  0.800630  0.800630  1
  La  La1  1  0.199370  0.199370  0.199370  1
  La  La2  1  0.327949  0.610982  0.836320  1
  La  La3  1  0.836320  0.327949  0.610982  1
  La  La4  1  0.610982  0.836320  0.327949  1
  La  La5  1  0.672051  0.389018  0.163680  1
  La  La6  1  0.163680  0.672051  0.389018  1
  La  La7  1  0.389018  0.163680  0.672051  1
  Ho  Ho8  1  0.000000  0.000000  0.000000  1
  Pt  Pt9  1  0.162144  0.960119  0.596121  1
  Pt  Pt10  1  0.596121  0.162144  0.960119  1
  Pt  Pt11  1  0.960119  0.596121  0.162144  1
  Pt  Pt12  1  0.837856  0.039881  0.403879  1
  Pt  Pt13  1  0.403879  0.837856  0.039881  1
  Pt  Pt14  1  0.039881  0.403879  0.837856  1
