# generated using pymatgen
data_Ho2P3Ir4
_symmetry_space_group_name_H-M   'P 1'
_cell_length_a   12.96584700
_cell_length_b   12.96584635
_cell_length_c   4.00031900
_cell_angle_alpha   90.00000000
_cell_angle_beta   90.00000000
_cell_angle_gamma   119.99999400
_symmetry_Int_Tables_number   1
_chemical_formula_structural   Ho2P3Ir4
_chemical_formula_sum   'Ho8 P12 Ir16'
_cell_volume   582.40761690
_cell_formula_units_Z   4
loop_
 _symmetry_equiv_pos_site_id
 _symmetry_equiv_pos_as_xyz
  1  'x, y, z'
loop_
 _atom_site_type_symbol
 _atom_site_label
 _atom_site_symmetry_multiplicity
 _atom_site_fract_x
 _atom_site_fract_y
 _atom_site_fract_z
 _atom_site_occupancy
  Ho  Ho0  1  0.446924  0.446924  0.000000  1
  Ho  Ho1  1  0.553076  0.000000  0.000000  1
  Ho  Ho2  1  0.000000  0.553076  0.000000  1
  Ho  Ho3  1  0.666667  0.333333  0.000000  1
  Ho  Ho4  1  0.333333  0.666667  0.000000  1
  Ho  Ho5  1  0.816032  0.816032  0.500000  1
  Ho  Ho6  1  0.183968  0.000000  0.500000  1
  Ho  Ho7  1  0.000000  0.183968  0.500000  1
  P  P8  1  0.653857  0.653857  0.000000  1
  P  P9  1  0.346143  0.000000  0.000000  1
  P  P10  1  0.000000  0.346143  0.000000  1
  P  P11  1  0.483588  0.311845  0.500000  1
  P  P12  1  0.688155  0.171742  0.500000  1
  P  P13  1  0.828258  0.516412  0.500000  1
  P  P14  1  0.516412  0.828258  0.500000  1
  P  P15  1  0.171742  0.688155  0.500000  1
  P  P16  1  0.823491  0.000000  0.000000  1
  P  P17  1  0.000000  0.823491  0.000000  1
  P  P18  1  0.311845  0.483588  0.500000  1
  P  P19  1  0.176509  0.176509  0.000000  1
  Ir  Ir20  1  0.189712  0.368278  0.000000  1
  Ir  Ir21  1  0.178565  0.810288  0.000000  1
  Ir  Ir22  1  0.821435  0.631722  0.000000  1
  Ir  Ir23  1  0.810288  0.178565  0.000000  1
  Ir  Ir24  1  0.368278  0.189712  0.000000  1
  Ir  Ir25  1  0.134971  0.490595  0.500000  1
  Ir  Ir26  1  0.355625  0.865029  0.500000  1
  Ir  Ir27  1  0.509405  0.644375  0.500000  1
  Ir  Ir28  1  0.644375  0.509405  0.500000  1
  Ir  Ir29  1  0.865029  0.355625  0.500000  1
  Ir  Ir30  1  0.490595  0.134971  0.500000  1
  Ir  Ir31  1  0.000000  0.000000  0.000000  1
  Ir  Ir32  1  0.724951  0.000000  0.500000  1
  Ir  Ir33  1  0.000000  0.724951  0.500000  1
  Ir  Ir34  1  0.631722  0.821435  0.000000  1
  Ir  Ir35  1  0.275049  0.275049  0.500000  1
