# generated using pymatgen
data_Sm8Ho10Sc2Si15Ru
_symmetry_space_group_name_H-M   'P 1'
_cell_length_a   7.32377766
_cell_length_b   7.79139269
_cell_length_c   14.57944100
_cell_angle_alpha   90.00000000
_cell_angle_beta   90.00000000
_cell_angle_gamma   90.11705040
_symmetry_Int_Tables_number   1
_chemical_formula_structural   Sm8Ho10Sc2Si15Ru
_chemical_formula_sum   'Sm8 Ho10 Sc2 Si15 Ru1'
_cell_volume   831.93656192
_cell_formula_units_Z   1
loop_
 _symmetry_equiv_pos_site_id
 _symmetry_equiv_pos_as_xyz
  1  'x, y, z'
loop_
 _atom_site_type_symbol
 _atom_site_label
 _atom_site_symmetry_multiplicity
 _atom_site_fract_x
 _atom_site_fract_y
 _atom_site_fract_z
 _atom_site_occupancy
  Sm  Sm0  1  0.016838  0.183425  0.098911  1
  Sm  Sm1  1  0.985628  0.824155  0.906143  1
  Sm  Sm2  1  0.483974  0.680462  0.905840  1
  Sm  Sm3  1  0.985628  0.824155  0.593857  1
  Sm  Sm4  1  0.515999  0.319620  0.098258  1
  Sm  Sm5  1  0.016838  0.183425  0.401089  1
  Sm  Sm6  1  0.515999  0.319620  0.401742  1
  Sm  Sm7  1  0.483974  0.680462  0.594160  1
  Ho  Ho8  1  0.154912  0.513264  0.750000  1
  Ho  Ho9  1  0.669308  0.989892  0.750000  1
  Ho  Ho10  1  0.312738  0.173065  0.626781  1
  Ho  Ho11  1  0.676821  0.824839  0.372861  1
  Ho  Ho12  1  0.176580  0.679031  0.372867  1
  Ho  Ho13  1  0.676821  0.824839  0.127139  1
  Ho  Ho14  1  0.833846  0.316415  0.624972  1
  Ho  Ho15  1  0.312738  0.173065  0.873219  1
  Ho  Ho16  1  0.833846  0.316415  0.875028  1
  Ho  Ho17  1  0.176580  0.679031  0.127133  1
  Sc  Sc18  1  0.839645  0.485393  0.250000  1
  Sc  Sc19  1  0.340715  0.016264  0.250000  1
  Si  Si20  1  0.978076  0.900863  0.250000  1
  Si  Si21  1  0.478932  0.600149  0.250000  1
  Si  Si22  1  0.528525  0.393887  0.750000  1
  Si  Si23  1  0.276560  0.868053  0.750000  1
  Si  Si24  1  0.715654  0.133110  0.250000  1
  Si  Si25  1  0.218172  0.367968  0.250000  1
  Si  Si26  1  0.768935  0.621718  0.750000  1
  Si  Si27  1  0.155355  0.471674  0.535783  1
  Si  Si28  1  0.848301  0.532190  0.459355  1
  Si  Si29  1  0.347642  0.969431  0.458755  1
  Si  Si30  1  0.848301  0.532190  0.040645  1
  Si  Si31  1  0.648723  0.031964  0.536367  1
  Si  Si32  1  0.155355  0.471674  0.964217  1
  Si  Si33  1  0.648723  0.031964  0.963633  1
  Si  Si34  1  0.347642  0.969431  0.041245  1
  Ru  Ru35  1  0.025674  0.096896  0.750000  1
