# generated using pymatgen
data_Ac3YAu5
_symmetry_space_group_name_H-M   'P 1'
_cell_length_a   8.55290655
_cell_length_b   8.55290708
_cell_length_c   8.55290699
_cell_angle_alpha   65.85173349
_cell_angle_beta   65.85173121
_cell_angle_gamma   65.85171254
_symmetry_Int_Tables_number   1
_chemical_formula_structural   Ac3YAu5
_chemical_formula_sum   'Ac6 Y2 Au10'
_cell_volume   498.51282416
_cell_formula_units_Z   2
loop_
 _symmetry_equiv_pos_site_id
 _symmetry_equiv_pos_as_xyz
  1  'x, y, z'
loop_
 _atom_site_type_symbol
 _atom_site_label
 _atom_site_symmetry_multiplicity
 _atom_site_fract_x
 _atom_site_fract_y
 _atom_site_fract_z
 _atom_site_occupancy
  Ac  Ac0  1  0.891372  0.185692  0.623769  1
  Ac  Ac1  1  0.623769  0.891372  0.185692  1
  Ac  Ac2  1  0.185692  0.623769  0.891372  1
  Ac  Ac3  1  0.108628  0.814308  0.376231  1
  Ac  Ac4  1  0.376231  0.108628  0.814308  1
  Ac  Ac5  1  0.814308  0.376231  0.108628  1
  Y  Y6  1  0.657265  0.657265  0.657265  1
  Y  Y7  1  0.342735  0.342735  0.342735  1
  Au  Au8  1  0.000000  0.000000  0.000000  1
  Au  Au9  1  0.500000  0.500000  0.500000  1
  Au  Au10  1  0.802984  0.802984  0.802984  1
  Au  Au11  1  0.197016  0.197016  0.197016  1
  Au  Au12  1  0.941499  0.545914  0.323985  1
  Au  Au13  1  0.323985  0.941499  0.545914  1
  Au  Au14  1  0.545914  0.323985  0.941499  1
  Au  Au15  1  0.058501  0.454086  0.676015  1
  Au  Au16  1  0.676015  0.058501  0.454086  1
  Au  Au17  1  0.454086  0.676015  0.058501  1
