# generated using pymatgen
data_La9Pr8Ho3Sn16
_symmetry_space_group_name_H-M   'P 1'
_cell_length_a   8.27706804
_cell_length_b   8.55864499
_cell_length_c   16.29049300
_cell_angle_alpha   90.01376388
_cell_angle_beta   90.00574545
_cell_angle_gamma   89.89366325
_symmetry_Int_Tables_number   1
_chemical_formula_structural   La9Pr8Ho3Sn16
_chemical_formula_sum   'La9 Pr8 Ho3 Sn16'
_cell_volume   1154.02442937
_cell_formula_units_Z   1
loop_
 _symmetry_equiv_pos_site_id
 _symmetry_equiv_pos_as_xyz
  1  'x, y, z'
loop_
 _atom_site_type_symbol
 _atom_site_label
 _atom_site_symmetry_multiplicity
 _atom_site_fract_x
 _atom_site_fract_y
 _atom_site_fract_z
 _atom_site_occupancy
  La  La0  1  0.149759  0.334794  0.621114  1
  La  La1  1  0.493660  0.683243  0.597498  1
  La  La2  1  0.995514  0.818826  0.903452  1
  La  La3  1  0.505931  0.318177  0.098063  1
  La  La4  1  0.004726  0.181953  0.402017  1
  La  La5  1  0.506580  0.318346  0.401560  1
  La  La6  1  0.004830  0.181620  0.097548  1
  La  La7  1  0.494251  0.682774  0.903179  1
  La  La8  1  0.995184  0.819052  0.596996  1
  Pr  Pr9  1  0.649969  0.164684  0.622397  1
  Pr  Pr10  1  0.151111  0.334288  0.878208  1
  Pr  Pr11  1  0.349223  0.834972  0.123226  1
  Pr  Pr12  1  0.849761  0.663672  0.376384  1
  Pr  Pr13  1  0.349386  0.835151  0.376258  1
  Pr  Pr14  1  0.848978  0.664396  0.123612  1
  Pr  Pr15  1  0.650050  0.165411  0.878239  1
  Pr  Pr16  1  0.818289  0.500724  0.749189  1
  Ho  Ho17  1  0.317421  0.000569  0.750571  1
  Ho  Ho18  1  0.183603  0.498906  0.249922  1
  Ho  Ho19  1  0.683097  0.000844  0.249884  1
  Sn  Sn20  1  0.691127  0.963336  0.456269  1
  Sn  Sn21  1  0.191558  0.535797  0.043958  1
  Sn  Sn22  1  0.309511  0.035810  0.957243  1
  Sn  Sn23  1  0.804042  0.463522  0.540714  1
  Sn  Sn24  1  0.311521  0.034039  0.542711  1
  Sn  Sn25  1  0.808797  0.463062  0.959107  1
  Sn  Sn26  1  0.690877  0.963571  0.043839  1
  Sn  Sn27  1  0.192517  0.536320  0.454572  1
  Sn  Sn28  1  0.450077  0.382302  0.751078  1
  Sn  Sn29  1  0.955228  0.112644  0.750604  1
  Sn  Sn30  1  0.544858  0.615309  0.249859  1
  Sn  Sn31  1  0.044523  0.884507  0.249906  1
  Sn  Sn32  1  0.689473  0.859153  0.750591  1
  Sn  Sn33  1  0.193540  0.649301  0.750609  1
  Sn  Sn34  1  0.309963  0.146505  0.249807  1
  Sn  Sn35  1  0.811066  0.352415  0.249820  1
