# generated using pymatgen
data_Ce2Y3Sn3C
_symmetry_space_group_name_H-M   'P 1'
_cell_length_a   9.09449300
_cell_length_b   9.03194939
_cell_length_c   6.54069800
_cell_angle_alpha   90.00000000
_cell_angle_beta   90.00000000
_cell_angle_gamma   120.22933675
_symmetry_Int_Tables_number   1
_chemical_formula_structural   Ce2Y3Sn3C
_chemical_formula_sum   'Ce4 Y6 Sn6 C2'
_cell_volume   464.20139258
_cell_formula_units_Z   2
loop_
 _symmetry_equiv_pos_site_id
 _symmetry_equiv_pos_as_xyz
  1  'x, y, z'
loop_
 _atom_site_type_symbol
 _atom_site_label
 _atom_site_symmetry_multiplicity
 _atom_site_fract_x
 _atom_site_fract_y
 _atom_site_fract_z
 _atom_site_occupancy
  Ce  Ce0  1  0.000882  0.215523  0.750000  1
  Ce  Ce1  1  0.999118  0.784477  0.250000  1
  Ce  Ce2  1  0.785359  0.784477  0.750000  1
  Ce  Ce3  1  0.214641  0.215523  0.250000  1
  Y  Y4  1  0.332794  0.665589  0.500000  1
  Y  Y5  1  0.667206  0.334411  0.500000  1
  Y  Y6  1  0.667206  0.334411  0.000000  1
  Y  Y7  1  0.332794  0.665589  0.000000  1
  Y  Y8  1  0.220703  0.000000  0.750000  1
  Y  Y9  1  0.779297  0.000000  0.250000  1
  Sn  Sn10  1  0.592721  0.000000  0.750000  1
  Sn  Sn11  1  0.407279  0.000000  0.250000  1
  Sn  Sn12  1  0.001821  0.595504  0.750000  1
  Sn  Sn13  1  0.998179  0.404496  0.250000  1
  Sn  Sn14  1  0.406317  0.404496  0.750000  1
  Sn  Sn15  1  0.593683  0.595504  0.250000  1
  C  C16  1  0.000000  0.000000  0.500000  1
  C  C17  1  0.000000  0.000000  0.000000  1
