# generated using pymatgen
data_Yb9Cd(BiPt2)2
_symmetry_space_group_name_H-M   'P 1'
_cell_length_a   9.18017465
_cell_length_b   9.18017384
_cell_length_c   9.18017391
_cell_angle_alpha   130.20395541
_cell_angle_beta   130.20395151
_cell_angle_gamma   73.08092548
_symmetry_Int_Tables_number   1
_chemical_formula_structural   Yb9Cd(BiPt2)2
_chemical_formula_sum   'Yb9 Cd1 Bi2 Pt4'
_cell_volume   440.69474569
_cell_formula_units_Z   1
loop_
 _symmetry_equiv_pos_site_id
 _symmetry_equiv_pos_as_xyz
  1  'x, y, z'
loop_
 _atom_site_type_symbol
 _atom_site_label
 _atom_site_symmetry_multiplicity
 _atom_site_fract_x
 _atom_site_fract_y
 _atom_site_fract_z
 _atom_site_occupancy
  Yb  Yb0  1  0.500000  0.500000  0.000000  1
  Yb  Yb1  1  0.802168  0.284689  0.838400  1
  Yb  Yb2  1  0.197832  0.715311  0.161600  1
  Yb  Yb3  1  0.446290  0.963769  0.161600  1
  Yb  Yb4  1  0.284689  0.446290  0.482521  1
  Yb  Yb5  1  0.036231  0.197832  0.482521  1
  Yb  Yb6  1  0.553710  0.036231  0.838400  1
  Yb  Yb7  1  0.715311  0.553710  0.517479  1
  Yb  Yb8  1  0.963769  0.802168  0.517479  1
  Cd  Cd9  1  0.000000  0.000000  0.000000  1
  Bi  Bi10  1  0.261335  0.261335  0.000000  1
  Bi  Bi11  1  0.738665  0.738665  0.000000  1
  Pt  Pt12  1  0.132482  0.629695  0.762178  1
  Pt  Pt13  1  0.867518  0.370305  0.237822  1
  Pt  Pt14  1  0.629695  0.867518  0.497214  1
  Pt  Pt15  1  0.370305  0.132482  0.502786  1
