# generated using pymatgen
data_Pa6Al24Tc3Os5
_symmetry_space_group_name_H-M   'P 1'
_cell_length_a   8.88739100
_cell_length_b   8.89235545
_cell_length_c   9.42695135
_cell_angle_alpha   89.87602552
_cell_angle_beta   90.00000000
_cell_angle_gamma   119.98153760
_symmetry_Int_Tables_number   1
_chemical_formula_structural   Pa6Al24Tc3Os5
_chemical_formula_sum   'Pa6 Al24 Tc3 Os5'
_cell_volume   645.31596544
_cell_formula_units_Z   1
loop_
 _symmetry_equiv_pos_site_id
 _symmetry_equiv_pos_as_xyz
  1  'x, y, z'
loop_
 _atom_site_type_symbol
 _atom_site_label
 _atom_site_symmetry_multiplicity
 _atom_site_fract_x
 _atom_site_fract_y
 _atom_site_fract_z
 _atom_site_occupancy
  Pa  Pa0  1  0.196831  0.393663  0.250330  1
  Pa  Pa1  1  0.803169  0.606337  0.749670  1
  Pa  Pa2  1  0.605883  0.804146  0.249075  1
  Pa  Pa3  1  0.394117  0.195854  0.750925  1
  Pa  Pa4  1  0.198263  0.804146  0.249075  1
  Pa  Pa5  1  0.801737  0.195854  0.750925  1
  Al  Al6  1  0.333228  0.666457  0.016037  1
  Al  Al7  1  0.666772  0.333543  0.983963  1
  Al  Al8  1  0.666628  0.333255  0.516526  1
  Al  Al9  1  0.333372  0.666745  0.483474  1
  Al  Al10  1  0.161337  0.322673  0.579509  1
  Al  Al11  1  0.838663  0.677327  0.420491  1
  Al  Al12  1  0.677007  0.838308  0.579178  1
  Al  Al13  1  0.838473  0.676946  0.079305  1
  Al  Al14  1  0.322993  0.161692  0.420822  1
  Al  Al15  1  0.161527  0.323054  0.920695  1
  Al  Al16  1  0.161302  0.838308  0.579178  1
  Al  Al17  1  0.322966  0.162016  0.080269  1
  Al  Al18  1  0.838698  0.161692  0.420822  1
  Al  Al19  1  0.677034  0.837984  0.919731  1
  Al  Al20  1  0.839048  0.162016  0.080269  1
  Al  Al21  1  0.160952  0.837984  0.919731  1
  Al  Al22  1  0.563093  0.126186  0.250075  1
  Al  Al23  1  0.436907  0.873814  0.749925  1
  Al  Al24  1  0.874770  0.437622  0.250274  1
  Al  Al25  1  0.125230  0.562378  0.749726  1
  Al  Al26  1  0.562852  0.437622  0.250274  1
  Al  Al27  1  0.437148  0.562378  0.749726  1
  Al  Al28  1  0.999965  0.999929  0.250006  1
  Al  Al29  1  0.000035  0.000071  0.749994  1
  Tc  Tc30  1  0.500000  0.000000  0.000000  1
  Tc  Tc31  1  0.000000  0.000000  0.000000  1
  Tc  Tc32  1  0.000000  0.000000  0.500000  1
  Os  Os33  1  0.000000  0.500000  0.000000  1
  Os  Os34  1  0.500000  0.000000  0.500000  1
  Os  Os35  1  0.500000  0.500000  0.000000  1
  Os  Os36  1  0.000000  0.500000  0.500000  1
  Os  Os37  1  0.500000  0.500000  0.500000  1
