# generated using pymatgen
data_Ti20Si15P
_symmetry_space_group_name_H-M   'P 1'
_cell_length_a   6.69231300
_cell_length_b   6.70120677
_cell_length_c   12.17371483
_cell_angle_alpha   89.90110625
_cell_angle_beta   90.05300619
_cell_angle_gamma   90.03306525
_symmetry_Int_Tables_number   1
_chemical_formula_structural   Ti20Si15P
_chemical_formula_sum   'Ti20 Si15 P1'
_cell_volume   545.94825575
_cell_formula_units_Z   1
loop_
 _symmetry_equiv_pos_site_id
 _symmetry_equiv_pos_as_xyz
  1  'x, y, z'
loop_
 _atom_site_type_symbol
 _atom_site_label
 _atom_site_symmetry_multiplicity
 _atom_site_fract_x
 _atom_site_fract_y
 _atom_site_fract_z
 _atom_site_occupancy
  Ti  Ti0  1  0.996516  0.149663  0.624921  1
  Ti  Ti1  1  0.345821  0.493236  0.870668  1
  Ti  Ti2  1  0.648967  0.503877  0.371878  1
  Ti  Ti3  1  0.495949  0.351186  0.128025  1
  Ti  Ti4  1  0.504311  0.649656  0.628819  1
  Ti  Ti5  1  0.004194  0.851156  0.121659  1
  Ti  Ti6  1  0.148864  0.995941  0.378098  1
  Ti  Ti7  1  0.853869  0.008276  0.876468  1
  Ti  Ti8  1  0.001865  0.346154  0.217848  1
  Ti  Ti9  1  0.153906  0.501738  0.468437  1
  Ti  Ti10  1  0.847348  0.496814  0.966808  1
  Ti  Ti11  1  0.502112  0.153047  0.532123  1
  Ti  Ti12  1  0.497869  0.845911  0.032065  1
  Ti  Ti13  1  0.998627  0.650736  0.719299  1
  Ti  Ti14  1  0.344990  0.002377  0.781545  1
  Ti  Ti15  1  0.654192  0.998168  0.282287  1
  Ti  Ti16  1  0.170032  0.173024  0.997874  1
  Ti  Ti17  1  0.328776  0.671411  0.249943  1
  Ti  Ti18  1  0.673978  0.328814  0.750798  1
  Ti  Ti19  1  0.828757  0.828848  0.500120  1
  Si  Si20  1  0.199343  0.545440  0.063596  1
  Si  Si21  1  0.800331  0.454857  0.563322  1
  Si  Si22  1  0.545098  0.199062  0.936617  1
  Si  Si23  1  0.454712  0.800529  0.436594  1
  Si  Si24  1  0.955423  0.699142  0.313562  1
  Si  Si25  1  0.300332  0.045263  0.185994  1
  Si  Si26  1  0.699138  0.954269  0.686457  1
  Si  Si27  1  0.297380  0.357054  0.671302  1
  Si  Si28  1  0.143044  0.795010  0.923405  1
  Si  Si29  1  0.857544  0.205206  0.423777  1
  Si  Si30  1  0.794599  0.142641  0.076956  1
  Si  Si31  1  0.204136  0.857173  0.577360  1
  Si  Si32  1  0.705207  0.643044  0.172855  1
  Si  Si33  1  0.356717  0.294806  0.327088  1
  Si  Si34  1  0.641456  0.705850  0.827984  1
  P  P35  1  0.044595  0.300619  0.813446  1
