# generated using pymatgen
data_Nd3MgCd2Pt3
_symmetry_space_group_name_H-M   'P 1'
_cell_length_a   7.62129500
_cell_length_b   7.68526518
_cell_length_c   4.09062500
_cell_angle_alpha   90.00000000
_cell_angle_beta   90.00000000
_cell_angle_gamma   119.72503695
_symmetry_Int_Tables_number   1
_chemical_formula_structural   Nd3MgCd2Pt3
_chemical_formula_sum   'Nd3 Mg1 Cd2 Pt3'
_cell_volume   208.06765753
_cell_formula_units_Z   1
loop_
 _symmetry_equiv_pos_site_id
 _symmetry_equiv_pos_as_xyz
  1  'x, y, z'
loop_
 _atom_site_type_symbol
 _atom_site_label
 _atom_site_symmetry_multiplicity
 _atom_site_fract_x
 _atom_site_fract_y
 _atom_site_fract_z
 _atom_site_occupancy
  Nd  Nd0  1  0.408454  0.411180  0.000000  1
  Nd  Nd1  1  0.595161  0.000000  0.000000  1
  Nd  Nd2  1  0.997274  0.588820  0.000000  1
  Mg  Mg3  1  0.245046  0.000000  0.500000  1
  Cd  Cd4  1  0.000496  0.249601  0.500000  1
  Cd  Cd5  1  0.750895  0.750399  0.500000  1
  Pt  Pt6  1  0.655717  0.324925  0.500000  1
  Pt  Pt7  1  0.016166  0.000000  0.000000  1
  Pt  Pt8  1  0.330791  0.675075  0.500000  1
