# generated using pymatgen
data_TbDy2Zn3C
_symmetry_space_group_name_H-M   'P 1'
_cell_length_a   9.18734777
_cell_length_b   9.18734808
_cell_length_c   9.18637319
_cell_angle_alpha   59.95593365
_cell_angle_beta   59.95593308
_cell_angle_gamma   59.99236957
_symmetry_Int_Tables_number   1
_chemical_formula_structural   TbDy2Zn3C
_chemical_formula_sum   'Tb4 Dy8 Zn12 C4'
_cell_volume   547.89180655
_cell_formula_units_Z   4
loop_
 _symmetry_equiv_pos_site_id
 _symmetry_equiv_pos_as_xyz
  1  'x, y, z'
loop_
 _atom_site_type_symbol
 _atom_site_label
 _atom_site_symmetry_multiplicity
 _atom_site_fract_x
 _atom_site_fract_y
 _atom_site_fract_z
 _atom_site_occupancy
  Tb  Tb0  1  0.447424  0.447424  0.052724  1
  Tb  Tb1  1  0.052428  0.447492  0.052583  1
  Tb  Tb2  1  0.447492  0.052428  0.052583  1
  Tb  Tb3  1  0.052575  0.052575  0.447422  1
  Dy  Dy4  1  0.447221  0.052864  0.447204  1
  Dy  Dy5  1  0.052864  0.447221  0.447204  1
  Dy  Dy6  1  0.802913  0.802913  0.197236  1
  Dy  Dy7  1  0.196986  0.802843  0.197132  1
  Dy  Dy8  1  0.802843  0.196986  0.197132  1
  Dy  Dy9  1  0.197083  0.197083  0.802721  1
  Dy  Dy10  1  0.803129  0.197048  0.802928  1
  Dy  Dy11  1  0.197048  0.803129  0.802928  1
  Zn  Zn12  1  0.826129  0.826129  0.521344  1
  Zn  Zn13  1  0.826305  0.521401  0.826043  1
  Zn  Zn14  1  0.521401  0.826305  0.826043  1
  Zn  Zn15  1  0.826160  0.826160  0.826219  1
  Zn  Zn16  1  0.423943  0.423943  0.728248  1
  Zn  Zn17  1  0.423885  0.728356  0.423963  1
  Zn  Zn18  1  0.728356  0.423885  0.423963  1
  Zn  Zn19  1  0.423815  0.423815  0.423904  1
  Zn  Zn20  1  0.624979  0.624979  0.125039  1
  Zn  Zn21  1  0.624915  0.125015  0.624892  1
  Zn  Zn22  1  0.125015  0.624915  0.624892  1
  Zn  Zn23  1  0.625088  0.625088  0.624830  1
  C  C24  1  0.125150  0.125150  0.625511  1
  C  C25  1  0.124412  0.625846  0.125351  1
  C  C26  1  0.625846  0.124412  0.125351  1
  C  C27  1  0.124595  0.124595  0.124608  1
