# generated using pymatgen
data_Th4NbAl5Tc2
_symmetry_space_group_name_H-M   'P 1'
_cell_length_a   5.61372306
_cell_length_b   5.70547352
_cell_length_c   9.16174200
_cell_angle_alpha   90.00000000
_cell_angle_beta   90.00000000
_cell_angle_gamma   120.54214478
_symmetry_Int_Tables_number   1
_chemical_formula_structural   Th4NbAl5Tc2
_chemical_formula_sum   'Th4 Nb1 Al5 Tc2'
_cell_volume   252.72767051
_cell_formula_units_Z   1
loop_
 _symmetry_equiv_pos_site_id
 _symmetry_equiv_pos_as_xyz
  1  'x, y, z'
loop_
 _atom_site_type_symbol
 _atom_site_label
 _atom_site_symmetry_multiplicity
 _atom_site_fract_x
 _atom_site_fract_y
 _atom_site_fract_z
 _atom_site_occupancy
  Th  Th0  1  0.345426  0.672713  0.449418  1
  Th  Th1  1  0.655857  0.327928  0.551933  1
  Th  Th2  1  0.655857  0.327928  0.948067  1
  Th  Th3  1  0.345426  0.672713  0.050582  1
  Nb  Nb4  1  0.673386  0.836694  0.750000  1
  Al  Al5  1  0.844304  0.165871  0.250000  1
  Al  Al6  1  0.844304  0.678434  0.250000  1
  Al  Al7  1  0.327473  0.163737  0.250000  1
  Al  Al8  1  0.165652  0.835316  0.750000  1
  Al  Al9  1  0.165652  0.330335  0.750000  1
  Tc  Tc10  1  0.988330  0.994165  0.500536  1
  Tc  Tc11  1  0.988330  0.994165  0.999464  1
