# generated using pymatgen
data_Tb2Ti3P7Ir8Rh
_symmetry_space_group_name_H-M   'P 1'
_cell_length_a   3.87158600
_cell_length_b   9.69942224
_cell_length_c   9.68519364
_cell_angle_alpha   120.00530265
_cell_angle_beta   89.99780974
_cell_angle_gamma   90.00306541
_symmetry_Int_Tables_number   1
_chemical_formula_structural   Tb2Ti3P7Ir8Rh
_chemical_formula_sum   'Tb2 Ti3 P7 Ir8 Rh1'
_cell_volume   314.95645071
_cell_formula_units_Z   1
loop_
 _symmetry_equiv_pos_site_id
 _symmetry_equiv_pos_as_xyz
  1  'x, y, z'
loop_
 _atom_site_type_symbol
 _atom_site_label
 _atom_site_symmetry_multiplicity
 _atom_site_fract_x
 _atom_site_fract_y
 _atom_site_fract_z
 _atom_site_occupancy
  Tb  Tb0  1  0.261810  0.667201  0.333718  1
  Tb  Tb1  1  0.761848  0.332865  0.665999  1
  Ti  Ti2  1  0.762004  0.100615  0.879236  1
  Ti  Ti3  1  0.761984  0.121977  0.222905  1
  Ti  Ti4  1  0.761891  0.778056  0.899563  1
  P  P5  1  0.262218  0.999821  0.000125  1
  P  P6  1  0.761880  0.875193  0.588804  1
  P  P7  1  0.761855  0.411406  0.285938  1
  P  P8  1  0.761849  0.713902  0.124962  1
  P  P9  1  0.261922  0.116348  0.417321  1
  P  P10  1  0.261886  0.582415  0.698461  1
  P  P11  1  0.261909  0.301299  0.883297  1
  Ir  Ir12  1  0.261810  0.883980  0.159014  1
  Ir  Ir13  1  0.261956  0.840355  0.725376  1
  Ir  Ir14  1  0.261875  0.274623  0.115186  1
  Ir  Ir15  1  0.761938  0.609671  0.554850  1
  Ir  Ir16  1  0.761914  0.444490  0.054136  1
  Ir  Ir17  1  0.261950  0.362762  0.439305  1
  Ir  Ir18  1  0.261921  0.561391  0.923993  1
  Ir  Ir19  1  0.261813  0.075291  0.637120  1
  Rh  Rh20  1  0.761768  0.946335  0.390692  1
