# generated using pymatgen
data_Dy3Ho(Lu3Sn4)2
_symmetry_space_group_name_H-M   'P 1'
_cell_length_a   7.94112800
_cell_length_b   8.06889313
_cell_length_c   15.24177300
_cell_angle_alpha   90.00950090
_cell_angle_beta   89.99841269
_cell_angle_gamma   89.99643565
_symmetry_Int_Tables_number   1
_chemical_formula_structural   Dy3Ho(Lu3Sn4)2
_chemical_formula_sum   'Dy6 Ho2 Lu12 Sn16'
_cell_volume   976.63355583
_cell_formula_units_Z   2
loop_
 _symmetry_equiv_pos_site_id
 _symmetry_equiv_pos_as_xyz
  1  'x, y, z'
loop_
 _atom_site_type_symbol
 _atom_site_label
 _atom_site_symmetry_multiplicity
 _atom_site_fract_x
 _atom_site_fract_y
 _atom_site_fract_z
 _atom_site_occupancy
  Dy  Dy0  1  0.478223  0.679078  0.403163  1
  Dy  Dy1  1  0.978227  0.820941  0.096789  1
  Dy  Dy2  1  0.478265  0.679050  0.096834  1
  Dy  Dy3  1  0.978253  0.820968  0.403200  1
  Dy  Dy4  1  0.521649  0.320934  0.596790  1
  Dy  Dy5  1  0.021671  0.179129  0.903249  1
  Ho  Ho6  1  0.521871  0.320983  0.903086  1
  Ho  Ho7  1  0.021852  0.178971  0.596901  1
  Lu  Lu8  1  0.367103  0.836742  0.876993  1
  Lu  Lu9  1  0.867124  0.663268  0.623023  1
  Lu  Lu10  1  0.632901  0.163215  0.376938  1
  Lu  Lu11  1  0.132856  0.336769  0.123019  1
  Lu  Lu12  1  0.632953  0.163222  0.123064  1
  Lu  Lu13  1  0.132913  0.336765  0.376916  1
  Lu  Lu14  1  0.367074  0.836783  0.623042  1
  Lu  Lu15  1  0.867096  0.663215  0.876999  1
  Lu  Lu16  1  0.197535  0.504913  0.750030  1
  Lu  Lu17  1  0.697565  0.995110  0.750012  1
  Lu  Lu18  1  0.802426  0.495181  0.249975  1
  Lu  Lu19  1  0.302424  0.004814  0.249967  1
  Sn  Sn20  1  0.295596  0.038356  0.041579  1
  Sn  Sn21  1  0.795546  0.461556  0.458396  1
  Sn  Sn22  1  0.704817  0.961804  0.541559  1
  Sn  Sn23  1  0.204993  0.538259  0.958375  1
  Sn  Sn24  1  0.704275  0.961887  0.958412  1
  Sn  Sn25  1  0.204224  0.538246  0.541584  1
  Sn  Sn26  1  0.295224  0.038578  0.458676  1
  Sn  Sn27  1  0.795239  0.461369  0.041401  1
  Sn  Sn28  1  0.563672  0.620357  0.750001  1
  Sn  Sn29  1  0.063605  0.879640  0.750006  1
  Sn  Sn30  1  0.436377  0.379410  0.249996  1
  Sn  Sn31  1  0.936437  0.120585  0.249992  1
  Sn  Sn32  1  0.331156  0.149058  0.750206  1
  Sn  Sn33  1  0.831207  0.350905  0.749826  1
  Sn  Sn34  1  0.668888  0.850927  0.250004  1
  Sn  Sn35  1  0.168766  0.649008  0.249997  1
