# generated using pymatgen
data_SmLu19Sn16
_symmetry_space_group_name_H-M   'P 1'
_cell_length_a   7.92141396
_cell_length_b   8.01560662
_cell_length_c   15.18010147
_cell_angle_alpha   90.00946432
_cell_angle_beta   89.57000636
_cell_angle_gamma   89.90861246
_symmetry_Int_Tables_number   1
_chemical_formula_structural   SmLu19Sn16
_chemical_formula_sum   'Sm1 Lu19 Sn16'
_cell_volume   963.83122087
_cell_formula_units_Z   1
loop_
 _symmetry_equiv_pos_site_id
 _symmetry_equiv_pos_as_xyz
  1  'x, y, z'
loop_
 _atom_site_type_symbol
 _atom_site_label
 _atom_site_symmetry_multiplicity
 _atom_site_fract_x
 _atom_site_fract_y
 _atom_site_fract_z
 _atom_site_occupancy
  Sm  Sm0  1  0.019104  0.178813  0.905435  1
  Lu  Lu1  1  0.366906  0.837992  0.876190  1
  Lu  Lu2  1  0.870247  0.661738  0.622019  1
  Lu  Lu3  1  0.629047  0.160759  0.376678  1
  Lu  Lu4  1  0.132343  0.339274  0.124323  1
  Lu  Lu5  1  0.632854  0.162157  0.124110  1
  Lu  Lu6  1  0.129415  0.338645  0.377003  1
  Lu  Lu7  1  0.371432  0.838268  0.622726  1
  Lu  Lu8  1  0.869013  0.661631  0.876377  1
  Lu  Lu9  1  0.523693  0.322629  0.904331  1
  Lu  Lu10  1  0.027155  0.178411  0.597444  1
  Lu  Lu11  1  0.474495  0.677963  0.402878  1
  Lu  Lu12  1  0.977628  0.820210  0.096099  1
  Lu  Lu13  1  0.475877  0.678640  0.096406  1
  Lu  Lu14  1  0.973520  0.822032  0.402923  1
  Lu  Lu15  1  0.525283  0.321741  0.595633  1
  Lu  Lu16  1  0.199819  0.504843  0.749010  1
  Lu  Lu17  1  0.699128  0.994571  0.748916  1
  Lu  Lu18  1  0.800138  0.495421  0.250513  1
  Lu  Lu19  1  0.300759  0.004619  0.250657  1
  Sn  Sn20  1  0.297389  0.035992  0.043150  1
  Sn  Sn21  1  0.790496  0.463132  0.458495  1
  Sn  Sn22  1  0.710731  0.964024  0.541509  1
  Sn  Sn23  1  0.208918  0.540385  0.959100  1
  Sn  Sn24  1  0.700799  0.957149  0.960021  1
  Sn  Sn25  1  0.210510  0.537379  0.541126  1
  Sn  Sn26  1  0.289809  0.035878  0.458458  1
  Sn  Sn27  1  0.792885  0.463268  0.041484  1
  Sn  Sn28  1  0.565096  0.619267  0.749782  1
  Sn  Sn29  1  0.066170  0.879582  0.749091  1
  Sn  Sn30  1  0.435443  0.381817  0.250208  1
  Sn  Sn31  1  0.934610  0.118482  0.250156  1
  Sn  Sn32  1  0.337101  0.152325  0.749714  1
  Sn  Sn33  1  0.833047  0.350055  0.748236  1
  Sn  Sn34  1  0.665027  0.848454  0.249617  1
  Sn  Sn35  1  0.164112  0.652454  0.250181  1
