# generated using pymatgen
data_Sr10AlSi9O
_symmetry_space_group_name_H-M   'P 1'
_cell_length_a   11.35587231
_cell_length_b   11.36088799
_cell_length_c   11.36088808
_cell_angle_alpha   155.33112389
_cell_angle_beta   110.35213278
_cell_angle_gamma   75.13848558
_symmetry_Int_Tables_number   1
_chemical_formula_structural   Sr10AlSi9O
_chemical_formula_sum   'Sr10 Al1 Si9 O1'
_cell_volume   566.87149065
_cell_formula_units_Z   1
loop_
 _symmetry_equiv_pos_site_id
 _symmetry_equiv_pos_as_xyz
  1  'x, y, z'
loop_
 _atom_site_type_symbol
 _atom_site_label
 _atom_site_symmetry_multiplicity
 _atom_site_fract_x
 _atom_site_fract_y
 _atom_site_fract_z
 _atom_site_occupancy
  Sr  Sr0  1  0.846701  0.846538  0.000163  1
  Sr  Sr1  1  0.192673  0.998719  0.193954  1
  Sr  Sr2  1  0.475220  0.811343  0.663876  1
  Sr  Sr3  1  0.853453  0.188765  0.664689  1
  Sr  Sr4  1  0.801993  0.999999  0.801994  1
  Sr  Sr5  1  0.999931  0.500742  0.499190  1
  Sr  Sr6  1  0.155539  0.154586  0.000953  1
  Sr  Sr7  1  0.525944  0.191663  0.334282  1
  Sr  Sr8  1  0.502476  0.998042  0.504434  1
  Sr  Sr9  1  0.145962  0.810284  0.335678  1
  Al  Al10  1  0.411968  0.567895  0.844075  1
  Si  Si11  1  0.276369  0.431113  0.845256  1
  Si  Si12  1  0.588388  0.433111  0.155276  1
  Si  Si13  1  0.725039  0.568450  0.156589  1
  Si  Si14  1  0.685862  0.369347  0.316515  1
  Si  Si15  1  0.645764  0.642016  0.003747  1
  Si  Si16  1  0.310672  0.632964  0.677709  1
  Si  Si17  1  0.358528  0.358414  0.000113  1
  Si  Si18  1  0.050870  0.367504  0.683366  1
  Si  Si19  1  0.948742  0.630515  0.318226  1
  O  O20  1  0.997907  0.997992  0.999916  1
