# generated using pymatgen
data_CeY2(NpAl6)3
_symmetry_space_group_name_H-M   'P 1'
_cell_length_a   14.55021161
_cell_length_b   14.55021147
_cell_length_c   14.55021300
_cell_angle_alpha   24.61416325
_cell_angle_beta   24.61416446
_cell_angle_gamma   24.61416618
_symmetry_Int_Tables_number   1
_chemical_formula_structural   CeY2(NpAl6)3
_chemical_formula_sum   'Ce1 Y2 Np3 Al18'
_cell_volume   469.89883308
_cell_formula_units_Z   1
loop_
 _symmetry_equiv_pos_site_id
 _symmetry_equiv_pos_as_xyz
  1  'x, y, z'
loop_
 _atom_site_type_symbol
 _atom_site_label
 _atom_site_symmetry_multiplicity
 _atom_site_fract_x
 _atom_site_fract_y
 _atom_site_fract_z
 _atom_site_occupancy
  Ce  Ce0  1  0.108931  0.108931  0.108931  1
  Y  Y1  1  0.890701  0.890701  0.890701  1
  Y  Y2  1  0.390788  0.390788  0.390788  1
  Np  Np3  1  0.000169  0.000169  0.000169  1
  Np  Np4  1  0.499658  0.499658  0.499658  1
  Np  Np5  1  0.609133  0.609133  0.609133  1
  Al  Al6  1  0.916114  0.374878  0.374878  1
  Al  Al7  1  0.421324  0.871628  0.871628  1
  Al  Al8  1  0.374878  0.374878  0.916114  1
  Al  Al9  1  0.871628  0.871628  0.421324  1
  Al  Al10  1  0.374878  0.916114  0.374878  1
  Al  Al11  1  0.871628  0.421324  0.871628  1
  Al  Al12  1  0.581680  0.126529  0.126529  1
  Al  Al13  1  0.078553  0.628294  0.628294  1
  Al  Al14  1  0.126529  0.126529  0.581680  1
  Al  Al15  1  0.628294  0.628294  0.078553  1
  Al  Al16  1  0.126529  0.581680  0.126529  1
  Al  Al17  1  0.628294  0.078553  0.628294  1
  Al  Al18  1  0.501649  0.501649  0.995898  1
  Al  Al19  1  0.002080  0.002080  0.496936  1
  Al  Al20  1  0.501649  0.995898  0.501649  1
  Al  Al21  1  0.002080  0.496936  0.002080  1
  Al  Al22  1  0.995898  0.501649  0.501649  1
  Al  Al23  1  0.496936  0.002080  0.002080  1
