# generated using pymatgen
data_Nd7Y3(In3S)2
_symmetry_space_group_name_H-M   'P 1'
_cell_length_a   9.30141400
_cell_length_b   9.30148912
_cell_length_c   6.73085200
_cell_angle_alpha   89.99859555
_cell_angle_beta   90.00162621
_cell_angle_gamma   120.00056508
_symmetry_Int_Tables_number   1
_chemical_formula_structural   Nd7Y3(In3S)2
_chemical_formula_sum   'Nd7 Y3 In6 S2'
_cell_volume   504.31241226
_cell_formula_units_Z   1
loop_
 _symmetry_equiv_pos_site_id
 _symmetry_equiv_pos_as_xyz
  1  'x, y, z'
loop_
 _atom_site_type_symbol
 _atom_site_label
 _atom_site_symmetry_multiplicity
 _atom_site_fract_x
 _atom_site_fract_y
 _atom_site_fract_z
 _atom_site_occupancy
  Nd  Nd0  1  0.666377  0.333119  0.999894  1
  Nd  Nd1  1  0.754961  0.755541  0.251707  1
  Nd  Nd2  1  0.244741  0.999601  0.252203  1
  Nd  Nd3  1  0.000652  0.245176  0.251205  1
  Nd  Nd4  1  0.244620  0.245114  0.748319  1
  Nd  Nd5  1  0.754988  0.999443  0.748503  1
  Nd  Nd6  1  0.000427  0.755356  0.748556  1
  Y  Y7  1  0.332515  0.666851  0.000176  1
  Y  Y8  1  0.667058  0.333459  0.499596  1
  Y  Y9  1  0.333681  0.666416  0.499954  1
  In  In10  1  0.594675  0.997213  0.253298  1
  In  In11  1  0.002627  0.597532  0.253954  1
  In  In12  1  0.402691  0.405414  0.253547  1
  In  In13  1  0.402508  0.997185  0.746131  1
  In  In14  1  0.002548  0.405078  0.745744  1
  In  In15  1  0.594688  0.597444  0.747018  1
  S  S16  1  0.000243  0.999953  0.000065  1
  S  S17  1  0.999999  0.000105  0.500125  1
