# generated using pymatgen
data_YbPrEr8(In2Pt)4
_symmetry_space_group_name_H-M   'P 1'
_cell_length_a   3.59786300
_cell_length_b   8.18000329
_cell_length_c   18.31800719
_cell_angle_alpha   89.91395668
_cell_angle_beta   90.00000000
_cell_angle_gamma   90.00000000
_symmetry_Int_Tables_number   1
_chemical_formula_structural   YbPrEr8(In2Pt)4
_chemical_formula_sum   'Yb1 Pr1 Er8 In8 Pt4'
_cell_volume   539.10807409
_cell_formula_units_Z   1
loop_
 _symmetry_equiv_pos_site_id
 _symmetry_equiv_pos_as_xyz
  1  'x, y, z'
loop_
 _atom_site_type_symbol
 _atom_site_label
 _atom_site_symmetry_multiplicity
 _atom_site_fract_x
 _atom_site_fract_y
 _atom_site_fract_z
 _atom_site_occupancy
  Yb  Yb0  1  0.000000  0.500000  0.500000  1
  Pr  Pr1  1  0.000000  0.000000  0.000000  1
  Er  Er2  1  0.000000  0.118231  0.413707  1
  Er  Er3  1  0.000000  0.881769  0.586293  1
  Er  Er4  1  0.000000  0.380835  0.913525  1
  Er  Er5  1  0.000000  0.619165  0.086475  1
  Er  Er6  1  0.000000  0.243016  0.221010  1
  Er  Er7  1  0.000000  0.756984  0.778990  1
  Er  Er8  1  0.000000  0.256984  0.720241  1
  Er  Er9  1  0.000000  0.743016  0.279759  1
  In  In10  1  0.500000  0.425270  0.350939  1
  In  In11  1  0.500000  0.574730  0.649061  1
  In  In12  1  0.500000  0.077156  0.848581  1
  In  In13  1  0.500000  0.922844  0.151419  1
  In  In14  1  0.500000  0.299155  0.067995  1
  In  In15  1  0.500000  0.700845  0.932005  1
  In  In16  1  0.500000  0.205903  0.566914  1
  In  In17  1  0.500000  0.794097  0.433086  1
  Pt  Pt18  1  0.500000  0.023119  0.303451  1
  Pt  Pt19  1  0.500000  0.976881  0.696549  1
  Pt  Pt20  1  0.500000  0.475487  0.802923  1
  Pt  Pt21  1  0.500000  0.524513  0.197077  1
