# generated using pymatgen
data_Sr5CaSn8HgAs
_symmetry_space_group_name_H-M   'P 1'
_cell_length_a   8.89131977
_cell_length_b   8.89132053
_cell_length_c   8.89132119
_cell_angle_alpha   120.07033552
_cell_angle_beta   120.07034211
_cell_angle_gamma   89.87821842
_symmetry_Int_Tables_number   1
_chemical_formula_structural   Sr5CaSn8HgAs
_chemical_formula_sum   'Sr5 Ca1 Sn8 Hg1 As1'
_cell_volume   496.50169783
_cell_formula_units_Z   1
loop_
 _symmetry_equiv_pos_site_id
 _symmetry_equiv_pos_as_xyz
  1  'x, y, z'
loop_
 _atom_site_type_symbol
 _atom_site_label
 _atom_site_symmetry_multiplicity
 _atom_site_fract_x
 _atom_site_fract_y
 _atom_site_fract_z
 _atom_site_occupancy
  Sr  Sr0  1  0.765067  0.765067  0.000000  1
  Sr  Sr1  1  0.147981  0.678958  0.825539  1
  Sr  Sr2  1  0.853421  0.322444  0.174461  1
  Sr  Sr3  1  0.678958  0.853421  0.530978  1
  Sr  Sr4  1  0.322444  0.147981  0.469022  1
  Ca  Ca5  1  0.232084  0.232084  0.000000  1
  Sn  Sn6  1  0.827792  0.338801  0.788489  1
  Sn  Sn7  1  0.175175  0.656990  0.208916  1
  Sn  Sn8  1  0.550311  0.039303  0.211511  1
  Sn  Sn9  1  0.338801  0.550311  0.511009  1
  Sn  Sn10  1  0.966257  0.175175  0.518184  1
  Sn  Sn11  1  0.448074  0.966257  0.791084  1
  Sn  Sn12  1  0.656990  0.448074  0.481816  1
  Sn  Sn13  1  0.039303  0.827792  0.488991  1
  Hg  Hg14  1  0.491826  0.491826  0.000000  1
  As  As15  1  0.005516  0.005516  0.000000  1
