# generated using pymatgen
data_Ca2TbAl3Si2Pd
_symmetry_space_group_name_H-M   'P 1'
_cell_length_a   6.94162953
_cell_length_b   6.94163011
_cell_length_c   4.32843700
_cell_angle_alpha   90.00000000
_cell_angle_beta   90.00000000
_cell_angle_gamma   120.25751210
_symmetry_Int_Tables_number   1
_chemical_formula_structural   Ca2TbAl3Si2Pd
_chemical_formula_sum   'Ca2 Tb1 Al3 Si2 Pd1'
_cell_volume   180.15728944
_cell_formula_units_Z   1
loop_
 _symmetry_equiv_pos_site_id
 _symmetry_equiv_pos_as_xyz
  1  'x, y, z'
loop_
 _atom_site_type_symbol
 _atom_site_label
 _atom_site_symmetry_multiplicity
 _atom_site_fract_x
 _atom_site_fract_y
 _atom_site_fract_z
 _atom_site_occupancy
  Ca  Ca0  1  0.421535  0.999876  0.000000  1
  Ca  Ca1  1  0.999876  0.421534  0.000000  1
  Tb  Tb2  1  0.579033  0.579033  0.000000  1
  Al  Al3  1  0.761840  0.997993  0.500000  1
  Al  Al4  1  0.238389  0.238390  0.500000  1
  Al  Al5  1  0.997993  0.761840  0.500000  1
  Si  Si6  1  0.665973  0.337855  0.500000  1
  Si  Si7  1  0.337855  0.665973  0.500000  1
  Pd  Pd8  1  0.997504  0.997504  0.000000  1
