# generated using pymatgen
data_DyTm3(HfRh)4
_symmetry_space_group_name_H-M   'P 1'
_cell_length_a   4.58196700
_cell_length_b   6.99900122
_cell_length_c   8.22591000
_cell_angle_alpha   89.90702020
_cell_angle_beta   90.00000000
_cell_angle_gamma   90.00000000
_symmetry_Int_Tables_number   1
_chemical_formula_structural   DyTm3(HfRh)4
_chemical_formula_sum   'Dy1 Tm3 Hf4 Rh4'
_cell_volume   263.79794478
_cell_formula_units_Z   1
loop_
 _symmetry_equiv_pos_site_id
 _symmetry_equiv_pos_as_xyz
  1  'x, y, z'
loop_
 _atom_site_type_symbol
 _atom_site_label
 _atom_site_symmetry_multiplicity
 _atom_site_fract_x
 _atom_site_fract_y
 _atom_site_fract_z
 _atom_site_occupancy
  Dy  Dy0  1  0.250000  0.983199  0.323054  1
  Tm  Tm1  1  0.250000  0.481767  0.176581  1
  Tm  Tm2  1  0.750000  0.018127  0.677696  1
  Tm  Tm3  1  0.750000  0.518122  0.823128  1
  Hf  Hf4  1  0.250000  0.359622  0.574455  1
  Hf  Hf5  1  0.250000  0.858568  0.925810  1
  Hf  Hf6  1  0.750000  0.640038  0.426712  1
  Hf  Hf7  1  0.750000  0.140908  0.071577  1
  Rh  Rh8  1  0.250000  0.232436  0.909377  1
  Rh  Rh9  1  0.250000  0.732003  0.591426  1
  Rh  Rh10  1  0.750000  0.766816  0.089368  1
  Rh  Rh11  1  0.750000  0.268395  0.410814  1
