# generated using pymatgen
data_NdHo3(ReN3)4
_symmetry_space_group_name_H-M   'P 1'
_cell_length_a   5.35380700
_cell_length_b   5.67200318
_cell_length_c   7.74021300
_cell_angle_alpha   90.00000000
_cell_angle_beta   90.00000000
_cell_angle_gamma   90.22868862
_symmetry_Int_Tables_number   1
_chemical_formula_structural   NdHo3(ReN3)4
_chemical_formula_sum   'Nd1 Ho3 Re4 N12'
_cell_volume   235.04370784
_cell_formula_units_Z   1
loop_
 _symmetry_equiv_pos_site_id
 _symmetry_equiv_pos_as_xyz
  1  'x, y, z'
loop_
 _atom_site_type_symbol
 _atom_site_label
 _atom_site_symmetry_multiplicity
 _atom_site_fract_x
 _atom_site_fract_y
 _atom_site_fract_z
 _atom_site_occupancy
  Nd  Nd0  1  0.990830  0.058295  0.750000  1
  Ho  Ho1  1  0.487282  0.433093  0.250000  1
  Ho  Ho2  1  0.011703  0.934033  0.250000  1
  Ho  Ho3  1  0.512972  0.564491  0.750000  1
  Re  Re4  1  0.500438  0.000880  0.498337  1
  Re  Re5  1  0.998182  0.502431  0.001893  1
  Re  Re6  1  0.998182  0.502431  0.498107  1
  Re  Re7  1  0.500438  0.000880  0.001663  1
  N  N8  1  0.695373  0.299984  0.542348  1
  N  N9  1  0.299073  0.704587  0.046041  1
  N  N10  1  0.197646  0.201504  0.046316  1
  N  N11  1  0.434015  0.979323  0.750000  1
  N  N12  1  0.916103  0.516846  0.250000  1
  N  N13  1  0.299073  0.704587  0.453959  1
  N  N14  1  0.795359  0.790707  0.964518  1
  N  N15  1  0.695373  0.299984  0.957652  1
  N  N16  1  0.795359  0.790707  0.535482  1
  N  N17  1  0.085565  0.489243  0.750000  1
  N  N18  1  0.197646  0.201504  0.453684  1
  N  N19  1  0.589386  0.024487  0.250000  1
