# generated using pymatgen
data_Pr3Ga24RePd8
_symmetry_space_group_name_H-M   'P 1'
_cell_length_a   8.53146113
_cell_length_b   8.53208497
_cell_length_c   8.53067222
_cell_angle_alpha   89.68209189
_cell_angle_beta   89.67791515
_cell_angle_gamma   89.68015051
_symmetry_Int_Tables_number   1
_chemical_formula_structural   Pr3Ga24RePd8
_chemical_formula_sum   'Pr3 Ga24 Re1 Pd8'
_cell_volume   620.92851397
_cell_formula_units_Z   1
loop_
 _symmetry_equiv_pos_site_id
 _symmetry_equiv_pos_as_xyz
  1  'x, y, z'
loop_
 _atom_site_type_symbol
 _atom_site_label
 _atom_site_symmetry_multiplicity
 _atom_site_fract_x
 _atom_site_fract_y
 _atom_site_fract_z
 _atom_site_occupancy
  Pr  Pr0  1  0.000000  0.500000  0.000000  1
  Pr  Pr1  1  0.500000  0.000000  0.000000  1
  Pr  Pr2  1  0.000000  0.000000  0.500000  1
  Ga  Ga3  1  0.989767  0.642628  0.642692  1
  Ga  Ga4  1  0.642676  0.642723  0.989748  1
  Ga  Ga5  1  0.642628  0.989737  0.642715  1
  Ga  Ga6  1  0.010233  0.357372  0.357308  1
  Ga  Ga7  1  0.357324  0.357277  0.010252  1
  Ga  Ga8  1  0.357372  0.010263  0.357285  1
  Ga  Ga9  1  0.734958  0.499998  0.265035  1
  Ga  Ga10  1  0.265042  0.500002  0.734965  1
  Ga  Ga11  1  0.500018  0.265014  0.734971  1
  Ga  Ga12  1  0.499982  0.734986  0.265029  1
  Ga  Ga13  1  0.265098  0.734928  0.499976  1
  Ga  Ga14  1  0.734902  0.265072  0.500024  1
  Ga  Ga15  1  0.839387  0.141672  0.839488  1
  Ga  Ga16  1  0.141758  0.839405  0.839531  1
  Ga  Ga17  1  0.839466  0.839452  0.141704  1
  Ga  Ga18  1  0.160613  0.858328  0.160512  1
  Ga  Ga19  1  0.858242  0.160595  0.160469  1
  Ga  Ga20  1  0.160534  0.160548  0.858296  1
  Ga  Ga21  1  0.728439  0.489188  0.728457  1
  Ga  Ga22  1  0.489213  0.728492  0.728495  1
  Ga  Ga23  1  0.728430  0.728464  0.489218  1
  Ga  Ga24  1  0.271561  0.510812  0.271543  1
  Ga  Ga25  1  0.510787  0.271508  0.271505  1
  Ga  Ga26  1  0.271570  0.271536  0.510782  1
  Re  Re27  1  0.500000  0.500000  0.500000  1
  Pd  Pd28  1  0.835611  0.835597  0.835568  1
  Pd  Pd29  1  0.164389  0.164403  0.164432  1
  Pd  Pd30  1  0.663896  0.336129  0.999993  1
  Pd  Pd31  1  0.999990  0.336091  0.663982  1
  Pd  Pd32  1  0.336056  0.999978  0.664004  1
  Pd  Pd33  1  0.336104  0.663871  0.000007  1
  Pd  Pd34  1  0.000010  0.663909  0.336018  1
  Pd  Pd35  1  0.663944  0.000022  0.335996  1
