# generated using pymatgen
data_LaY4HgPd14
_symmetry_space_group_name_H-M   'P 1'
_cell_length_a   4.20520300
_cell_length_b   4.13575700
_cell_length_c   21.03928800
_cell_angle_alpha   90.00000000
_cell_angle_beta   90.00000000
_cell_angle_gamma   90.00000000
_symmetry_Int_Tables_number   1
_chemical_formula_structural   LaY4HgPd14
_chemical_formula_sum   'La1 Y4 Hg1 Pd14'
_cell_volume   365.90893764
_cell_formula_units_Z   1
loop_
 _symmetry_equiv_pos_site_id
 _symmetry_equiv_pos_as_xyz
  1  'x, y, z'
loop_
 _atom_site_type_symbol
 _atom_site_label
 _atom_site_symmetry_multiplicity
 _atom_site_fract_x
 _atom_site_fract_y
 _atom_site_fract_z
 _atom_site_occupancy
  La  La0  1  0.000000  0.000000  0.000000  1
  Y  Y1  1  0.000000  0.000000  0.197609  1
  Y  Y2  1  0.000000  0.000000  0.388978  1
  Y  Y3  1  0.000000  0.000000  0.611022  1
  Y  Y4  1  0.000000  0.000000  0.802391  1
  Hg  Hg5  1  0.500000  0.000000  0.500000  1
  Pd  Pd6  1  0.500000  0.500000  0.000000  1
  Pd  Pd7  1  0.500000  0.500000  0.198550  1
  Pd  Pd8  1  0.500000  0.500000  0.396383  1
  Pd  Pd9  1  0.500000  0.500000  0.603617  1
  Pd  Pd10  1  0.500000  0.500000  0.801450  1
  Pd  Pd11  1  0.500000  0.000000  0.101822  1
  Pd  Pd12  1  0.500000  0.000000  0.296913  1
  Pd  Pd13  1  0.500000  0.000000  0.703087  1
  Pd  Pd14  1  0.500000  0.000000  0.898178  1
  Pd  Pd15  1  0.000000  0.500000  0.101588  1
  Pd  Pd16  1  0.000000  0.500000  0.296587  1
  Pd  Pd17  1  0.000000  0.500000  0.500000  1
  Pd  Pd18  1  0.000000  0.500000  0.703413  1
  Pd  Pd19  1  0.000000  0.500000  0.898412  1
