# generated using pymatgen
data_Nd2AgRhPb
_symmetry_space_group_name_H-M   'P 1'
_cell_length_a   8.18525549
_cell_length_b   8.18525563
_cell_length_c   3.77545200
_cell_angle_alpha   90.00000000
_cell_angle_beta   90.00000000
_cell_angle_gamma   89.17143452
_symmetry_Int_Tables_number   1
_chemical_formula_structural   Nd2AgRhPb
_chemical_formula_sum   'Nd4 Ag2 Rh2 Pb2'
_cell_volume   252.92282720
_cell_formula_units_Z   2
loop_
 _symmetry_equiv_pos_site_id
 _symmetry_equiv_pos_as_xyz
  1  'x, y, z'
loop_
 _atom_site_type_symbol
 _atom_site_label
 _atom_site_symmetry_multiplicity
 _atom_site_fract_x
 _atom_site_fract_y
 _atom_site_fract_z
 _atom_site_occupancy
  Nd  Nd0  1  0.657756  0.157756  0.500000  1
  Nd  Nd1  1  0.342244  0.842244  0.500000  1
  Nd  Nd2  1  0.191311  0.308689  0.500000  1
  Nd  Nd3  1  0.808689  0.691311  0.500000  1
  Ag  Ag4  1  0.121678  0.621678  0.000000  1
  Ag  Ag5  1  0.878322  0.378322  0.000000  1
  Rh  Rh6  1  0.627000  0.873000  0.000000  1
  Rh  Rh7  1  0.373000  0.127000  0.000000  1
  Pb  Pb8  1  0.000000  0.000000  0.000000  1
  Pb  Pb9  1  0.500000  0.500000  0.000000  1
