# generated using pymatgen
data_Hf4In2PdAu3
_symmetry_space_group_name_H-M   'P 1'
_cell_length_a   7.56733328
_cell_length_b   7.56733328
_cell_length_c   7.02149400
_cell_angle_alpha   90.00000000
_cell_angle_beta   90.00000000
_cell_angle_gamma   89.86459193
_symmetry_Int_Tables_number   1
_chemical_formula_structural   Hf4In2PdAu3
_chemical_formula_sum   'Hf8 In4 Pd2 Au6'
_cell_volume   402.08145214
_cell_formula_units_Z   2
loop_
 _symmetry_equiv_pos_site_id
 _symmetry_equiv_pos_as_xyz
  1  'x, y, z'
loop_
 _atom_site_type_symbol
 _atom_site_label
 _atom_site_symmetry_multiplicity
 _atom_site_fract_x
 _atom_site_fract_y
 _atom_site_fract_z
 _atom_site_occupancy
  Hf  Hf0  1  0.151216  0.138093  0.000000  1
  Hf  Hf1  1  0.861907  0.848784  0.000000  1
  Hf  Hf2  1  0.645456  0.354544  0.500000  1
  Hf  Hf3  1  0.346917  0.653083  0.500000  1
  Hf  Hf4  1  0.693548  0.306452  0.000000  1
  Hf  Hf5  1  0.299421  0.700579  0.000000  1
  Hf  Hf6  1  0.817238  0.806897  0.500000  1
  Hf  Hf7  1  0.193103  0.182762  0.500000  1
  In  In8  1  0.496638  0.999266  0.251635  1
  In  In9  1  0.496638  0.999266  0.748365  1
  In  In10  1  0.000734  0.503362  0.251635  1
  In  In11  1  0.000734  0.503362  0.748365  1
  Pd  Pd12  1  0.130838  0.869162  0.291878  1
  Pd  Pd13  1  0.130838  0.869162  0.708122  1
  Au  Au14  1  0.367502  0.370771  0.208257  1
  Au  Au15  1  0.629229  0.632498  0.791743  1
  Au  Au16  1  0.629229  0.632498  0.208257  1
  Au  Au17  1  0.870657  0.129343  0.708953  1
  Au  Au18  1  0.870657  0.129343  0.291047  1
  Au  Au19  1  0.367502  0.370771  0.791743  1
