# generated using pymatgen
data_Er4MgZn(B2Rh5)2
_symmetry_space_group_name_H-M   'P 1'
_cell_length_a   9.54638500
_cell_length_b   9.54638500
_cell_length_c   3.17547600
_cell_angle_alpha   90.00000000
_cell_angle_beta   90.00000000
_cell_angle_gamma   90.00000000
_symmetry_Int_Tables_number   1
_chemical_formula_structural   Er4MgZn(B2Rh5)2
_chemical_formula_sum   'Er4 Mg1 Zn1 B4 Rh10'
_cell_volume   289.39213588
_cell_formula_units_Z   1
loop_
 _symmetry_equiv_pos_site_id
 _symmetry_equiv_pos_as_xyz
  1  'x, y, z'
loop_
 _atom_site_type_symbol
 _atom_site_label
 _atom_site_symmetry_multiplicity
 _atom_site_fract_x
 _atom_site_fract_y
 _atom_site_fract_z
 _atom_site_occupancy
  Er  Er0  1  0.676236  0.175143  0.000000  1
  Er  Er1  1  0.323764  0.824857  0.000000  1
  Er  Er2  1  0.175143  0.323764  0.000000  1
  Er  Er3  1  0.824857  0.676236  0.000000  1
  Mg  Mg4  1  0.500000  0.500000  0.000000  1
  Zn  Zn5  1  0.000000  0.000000  0.000000  1
  B  B6  1  0.122429  0.623887  0.000000  1
  B  B7  1  0.877571  0.376113  0.000000  1
  B  B8  1  0.623887  0.877571  0.000000  1
  B  B9  1  0.376113  0.122429  0.000000  1
  Rh  Rh10  1  0.500000  0.000000  0.500000  1
  Rh  Rh11  1  0.000000  0.500000  0.500000  1
  Rh  Rh12  1  0.219562  0.069174  0.500000  1
  Rh  Rh13  1  0.780438  0.930826  0.500000  1
  Rh  Rh14  1  0.069174  0.780438  0.500000  1
  Rh  Rh15  1  0.723463  0.428870  0.500000  1
  Rh  Rh16  1  0.930826  0.219562  0.500000  1
  Rh  Rh17  1  0.276537  0.571130  0.500000  1
  Rh  Rh18  1  0.571130  0.723463  0.500000  1
  Rh  Rh19  1  0.428870  0.276537  0.500000  1
