# generated using pymatgen
data_NdY6Sn23Ir6
_symmetry_space_group_name_H-M   'P 1'
_cell_length_a   9.88407100
_cell_length_b   9.88407211
_cell_length_c   10.13333600
_cell_angle_alpha   90.00000000
_cell_angle_beta   90.00000000
_cell_angle_gamma   120.00000631
_symmetry_Int_Tables_number   1
_chemical_formula_structural   NdY6Sn23Ir6
_chemical_formula_sum   'Nd1 Y6 Sn23 Ir6'
_cell_volume   857.34340024
_cell_formula_units_Z   1
loop_
 _symmetry_equiv_pos_site_id
 _symmetry_equiv_pos_as_xyz
  1  'x, y, z'
loop_
 _atom_site_type_symbol
 _atom_site_label
 _atom_site_symmetry_multiplicity
 _atom_site_fract_x
 _atom_site_fract_y
 _atom_site_fract_z
 _atom_site_occupancy
  Nd  Nd0  1  0.000000  0.000000  0.000000  1
  Y  Y1  1  0.041981  0.520991  0.307582  1
  Y  Y2  1  0.479009  0.958019  0.307582  1
  Y  Y3  1  0.479009  0.520991  0.307582  1
  Y  Y4  1  0.958019  0.479009  0.692418  1
  Y  Y5  1  0.520991  0.041981  0.692418  1
  Y  Y6  1  0.520991  0.479009  0.692418  1
  Sn  Sn7  1  0.000000  0.000000  0.500000  1
  Sn  Sn8  1  0.118966  0.881034  0.283733  1
  Sn  Sn9  1  0.762069  0.881034  0.283733  1
  Sn  Sn10  1  0.118966  0.237931  0.283733  1
  Sn  Sn11  1  0.881034  0.118966  0.716267  1
  Sn  Sn12  1  0.237931  0.118966  0.716267  1
  Sn  Sn13  1  0.881034  0.762069  0.716267  1
  Sn  Sn14  1  0.352789  0.000000  0.000000  1
  Sn  Sn15  1  0.647211  0.647211  0.000000  1
  Sn  Sn16  1  0.000000  0.352789  0.000000  1
  Sn  Sn17  1  0.352789  0.352789  0.000000  1
  Sn  Sn18  1  0.000000  0.647211  0.000000  1
  Sn  Sn19  1  0.647211  0.000000  0.000000  1
  Sn  Sn20  1  0.777937  0.555873  0.454915  1
  Sn  Sn21  1  0.777937  0.222063  0.454915  1
  Sn  Sn22  1  0.444127  0.222063  0.454915  1
  Sn  Sn23  1  0.222063  0.444127  0.545085  1
  Sn  Sn24  1  0.222063  0.777937  0.545085  1
  Sn  Sn25  1  0.555873  0.777937  0.545085  1
  Sn  Sn26  1  0.666667  0.333333  0.175455  1
  Sn  Sn27  1  0.333333  0.666667  0.824545  1
  Sn  Sn28  1  0.666667  0.333333  0.879409  1
  Sn  Sn29  1  0.333333  0.666667  0.120591  1
  Ir  Ir30  1  0.168863  0.831137  0.801515  1
  Ir  Ir31  1  0.662274  0.831137  0.801515  1
  Ir  Ir32  1  0.168863  0.337726  0.801515  1
  Ir  Ir33  1  0.831137  0.168863  0.198485  1
  Ir  Ir34  1  0.337726  0.168863  0.198485  1
  Ir  Ir35  1  0.831137  0.662274  0.198485  1
