# generated using pymatgen
data_Y12Tm8GaBi11
_symmetry_space_group_name_H-M   'P 1'
_cell_length_a   8.19509113
_cell_length_b   9.43037943
_cell_length_c   12.04663779
_cell_angle_alpha   90.02235026
_cell_angle_beta   90.40494900
_cell_angle_gamma   90.02601306
_symmetry_Int_Tables_number   1
_chemical_formula_structural   Y12Tm8GaBi11
_chemical_formula_sum   'Y12 Tm8 Ga1 Bi11'
_cell_volume   930.97470481
_cell_formula_units_Z   1
loop_
 _symmetry_equiv_pos_site_id
 _symmetry_equiv_pos_as_xyz
  1  'x, y, z'
loop_
 _atom_site_type_symbol
 _atom_site_label
 _atom_site_symmetry_multiplicity
 _atom_site_fract_x
 _atom_site_fract_y
 _atom_site_fract_z
 _atom_site_occupancy
  Y  Y0  1  0.527456  0.749614  0.511345  1
  Y  Y1  1  0.190382  0.749496  0.723174  1
  Y  Y2  1  0.673847  0.750097  0.788958  1
  Y  Y3  1  0.811571  0.249631  0.280247  1
  Y  Y4  1  0.313734  0.250293  0.220133  1
  Y  Y5  1  0.194307  0.937367  0.439030  1
  Y  Y6  1  0.308506  0.048573  0.940748  1
  Y  Y7  1  0.805480  0.437207  0.559568  1
  Y  Y8  1  0.355335  0.749290  0.205242  1
  Y  Y9  1  0.851815  0.749487  0.284933  1
  Y  Y10  1  0.648758  0.249541  0.785316  1
  Y  Y11  1  0.148888  0.250002  0.715971  1
  Tm  Tm12  1  0.035491  0.749400  0.990357  1
  Tm  Tm13  1  0.978268  0.250280  0.009590  1
  Tm  Tm14  1  0.474516  0.249716  0.489269  1
  Tm  Tm15  1  0.308456  0.451357  0.940719  1
  Tm  Tm16  1  0.805523  0.064272  0.559652  1
  Tm  Tm17  1  0.686251  0.928769  0.054927  1
  Tm  Tm18  1  0.194485  0.564125  0.438839  1
  Tm  Tm19  1  0.685822  0.571102  0.054789  1
  Ga  Ga20  1  0.410799  0.748269  0.961898  1
  Bi  Bi21  1  0.435043  0.004607  0.673966  1
  Bi  Bi22  1  0.935536  0.497644  0.826950  1
  Bi  Bi23  1  0.564617  0.503605  0.326221  1
  Bi  Bi24  1  0.063113  0.996920  0.173330  1
  Bi  Bi25  1  0.565113  0.996033  0.326316  1
  Bi  Bi26  1  0.063307  0.502863  0.173447  1
  Bi  Bi27  1  0.434559  0.495066  0.674176  1
  Bi  Bi28  1  0.934889  0.002214  0.826640  1
  Bi  Bi29  1  0.911704  0.751318  0.543838  1
  Bi  Bi30  1  0.591583  0.250556  0.042148  1
  Bi  Bi31  1  0.090850  0.251286  0.458266  1
