# generated using pymatgen
data_Lu5Co19(GeP3)3
_symmetry_space_group_name_H-M   'P 1'
_cell_length_a   12.04661100
_cell_length_b   12.04661198
_cell_length_c   3.67060400
_cell_angle_alpha   90.00000000
_cell_angle_beta   90.00000000
_cell_angle_gamma   120.00000005
_symmetry_Int_Tables_number   1
_chemical_formula_structural   Lu5Co19(GeP3)3
_chemical_formula_sum   'Lu5 Co19 Ge3 P9'
_cell_volume   461.31542220
_cell_formula_units_Z   1
loop_
 _symmetry_equiv_pos_site_id
 _symmetry_equiv_pos_as_xyz
  1  'x, y, z'
loop_
 _atom_site_type_symbol
 _atom_site_label
 _atom_site_symmetry_multiplicity
 _atom_site_fract_x
 _atom_site_fract_y
 _atom_site_fract_z
 _atom_site_occupancy
  Lu  Lu0  1  0.333333  0.666667  0.000000  1
  Lu  Lu1  1  0.666667  0.333333  0.000000  1
  Lu  Lu2  1  0.000000  0.180917  0.500000  1
  Lu  Lu3  1  0.819083  0.819083  0.500000  1
  Lu  Lu4  1  0.180917  0.000000  0.500000  1
  Co  Co5  1  0.622233  0.827979  0.000000  1
  Co  Co6  1  0.172021  0.794254  0.000000  1
  Co  Co7  1  0.205746  0.377767  0.000000  1
  Co  Co8  1  0.377767  0.205746  0.000000  1
  Co  Co9  1  0.827979  0.622233  0.000000  1
  Co  Co10  1  0.794254  0.172021  0.000000  1
  Co  Co11  1  0.000000  0.557797  0.000000  1
  Co  Co12  1  0.442203  0.442203  0.000000  1
  Co  Co13  1  0.557797  0.000000  0.000000  1
  Co  Co14  1  0.511577  0.644210  0.500000  1
  Co  Co15  1  0.355790  0.867366  0.500000  1
  Co  Co16  1  0.132634  0.488423  0.500000  1
  Co  Co17  1  0.488423  0.132634  0.500000  1
  Co  Co18  1  0.644210  0.511577  0.500000  1
  Co  Co19  1  0.867366  0.355790  0.500000  1
  Co  Co20  1  0.000000  0.716178  0.500000  1
  Co  Co21  1  0.283822  0.283822  0.500000  1
  Co  Co22  1  0.716178  0.000000  0.500000  1
  Co  Co23  1  0.000000  0.000000  0.000000  1
  Ge  Ge24  1  0.000000  0.364674  0.000000  1
  Ge  Ge25  1  0.635326  0.635326  0.000000  1
  Ge  Ge26  1  0.364674  0.000000  0.000000  1
  P  P27  1  0.518806  0.834537  0.500000  1
  P  P28  1  0.165463  0.684269  0.500000  1
  P  P29  1  0.315731  0.481194  0.500000  1
  P  P30  1  0.481194  0.315731  0.500000  1
  P  P31  1  0.834537  0.518806  0.500000  1
  P  P32  1  0.684269  0.165463  0.500000  1
  P  P33  1  0.000000  0.819253  0.000000  1
  P  P34  1  0.180747  0.180747  0.000000  1
  P  P35  1  0.819253  0.000000  0.000000  1
