# generated using pymatgen
data_Ho8Ta12Si15Sn
_symmetry_space_group_name_H-M   'P 1'
_cell_length_a   7.08825399
_cell_length_b   7.05205471
_cell_length_c   13.03383886
_cell_angle_alpha   90.05217142
_cell_angle_beta   89.77248158
_cell_angle_gamma   89.83777229
_symmetry_Int_Tables_number   1
_chemical_formula_structural   Ho8Ta12Si15Sn
_chemical_formula_sum   'Ho8 Ta12 Si15 Sn1'
_cell_volume   651.51128410
_cell_formula_units_Z   1
loop_
 _symmetry_equiv_pos_site_id
 _symmetry_equiv_pos_as_xyz
  1  'x, y, z'
loop_
 _atom_site_type_symbol
 _atom_site_label
 _atom_site_symmetry_multiplicity
 _atom_site_fract_x
 _atom_site_fract_y
 _atom_site_fract_z
 _atom_site_occupancy
  Ho  Ho0  1  0.344465  0.999900  0.463134  1
  Ho  Ho1  1  0.504623  0.837149  0.720366  1
  Ho  Ho2  1  0.502985  0.157973  0.217756  1
  Ho  Ho3  1  0.841825  0.497692  0.281005  1
  Ho  Ho4  1  0.158629  0.509887  0.784777  1
  Ho  Ho5  1  0.659296  0.996310  0.970095  1
  Ho  Ho6  1  0.993196  0.348772  0.525693  1
  Ho  Ho7  1  0.998376  0.657697  0.033167  1
  Ta  Ta8  1  0.328882  0.328723  0.001462  1
  Ta  Ta9  1  0.171379  0.828283  0.249608  1
  Ta  Ta10  1  0.819573  0.172143  0.751876  1
  Ta  Ta11  1  0.671115  0.671054  0.499675  1
  Ta  Ta12  1  0.152336  0.004595  0.880782  1
  Ta  Ta13  1  0.494066  0.652136  0.124953  1
  Ta  Ta14  1  0.515443  0.354590  0.623697  1
  Ta  Ta15  1  0.654569  0.493949  0.877440  1
  Ta  Ta16  1  0.346654  0.507207  0.374817  1
  Ta  Ta17  1  0.845561  0.993193  0.373348  1
  Ta  Ta18  1  0.007025  0.153037  0.125224  1
  Ta  Ta19  1  0.980854  0.834583  0.621336  1
  Si  Si20  1  0.367782  0.704140  0.933813  1
  Si  Si21  1  0.631756  0.296912  0.430450  1
  Si  Si22  1  0.704464  0.365592  0.068821  1
  Si  Si23  1  0.294974  0.634092  0.567745  1
  Si  Si24  1  0.797219  0.866267  0.181863  1
  Si  Si25  1  0.133209  0.203287  0.317359  1
  Si  Si26  1  0.867295  0.799002  0.818845  1
  Si  Si27  1  0.295803  0.953941  0.065997  1
  Si  Si28  1  0.547441  0.792464  0.313046  1
  Si  Si29  1  0.459410  0.206103  0.818894  1
  Si  Si30  1  0.797206  0.542499  0.688045  1
  Si  Si31  1  0.206094  0.453952  0.186054  1
  Si  Si32  1  0.703534  0.047078  0.563553  1
  Si  Si33  1  0.954440  0.295028  0.936025  1
  Si  Si34  1  0.046728  0.707367  0.433349  1
  Sn  Sn35  1  0.201788  0.133404  0.675929  1
