# generated using pymatgen
data_LuFe7Tc5
_symmetry_space_group_name_H-M   'P 1'
_cell_length_a   4.72419635
_cell_length_b   6.54059863
_cell_length_c   6.54059847
_cell_angle_alpha   99.24542867
_cell_angle_beta   111.17045430
_cell_angle_gamma   68.82954534
_symmetry_Int_Tables_number   1
_chemical_formula_structural   LuFe7Tc5
_chemical_formula_sum   'Lu1 Fe7 Tc5'
_cell_volume   175.63348569
_cell_formula_units_Z   1
loop_
 _symmetry_equiv_pos_site_id
 _symmetry_equiv_pos_as_xyz
  1  'x, y, z'
loop_
 _atom_site_type_symbol
 _atom_site_label
 _atom_site_symmetry_multiplicity
 _atom_site_fract_x
 _atom_site_fract_y
 _atom_site_fract_z
 _atom_site_occupancy
  Lu  Lu0  1  0.000000  0.009168  0.009168  1
  Fe  Fe1  1  0.500000  0.205101  0.205101  1
  Fe  Fe2  1  0.496136  0.000952  0.493228  1
  Fe  Fe3  1  0.996139  0.000952  0.493228  1
  Fe  Fe4  1  0.503864  0.493228  0.000952  1
  Fe  Fe5  1  0.003861  0.493228  0.000952  1
  Fe  Fe6  1  0.725035  0.772873  0.222942  1
  Fe  Fe7  1  0.274965  0.222942  0.772873  1
  Tc  Tc8  1  0.639154  0.355346  0.633652  1
  Tc  Tc9  1  0.360846  0.633652  0.355346  1
  Tc  Tc10  1  0.000000  0.360702  0.360702  1
  Tc  Tc11  1  0.000000  0.650427  0.650427  1
  Tc  Tc12  1  0.500000  0.801429  0.801429  1
