# generated using pymatgen
data_Zr5Fe2Co16P12W
_symmetry_space_group_name_H-M   'P 1'
_cell_length_a   11.86118293
_cell_length_b   11.89786978
_cell_length_c   3.63439300
_cell_angle_alpha   90.00000000
_cell_angle_beta   90.00000000
_cell_angle_gamma   120.10236365
_symmetry_Int_Tables_number   1
_chemical_formula_structural   Zr5Fe2Co16P12W
_chemical_formula_sum   'Zr5 Fe2 Co16 P12 W1'
_cell_volume   443.72187750
_cell_formula_units_Z   1
loop_
 _symmetry_equiv_pos_site_id
 _symmetry_equiv_pos_as_xyz
  1  'x, y, z'
loop_
 _atom_site_type_symbol
 _atom_site_label
 _atom_site_symmetry_multiplicity
 _atom_site_fract_x
 _atom_site_fract_y
 _atom_site_fract_z
 _atom_site_occupancy
  Zr  Zr0  1  0.667234  0.331976  0.000000  1
  Zr  Zr1  1  0.332766  0.664743  0.000000  1
  Zr  Zr2  1  0.815602  0.815691  0.500000  1
  Zr  Zr3  1  0.184398  0.000089  0.500000  1
  Zr  Zr4  1  0.000000  0.180703  0.500000  1
  Fe  Fe5  1  0.450373  0.449891  0.000000  1
  Fe  Fe6  1  0.549627  0.999519  0.000000  1
  Co  Co7  1  0.199271  0.376487  0.000000  1
  Co  Co8  1  0.178984  0.805723  0.000000  1
  Co  Co9  1  0.821016  0.626739  0.000000  1
  Co  Co10  1  0.800729  0.177216  0.000000  1
  Co  Co11  1  0.376654  0.198175  0.000000  1
  Co  Co12  1  0.128413  0.482839  0.500000  1
  Co  Co13  1  0.356375  0.871732  0.500000  1
  Co  Co14  1  0.517329  0.644789  0.500000  1
  Co  Co15  1  0.643625  0.515357  0.500000  1
  Co  Co16  1  0.871587  0.354427  0.500000  1
  Co  Co17  1  0.482671  0.127461  0.500000  1
  Co  Co18  1  0.000000  0.001514  0.000000  1
  Co  Co19  1  0.715232  0.999952  0.500000  1
  Co  Co20  1  0.000000  0.719499  0.500000  1
  Co  Co21  1  0.623346  0.821520  0.000000  1
  Co  Co22  1  0.284768  0.284719  0.500000  1
  P  P23  1  0.635836  0.637694  0.000000  1
  P  P24  1  0.364164  0.001858  0.000000  1
  P  P25  1  0.000000  0.354532  0.000000  1
  P  P26  1  0.482300  0.316188  0.500000  1
  P  P27  1  0.682156  0.164727  0.500000  1
  P  P28  1  0.830942  0.517388  0.500000  1
  P  P29  1  0.517700  0.833888  0.500000  1
  P  P30  1  0.169058  0.686446  0.500000  1
  P  P31  1  0.821731  0.999366  0.000000  1
  P  P32  1  0.000000  0.825610  0.000000  1
  P  P33  1  0.317844  0.482571  0.500000  1
  P  P34  1  0.178269  0.177635  0.000000  1
  W  W35  1  0.000000  0.551334  0.000000  1
