# generated using pymatgen
data_YTmHf2(Al3Rh)6
_symmetry_space_group_name_H-M   'P 1'
_cell_length_a   7.49635477
_cell_length_b   7.49827049
_cell_length_c   9.35622600
_cell_angle_alpha   90.00000000
_cell_angle_beta   90.00000000
_cell_angle_gamma   119.61391964
_symmetry_Int_Tables_number   1
_chemical_formula_structural   YTmHf2(Al3Rh)6
_chemical_formula_sum   'Y1 Tm1 Hf2 Al18 Rh6'
_cell_volume   457.21349235
_cell_formula_units_Z   1
loop_
 _symmetry_equiv_pos_site_id
 _symmetry_equiv_pos_as_xyz
  1  'x, y, z'
loop_
 _atom_site_type_symbol
 _atom_site_label
 _atom_site_symmetry_multiplicity
 _atom_site_fract_x
 _atom_site_fract_y
 _atom_site_fract_z
 _atom_site_occupancy
  Y  Y0  1  0.006769  0.328732  0.750000  1
  Tm  Tm1  1  0.328618  0.006709  0.750000  1
  Hf  Hf2  1  0.994524  0.672693  0.250000  1
  Hf  Hf3  1  0.672008  0.993934  0.250000  1
  Al  Al4  1  0.120912  0.120915  0.250000  1
  Al  Al5  1  0.870151  0.869358  0.750000  1
  Al  Al6  1  0.996343  0.335032  0.083655  1
  Al  Al7  1  0.999797  0.665678  0.930639  1
  Al  Al8  1  0.999797  0.665678  0.569361  1
  Al  Al9  1  0.335101  0.996630  0.416921  1
  Al  Al10  1  0.996343  0.335032  0.416345  1
  Al  Al11  1  0.664543  0.999088  0.569400  1
  Al  Al12  1  0.664543  0.999088  0.930600  1
  Al  Al13  1  0.335101  0.996630  0.083079  1
  Al  Al14  1  0.334524  0.334014  0.549435  1
  Al  Al15  1  0.669500  0.669395  0.436518  1
  Al  Al16  1  0.669500  0.669395  0.063482  1
  Al  Al17  1  0.334524  0.334014  0.950565  1
  Al  Al18  1  0.338960  0.555952  0.250000  1
  Al  Al19  1  0.660788  0.451282  0.750000  1
  Al  Al20  1  0.556195  0.339017  0.250000  1
  Al  Al21  1  0.452111  0.662587  0.750000  1
  Rh  Rh22  1  0.673097  0.327786  0.002914  1
  Rh  Rh23  1  0.328000  0.673342  0.003046  1
  Rh  Rh24  1  0.328000  0.673342  0.496954  1
  Rh  Rh25  1  0.673097  0.327786  0.497086  1
  Rh  Rh26  1  0.998578  0.998447  0.002649  1
  Rh  Rh27  1  0.998578  0.998447  0.497351  1
