# generated using pymatgen
data_Na2Sr3Cr2F14
_symmetry_space_group_name_H-M   'P 1'
_cell_length_a   9.43204693
_cell_length_b   9.43204720
_cell_length_c   9.43204700
_cell_angle_alpha   109.47122236
_cell_angle_beta   109.47122293
_cell_angle_gamma   109.47122080
_symmetry_Int_Tables_number   1
_chemical_formula_structural   Na2Sr3Cr2F14
_chemical_formula_sum   'Na4 Sr6 Cr4 F28'
_cell_volume   645.94562527
_cell_formula_units_Z   2
loop_
 _symmetry_equiv_pos_site_id
 _symmetry_equiv_pos_as_xyz
  1  'x, y, z'
loop_
 _atom_site_type_symbol
 _atom_site_label
 _atom_site_symmetry_multiplicity
 _atom_site_fract_x
 _atom_site_fract_y
 _atom_site_fract_z
 _atom_site_occupancy
  Na  Na0  1  0.000000  0.172111  0.500000  1
  Na  Na1  1  0.172111  0.500000  0.000000  1
  Na  Na2  1  0.500000  0.000000  0.172111  1
  Na  Na3  1  0.327889  0.327889  0.327889  1
  Sr  Sr4  1  0.036598  0.786598  0.250000  1
  Sr  Sr5  1  0.786598  0.250000  0.036598  1
  Sr  Sr6  1  0.250000  0.036598  0.786598  1
  Sr  Sr7  1  0.750000  0.463402  0.713402  1
  Sr  Sr8  1  0.713402  0.750000  0.463402  1
  Sr  Sr9  1  0.463402  0.713402  0.750000  1
  Cr  Cr10  1  0.000000  0.490881  0.500000  1
  Cr  Cr11  1  0.500000  0.000000  0.490881  1
  Cr  Cr12  1  0.490881  0.500000  0.000000  1
  Cr  Cr13  1  0.009119  0.009119  0.009119  1
  F  F14  1  0.566730  0.566730  0.566730  1
  F  F15  1  0.987628  0.422566  0.672110  1
  F  F16  1  0.077434  0.065063  0.249544  1
  F  F17  1  0.320552  0.999389  0.547625  1
  F  F18  1  0.827890  0.250456  0.315519  1
  F  F19  1  0.821162  0.548234  0.500611  1
  F  F20  1  0.249544  0.077434  0.065063  1
  F  F21  1  0.315519  0.827890  0.250456  1
  F  F22  1  0.952375  0.951766  0.772927  1
  F  F23  1  0.547625  0.320552  0.999389  1
  F  F24  1  0.500000  0.000000  0.933270  1
  F  F25  1  0.000000  0.933270  0.500000  1
  F  F26  1  0.727073  0.678838  0.179448  1
  F  F27  1  0.422566  0.672110  0.987628  1
  F  F28  1  0.672110  0.987628  0.422566  1
  F  F29  1  0.999390  0.547625  0.320552  1
  F  F30  1  0.678838  0.179448  0.727073  1
  F  F31  1  0.772927  0.952375  0.951766  1
  F  F32  1  0.184481  0.434937  0.512372  1
  F  F33  1  0.250456  0.315519  0.827890  1
  F  F34  1  0.179448  0.727073  0.678838  1
  F  F35  1  0.933270  0.500000  0.000000  1
  F  F36  1  0.434937  0.512372  0.184481  1
  F  F37  1  0.512372  0.184481  0.434937  1
  F  F38  1  0.548234  0.500611  0.821162  1
  F  F39  1  0.500611  0.821162  0.548234  1
  F  F40  1  0.065063  0.249544  0.077434  1
  F  F41  1  0.951766  0.772927  0.952375  1
