# generated using pymatgen
data_PrHo2SiPd5
_symmetry_space_group_name_H-M   'P 1'
_cell_length_a   8.32189998
_cell_length_b   8.32189915
_cell_length_c   8.32189881
_cell_angle_alpha   127.77146445
_cell_angle_beta   126.33330009
_cell_angle_gamma   78.17079256
_symmetry_Int_Tables_number   1
_chemical_formula_structural   PrHo2SiPd5
_chemical_formula_sum   'Pr2 Ho4 Si2 Pd10'
_cell_volume   355.53059968
_cell_formula_units_Z   2
loop_
 _symmetry_equiv_pos_site_id
 _symmetry_equiv_pos_as_xyz
  1  'x, y, z'
loop_
 _atom_site_type_symbol
 _atom_site_label
 _atom_site_symmetry_multiplicity
 _atom_site_fract_x
 _atom_site_fract_y
 _atom_site_fract_z
 _atom_site_occupancy
  Pr  Pr0  1  0.382236  0.250000  0.132236  1
  Pr  Pr1  1  0.617764  0.750000  0.867764  1
  Ho  Ho2  1  0.223761  0.450152  0.773610  1
  Ho  Ho3  1  0.776239  0.549848  0.226390  1
  Ho  Ho4  1  0.823457  0.049848  0.773610  1
  Ho  Ho5  1  0.176543  0.950152  0.226390  1
  Si  Si6  1  0.783903  0.250000  0.533903  1
  Si  Si7  1  0.216097  0.750000  0.466097  1
  Pd  Pd8  1  0.161631  0.400674  0.356662  1
  Pd  Pd9  1  0.838369  0.195031  0.239043  1
  Pd  Pd10  1  0.455988  0.099326  0.760957  1
  Pd  Pd11  1  0.544012  0.304969  0.643338  1
  Pd  Pd12  1  0.000000  0.500000  0.000000  1
  Pd  Pd13  1  0.000000  0.000000  0.500000  1
  Pd  Pd14  1  0.455988  0.695031  0.356662  1
  Pd  Pd15  1  0.544012  0.900674  0.239043  1
  Pd  Pd16  1  0.161631  0.804969  0.760957  1
  Pd  Pd17  1  0.838369  0.599326  0.643338  1
