# generated using pymatgen
data_Ca3Sm(CdPt)4
_symmetry_space_group_name_H-M   'P 1'
_cell_length_a   4.22586100
_cell_length_b   7.35714539
_cell_length_c   8.80739854
_cell_angle_alpha   90.20129803
_cell_angle_beta   90.00000000
_cell_angle_gamma   90.00000000
_symmetry_Int_Tables_number   1
_chemical_formula_structural   Ca3Sm(CdPt)4
_chemical_formula_sum   'Ca3 Sm1 Cd4 Pt4'
_cell_volume   273.82274199
_cell_formula_units_Z   1
loop_
 _symmetry_equiv_pos_site_id
 _symmetry_equiv_pos_as_xyz
  1  'x, y, z'
loop_
 _atom_site_type_symbol
 _atom_site_label
 _atom_site_symmetry_multiplicity
 _atom_site_fract_x
 _atom_site_fract_y
 _atom_site_fract_z
 _atom_site_occupancy
  Ca  Ca0  1  0.250000  0.538676  0.175323  1
  Ca  Ca1  1  0.750000  0.959686  0.681430  1
  Ca  Ca2  1  0.750000  0.460758  0.820743  1
  Sm  Sm3  1  0.250000  0.041451  0.325862  1
  Cd  Cd4  1  0.250000  0.142135  0.933939  1
  Cd  Cd5  1  0.250000  0.642377  0.564564  1
  Cd  Cd6  1  0.750000  0.853348  0.061084  1
  Cd  Cd7  1  0.750000  0.366477  0.437059  1
  Pt  Pt8  1  0.250000  0.248910  0.623694  1
  Pt  Pt9  1  0.250000  0.750802  0.869514  1
  Pt  Pt10  1  0.750000  0.758263  0.369712  1
  Pt  Pt11  1  0.750000  0.237117  0.137077  1
