# generated using pymatgen
data_Tb3HoTh4(ReB6)4
_symmetry_space_group_name_H-M   'P 1'
_cell_length_a   3.77828000
_cell_length_b   9.28078907
_cell_length_c   11.70388509
_cell_angle_alpha   90.01408244
_cell_angle_beta   90.00000000
_cell_angle_gamma   90.00000000
_symmetry_Int_Tables_number   1
_chemical_formula_structural   Tb3HoTh4(ReB6)4
_chemical_formula_sum   'Tb3 Ho1 Th4 Re4 B24'
_cell_volume   410.40163067
_cell_formula_units_Z   1
loop_
 _symmetry_equiv_pos_site_id
 _symmetry_equiv_pos_as_xyz
  1  'x, y, z'
loop_
 _atom_site_type_symbol
 _atom_site_label
 _atom_site_symmetry_multiplicity
 _atom_site_fract_x
 _atom_site_fract_y
 _atom_site_fract_z
 _atom_site_occupancy
  Tb  Tb0  1  0.000000  0.944553  0.372538  1
  Tb  Tb1  1  0.000000  0.055447  0.627575  1
  Tb  Tb2  1  0.000000  0.444666  0.127170  1
  Ho  Ho3  1  0.000000  0.555449  0.872418  1
  Th  Th4  1  0.000000  0.322490  0.414150  1
  Th  Th5  1  0.000000  0.677526  0.586027  1
  Th  Th6  1  0.000000  0.822289  0.085760  1
  Th  Th7  1  0.000000  0.177753  0.914034  1
  Re  Re8  1  0.000000  0.638690  0.320335  1
  Re  Re9  1  0.000000  0.361655  0.679966  1
  Re  Re10  1  0.000000  0.138794  0.179520  1
  Re  Re11  1  0.000000  0.860637  0.820458  1
  B  B12  1  0.500000  0.556023  0.430119  1
  B  B13  1  0.500000  0.444052  0.570059  1
  B  B14  1  0.500000  0.055970  0.069850  1
  B  B15  1  0.500000  0.943798  0.930073  1
  B  B16  1  0.500000  0.748906  0.417169  1
  B  B17  1  0.500000  0.251169  0.582900  1
  B  B18  1  0.500000  0.248971  0.082811  1
  B  B19  1  0.500000  0.750443  0.917153  1
  B  B20  1  0.500000  0.790318  0.266795  1
  B  B21  1  0.500000  0.209909  0.733268  1
  B  B22  1  0.500000  0.290354  0.233162  1
  B  B23  1  0.500000  0.709091  0.766948  1
  B  B24  1  0.500000  0.630792  0.186587  1
  B  B25  1  0.500000  0.369681  0.813662  1
  B  B26  1  0.500000  0.130860  0.313353  1
  B  B27  1  0.500000  0.868996  0.686740  1
  B  B28  1  0.500000  0.985525  0.213527  1
  B  B29  1  0.500000  0.014363  0.786507  1
  B  B30  1  0.500000  0.485511  0.286427  1
  B  B31  1  0.500000  0.514826  0.713968  1
  B  B32  1  0.500000  0.603667  0.028013  1
  B  B33  1  0.500000  0.396837  0.970891  1
  B  B34  1  0.500000  0.104012  0.471319  1
  B  B35  1  0.500000  0.895975  0.528748  1
