# generated using pymatgen
data_Ca6TbNd(Si3Pd)4
_symmetry_space_group_name_H-M   'P 1'
_cell_length_a   8.25906300
_cell_length_b   8.25906206
_cell_length_c   8.36089700
_cell_angle_alpha   90.00000000
_cell_angle_beta   90.00000000
_cell_angle_gamma   120.00000775
_symmetry_Int_Tables_number   1
_chemical_formula_structural   Ca6TbNd(Si3Pd)4
_chemical_formula_sum   'Ca6 Tb1 Nd1 Si12 Pd4'
_cell_volume   493.90677064
_cell_formula_units_Z   1
loop_
 _symmetry_equiv_pos_site_id
 _symmetry_equiv_pos_as_xyz
  1  'x, y, z'
loop_
 _atom_site_type_symbol
 _atom_site_label
 _atom_site_symmetry_multiplicity
 _atom_site_fract_x
 _atom_site_fract_y
 _atom_site_fract_z
 _atom_site_occupancy
  Ca  Ca0  1  0.501296  0.002591  0.250000  1
  Ca  Ca1  1  0.498571  0.997143  0.750000  1
  Ca  Ca2  1  0.997409  0.498704  0.250000  1
  Ca  Ca3  1  0.002857  0.501429  0.750000  1
  Ca  Ca4  1  0.501296  0.498704  0.250000  1
  Ca  Ca5  1  0.498571  0.501429  0.750000  1
  Tb  Tb6  1  0.000000  0.000000  0.750000  1
  Nd  Nd7  1  0.000000  0.000000  0.250000  1
  Si  Si8  1  0.164955  0.329909  0.997566  1
  Si  Si9  1  0.835053  0.670107  0.995941  1
  Si  Si10  1  0.670091  0.835045  0.997566  1
  Si  Si11  1  0.835053  0.670107  0.504059  1
  Si  Si12  1  0.329893  0.164947  0.995941  1
  Si  Si13  1  0.164955  0.329909  0.502434  1
  Si  Si14  1  0.164955  0.835045  0.997566  1
  Si  Si15  1  0.329893  0.164947  0.504059  1
  Si  Si16  1  0.835053  0.164947  0.995941  1
  Si  Si17  1  0.670091  0.835045  0.502434  1
  Si  Si18  1  0.835053  0.164947  0.504059  1
  Si  Si19  1  0.164955  0.835045  0.502434  1
  Pd  Pd20  1  0.333333  0.666667  0.003337  1
  Pd  Pd21  1  0.666667  0.333333  0.996839  1
  Pd  Pd22  1  0.666667  0.333333  0.503161  1
  Pd  Pd23  1  0.333333  0.666667  0.496663  1
