# generated using pymatgen
data_CeHo4Ir3
_symmetry_space_group_name_H-M   'P 1'
_cell_length_a   10.93428300
_cell_length_b   10.90743700
_cell_length_c   6.32576400
_cell_angle_alpha   90.00000000
_cell_angle_beta   90.00000000
_cell_angle_gamma   90.00000000
_symmetry_Int_Tables_number   1
_chemical_formula_structural   CeHo4Ir3
_chemical_formula_sum   'Ce4 Ho16 Ir12'
_cell_volume   754.44226220
_cell_formula_units_Z   4
loop_
 _symmetry_equiv_pos_site_id
 _symmetry_equiv_pos_as_xyz
  1  'x, y, z'
loop_
 _atom_site_type_symbol
 _atom_site_label
 _atom_site_symmetry_multiplicity
 _atom_site_fract_x
 _atom_site_fract_y
 _atom_site_fract_z
 _atom_site_occupancy
  Ce  Ce0  1  0.293906  0.092071  0.381164  1
  Ce  Ce1  1  0.293906  0.907929  0.881164  1
  Ce  Ce2  1  0.706094  0.092071  0.881164  1
  Ce  Ce3  1  0.706094  0.907929  0.381164  1
  Ho  Ho4  1  0.588870  0.786541  0.878620  1
  Ho  Ho5  1  0.588870  0.213459  0.378620  1
  Ho  Ho6  1  0.411130  0.786541  0.378620  1
  Ho  Ho7  1  0.411130  0.213459  0.878620  1
  Ho  Ho8  1  0.206586  0.413319  0.621683  1
  Ho  Ho9  1  0.206586  0.586681  0.121683  1
  Ho  Ho10  1  0.793414  0.413319  0.121683  1
  Ho  Ho11  1  0.793414  0.586681  0.621683  1
  Ho  Ho12  1  0.913139  0.707787  0.117707  1
  Ho  Ho13  1  0.913139  0.292213  0.617707  1
  Ho  Ho14  1  0.086861  0.707787  0.617707  1
  Ho  Ho15  1  0.086861  0.292213  0.117707  1
  Ho  Ho16  1  0.000000  0.000000  0.497303  1
  Ho  Ho17  1  0.000000  0.000000  0.997303  1
  Ho  Ho18  1  0.500000  0.500000  0.010942  1
  Ho  Ho19  1  0.500000  0.500000  0.510942  1
  Ir  Ir20  1  0.843987  0.153603  0.243925  1
  Ir  Ir21  1  0.843987  0.846397  0.743925  1
  Ir  Ir22  1  0.156013  0.153603  0.743925  1
  Ir  Ir23  1  0.156013  0.846397  0.243925  1
  Ir  Ir24  1  0.653489  0.346421  0.755169  1
  Ir  Ir25  1  0.653489  0.653579  0.255169  1
  Ir  Ir26  1  0.346511  0.346421  0.255169  1
  Ir  Ir27  1  0.346511  0.653579  0.755169  1
  Ir  Ir28  1  0.500000  0.000000  0.119078  1
  Ir  Ir29  1  0.500000  0.000000  0.619078  1
  Ir  Ir30  1  0.000000  0.500000  0.876142  1
  Ir  Ir31  1  0.000000  0.500000  0.376142  1
