# generated using pymatgen
data_Tb3In3SnPtRh
_symmetry_space_group_name_H-M   'P 1'
_cell_length_a   7.62817700
_cell_length_b   7.62817719
_cell_length_c   4.15076200
_cell_angle_alpha   90.00000000
_cell_angle_beta   90.00000000
_cell_angle_gamma   120.00000350
_symmetry_Int_Tables_number   1
_chemical_formula_structural   Tb3In3SnPtRh
_chemical_formula_sum   'Tb3 In3 Sn1 Pt1 Rh1'
_cell_volume   209.17028238
_cell_formula_units_Z   1
loop_
 _symmetry_equiv_pos_site_id
 _symmetry_equiv_pos_as_xyz
  1  'x, y, z'
loop_
 _atom_site_type_symbol
 _atom_site_label
 _atom_site_symmetry_multiplicity
 _atom_site_fract_x
 _atom_site_fract_y
 _atom_site_fract_z
 _atom_site_occupancy
  Tb  Tb0  1  0.393347  0.980752  0.000000  1
  Tb  Tb1  1  0.019248  0.412595  0.000000  1
  Tb  Tb2  1  0.587405  0.606653  0.000000  1
  In  In3  1  0.242144  0.252875  0.500000  1
  In  In4  1  0.010730  0.757856  0.500000  1
  In  In5  1  0.747125  0.989270  0.500000  1
  Sn  Sn6  1  0.666667  0.333333  0.500000  1
  Pt  Pt7  1  0.333333  0.666667  0.500000  1
  Rh  Rh8  1  0.000000  0.000000  0.000000  1
