# generated using pymatgen
data_LaNd11(RhBr3)4
_symmetry_space_group_name_H-M   'P 1'
_cell_length_a   10.48337476
_cell_length_b   10.48234057
_cell_length_c   10.52966805
_cell_angle_alpha   109.31254269
_cell_angle_beta   109.68591802
_cell_angle_gamma   109.50321652
_symmetry_Int_Tables_number   1
_chemical_formula_structural   LaNd11(RhBr3)4
_chemical_formula_sum   'La1 Nd11 Rh4 Br12'
_cell_volume   889.76653629
_cell_formula_units_Z   1
loop_
 _symmetry_equiv_pos_site_id
 _symmetry_equiv_pos_as_xyz
  1  'x, y, z'
loop_
 _atom_site_type_symbol
 _atom_site_label
 _atom_site_symmetry_multiplicity
 _atom_site_fract_x
 _atom_site_fract_y
 _atom_site_fract_z
 _atom_site_occupancy
  La  La0  1  0.034462  0.267231  0.017231  1
  Nd  Nd1  1  0.266835  0.753090  0.235403  1
  Nd  Nd2  1  0.481185  0.746188  0.015393  1
  Nd  Nd3  1  0.234866  0.469199  0.486271  1
  Nd  Nd4  1  0.013888  0.031162  0.267092  1
  Nd  Nd5  1  0.234866  0.265667  0.748595  1
  Nd  Nd6  1  0.013888  0.482726  0.746796  1
  Nd  Nd7  1  0.481185  0.234996  0.465792  1
  Nd  Nd8  1  0.266835  0.013745  0.031431  1
  Nd  Nd9  1  0.748859  0.233138  0.265629  1
  Nd  Nd10  1  0.748859  0.015721  0.483231  1
  Nd  Nd11  1  0.470985  0.485492  0.235492  1
  Rh  Rh12  1  0.499503  0.999752  0.249752  1
  Rh  Rh13  1  0.248751  0.498610  0.000370  1
  Rh  Rh14  1  0.000101  0.250050  0.500050  1
  Rh  Rh15  1  0.248751  0.250142  0.248382  1
  Br  Br16  1  0.249868  0.995862  0.504417  1
  Br  Br17  1  0.509730  0.504865  0.754865  1
  Br  Br18  1  0.249868  0.754006  0.745451  1
  Br  Br19  1  0.991052  0.745526  0.995526  1
  Br  Br20  1  0.999362  0.509481  0.255814  1
  Br  Br21  1  0.743865  0.993609  0.993247  1
  Br  Br22  1  0.754783  0.745555  0.250591  1
  Br  Br23  1  0.504821  0.754533  0.508320  1
  Br  Br24  1  0.504821  0.250288  0.996501  1
  Br  Br25  1  0.754783  0.509229  0.504193  1
  Br  Br26  1  0.743865  0.250255  0.750618  1
  Br  Br27  1  0.999362  0.989882  0.743547  1
