# generated using pymatgen
data_Ca2GaIrPt
_symmetry_space_group_name_H-M   'P 1'
_cell_length_a   5.74689762
_cell_length_b   5.74689657
_cell_length_c   7.76526326
_cell_angle_alpha   79.13532716
_cell_angle_beta   79.13533268
_cell_angle_gamma   59.42267053
_symmetry_Int_Tables_number   1
_chemical_formula_structural   Ca2GaIrPt
_chemical_formula_sum   'Ca4 Ga2 Ir2 Pt2'
_cell_volume   215.53694248
_cell_formula_units_Z   2
loop_
 _symmetry_equiv_pos_site_id
 _symmetry_equiv_pos_as_xyz
  1  'x, y, z'
loop_
 _atom_site_type_symbol
 _atom_site_label
 _atom_site_symmetry_multiplicity
 _atom_site_fract_x
 _atom_site_fract_y
 _atom_site_fract_z
 _atom_site_occupancy
  Ca  Ca0  1  0.788691  0.509655  0.353901  1
  Ca  Ca1  1  0.490345  0.211309  0.146099  1
  Ca  Ca2  1  0.214535  0.494544  0.646282  1
  Ca  Ca3  1  0.505456  0.785465  0.853718  1
  Ga  Ga4  1  0.112582  0.887418  0.250000  1
  Ga  Ga5  1  0.905438  0.094562  0.750000  1
  Ir  Ir6  1  0.005376  0.729052  0.009760  1
  Ir  Ir7  1  0.270948  0.994624  0.490240  1
  Pt  Pt8  1  0.991463  0.284836  0.992396  1
  Pt  Pt9  1  0.715164  0.008537  0.507604  1
