# generated using pymatgen
data_Nd2NiSbI2
_symmetry_space_group_name_H-M   'P 1'
_cell_length_a   4.35316500
_cell_length_b   4.35316820
_cell_length_c   12.64439000
_cell_angle_alpha   89.99996993
_cell_angle_beta   90.00003129
_cell_angle_gamma   120.00015138
_symmetry_Int_Tables_number   1
_chemical_formula_structural   Nd2NiSbI2
_chemical_formula_sum   'Nd2 Ni1 Sb1 I2'
_cell_volume   207.50971258
_cell_formula_units_Z   1
loop_
 _symmetry_equiv_pos_site_id
 _symmetry_equiv_pos_as_xyz
  1  'x, y, z'
loop_
 _atom_site_type_symbol
 _atom_site_label
 _atom_site_symmetry_multiplicity
 _atom_site_fract_x
 _atom_site_fract_y
 _atom_site_fract_z
 _atom_site_occupancy
  Nd  Nd0  1  0.000000  0.000000  0.336510  1
  Nd  Nd1  1  0.000000  0.000000  0.657967  1
  Ni  Ni2  1  0.666667  0.333334  0.517065  1
  Sb  Sb3  1  0.333333  0.666668  0.490201  1
  I  I4  1  0.666666  0.333334  0.175121  1
  I  I5  1  0.333333  0.666666  0.823135  1
