# generated using pymatgen
data_TbHo3ReB12Ir
_symmetry_space_group_name_H-M   'P 1'
_cell_length_a   3.66642500
_cell_length_b   9.15302534
_cell_length_c   11.54225700
_cell_angle_alpha   90.33371893
_cell_angle_beta   90.00000000
_cell_angle_gamma   90.00000000
_symmetry_Int_Tables_number   1
_chemical_formula_structural   TbHo3ReB12Ir
_chemical_formula_sum   'Tb2 Ho6 Re2 B24 Ir2'
_cell_volume   387.33865813
_cell_formula_units_Z   2
loop_
 _symmetry_equiv_pos_site_id
 _symmetry_equiv_pos_as_xyz
  1  'x, y, z'
loop_
 _atom_site_type_symbol
 _atom_site_label
 _atom_site_symmetry_multiplicity
 _atom_site_fract_x
 _atom_site_fract_y
 _atom_site_fract_z
 _atom_site_occupancy
  Tb  Tb0  1  0.000000  0.317513  0.409979  1
  Tb  Tb1  1  0.000000  0.682487  0.590021  1
  Ho  Ho2  1  0.000000  0.826572  0.082165  1
  Ho  Ho3  1  0.000000  0.173428  0.917835  1
  Ho  Ho4  1  0.000000  0.946103  0.372080  1
  Ho  Ho5  1  0.000000  0.053897  0.627920  1
  Ho  Ho6  1  0.000000  0.441747  0.125746  1
  Ho  Ho7  1  0.000000  0.558253  0.874254  1
  Re  Re8  1  0.000000  0.138095  0.179475  1
  Re  Re9  1  0.000000  0.861905  0.820525  1
  B  B10  1  0.500000  0.554365  0.433548  1
  B  B11  1  0.500000  0.445635  0.566452  1
  B  B12  1  0.500000  0.053273  0.067134  1
  B  B13  1  0.500000  0.946727  0.932866  1
  B  B14  1  0.500000  0.749506  0.420796  1
  B  B15  1  0.500000  0.250494  0.579204  1
  B  B16  1  0.500000  0.247722  0.080570  1
  B  B17  1  0.500000  0.752278  0.919430  1
  B  B18  1  0.500000  0.790939  0.265924  1
  B  B19  1  0.500000  0.209061  0.734076  1
  B  B20  1  0.500000  0.292039  0.233858  1
  B  B21  1  0.500000  0.707961  0.766142  1
  B  B22  1  0.500000  0.631887  0.183931  1
  B  B23  1  0.500000  0.368113  0.816069  1
  B  B24  1  0.500000  0.131433  0.314417  1
  B  B25  1  0.500000  0.868567  0.685583  1
  B  B26  1  0.500000  0.982877  0.212876  1
  B  B27  1  0.500000  0.017123  0.787124  1
  B  B28  1  0.500000  0.482900  0.287011  1
  B  B29  1  0.500000  0.517100  0.712989  1
  B  B30  1  0.500000  0.607325  0.030044  1
  B  B31  1  0.500000  0.392675  0.969956  1
  B  B32  1  0.500000  0.107221  0.470888  1
  B  B33  1  0.500000  0.892779  0.529112  1
  Ir  Ir34  1  0.000000  0.636997  0.321703  1
  Ir  Ir35  1  0.000000  0.363003  0.678297  1
