# generated using pymatgen
data_Sr4FeSbO8
_symmetry_space_group_name_H-M   'P 1'
_cell_length_a   6.93676869
_cell_length_b   6.93676765
_cell_length_c   5.66502800
_cell_angle_alpha   90.00000000
_cell_angle_beta   90.00000000
_cell_angle_gamma   131.75308469
_symmetry_Int_Tables_number   1
_chemical_formula_structural   Sr4FeSbO8
_chemical_formula_sum   'Sr4 Fe1 Sb1 O8'
_cell_volume   203.36105189
_cell_formula_units_Z   1
loop_
 _symmetry_equiv_pos_site_id
 _symmetry_equiv_pos_as_xyz
  1  'x, y, z'
loop_
 _atom_site_type_symbol
 _atom_site_label
 _atom_site_symmetry_multiplicity
 _atom_site_fract_x
 _atom_site_fract_y
 _atom_site_fract_z
 _atom_site_occupancy
  Sr  Sr0  1  0.647330  0.352670  0.000000  1
  Sr  Sr1  1  0.144385  0.855615  0.500000  1
  Sr  Sr2  1  0.855615  0.144385  0.500000  1
  Sr  Sr3  1  0.352670  0.647330  0.000000  1
  Fe  Fe4  1  0.000000  0.000000  0.000000  1
  Sb  Sb5  1  0.500000  0.500000  0.500000  1
  O  O6  1  0.748212  0.748212  0.745915  1
  O  O7  1  0.251788  0.251788  0.254085  1
  O  O8  1  0.251788  0.251788  0.745915  1
  O  O9  1  0.748212  0.748212  0.254085  1
  O  O10  1  0.838793  0.161207  0.000000  1
  O  O11  1  0.339636  0.660364  0.500000  1
  O  O12  1  0.660364  0.339636  0.500000  1
  O  O13  1  0.161207  0.838793  0.000000  1
