# generated using pymatgen
data_Ba4Pr7NdSe16
_symmetry_space_group_name_H-M   'P 1'
_cell_length_a   4.36989500
_cell_length_b   13.13613029
_cell_length_c   15.67660221
_cell_angle_alpha   89.97846888
_cell_angle_beta   90.00000000
_cell_angle_gamma   90.00000000
_symmetry_Int_Tables_number   1
_chemical_formula_structural   Ba4Pr7NdSe16
_chemical_formula_sum   'Ba4 Pr7 Nd1 Se16'
_cell_volume   899.89192967
_cell_formula_units_Z   1
loop_
 _symmetry_equiv_pos_site_id
 _symmetry_equiv_pos_as_xyz
  1  'x, y, z'
loop_
 _atom_site_type_symbol
 _atom_site_label
 _atom_site_symmetry_multiplicity
 _atom_site_fract_x
 _atom_site_fract_y
 _atom_site_fract_z
 _atom_site_occupancy
  Ba  Ba0  1  0.250000  0.757368  0.337541  1
  Ba  Ba1  1  0.250000  0.257044  0.163092  1
  Ba  Ba2  1  0.750000  0.242444  0.661988  1
  Ba  Ba3  1  0.750000  0.742883  0.837339  1
  Pr  Pr4  1  0.250000  0.429947  0.391355  1
  Pr  Pr5  1  0.250000  0.930929  0.109335  1
  Pr  Pr6  1  0.750000  0.569478  0.608720  1
  Pr  Pr7  1  0.750000  0.069541  0.891327  1
  Pr  Pr8  1  0.250000  0.420073  0.899041  1
  Pr  Pr9  1  0.250000  0.920600  0.600529  1
  Pr  Pr10  1  0.750000  0.579852  0.101010  1
  Nd  Nd11  1  0.750000  0.079616  0.398835  1
  Se  Se12  1  0.250000  0.207253  0.825965  1
  Se  Se13  1  0.250000  0.707632  0.673462  1
  Se  Se14  1  0.750000  0.792837  0.173995  1
  Se  Se15  1  0.750000  0.291717  0.326800  1
  Se  Se16  1  0.250000  0.130454  0.525031  1
  Se  Se17  1  0.250000  0.630461  0.973659  1
  Se  Se18  1  0.750000  0.870378  0.473163  1
  Se  Se19  1  0.750000  0.369475  0.026492  1
  Se  Se20  1  0.250000  0.523496  0.217293  1
  Se  Se21  1  0.250000  0.023931  0.283462  1
  Se  Se22  1  0.750000  0.476276  0.782828  1
  Se  Se23  1  0.750000  0.976417  0.716898  1
  Se  Se24  1  0.250000  0.415476  0.579621  1
  Se  Se25  1  0.250000  0.915784  0.920933  1
  Se  Se26  1  0.750000  0.584038  0.420459  1
  Se  Se27  1  0.750000  0.084597  0.079829  1
