# generated using pymatgen
data_Er2LuSc(FeB6)2
_symmetry_space_group_name_H-M   'P 1'
_cell_length_a   3.46441400
_cell_length_b   8.94846556
_cell_length_c   11.31056571
_cell_angle_alpha   90.04064249
_cell_angle_beta   90.00000000
_cell_angle_gamma   90.00000000
_symmetry_Int_Tables_number   1
_chemical_formula_structural   Er2LuSc(FeB6)2
_chemical_formula_sum   'Er4 Lu2 Sc2 Fe4 B24'
_cell_volume   350.64090133
_cell_formula_units_Z   2
loop_
 _symmetry_equiv_pos_site_id
 _symmetry_equiv_pos_as_xyz
  1  'x, y, z'
loop_
 _atom_site_type_symbol
 _atom_site_label
 _atom_site_symmetry_multiplicity
 _atom_site_fract_x
 _atom_site_fract_y
 _atom_site_fract_z
 _atom_site_occupancy
  Er  Er0  1  0.000000  0.821168  0.084862  1
  Er  Er1  1  0.000000  0.178832  0.915138  1
  Er  Er2  1  0.000000  0.323934  0.413472  1
  Er  Er3  1  0.000000  0.676066  0.586528  1
  Lu  Lu4  1  0.000000  0.943386  0.370236  1
  Lu  Lu5  1  0.000000  0.056614  0.629764  1
  Sc  Sc6  1  0.000000  0.444048  0.127699  1
  Sc  Sc7  1  0.000000  0.555952  0.872301  1
  Fe  Fe8  1  0.000000  0.142095  0.179195  1
  Fe  Fe9  1  0.000000  0.857905  0.820805  1
  Fe  Fe10  1  0.000000  0.637547  0.317471  1
  Fe  Fe11  1  0.000000  0.362453  0.682529  1
  B  B12  1  0.500000  0.055817  0.067660  1
  B  B13  1  0.500000  0.944183  0.932340  1
  B  B14  1  0.500000  0.553989  0.431130  1
  B  B15  1  0.500000  0.446011  0.568870  1
  B  B16  1  0.500000  0.251535  0.081451  1
  B  B17  1  0.500000  0.748465  0.918549  1
  B  B18  1  0.500000  0.747133  0.417585  1
  B  B19  1  0.500000  0.252867  0.582415  1
  B  B20  1  0.500000  0.293120  0.232920  1
  B  B21  1  0.500000  0.706880  0.767080  1
  B  B22  1  0.500000  0.789106  0.264657  1
  B  B23  1  0.500000  0.210894  0.735343  1
  B  B24  1  0.500000  0.132774  0.314054  1
  B  B25  1  0.500000  0.867226  0.685946  1
  B  B26  1  0.500000  0.628595  0.183195  1
  B  B27  1  0.500000  0.371405  0.816805  1
  B  B28  1  0.500000  0.483564  0.285651  1
  B  B29  1  0.500000  0.516436  0.714349  1
  B  B30  1  0.500000  0.985717  0.211449  1
  B  B31  1  0.500000  0.014283  0.788551  1
  B  B32  1  0.500000  0.106908  0.471064  1
  B  B33  1  0.500000  0.893092  0.528936  1
  B  B34  1  0.500000  0.600335  0.027304  1
  B  B35  1  0.500000  0.399665  0.972696  1
