# generated using pymatgen
data_Gd3Pa(Si3Rh)2
_symmetry_space_group_name_H-M   'P 1'
_cell_length_a   8.11837200
_cell_length_b   8.11833124
_cell_length_c   3.95989500
_cell_angle_alpha   90.00000000
_cell_angle_beta   90.00000000
_cell_angle_gamma   119.99983194
_symmetry_Int_Tables_number   1
_chemical_formula_structural   Gd3Pa(Si3Rh)2
_chemical_formula_sum   'Gd3 Pa1 Si6 Rh2'
_cell_volume   226.02202035
_cell_formula_units_Z   1
loop_
 _symmetry_equiv_pos_site_id
 _symmetry_equiv_pos_as_xyz
  1  'x, y, z'
loop_
 _atom_site_type_symbol
 _atom_site_label
 _atom_site_symmetry_multiplicity
 _atom_site_fract_x
 _atom_site_fract_y
 _atom_site_fract_z
 _atom_site_occupancy
  Gd  Gd0  1  0.000000  0.500000  0.500000  1
  Gd  Gd1  1  0.500000  0.500000  0.500000  1
  Gd  Gd2  1  0.500000  0.000000  0.500000  1
  Pa  Pa3  1  0.000000  0.000000  0.500000  1
  Si  Si4  1  0.330965  0.165483  0.000000  1
  Si  Si5  1  0.834503  0.165495  0.000000  1
  Si  Si6  1  0.834503  0.669008  0.000000  1
  Si  Si7  1  0.165497  0.330992  0.000000  1
  Si  Si8  1  0.165497  0.834505  0.000000  1
  Si  Si9  1  0.669035  0.834517  0.000000  1
  Rh  Rh10  1  0.666871  0.333435  0.000000  1
  Rh  Rh11  1  0.333129  0.666565  0.000000  1
