# generated using pymatgen
data_ErLu15(ZnIn3)2
_symmetry_space_group_name_H-M   'P 1'
_cell_length_a   10.42655200
_cell_length_b   10.42655345
_cell_length_c   6.67980700
_cell_angle_alpha   90.00000000
_cell_angle_beta   90.00000000
_cell_angle_gamma   120.00000175
_symmetry_Int_Tables_number   1
_chemical_formula_structural   ErLu15(ZnIn3)2
_chemical_formula_sum   'Er1 Lu15 Zn2 In6'
_cell_volume   628.89193587
_cell_formula_units_Z   1
loop_
 _symmetry_equiv_pos_site_id
 _symmetry_equiv_pos_as_xyz
  1  'x, y, z'
loop_
 _atom_site_type_symbol
 _atom_site_label
 _atom_site_symmetry_multiplicity
 _atom_site_fract_x
 _atom_site_fract_y
 _atom_site_fract_z
 _atom_site_occupancy
  Er  Er0  1  0.000000  0.000000  0.996590  1
  Lu  Lu1  1  0.521641  0.043281  0.518806  1
  Lu  Lu2  1  0.956719  0.478359  0.518806  1
  Lu  Lu3  1  0.521641  0.478359  0.518806  1
  Lu  Lu4  1  0.478448  0.956897  0.018949  1
  Lu  Lu5  1  0.043103  0.521552  0.018949  1
  Lu  Lu6  1  0.478448  0.521552  0.018949  1
  Lu  Lu7  1  0.173657  0.347314  0.729192  1
  Lu  Lu8  1  0.652686  0.826343  0.729192  1
  Lu  Lu9  1  0.173657  0.826343  0.729192  1
  Lu  Lu10  1  0.826477  0.652955  0.229878  1
  Lu  Lu11  1  0.347045  0.173523  0.229878  1
  Lu  Lu12  1  0.826477  0.173523  0.229878  1
  Lu  Lu13  1  0.666667  0.333333  0.872142  1
  Lu  Lu14  1  0.333333  0.666667  0.372951  1
  Lu  Lu15  1  0.000000  0.000000  0.496470  1
  Zn  Zn16  1  0.666667  0.333333  0.302613  1
  Zn  Zn17  1  0.333333  0.666667  0.804104  1
  In  In18  1  0.835541  0.671080  0.750848  1
  In  In19  1  0.328920  0.164459  0.750848  1
  In  In20  1  0.835541  0.164459  0.750848  1
  In  In21  1  0.164611  0.329222  0.252103  1
  In  In22  1  0.670778  0.835389  0.252103  1
  In  In23  1  0.164611  0.835389  0.252103  1
