# generated using pymatgen
data_Dy9Y3Co6Sn
_symmetry_space_group_name_H-M   'P 1'
_cell_length_a   8.36213343
_cell_length_b   8.35972924
_cell_length_c   8.35972906
_cell_angle_alpha   109.52782907
_cell_angle_beta   109.44716102
_cell_angle_gamma   109.42706349
_symmetry_Int_Tables_number   1
_chemical_formula_structural   Dy9Y3Co6Sn
_chemical_formula_sum   'Dy9 Y3 Co6 Sn1'
_cell_volume   449.92646197
_cell_formula_units_Z   1
loop_
 _symmetry_equiv_pos_site_id
 _symmetry_equiv_pos_as_xyz
  1  'x, y, z'
loop_
 _atom_site_type_symbol
 _atom_site_label
 _atom_site_symmetry_multiplicity
 _atom_site_fract_x
 _atom_site_fract_y
 _atom_site_fract_z
 _atom_site_occupancy
  Dy  Dy0  1  0.805465  0.696712  0.502387  1
  Dy  Dy1  1  0.194426  0.303430  0.497699  1
  Dy  Dy2  1  0.194426  0.696725  0.890996  1
  Dy  Dy3  1  0.805465  0.303080  0.108754  1
  Dy  Dy4  1  0.696524  0.502207  0.805382  1
  Dy  Dy5  1  0.303407  0.497976  0.194746  1
  Dy  Dy6  1  0.696524  0.891142  0.194319  1
  Dy  Dy7  1  0.303407  0.108661  0.805429  1
  Dy  Dy8  1  0.502420  0.805548  0.696870  1
  Y  Y9  1  0.496593  0.194457  0.302139  1
  Y  Y10  1  0.107561  0.805554  0.302008  1
  Y  Y11  1  0.892342  0.194427  0.697914  1
  Co  Co12  1  0.887541  0.387588  0.499953  1
  Co  Co13  1  0.113615  0.613029  0.500587  1
  Co  Co14  1  0.386891  0.499922  0.886969  1
  Co  Co15  1  0.613101  0.500037  0.113064  1
  Co  Co16  1  0.500089  0.886358  0.386979  1
  Co  Co17  1  0.500089  0.113110  0.613732  1
  Sn  Sn18  1  0.000112  0.000039  0.000073  1
