# generated using pymatgen
data_Li3Dy4Y(P3Ir4)4
_symmetry_space_group_name_H-M   'P 1'
_cell_length_a   12.70449500
_cell_length_b   12.70449526
_cell_length_c   3.98036700
_cell_angle_alpha   90.00000000
_cell_angle_beta   90.00000000
_cell_angle_gamma   119.99999672
_symmetry_Int_Tables_number   1
_chemical_formula_structural   Li3Dy4Y(P3Ir4)4
_chemical_formula_sum   'Li3 Dy4 Y1 P12 Ir16'
_cell_volume   556.37625277
_cell_formula_units_Z   1
loop_
 _symmetry_equiv_pos_site_id
 _symmetry_equiv_pos_as_xyz
  1  'x, y, z'
loop_
 _atom_site_type_symbol
 _atom_site_label
 _atom_site_symmetry_multiplicity
 _atom_site_fract_x
 _atom_site_fract_y
 _atom_site_fract_z
 _atom_site_occupancy
  Li  Li0  1  0.000005  0.442134  0.500000  1
  Li  Li1  1  0.557866  0.557871  0.500000  1
  Li  Li2  1  0.442129  0.999995  0.500000  1
  Dy  Dy3  1  0.666667  0.333333  0.500000  1
  Dy  Dy4  1  0.000016  0.809183  0.000000  1
  Dy  Dy5  1  0.190817  0.190833  0.000000  1
  Dy  Dy6  1  0.809167  0.999984  0.000000  1
  Y  Y7  1  0.333333  0.666667  0.500000  1
  P  P8  1  0.999972  0.630047  0.500000  1
  P  P9  1  0.369953  0.369924  0.500000  1
  P  P10  1  0.630076  0.000028  0.500000  1
  P  P11  1  0.516500  0.687277  0.000000  1
  P  P12  1  0.312723  0.829224  0.000000  1
  P  P13  1  0.170776  0.483500  0.000000  1
  P  P14  1  0.483642  0.170917  0.000000  1
  P  P15  1  0.687276  0.516358  0.000000  1
  P  P16  1  0.829083  0.312724  0.000000  1
  P  P17  1  0.999992  0.179613  0.500000  1
  P  P18  1  0.820387  0.820378  0.500000  1
  P  P19  1  0.179622  0.000008  0.500000  1
  Ir  Ir20  1  0.509891  0.868620  0.000000  1
  Ir  Ir21  1  0.131380  0.641272  0.000000  1
  Ir  Ir22  1  0.358728  0.490109  0.000000  1
  Ir  Ir23  1  0.490245  0.358707  0.000000  1
  Ir  Ir24  1  0.868464  0.509755  0.000000  1
  Ir  Ir25  1  0.641293  0.131536  0.000000  1
  Ir  Ir26  1  0.999981  0.280387  0.000000  1
  Ir  Ir27  1  0.719613  0.719594  0.000000  1
  Ir  Ir28  1  0.280406  0.000019  0.000000  1
  Ir  Ir29  1  0.627074  0.807263  0.500000  1
  Ir  Ir30  1  0.192737  0.819810  0.500000  1
  Ir  Ir31  1  0.180190  0.372926  0.500000  1
  Ir  Ir32  1  0.373019  0.180252  0.500000  1
  Ir  Ir33  1  0.807233  0.626981  0.500000  1
  Ir  Ir34  1  0.819748  0.192767  0.500000  1
  Ir  Ir35  1  0.000000  0.000000  0.500000  1
