# generated using pymatgen
data_Tb17YSc2(Cd3Os)2
_symmetry_space_group_name_H-M   'P 1'
_cell_length_a   9.54986308
_cell_length_b   9.54829575
_cell_length_c   9.87386000
_cell_angle_alpha   90.00000000
_cell_angle_beta   90.00000000
_cell_angle_gamma   119.99457276
_symmetry_Int_Tables_number   1
_chemical_formula_structural   Tb17YSc2(Cd3Os)2
_chemical_formula_sum   'Tb17 Y1 Sc2 Cd6 Os2'
_cell_volume   779.76610376
_cell_formula_units_Z   1
loop_
 _symmetry_equiv_pos_site_id
 _symmetry_equiv_pos_as_xyz
  1  'x, y, z'
loop_
 _atom_site_type_symbol
 _atom_site_label
 _atom_site_symmetry_multiplicity
 _atom_site_fract_x
 _atom_site_fract_y
 _atom_site_fract_z
 _atom_site_occupancy
  Tb  Tb0  1  0.208439  0.791669  0.440923  1
  Tb  Tb1  1  0.208439  0.416770  0.440923  1
  Tb  Tb2  1  0.583057  0.791529  0.441054  1
  Tb  Tb3  1  0.791539  0.208462  0.559015  1
  Tb  Tb4  1  0.791539  0.583077  0.559015  1
  Tb  Tb5  1  0.416811  0.208405  0.559070  1
  Tb  Tb6  1  0.791539  0.208462  0.940985  1
  Tb  Tb7  1  0.791539  0.583077  0.940985  1
  Tb  Tb8  1  0.416811  0.208405  0.940930  1
  Tb  Tb9  1  0.208439  0.791669  0.059077  1
  Tb  Tb10  1  0.208439  0.416770  0.059077  1
  Tb  Tb11  1  0.583057  0.791529  0.058946  1
  Tb  Tb12  1  0.539640  0.460396  0.250000  1
  Tb  Tb13  1  0.539640  0.079245  0.250000  1
  Tb  Tb14  1  0.920780  0.460391  0.250000  1
  Tb  Tb15  1  0.460462  0.539461  0.750000  1
  Tb  Tb16  1  0.460462  0.921001  0.750000  1
  Y  Y17  1  0.079536  0.539768  0.750000  1
  Sc  Sc18  1  0.999922  0.999961  0.500160  1
  Sc  Sc19  1  0.999922  0.999961  0.999840  1
  Cd  Cd20  1  0.890198  0.109894  0.250000  1
  Cd  Cd21  1  0.890198  0.780306  0.250000  1
  Cd  Cd22  1  0.219714  0.109857  0.250000  1
  Cd  Cd23  1  0.109901  0.890035  0.750000  1
  Cd  Cd24  1  0.109901  0.219864  0.750000  1
  Cd  Cd25  1  0.780171  0.890084  0.750000  1
  Os  Os26  1  0.333505  0.666752  0.250000  1
  Os  Os27  1  0.666403  0.333201  0.750000  1
