# generated using pymatgen
data_Dy9Tm(AlSb)3
_symmetry_space_group_name_H-M   'P 1'
_cell_length_a   8.83356837
_cell_length_b   8.85551670
_cell_length_c   6.49522417
_cell_angle_alpha   90.00786208
_cell_angle_beta   89.97415343
_cell_angle_gamma   120.10042780
_symmetry_Int_Tables_number   1
_chemical_formula_structural   Dy9Tm(AlSb)3
_chemical_formula_sum   'Dy9 Tm1 Al3 Sb3'
_cell_volume   439.57645758
_cell_formula_units_Z   1
loop_
 _symmetry_equiv_pos_site_id
 _symmetry_equiv_pos_as_xyz
  1  'x, y, z'
loop_
 _atom_site_type_symbol
 _atom_site_label
 _atom_site_symmetry_multiplicity
 _atom_site_fract_x
 _atom_site_fract_y
 _atom_site_fract_z
 _atom_site_occupancy
  Dy  Dy0  1  0.332894  0.678925  0.002451  1
  Dy  Dy1  1  0.666751  0.326582  0.497773  1
  Dy  Dy2  1  0.666763  0.325927  0.002273  1
  Dy  Dy3  1  0.233983  0.990038  0.250557  1
  Dy  Dy4  1  0.759374  0.000898  0.749666  1
  Dy  Dy5  1  0.989226  0.234342  0.250104  1
  Dy  Dy6  1  0.763141  0.764396  0.250278  1
  Dy  Dy7  1  0.244136  0.233603  0.749847  1
  Dy  Dy8  1  0.011411  0.769198  0.749461  1
  Tm  Tm9  1  0.332781  0.679325  0.497462  1
  Al  Al10  1  0.598396  0.998062  0.251189  1
  Al  Al11  1  0.404234  0.002302  0.748835  1
  Al  Al12  1  0.995684  0.599456  0.250911  1
  Sb  Sb13  1  0.387417  0.392074  0.250843  1
  Sb  Sb14  1  0.609026  0.607978  0.749297  1
  Sb  Sb15  1  0.004783  0.396891  0.749053  1
