# generated using pymatgen
data_Pr5As12Ru8Rh11
_symmetry_space_group_name_H-M   'P 1'
_cell_length_a   13.17247701
_cell_length_b   13.17247472
_cell_length_c   4.06220300
_cell_angle_alpha   90.00000000
_cell_angle_beta   90.00000000
_cell_angle_gamma   119.77884201
_symmetry_Int_Tables_number   1
_chemical_formula_structural   Pr5As12Ru8Rh11
_chemical_formula_sum   'Pr5 As12 Ru8 Rh11'
_cell_volume   611.77342849
_cell_formula_units_Z   1
loop_
 _symmetry_equiv_pos_site_id
 _symmetry_equiv_pos_as_xyz
  1  'x, y, z'
loop_
 _atom_site_type_symbol
 _atom_site_label
 _atom_site_symmetry_multiplicity
 _atom_site_fract_x
 _atom_site_fract_y
 _atom_site_fract_z
 _atom_site_occupancy
  Pr  Pr0  1  0.187902  0.187902  0.500000  1
  Pr  Pr1  1  0.813641  0.001800  0.500000  1
  Pr  Pr2  1  0.001800  0.813641  0.500000  1
  Pr  Pr3  1  0.332429  0.666066  0.000000  1
  Pr  Pr4  1  0.666066  0.332429  0.000000  1
  As  As5  1  0.818606  0.818606  0.000000  1
  As  As6  1  0.183086  0.001128  0.000000  1
  As  As7  1  0.001128  0.183086  0.000000  1
  As  As8  1  0.168625  0.482284  0.500000  1
  As  As9  1  0.515589  0.685710  0.500000  1
  As  As10  1  0.313010  0.830762  0.500000  1
  As  As11  1  0.685710  0.515589  0.500000  1
  As  As12  1  0.830762  0.313010  0.500000  1
  As  As13  1  0.482284  0.168625  0.500000  1
  As  As14  1  0.370527  0.370527  0.000000  1
  As  As15  1  0.629241  0.999965  0.000000  1
  As  As16  1  0.999965  0.629241  0.000000  1
  Ru  Ru17  1  0.286172  0.000426  0.500000  1
  Ru  Ru18  1  0.000426  0.286172  0.500000  1
  Ru  Ru19  1  0.360686  0.483819  0.500000  1
  Ru  Ru20  1  0.515209  0.875793  0.500000  1
  Ru  Ru21  1  0.122578  0.639343  0.500000  1
  Ru  Ru22  1  0.875793  0.515209  0.500000  1
  Ru  Ru23  1  0.639343  0.122578  0.500000  1
  Ru  Ru24  1  0.483819  0.360686  0.500000  1
  Rh  Rh25  1  0.553043  0.553043  0.000000  1
  Rh  Rh26  1  0.445845  0.000355  0.000000  1
  Rh  Rh27  1  0.000355  0.445845  0.000000  1
  Rh  Rh28  1  0.715408  0.715408  0.500000  1
  Rh  Rh29  1  0.181822  0.377159  0.000000  1
  Rh  Rh30  1  0.623307  0.804334  0.000000  1
  Rh  Rh31  1  0.195923  0.818817  0.000000  1
  Rh  Rh32  1  0.804334  0.623307  0.000000  1
  Rh  Rh33  1  0.818817  0.195923  0.000000  1
  Rh  Rh34  1  0.377159  0.181822  0.000000  1
  Rh  Rh35  1  0.999591  0.999591  0.000000  1
