# generated using pymatgen
data_Lu2B2SbRu5
_symmetry_space_group_name_H-M   'P 1'
_cell_length_a   9.66129400
_cell_length_b   9.66129400
_cell_length_c   3.10859100
_cell_angle_alpha   90.00000000
_cell_angle_beta   90.00000000
_cell_angle_gamma   90.00000000
_symmetry_Int_Tables_number   1
_chemical_formula_structural   Lu2B2SbRu5
_chemical_formula_sum   'Lu4 B4 Sb2 Ru10'
_cell_volume   290.15775455
_cell_formula_units_Z   2
loop_
 _symmetry_equiv_pos_site_id
 _symmetry_equiv_pos_as_xyz
  1  'x, y, z'
loop_
 _atom_site_type_symbol
 _atom_site_label
 _atom_site_symmetry_multiplicity
 _atom_site_fract_x
 _atom_site_fract_y
 _atom_site_fract_z
 _atom_site_occupancy
  Lu  Lu0  1  0.825371  0.674629  0.000000  1
  Lu  Lu1  1  0.174629  0.325371  0.000000  1
  Lu  Lu2  1  0.325371  0.825371  0.000000  1
  Lu  Lu3  1  0.674629  0.174629  0.000000  1
  B  B4  1  0.619999  0.880001  0.000000  1
  B  B5  1  0.380001  0.119999  0.000000  1
  B  B6  1  0.119999  0.619999  0.000000  1
  B  B7  1  0.880001  0.380001  0.000000  1
  Sb  Sb8  1  0.500000  0.500000  0.000000  1
  Sb  Sb9  1  0.000000  0.000000  0.000000  1
  Ru  Ru10  1  0.571424  0.720540  0.500000  1
  Ru  Ru11  1  0.428576  0.279460  0.500000  1
  Ru  Ru12  1  0.071424  0.779460  0.500000  1
  Ru  Ru13  1  0.928576  0.220540  0.500000  1
  Ru  Ru14  1  0.279460  0.571424  0.500000  1
  Ru  Ru15  1  0.720540  0.428576  0.500000  1
  Ru  Ru16  1  0.220540  0.071424  0.500000  1
  Ru  Ru17  1  0.779460  0.928576  0.500000  1
  Ru  Ru18  1  0.500000  0.000000  0.500000  1
  Ru  Ru19  1  0.000000  0.500000  0.500000  1
