# generated using pymatgen
data_EuTm3Pt4F28
_symmetry_space_group_name_H-M   'P 1'
_cell_length_a   5.50857523
_cell_length_b   8.82534768
_cell_length_c   11.92410000
_cell_angle_alpha   62.51627703
_cell_angle_beta   90.03828681
_cell_angle_gamma   90.00206852
_symmetry_Int_Tables_number   1
_chemical_formula_structural   EuTm3Pt4F28
_chemical_formula_sum   'Eu1 Tm3 Pt4 F28'
_cell_volume   514.26826934
_cell_formula_units_Z   1
loop_
 _symmetry_equiv_pos_site_id
 _symmetry_equiv_pos_as_xyz
  1  'x, y, z'
loop_
 _atom_site_type_symbol
 _atom_site_label
 _atom_site_symmetry_multiplicity
 _atom_site_fract_x
 _atom_site_fract_y
 _atom_site_fract_z
 _atom_site_occupancy
  Eu  Eu0  1  0.237956  0.816420  0.764746  1
  Tm  Tm1  1  0.260685  0.815737  0.264543  1
  Tm  Tm2  1  0.735825  0.189520  0.735560  1
  Tm  Tm3  1  0.761446  0.184099  0.235989  1
  Pt  Pt4  1  0.758984  0.725928  0.048118  1
  Pt  Pt5  1  0.240028  0.267752  0.959044  1
  Pt  Pt6  1  0.260901  0.275621  0.454219  1
  Pt  Pt7  1  0.743728  0.726501  0.538919  1
  F  F8  1  0.936966  0.702566  0.409466  1
  F  F9  1  0.062897  0.299465  0.581996  1
  F  F10  1  0.438571  0.294863  0.085628  1
  F  F11  1  0.570594  0.701048  0.918680  1
  F  F12  1  0.461336  0.725535  0.139406  1
  F  F13  1  0.536070  0.274164  0.864965  1
  F  F14  1  0.967452  0.275461  0.360325  1
  F  F15  1  0.042233  0.721783  0.628541  1
  F  F16  1  0.946843  0.746109  0.180991  1
  F  F17  1  0.047004  0.250220  0.826206  1
  F  F18  1  0.453677  0.255622  0.322357  1
  F  F19  1  0.563159  0.742665  0.674366  1
  F  F20  1  0.772334  0.474889  0.145663  1
  F  F21  1  0.223079  0.515872  0.860248  1
  F  F22  1  0.276996  0.525800  0.356305  1
  F  F23  1  0.727047  0.476465  0.639389  1
  F  F24  1  0.937311  0.274077  0.045469  1
  F  F25  1  0.062123  0.717847  0.965849  1
  F  F26  1  0.435538  0.723461  0.454725  1
  F  F27  1  0.562523  0.280323  0.541797  1
  F  F28  1  0.747794  0.977097  0.446575  1
  F  F29  1  0.255788  0.026762  0.545465  1
  F  F30  1  0.245195  0.017209  0.053566  1
  F  F31  1  0.756208  0.976017  0.952137  1
  F  F32  1  0.581200  0.972022  0.233056  1
  F  F33  1  0.411208  0.044736  0.768427  1
  F  F34  1  0.082124  0.029301  0.267126  1
  F  F35  1  0.897173  0.977043  0.730140  1
