# generated using pymatgen
data_Hf9Zr3Zn12O2
_symmetry_space_group_name_H-M   'P 1'
_cell_length_a   8.46750157
_cell_length_b   8.47118677
_cell_length_c   8.48584994
_cell_angle_alpha   60.08824021
_cell_angle_beta   59.95890772
_cell_angle_gamma   60.16841966
_symmetry_Int_Tables_number   1
_chemical_formula_structural   Hf9Zr3Zn12O2
_chemical_formula_sum   'Hf9 Zr3 Zn12 O2'
_cell_volume   431.10551508
_cell_formula_units_Z   1
loop_
 _symmetry_equiv_pos_site_id
 _symmetry_equiv_pos_as_xyz
  1  'x, y, z'
loop_
 _atom_site_type_symbol
 _atom_site_label
 _atom_site_symmetry_multiplicity
 _atom_site_fract_x
 _atom_site_fract_y
 _atom_site_fract_z
 _atom_site_occupancy
  Hf  Hf0  1  0.442112  0.443273  0.057044  1
  Hf  Hf1  1  0.193131  0.807037  0.806863  1
  Hf  Hf2  1  0.056872  0.444187  0.056105  1
  Hf  Hf3  1  0.807763  0.806729  0.192973  1
  Hf  Hf4  1  0.056880  0.443209  0.443127  1
  Hf  Hf5  1  0.192468  0.192977  0.806777  1
  Hf  Hf6  1  0.806725  0.193144  0.193236  1
  Hf  Hf7  1  0.806929  0.193821  0.805918  1
  Hf  Hf8  1  0.057601  0.057012  0.443238  1
  Zr  Zr9  1  0.193975  0.805419  0.194237  1
  Zr  Zr10  1  0.443327  0.055610  0.444665  1
  Zr  Zr11  1  0.443756  0.056006  0.056326  1
  Zn  Zn12  1  0.833771  0.500069  0.833337  1
  Zn  Zn13  1  0.417423  0.417932  0.748159  1
  Zn  Zn14  1  0.749564  0.416337  0.417268  1
  Zn  Zn15  1  0.417938  0.417384  0.417410  1
  Zn  Zn16  1  0.832672  0.832302  0.502348  1
  Zn  Zn17  1  0.417602  0.745818  0.419051  1
  Zn  Zn18  1  0.834281  0.831921  0.832834  1
  Zn  Zn19  1  0.503322  0.831729  0.831743  1
  Zn  Zn20  1  0.625211  0.125151  0.624910  1
  Zn  Zn21  1  0.625582  0.624624  0.124753  1
  Zn  Zn22  1  0.124605  0.624894  0.625375  1
  Zn  Zn23  1  0.625305  0.624609  0.625126  1
  O  O24  1  0.997491  0.002459  0.996810  1
  O  O25  1  0.243692  0.256349  0.250365  1
