# generated using pymatgen
data_La9Pr3(SnRu)8
_symmetry_space_group_name_H-M   'P 1'
_cell_length_a   6.03782529
_cell_length_b   8.68303406
_cell_length_c   13.88932500
_cell_angle_alpha   90.00000000
_cell_angle_beta   90.00000000
_cell_angle_gamma   90.13597380
_symmetry_Int_Tables_number   1
_chemical_formula_structural   La9Pr3(SnRu)8
_chemical_formula_sum   'La9 Pr3 Sn8 Ru8'
_cell_volume   728.16862748
_cell_formula_units_Z   1
loop_
 _symmetry_equiv_pos_site_id
 _symmetry_equiv_pos_as_xyz
  1  'x, y, z'
loop_
 _atom_site_type_symbol
 _atom_site_label
 _atom_site_symmetry_multiplicity
 _atom_site_fract_x
 _atom_site_fract_y
 _atom_site_fract_z
 _atom_site_occupancy
  La  La0  1  0.162961  0.410396  0.590235  1
  La  La1  1  0.836622  0.589316  0.090797  1
  La  La2  1  0.163022  0.089693  0.409255  1
  La  La3  1  0.838066  0.909279  0.910106  1
  La  La4  1  0.836622  0.589316  0.409203  1
  La  La5  1  0.162961  0.410396  0.909765  1
  La  La6  1  0.838066  0.909279  0.589894  1
  La  La7  1  0.163022  0.089693  0.090745  1
  La  La8  1  0.373125  0.790170  0.750000  1
  Pr  Pr9  1  0.628812  0.285902  0.750000  1
  Pr  Pr10  1  0.369061  0.714122  0.250000  1
  Pr  Pr11  1  0.629051  0.214725  0.250000  1
  Sn  Sn12  1  0.123337  0.127886  0.750000  1
  Sn  Sn13  1  0.872815  0.874554  0.250000  1
  Sn  Sn14  1  0.125831  0.373945  0.250000  1
  Sn  Sn15  1  0.875206  0.624634  0.750000  1
  Sn  Sn16  1  0.628529  0.249426  0.500399  1
  Sn  Sn17  1  0.371674  0.749764  0.001342  1
  Sn  Sn18  1  0.371674  0.749764  0.498658  1
  Sn  Sn19  1  0.628529  0.249426  0.999601  1
  Ru  Ru20  1  0.343173  0.030377  0.586215  1
  Ru  Ru21  1  0.656743  0.969230  0.085387  1
  Ru  Ru22  1  0.344760  0.467723  0.414322  1
  Ru  Ru23  1  0.655832  0.531827  0.914847  1
  Ru  Ru24  1  0.656743  0.969230  0.414613  1
  Ru  Ru25  1  0.343173  0.030377  0.913785  1
  Ru  Ru26  1  0.655832  0.531827  0.585153  1
  Ru  Ru27  1  0.344760  0.467723  0.085678  1
