# generated using pymatgen
data_CeNd7Zn2(Si6Rh)2
_symmetry_space_group_name_H-M   'P 1'
_cell_length_a   8.24480300
_cell_length_b   8.24480202
_cell_length_c   8.52505200
_cell_angle_alpha   90.00000000
_cell_angle_beta   90.00000000
_cell_angle_gamma   119.99999993
_symmetry_Int_Tables_number   1
_chemical_formula_structural   CeNd7Zn2(Si6Rh)2
_chemical_formula_sum   'Ce1 Nd7 Zn2 Si12 Rh2'
_cell_volume   501.86647231
_cell_formula_units_Z   1
loop_
 _symmetry_equiv_pos_site_id
 _symmetry_equiv_pos_as_xyz
  1  'x, y, z'
loop_
 _atom_site_type_symbol
 _atom_site_label
 _atom_site_symmetry_multiplicity
 _atom_site_fract_x
 _atom_site_fract_y
 _atom_site_fract_z
 _atom_site_occupancy
  Ce  Ce0  1  0.000000  0.000000  0.750000  1
  Nd  Nd1  1  0.000000  0.000000  0.250000  1
  Nd  Nd2  1  0.496787  0.503213  0.750000  1
  Nd  Nd3  1  0.496787  0.993577  0.750000  1
  Nd  Nd4  1  0.006423  0.503213  0.750000  1
  Nd  Nd5  1  0.497746  0.502254  0.250000  1
  Nd  Nd6  1  0.004510  0.502254  0.250000  1
  Nd  Nd7  1  0.497746  0.995490  0.250000  1
  Zn  Zn8  1  0.666667  0.333333  0.998191  1
  Zn  Zn9  1  0.666667  0.333333  0.501809  1
  Si  Si10  1  0.837070  0.162930  0.998504  1
  Si  Si11  1  0.837070  0.674141  0.998504  1
  Si  Si12  1  0.325859  0.162930  0.998504  1
  Si  Si13  1  0.837070  0.162930  0.501496  1
  Si  Si14  1  0.837070  0.674141  0.501496  1
  Si  Si15  1  0.325859  0.162930  0.501496  1
  Si  Si16  1  0.168765  0.831235  0.502743  1
  Si  Si17  1  0.662470  0.831235  0.502743  1
  Si  Si18  1  0.168765  0.337530  0.502743  1
  Si  Si19  1  0.168765  0.831235  0.997257  1
  Si  Si20  1  0.662470  0.831235  0.997257  1
  Si  Si21  1  0.168765  0.337530  0.997257  1
  Rh  Rh22  1  0.333333  0.666667  0.495579  1
  Rh  Rh23  1  0.333333  0.666667  0.004421  1
