# generated using pymatgen
data_CeEr(SiRh2)2
_symmetry_space_group_name_H-M   'P 1'
_cell_length_a   9.17239426
_cell_length_b   9.17239346
_cell_length_c   4.07358200
_cell_angle_alpha   90.00000000
_cell_angle_beta   90.00000000
_cell_angle_gamma   155.15350647
_symmetry_Int_Tables_number   1
_chemical_formula_structural   CeEr(SiRh2)2
_chemical_formula_sum   'Ce1 Er1 Si2 Rh4'
_cell_volume   144.00782504
_cell_formula_units_Z   1
loop_
 _symmetry_equiv_pos_site_id
 _symmetry_equiv_pos_as_xyz
  1  'x, y, z'
loop_
 _atom_site_type_symbol
 _atom_site_label
 _atom_site_symmetry_multiplicity
 _atom_site_fract_x
 _atom_site_fract_y
 _atom_site_fract_z
 _atom_site_occupancy
  Ce  Ce0  1  0.904987  0.095013  0.250000  1
  Er  Er1  1  0.101404  0.898596  0.750000  1
  Si  Si2  1  0.320849  0.679151  0.750000  1
  Si  Si3  1  0.676275  0.323725  0.250000  1
  Rh  Rh4  1  0.547138  0.452862  0.250000  1
  Rh  Rh5  1  0.452362  0.547638  0.750000  1
  Rh  Rh6  1  0.249078  0.750922  0.250000  1
  Rh  Rh7  1  0.747909  0.252091  0.750000  1
