# generated using pymatgen
data_TiNb8GaSe16
_symmetry_space_group_name_H-M   'P 1'
_cell_length_a   7.00649600
_cell_length_b   7.00649418
_cell_length_c   13.97135600
_cell_angle_alpha   90.00000000
_cell_angle_beta   90.00000000
_cell_angle_gamma   119.99999916
_symmetry_Int_Tables_number   1
_chemical_formula_structural   TiNb8GaSe16
_chemical_formula_sum   'Ti1 Nb8 Ga1 Se16'
_cell_volume   593.97865430
_cell_formula_units_Z   1
loop_
 _symmetry_equiv_pos_site_id
 _symmetry_equiv_pos_as_xyz
  1  'x, y, z'
loop_
 _atom_site_type_symbol
 _atom_site_label
 _atom_site_symmetry_multiplicity
 _atom_site_fract_x
 _atom_site_fract_y
 _atom_site_fract_z
 _atom_site_occupancy
  Ti  Ti0  1  0.000000  0.000000  0.000000  1
  Nb  Nb1  1  0.000000  0.000000  0.228052  1
  Nb  Nb2  1  0.000000  0.000000  0.771948  1
  Nb  Nb3  1  0.505391  0.494609  0.230559  1
  Nb  Nb4  1  0.505391  0.010783  0.230559  1
  Nb  Nb5  1  0.989217  0.494609  0.230559  1
  Nb  Nb6  1  0.494609  0.505391  0.769441  1
  Nb  Nb7  1  0.494609  0.989217  0.769441  1
  Nb  Nb8  1  0.010783  0.505391  0.769441  1
  Ga  Ga9  1  0.000000  0.000000  0.500000  1
  Se  Se10  1  0.333333  0.666667  0.890973  1
  Se  Se11  1  0.666667  0.333333  0.109027  1
  Se  Se12  1  0.666667  0.333333  0.352749  1
  Se  Se13  1  0.333333  0.666667  0.647251  1
  Se  Se14  1  0.166018  0.833982  0.348548  1
  Se  Se15  1  0.166018  0.332037  0.348548  1
  Se  Se16  1  0.667963  0.833982  0.348548  1
  Se  Se17  1  0.833982  0.166018  0.651452  1
  Se  Se18  1  0.833982  0.667963  0.651452  1
  Se  Se19  1  0.332037  0.166018  0.651452  1
  Se  Se20  1  0.830995  0.169005  0.890089  1
  Se  Se21  1  0.830995  0.661991  0.890089  1
  Se  Se22  1  0.338009  0.169005  0.890089  1
  Se  Se23  1  0.169005  0.830995  0.109911  1
  Se  Se24  1  0.169005  0.338009  0.109911  1
  Se  Se25  1  0.661991  0.830995  0.109911  1
