# generated using pymatgen
data_Eu2ThUBr12
_symmetry_space_group_name_H-M   'P 1'
_cell_length_a   7.85266414
_cell_length_b   7.85266447
_cell_length_c   14.40787600
_cell_angle_alpha   83.93498667
_cell_angle_beta   83.93498641
_cell_angle_gamma   119.35806147
_symmetry_Int_Tables_number   1
_chemical_formula_structural   Eu2ThUBr12
_chemical_formula_sum   'Eu2 Th1 U1 Br12'
_cell_volume   757.20232233
_cell_formula_units_Z   1
loop_
 _symmetry_equiv_pos_site_id
 _symmetry_equiv_pos_as_xyz
  1  'x, y, z'
loop_
 _atom_site_type_symbol
 _atom_site_label
 _atom_site_symmetry_multiplicity
 _atom_site_fract_x
 _atom_site_fract_y
 _atom_site_fract_z
 _atom_site_occupancy
  Eu  Eu0  1  0.084930  0.915070  0.250000  1
  Eu  Eu1  1  0.914804  0.085196  0.750000  1
  Th  Th2  1  0.419681  0.580319  0.250000  1
  U  U3  1  0.580544  0.419456  0.750000  1
  Br  Br4  1  0.306794  0.426713  0.637125  1
  Br  Br5  1  0.431503  0.306795  0.136180  1
  Br  Br6  1  0.224068  0.096359  0.863079  1
  Br  Br7  1  0.091651  0.223353  0.364534  1
  Br  Br8  1  0.182611  0.660428  0.134144  1
  Br  Br9  1  0.664780  0.187718  0.634855  1
  Br  Br10  1  0.339572  0.817389  0.365856  1
  Br  Br11  1  0.812282  0.335220  0.865145  1
  Br  Br12  1  0.776647  0.908349  0.135466  1
  Br  Br13  1  0.903641  0.775932  0.636921  1
  Br  Br14  1  0.573287  0.693206  0.862875  1
  Br  Br15  1  0.693205  0.568497  0.363820  1
