# generated using pymatgen
data_Sr3Pa(Al8Pt3)3
_symmetry_space_group_name_H-M   'P 1'
_cell_length_a   7.58356750
_cell_length_b   7.59178416
_cell_length_c   13.45757365
_cell_angle_alpha   84.66971937
_cell_angle_beta   100.88970520
_cell_angle_gamma   119.77144154
_symmetry_Int_Tables_number   1
_chemical_formula_structural   Sr3Pa(Al8Pt3)3
_chemical_formula_sum   'Sr3 Pa1 Al24 Pt9'
_cell_volume   660.41728706
_cell_formula_units_Z   1
loop_
 _symmetry_equiv_pos_site_id
 _symmetry_equiv_pos_as_xyz
  1  'x, y, z'
loop_
 _atom_site_type_symbol
 _atom_site_label
 _atom_site_symmetry_multiplicity
 _atom_site_fract_x
 _atom_site_fract_y
 _atom_site_fract_z
 _atom_site_occupancy
  Sr  Sr0  1  0.562170  0.168151  0.191618  1
  Sr  Sr1  1  0.768056  0.501198  0.807783  1
  Sr  Sr2  1  0.231873  0.498288  0.191433  1
  Pa  Pa3  1  0.434024  0.831917  0.802224  1
  Al  Al4  1  0.480264  0.164687  0.943588  1
  Al  Al5  1  0.520873  0.833927  0.047715  1
  Al  Al6  1  0.021542  0.168228  0.560655  1
  Al  Al7  1  0.979410  0.831920  0.442890  1
  Al  Al8  1  0.354443  0.833538  0.558944  1
  Al  Al9  1  0.647823  0.167294  0.444029  1
  Al  Al10  1  0.621926  0.834642  0.338092  1
  Al  Al11  1  0.381404  0.168097  0.668901  1
  Al  Al12  1  0.053004  0.489311  0.668625  1
  Al  Al13  1  0.946048  0.507859  0.337678  1
  Al  Al14  1  0.734158  0.841367  0.666697  1
  Al  Al15  1  0.270266  0.158179  0.339220  1
  Al  Al16  1  0.149567  0.501301  0.944152  1
  Al  Al17  1  0.850829  0.505065  0.049532  1
  Al  Al18  1  0.813937  0.833202  0.951425  1
  Al  Al19  1  0.175872  0.163155  0.037670  1
  Al  Al20  1  0.315182  0.499863  0.443776  1
  Al  Al21  1  0.685258  0.498727  0.559047  1
  Al  Al22  1  0.097900  0.834775  0.183527  1
  Al  Al23  1  0.894206  0.152682  0.816608  1
  Al  Al24  1  0.299651  0.373238  0.814831  1
  Al  Al25  1  0.695829  0.634151  0.184208  1
  Al  Al26  1  0.114536  0.968277  0.815917  1
  Al  Al27  1  0.896586  0.036683  0.183626  1
  Pt  Pt28  1  0.386034  0.508488  0.638593  1
  Pt  Pt29  1  0.616825  0.495589  0.366197  1
  Pt  Pt30  1  0.169973  0.829958  0.996525  1
  Pt  Pt31  1  0.828616  0.171580  0.996985  1
  Pt  Pt32  1  0.293739  0.832705  0.366587  1
  Pt  Pt33  1  0.704649  0.163938  0.638712  1
  Pt  Pt34  1  0.050397  0.826999  0.638583  1
  Pt  Pt35  1  0.954453  0.171620  0.367128  1
  Pt  Pt36  1  0.498679  0.499403  0.996282  1
