# generated using pymatgen
data_PrSiTc4P
_symmetry_space_group_name_H-M   'P 1'
_cell_length_a   7.27069804
_cell_length_b   7.27069693
_cell_length_c   4.06762900
_cell_angle_alpha   90.00000000
_cell_angle_beta   90.00000000
_cell_angle_gamma   147.10344984
_symmetry_Int_Tables_number   1
_chemical_formula_structural   PrSiTc4P
_chemical_formula_sum   'Pr1 Si1 Tc4 P1'
_cell_volume   116.78643331
_cell_formula_units_Z   1
loop_
 _symmetry_equiv_pos_site_id
 _symmetry_equiv_pos_as_xyz
  1  'x, y, z'
loop_
 _atom_site_type_symbol
 _atom_site_label
 _atom_site_symmetry_multiplicity
 _atom_site_fract_x
 _atom_site_fract_y
 _atom_site_fract_z
 _atom_site_occupancy
  Pr  Pr0  1  0.000984  0.999016  0.000000  1
  Si  Si1  1  0.411003  0.588997  0.500000  1
  Tc  Tc2  1  0.812309  0.187691  0.500000  1
  Tc  Tc3  1  0.186699  0.813301  0.500000  1
  Tc  Tc4  1  0.693855  0.306145  0.000000  1
  Tc  Tc5  1  0.305352  0.694648  0.000000  1
  P  P6  1  0.589797  0.410203  0.500000  1
