# generated using pymatgen
data_YbInSn5Ir4
_symmetry_space_group_name_H-M   'P 1'
_cell_length_a   6.93579425
_cell_length_b   7.04518289
_cell_length_c   6.98001058
_cell_angle_alpha   120.23365761
_cell_angle_beta   119.71418111
_cell_angle_gamma   90.13158145
_symmetry_Int_Tables_number   1
_chemical_formula_structural   YbInSn5Ir4
_chemical_formula_sum   'Yb1 In1 Sn5 Ir4'
_cell_volume   241.08085327
_cell_formula_units_Z   1
loop_
 _symmetry_equiv_pos_site_id
 _symmetry_equiv_pos_as_xyz
  1  'x, y, z'
loop_
 _atom_site_type_symbol
 _atom_site_label
 _atom_site_symmetry_multiplicity
 _atom_site_fract_x
 _atom_site_fract_y
 _atom_site_fract_z
 _atom_site_occupancy
  Yb  Yb0  1  0.001299  0.000198  0.000000  1
  In  In1  1  0.462447  0.120526  0.000000  1
  Sn  Sn2  1  0.128044  0.457925  0.000000  1
  Sn  Sn3  1  0.874367  0.875747  0.336339  1
  Sn  Sn4  1  0.500254  0.002031  0.502054  1
  Sn  Sn5  1  0.998200  0.499978  0.497946  1
  Sn  Sn6  1  0.538028  0.539408  0.663661  1
  Ir  Ir7  1  0.756072  0.402307  0.000000  1
  Ir  Ir8  1  0.396054  0.749699  0.000000  1
  Ir  Ir9  1  0.605510  0.608984  0.365785  1
  Ir  Ir10  1  0.239725  0.243199  0.634215  1
