# generated using pymatgen
data_Hf8Al5Si(TcN)2
_symmetry_space_group_name_H-M   'P 1'
_cell_length_a   7.91758498
_cell_length_b   7.94614353
_cell_length_c   5.41761101
_cell_angle_alpha   89.95064714
_cell_angle_beta   90.09906902
_cell_angle_gamma   119.88119033
_symmetry_Int_Tables_number   1
_chemical_formula_structural   Hf8Al5Si(TcN)2
_chemical_formula_sum   'Hf8 Al5 Si1 Tc2 N2'
_cell_volume   295.53276424
_cell_formula_units_Z   1
loop_
 _symmetry_equiv_pos_site_id
 _symmetry_equiv_pos_as_xyz
  1  'x, y, z'
loop_
 _atom_site_type_symbol
 _atom_site_label
 _atom_site_symmetry_multiplicity
 _atom_site_fract_x
 _atom_site_fract_y
 _atom_site_fract_z
 _atom_site_occupancy
  Hf  Hf0  1  0.232292  0.000000  0.253454  1
  Hf  Hf1  1  0.995363  0.226499  0.252497  1
  Hf  Hf2  1  0.768865  0.773501  0.252497  1
  Hf  Hf3  1  0.665242  0.328052  0.499281  1
  Hf  Hf4  1  0.337189  0.671948  0.499281  1
  Hf  Hf5  1  0.768361  0.000000  0.750111  1
  Hf  Hf6  1  0.999713  0.771805  0.745736  1
  Hf  Hf7  1  0.227908  0.228195  0.745736  1
  Al  Al8  1  0.999462  0.588035  0.223370  1
  Al  Al9  1  0.411427  0.411965  0.223370  1
  Al  Al10  1  0.410124  0.000000  0.779135  1
  Al  Al11  1  0.002460  0.414201  0.776337  1
  Al  Al12  1  0.588259  0.585799  0.776337  1
  Si  Si13  1  0.588694  0.000000  0.222330  1
  Tc  Tc14  1  0.666022  0.326291  0.001011  1
  Tc  Tc15  1  0.339730  0.673709  0.001011  1
  N  N16  1  0.000134  0.000000  0.999729  1
  N  N17  1  0.998755  0.000000  0.498775  1
