# generated using pymatgen
data_Y20Tl2Cd3Ni2Ag
_symmetry_space_group_name_H-M   'P 1'
_cell_length_a   9.72552491
_cell_length_b   9.80835646
_cell_length_c   9.66082100
_cell_angle_alpha   90.00000000
_cell_angle_beta   90.00000000
_cell_angle_gamma   120.28213882
_symmetry_Int_Tables_number   1
_chemical_formula_structural   Y20Tl2Cd3Ni2Ag
_chemical_formula_sum   'Y20 Tl2 Cd3 Ni2 Ag1'
_cell_volume   795.81517800
_cell_formula_units_Z   1
loop_
 _symmetry_equiv_pos_site_id
 _symmetry_equiv_pos_as_xyz
  1  'x, y, z'
loop_
 _atom_site_type_symbol
 _atom_site_label
 _atom_site_symmetry_multiplicity
 _atom_site_fract_x
 _atom_site_fract_y
 _atom_site_fract_z
 _atom_site_occupancy
  Y  Y0  1  0.010073  0.005036  0.492943  1
  Y  Y1  1  0.010073  0.005036  0.007057  1
  Y  Y2  1  0.533439  0.447341  0.250000  1
  Y  Y3  1  0.533439  0.086098  0.250000  1
  Y  Y4  1  0.910789  0.455394  0.250000  1
  Y  Y5  1  0.455124  0.544839  0.750000  1
  Y  Y6  1  0.455124  0.910285  0.750000  1
  Y  Y7  1  0.087149  0.543574  0.750000  1
  Y  Y8  1  0.211398  0.788551  0.438133  1
  Y  Y9  1  0.211398  0.422847  0.438133  1
  Y  Y10  1  0.579698  0.789849  0.436029  1
  Y  Y11  1  0.788245  0.209492  0.563161  1
  Y  Y12  1  0.788245  0.578752  0.563161  1
  Y  Y13  1  0.421080  0.210539  0.565671  1
  Y  Y14  1  0.788245  0.209492  0.936839  1
  Y  Y15  1  0.788245  0.578752  0.936839  1
  Y  Y16  1  0.421080  0.210539  0.934329  1
  Y  Y17  1  0.211398  0.788551  0.061867  1
  Y  Y18  1  0.211398  0.422847  0.061867  1
  Y  Y19  1  0.579698  0.789849  0.063971  1
  Tl  Tl20  1  0.879091  0.121569  0.250000  1
  Tl  Tl21  1  0.879091  0.757522  0.250000  1
  Cd  Cd22  1  0.113528  0.884032  0.750000  1
  Cd  Cd23  1  0.113528  0.229495  0.750000  1
  Cd  Cd24  1  0.774116  0.887057  0.750000  1
  Ni  Ni25  1  0.332051  0.666026  0.250000  1
  Ni  Ni26  1  0.670746  0.335372  0.750000  1
  Ag  Ag27  1  0.242514  0.121257  0.250000  1
