# generated using pymatgen
data_HoEr4(In2Pd)2
_symmetry_space_group_name_H-M   'P 1'
_cell_length_a   3.60498800
_cell_length_b   8.10071700
_cell_length_c   18.17875600
_cell_angle_alpha   90.00000000
_cell_angle_beta   90.00000000
_cell_angle_gamma   90.00000000
_symmetry_Int_Tables_number   1
_chemical_formula_structural   HoEr4(In2Pd)2
_chemical_formula_sum   'Ho2 Er8 In8 Pd4'
_cell_volume   530.87398562
_cell_formula_units_Z   2
loop_
 _symmetry_equiv_pos_site_id
 _symmetry_equiv_pos_as_xyz
  1  'x, y, z'
loop_
 _atom_site_type_symbol
 _atom_site_label
 _atom_site_symmetry_multiplicity
 _atom_site_fract_x
 _atom_site_fract_y
 _atom_site_fract_z
 _atom_site_occupancy
  Ho  Ho0  1  0.000000  0.500000  0.500000  1
  Ho  Ho1  1  0.000000  0.000000  0.000000  1
  Er  Er2  1  0.000000  0.741567  0.279964  1
  Er  Er3  1  0.000000  0.258433  0.720036  1
  Er  Er4  1  0.000000  0.758433  0.779964  1
  Er  Er5  1  0.000000  0.241567  0.220036  1
  Er  Er6  1  0.000000  0.618427  0.083972  1
  Er  Er7  1  0.000000  0.381573  0.916028  1
  Er  Er8  1  0.000000  0.881573  0.583972  1
  Er  Er9  1  0.000000  0.118427  0.416028  1
  In  In10  1  0.500000  0.707174  0.932588  1
  In  In11  1  0.500000  0.292826  0.067412  1
  In  In12  1  0.500000  0.792826  0.432588  1
  In  In13  1  0.500000  0.207174  0.567412  1
  In  In14  1  0.500000  0.577699  0.649661  1
  In  In15  1  0.500000  0.422301  0.350339  1
  In  In16  1  0.500000  0.922301  0.149661  1
  In  In17  1  0.500000  0.077699  0.850339  1
  Pd  Pd18  1  0.500000  0.524350  0.195682  1
  Pd  Pd19  1  0.500000  0.475650  0.804318  1
  Pd  Pd20  1  0.500000  0.975650  0.695682  1
  Pd  Pd21  1  0.500000  0.024350  0.304318  1
