# generated using pymatgen
data_Tb2Tm2ReB12Rh
_symmetry_space_group_name_H-M   'P 1'
_cell_length_a   3.66644500
_cell_length_b   9.12172948
_cell_length_c   11.52549542
_cell_angle_alpha   90.38379987
_cell_angle_beta   90.00000000
_cell_angle_gamma   90.00000000
_symmetry_Int_Tables_number   1
_chemical_formula_structural   Tb2Tm2ReB12Rh
_chemical_formula_sum   'Tb4 Tm4 Re2 B24 Rh2'
_cell_volume   385.45370259
_cell_formula_units_Z   2
loop_
 _symmetry_equiv_pos_site_id
 _symmetry_equiv_pos_as_xyz
  1  'x, y, z'
loop_
 _atom_site_type_symbol
 _atom_site_label
 _atom_site_symmetry_multiplicity
 _atom_site_fract_x
 _atom_site_fract_y
 _atom_site_fract_z
 _atom_site_occupancy
  Tb  Tb0  1  0.500000  0.318618  0.411089  1
  Tb  Tb1  1  0.500000  0.681382  0.588911  1
  Tb  Tb2  1  0.500000  0.174361  0.916874  1
  Tb  Tb3  1  0.500000  0.825639  0.083126  1
  Tm  Tm4  1  0.500000  0.442515  0.126636  1
  Tm  Tm5  1  0.500000  0.557485  0.873364  1
  Tm  Tm6  1  0.500000  0.054334  0.628080  1
  Tm  Tm7  1  0.500000  0.945666  0.371920  1
  Re  Re8  1  0.500000  0.139479  0.180328  1
  Re  Re9  1  0.500000  0.860521  0.819672  1
  B  B10  1  0.000000  0.105528  0.471641  1
  B  B11  1  0.000000  0.894472  0.528359  1
  B  B12  1  0.000000  0.395990  0.971113  1
  B  B13  1  0.000000  0.604010  0.028887  1
  B  B14  1  0.000000  0.131425  0.315039  1
  B  B15  1  0.000000  0.868575  0.684961  1
  B  B16  1  0.000000  0.368248  0.816612  1
  B  B17  1  0.000000  0.631752  0.183388  1
  B  B18  1  0.000000  0.053467  0.067999  1
  B  B19  1  0.000000  0.946533  0.932001  1
  B  B20  1  0.000000  0.445116  0.566306  1
  B  B21  1  0.000000  0.554884  0.433694  1
  B  B22  1  0.000000  0.483825  0.287171  1
  B  B23  1  0.000000  0.516175  0.712829  1
  B  B24  1  0.000000  0.016880  0.786260  1
  B  B25  1  0.000000  0.983120  0.213740  1
  B  B26  1  0.000000  0.249463  0.081848  1
  B  B27  1  0.000000  0.750537  0.918152  1
  B  B28  1  0.000000  0.250070  0.579203  1
  B  B29  1  0.000000  0.749930  0.420797  1
  B  B30  1  0.000000  0.293222  0.234515  1
  B  B31  1  0.000000  0.706778  0.765485  1
  B  B32  1  0.000000  0.208414  0.734461  1
  B  B33  1  0.000000  0.791586  0.265539  1
  Rh  Rh34  1  0.500000  0.361384  0.679402  1
  Rh  Rh35  1  0.500000  0.638616  0.320598  1
