# generated using pymatgen
data_Sr4La16Si15Ge
_symmetry_space_group_name_H-M   'P 1'
_cell_length_a   8.12027132
_cell_length_b   8.12532094
_cell_length_c   15.76407800
_cell_angle_alpha   89.99091060
_cell_angle_beta   90.04331614
_cell_angle_gamma   90.02603399
_symmetry_Int_Tables_number   1
_chemical_formula_structural   Sr4La16Si15Ge
_chemical_formula_sum   'Sr4 La16 Si15 Ge1'
_cell_volume   1040.11046315
_cell_formula_units_Z   1
loop_
 _symmetry_equiv_pos_site_id
 _symmetry_equiv_pos_as_xyz
  1  'x, y, z'
loop_
 _atom_site_type_symbol
 _atom_site_label
 _atom_site_symmetry_multiplicity
 _atom_site_fract_x
 _atom_site_fract_y
 _atom_site_fract_z
 _atom_site_occupancy
  Sr  Sr0  1  0.308095  0.309210  0.499760  1
  Sr  Sr1  1  0.191753  0.807512  0.750780  1
  Sr  Sr2  1  0.807966  0.192028  0.249675  1
  Sr  Sr3  1  0.691908  0.691997  0.000007  1
  La  La4  1  0.479828  0.374585  0.125366  1
  La  La5  1  0.977808  0.126862  0.625399  1
  La  La6  1  0.874688  0.020476  0.875466  1
  La  La7  1  0.125254  0.979836  0.374819  1
  La  La8  1  0.520951  0.624480  0.625352  1
  La  La9  1  0.374724  0.479986  0.874874  1
  La  La10  1  0.626058  0.519994  0.374352  1
  La  La11  1  0.020101  0.874802  0.124456  1
  La  La12  1  0.620742  0.988579  0.446711  1
  La  La13  1  0.380238  0.011627  0.947796  1
  La  La14  1  0.987271  0.618597  0.552269  1
  La  La15  1  0.487937  0.880161  0.197625  1
  La  La16  1  0.513392  0.121545  0.699156  1
  La  La17  1  0.880404  0.488154  0.802732  1
  La  La18  1  0.119400  0.511457  0.302222  1
  La  La19  1  0.011692  0.380634  0.052535  1
  Si  Si20  1  0.710724  0.082788  0.057658  1
  Si  Si21  1  0.917199  0.287957  0.442173  1
  Si  Si22  1  0.417141  0.210570  0.307659  1
  Si  Si23  1  0.582765  0.788796  0.807701  1
  Si  Si24  1  0.210929  0.417171  0.692352  1
  Si  Si25  1  0.789030  0.582826  0.191936  1
  Si  Si26  1  0.082871  0.710832  0.942394  1
  Si  Si27  1  0.798482  0.831273  0.703091  1
  Si  Si28  1  0.201777  0.167822  0.202702  1
  Si  Si29  1  0.831850  0.798412  0.296555  1
  Si  Si30  1  0.331866  0.699333  0.451224  1
  Si  Si31  1  0.667799  0.298008  0.952884  1
  Si  Si32  1  0.701304  0.331685  0.546533  1
  Si  Si33  1  0.298382  0.668043  0.047168  1
  Si  Si34  1  0.168705  0.201381  0.797112  1
  Ge  Ge35  1  0.288964  0.920577  0.559507  1
