# generated using pymatgen
data_Cs3CuSi4
_symmetry_space_group_name_H-M   'P 1'
_cell_length_a   5.79389600
_cell_length_b   7.24972000
_cell_length_c   13.14263900
_cell_angle_alpha   90.00000000
_cell_angle_beta   90.00000000
_cell_angle_gamma   90.00000000
_symmetry_Int_Tables_number   1
_chemical_formula_structural   Cs3CuSi4
_chemical_formula_sum   'Cs6 Cu2 Si8'
_cell_volume   552.04503442
_cell_formula_units_Z   2
loop_
 _symmetry_equiv_pos_site_id
 _symmetry_equiv_pos_as_xyz
  1  'x, y, z'
loop_
 _atom_site_type_symbol
 _atom_site_label
 _atom_site_symmetry_multiplicity
 _atom_site_fract_x
 _atom_site_fract_y
 _atom_site_fract_z
 _atom_site_occupancy
  Cs  Cs0  1  0.844582  0.500000  0.267533  1
  Cs  Cs1  1  0.844582  0.500000  0.732467  1
  Cs  Cs2  1  0.429050  0.500000  0.500000  1
  Cs  Cs3  1  0.155418  0.000000  0.232467  1
  Cs  Cs4  1  0.155418  0.000000  0.767533  1
  Cs  Cs5  1  0.570950  0.000000  0.000000  1
  Cu  Cu6  1  0.700583  0.500000  0.000000  1
  Cu  Cu7  1  0.299417  0.000000  0.500000  1
  Si  Si8  1  0.060093  0.327581  0.000000  1
  Si  Si9  1  0.342966  0.500000  0.095484  1
  Si  Si10  1  0.657034  0.000000  0.595484  1
  Si  Si11  1  0.060093  0.672419  0.000000  1
  Si  Si12  1  0.939907  0.827581  0.500000  1
  Si  Si13  1  0.657034  0.000000  0.404516  1
  Si  Si14  1  0.342966  0.500000  0.904516  1
  Si  Si15  1  0.939907  0.172419  0.500000  1
