# generated using pymatgen
data_TmTh2(MgPt)3
_symmetry_space_group_name_H-M   'P 1'
_cell_length_a   7.61719914
_cell_length_b   7.61719817
_cell_length_c   3.99940500
_cell_angle_alpha   90.00000000
_cell_angle_beta   90.00000000
_cell_angle_gamma   120.58774800
_symmetry_Int_Tables_number   1
_chemical_formula_structural   TmTh2(MgPt)3
_chemical_formula_sum   'Tm1 Th2 Mg3 Pt3'
_cell_volume   199.76245490
_cell_formula_units_Z   1
loop_
 _symmetry_equiv_pos_site_id
 _symmetry_equiv_pos_as_xyz
  1  'x, y, z'
loop_
 _atom_site_type_symbol
 _atom_site_label
 _atom_site_symmetry_multiplicity
 _atom_site_fract_x
 _atom_site_fract_y
 _atom_site_fract_z
 _atom_site_occupancy
  Tm  Tm0  1  0.407518  0.407518  0.000000  1
  Th  Th1  1  0.584505  0.000982  0.000000  1
  Th  Th2  1  0.000982  0.584505  0.000000  1
  Mg  Mg3  1  0.243361  0.008547  0.500000  1
  Mg  Mg4  1  0.008547  0.243361  0.500000  1
  Mg  Mg5  1  0.750586  0.750586  0.500000  1
  Pt  Pt6  1  0.333844  0.670700  0.500000  1
  Pt  Pt7  1  0.670700  0.333844  0.500000  1
  Pt  Pt8  1  0.999957  0.999957  0.000000  1
