# generated using pymatgen
data_Rb8Dy6GaBr20
_symmetry_space_group_name_H-M   'P 1'
_cell_length_a   12.39245762
_cell_length_b   12.39245738
_cell_length_c   12.39245600
_cell_angle_alpha   59.99999835
_cell_angle_beta   59.99999898
_cell_angle_gamma   60.00000023
_symmetry_Int_Tables_number   1
_chemical_formula_structural   Rb8Dy6GaBr20
_chemical_formula_sum   'Rb8 Dy6 Ga1 Br20'
_cell_volume   1345.72789882
_cell_formula_units_Z   1
loop_
 _symmetry_equiv_pos_site_id
 _symmetry_equiv_pos_as_xyz
  1  'x, y, z'
loop_
 _atom_site_type_symbol
 _atom_site_label
 _atom_site_symmetry_multiplicity
 _atom_site_fract_x
 _atom_site_fract_y
 _atom_site_fract_z
 _atom_site_occupancy
  Rb  Rb0  1  0.358710  0.358710  0.358710  1
  Rb  Rb1  1  0.641290  0.641290  0.641290  1
  Rb  Rb2  1  0.358710  0.358710  0.923869  1
  Rb  Rb3  1  0.358710  0.923869  0.358710  1
  Rb  Rb4  1  0.641290  0.641290  0.076131  1
  Rb  Rb5  1  0.641290  0.076131  0.641290  1
  Rb  Rb6  1  0.923869  0.358710  0.358710  1
  Rb  Rb7  1  0.076131  0.641290  0.641290  1
  Dy  Dy8  1  0.841034  0.158966  0.158966  1
  Dy  Dy9  1  0.158966  0.841034  0.841034  1
  Dy  Dy10  1  0.158966  0.841034  0.158966  1
  Dy  Dy11  1  0.841034  0.158966  0.841034  1
  Dy  Dy12  1  0.158966  0.158966  0.841034  1
  Dy  Dy13  1  0.841034  0.841034  0.158966  1
  Ga  Ga14  1  0.000000  0.000000  0.000000  1
  Br  Br15  1  0.329787  0.000000  0.000000  1
  Br  Br16  1  0.670213  0.000000  0.000000  1
  Br  Br17  1  0.000000  0.329787  0.670213  1
  Br  Br18  1  0.000000  0.670213  0.329787  1
  Br  Br19  1  0.000000  0.329787  0.000000  1
  Br  Br20  1  0.670213  0.000000  0.329787  1
  Br  Br21  1  0.000000  0.670213  0.000000  1
  Br  Br22  1  0.329787  0.000000  0.670213  1
  Br  Br23  1  0.000000  0.000000  0.329787  1
  Br  Br24  1  0.000000  0.000000  0.670213  1
  Br  Br25  1  0.670213  0.329787  0.000000  1
  Br  Br26  1  0.329787  0.670213  0.000000  1
  Br  Br27  1  0.677664  0.322336  0.322336  1
  Br  Br28  1  0.322336  0.677664  0.677664  1
  Br  Br29  1  0.322336  0.677664  0.322336  1
  Br  Br30  1  0.677664  0.322336  0.677664  1
  Br  Br31  1  0.322336  0.322336  0.677664  1
  Br  Br32  1  0.677664  0.677664  0.322336  1
  Br  Br33  1  0.250000  0.250000  0.250000  1
  Br  Br34  1  0.750000  0.750000  0.750000  1
