# generated using pymatgen
data_Zr4(PdPt3)3
_symmetry_space_group_name_H-M   'P 1'
_cell_length_a   5.72174937
_cell_length_b   5.71488287
_cell_length_c   9.40033500
_cell_angle_alpha   90.00000000
_cell_angle_beta   90.00000000
_cell_angle_gamma   119.96031072
_symmetry_Int_Tables_number   1
_chemical_formula_structural   Zr4(PdPt3)3
_chemical_formula_sum   'Zr4 Pd3 Pt9'
_cell_volume   266.30767194
_cell_formula_units_Z   1
loop_
 _symmetry_equiv_pos_site_id
 _symmetry_equiv_pos_as_xyz
  1  'x, y, z'
loop_
 _atom_site_type_symbol
 _atom_site_label
 _atom_site_symmetry_multiplicity
 _atom_site_fract_x
 _atom_site_fract_y
 _atom_site_fract_z
 _atom_site_occupancy
  Zr  Zr0  1  0.001030  0.000515  0.499586  1
  Zr  Zr1  1  0.001030  0.000515  0.000414  1
  Zr  Zr2  1  0.335527  0.667764  0.250000  1
  Zr  Zr3  1  0.663010  0.331504  0.750000  1
  Pd  Pd4  1  0.000052  0.500026  0.500881  1
  Pd  Pd5  1  0.000052  0.500026  0.999119  1
  Pd  Pd6  1  0.658487  0.829244  0.750000  1
  Pt  Pt7  1  0.500357  0.500264  0.500404  1
  Pt  Pt8  1  0.500357  0.000093  0.500404  1
  Pt  Pt9  1  0.500357  0.500264  0.999596  1
  Pt  Pt10  1  0.500357  0.000093  0.999596  1
  Pt  Pt11  1  0.832404  0.170921  0.250000  1
  Pt  Pt12  1  0.832404  0.661482  0.250000  1
  Pt  Pt13  1  0.340270  0.170135  0.250000  1
  Pt  Pt14  1  0.167153  0.828835  0.750000  1
  Pt  Pt15  1  0.167153  0.338318  0.750000  1
