# generated using pymatgen
data_PrTm(Th2In5)2
_symmetry_space_group_name_H-M   'P 1'
_cell_length_a   6.61398600
_cell_length_b   6.61398589
_cell_length_c   10.37113400
_cell_angle_alpha   90.00000000
_cell_angle_beta   90.00000000
_cell_angle_gamma   102.38097135
_symmetry_Int_Tables_number   1
_chemical_formula_structural   PrTm(Th2In5)2
_chemical_formula_sum   'Pr1 Tm1 Th4 In10'
_cell_volume   443.13222050
_cell_formula_units_Z   1
loop_
 _symmetry_equiv_pos_site_id
 _symmetry_equiv_pos_as_xyz
  1  'x, y, z'
loop_
 _atom_site_type_symbol
 _atom_site_label
 _atom_site_symmetry_multiplicity
 _atom_site_fract_x
 _atom_site_fract_y
 _atom_site_fract_z
 _atom_site_occupancy
  Pr  Pr0  1  0.870746  0.870746  0.250000  1
  Tm  Tm1  1  0.130324  0.130324  0.750000  1
  Th  Th2  1  0.707443  0.295605  0.999593  1
  Th  Th3  1  0.707443  0.295605  0.500407  1
  Th  Th4  1  0.295605  0.707443  0.999593  1
  Th  Th5  1  0.295605  0.707443  0.500407  1
  In  In6  1  0.508540  0.508540  0.750000  1
  In  In7  1  0.485946  0.485946  0.250000  1
  In  In8  1  0.810470  0.810470  0.552826  1
  In  In9  1  0.192876  0.192876  0.456773  1
  In  In10  1  0.810470  0.810470  0.947174  1
  In  In11  1  0.192876  0.192876  0.043227  1
  In  In12  1  0.994409  0.562738  0.750000  1
  In  In13  1  0.426050  0.008453  0.250000  1
  In  In14  1  0.008453  0.426050  0.250000  1
  In  In15  1  0.562738  0.994409  0.750000  1
