# generated using pymatgen
data_Lu10In8RuPt3
_symmetry_space_group_name_H-M   'P 1'
_cell_length_a   3.56299400
_cell_length_b   8.01930665
_cell_length_c   18.01476203
_cell_angle_alpha   90.03332480
_cell_angle_beta   90.00000000
_cell_angle_gamma   90.00000000
_symmetry_Int_Tables_number   1
_chemical_formula_structural   Lu10In8RuPt3
_chemical_formula_sum   'Lu10 In8 Ru1 Pt3'
_cell_volume   514.73105095
_cell_formula_units_Z   1
loop_
 _symmetry_equiv_pos_site_id
 _symmetry_equiv_pos_as_xyz
  1  'x, y, z'
loop_
 _atom_site_type_symbol
 _atom_site_label
 _atom_site_symmetry_multiplicity
 _atom_site_fract_x
 _atom_site_fract_y
 _atom_site_fract_z
 _atom_site_occupancy
  Lu  Lu0  1  0.000000  0.115523  0.411644  1
  Lu  Lu1  1  0.000000  0.883217  0.585534  1
  Lu  Lu2  1  0.000000  0.383857  0.914346  1
  Lu  Lu3  1  0.000000  0.618261  0.087033  1
  Lu  Lu4  1  0.000000  0.236450  0.223415  1
  Lu  Lu5  1  0.000000  0.755850  0.777894  1
  Lu  Lu6  1  0.000000  0.255375  0.721685  1
  Lu  Lu7  1  0.000000  0.752597  0.278671  1
  Lu  Lu8  1  0.000000  0.999895  0.000442  1
  Lu  Lu9  1  0.000000  0.500108  0.499575  1
  In  In10  1  0.500000  0.423809  0.352652  1
  In  In11  1  0.500000  0.573533  0.646827  1
  In  In12  1  0.500000  0.074116  0.853073  1
  In  In13  1  0.500000  0.930821  0.149102  1
  In  In14  1  0.500000  0.292437  0.065790  1
  In  In15  1  0.500000  0.708438  0.934309  1
  In  In16  1  0.500000  0.207444  0.565444  1
  In  In17  1  0.500000  0.793773  0.431916  1
  Ru  Ru18  1  0.500000  0.022137  0.304061  1
  Pt  Pt19  1  0.500000  0.975414  0.696113  1
  Pt  Pt20  1  0.500000  0.475336  0.803835  1
  Pt  Pt21  1  0.500000  0.521611  0.196637  1
