# generated using pymatgen
data_SrNdFePdO6
_symmetry_space_group_name_H-M   'P 1'
_cell_length_a   5.66426200
_cell_length_b   5.58725781
_cell_length_c   9.66232732
_cell_angle_alpha   54.78075863
_cell_angle_beta   90.00000000
_cell_angle_gamma   90.00000000
_symmetry_Int_Tables_number   1
_chemical_formula_structural   SrNdFePdO6
_chemical_formula_sum   'Sr2 Nd2 Fe2 Pd2 O12'
_cell_volume   249.81582368
_cell_formula_units_Z   2
loop_
 _symmetry_equiv_pos_site_id
 _symmetry_equiv_pos_as_xyz
  1  'x, y, z'
loop_
 _atom_site_type_symbol
 _atom_site_label
 _atom_site_symmetry_multiplicity
 _atom_site_fract_x
 _atom_site_fract_y
 _atom_site_fract_z
 _atom_site_occupancy
  Sr  Sr0  1  0.714337  0.756701  0.749220  1
  Sr  Sr1  1  0.285663  0.756701  0.249220  1
  Nd  Nd2  1  0.198238  0.235535  0.749352  1
  Nd  Nd3  1  0.801762  0.235535  0.249352  1
  Fe  Fe4  1  0.256462  0.500072  0.999073  1
  Fe  Fe5  1  0.743538  0.500072  0.499073  1
  Pd  Pd6  1  0.252139  0.999811  0.500124  1
  Pd  Pd7  1  0.747861  0.999811  0.000124  1
  O  O8  1  0.027468  0.761811  0.457186  1
  O  O9  1  0.542385  0.249801  0.047216  1
  O  O10  1  0.452479  0.840774  0.954631  1
  O  O11  1  0.970915  0.179113  0.543015  1
  O  O12  1  0.457615  0.249801  0.547216  1
  O  O13  1  0.972532  0.761811  0.957186  1
  O  O14  1  0.029085  0.179113  0.043015  1
  O  O15  1  0.547521  0.840774  0.454631  1
  O  O16  1  0.262853  0.653798  0.752239  1
  O  O17  1  0.777161  0.322585  0.747945  1
  O  O18  1  0.222839  0.322585  0.247945  1
  O  O19  1  0.737147  0.653798  0.252239  1
