# generated using pymatgen
data_Ce6Er4Zn(GaRu2)3
_symmetry_space_group_name_H-M   'P 1'
_cell_length_a   8.37318551
_cell_length_b   8.37318533
_cell_length_c   8.37318643
_cell_angle_alpha   110.23874985
_cell_angle_beta   110.23874882
_cell_angle_gamma   110.23875270
_symmetry_Int_Tables_number   1
_chemical_formula_structural   Ce6Er4Zn(GaRu2)3
_chemical_formula_sum   'Ce6 Er4 Zn1 Ga3 Ru6'
_cell_volume   438.59694190
_cell_formula_units_Z   1
loop_
 _symmetry_equiv_pos_site_id
 _symmetry_equiv_pos_as_xyz
  1  'x, y, z'
loop_
 _atom_site_type_symbol
 _atom_site_label
 _atom_site_symmetry_multiplicity
 _atom_site_fract_x
 _atom_site_fract_y
 _atom_site_fract_z
 _atom_site_occupancy
  Ce  Ce0  1  0.716944  0.508866  0.000368  1
  Ce  Ce1  1  0.000368  0.716944  0.508866  1
  Ce  Ce2  1  0.508866  0.000368  0.716944  1
  Ce  Ce3  1  0.245973  0.190135  0.939958  1
  Ce  Ce4  1  0.939958  0.245973  0.190135  1
  Ce  Ce5  1  0.190135  0.939958  0.245973  1
  Er  Er6  1  0.766018  0.766018  0.766018  1
  Er  Er7  1  0.310340  0.560996  0.751449  1
  Er  Er8  1  0.751449  0.310340  0.560996  1
  Er  Er9  1  0.560996  0.751449  0.310340  1
  Zn  Zn10  1  0.409043  0.409043  0.409043  1
  Ga  Ga11  1  0.099002  0.500684  0.001184  1
  Ga  Ga12  1  0.001184  0.099002  0.500684  1
  Ga  Ga13  1  0.500684  0.001184  0.099002  1
  Ru  Ru14  1  0.887236  0.114478  0.752824  1
  Ru  Ru15  1  0.752824  0.887236  0.114478  1
  Ru  Ru16  1  0.114478  0.752824  0.887236  1
  Ru  Ru17  1  0.233683  0.624844  0.385977  1
  Ru  Ru18  1  0.385977  0.233683  0.624844  1
  Ru  Ru19  1  0.624844  0.385977  0.233683  1
