# generated using pymatgen
data_Np2Al9OsRh2
_symmetry_space_group_name_H-M   'P 1'
_cell_length_a   7.52474141
_cell_length_b   7.52474303
_cell_length_c   9.38143500
_cell_angle_alpha   90.00000000
_cell_angle_beta   90.00000000
_cell_angle_gamma   117.35013783
_symmetry_Int_Tables_number   1
_chemical_formula_structural   Np2Al9OsRh2
_chemical_formula_sum   'Np4 Al18 Os2 Rh4'
_cell_volume   471.81407828
_cell_formula_units_Z   2
loop_
 _symmetry_equiv_pos_site_id
 _symmetry_equiv_pos_as_xyz
  1  'x, y, z'
loop_
 _atom_site_type_symbol
 _atom_site_label
 _atom_site_symmetry_multiplicity
 _atom_site_fract_x
 _atom_site_fract_y
 _atom_site_fract_z
 _atom_site_occupancy
  Np  Np0  1  0.991899  0.702078  0.250000  1
  Np  Np1  1  0.008101  0.297922  0.750000  1
  Np  Np2  1  0.702078  0.991899  0.250000  1
  Np  Np3  1  0.297922  0.008101  0.750000  1
  Al  Al4  1  0.150416  0.150416  0.250000  1
  Al  Al5  1  0.849584  0.849584  0.750000  1
  Al  Al6  1  0.003799  0.349205  0.081478  1
  Al  Al7  1  0.996201  0.650795  0.918522  1
  Al  Al8  1  0.996201  0.650795  0.581478  1
  Al  Al9  1  0.349205  0.003799  0.418522  1
  Al  Al10  1  0.003799  0.349205  0.418522  1
  Al  Al11  1  0.650795  0.996201  0.581478  1
  Al  Al12  1  0.650795  0.996201  0.918522  1
  Al  Al13  1  0.349205  0.003799  0.081478  1
  Al  Al14  1  0.334477  0.334477  0.539901  1
  Al  Al15  1  0.665523  0.665523  0.460099  1
  Al  Al16  1  0.665523  0.665523  0.039901  1
  Al  Al17  1  0.334477  0.334477  0.960099  1
  Al  Al18  1  0.346623  0.566278  0.250000  1
  Al  Al19  1  0.653377  0.433722  0.750000  1
  Al  Al20  1  0.566278  0.346623  0.250000  1
  Al  Al21  1  0.433722  0.653377  0.750000  1
  Os  Os22  1  0.000000  0.000000  0.000000  1
  Os  Os23  1  0.000000  0.000000  0.500000  1
  Rh  Rh24  1  0.671596  0.328404  0.000000  1
  Rh  Rh25  1  0.328404  0.671596  0.000000  1
  Rh  Rh26  1  0.328404  0.671596  0.500000  1
  Rh  Rh27  1  0.671596  0.328404  0.500000  1
