# generated using pymatgen
data_Dy3Lu(TiAl3)2
_symmetry_space_group_name_H-M   'P 1'
_cell_length_a   9.49747248
_cell_length_b   9.49747181
_cell_length_c   9.49747331
_cell_angle_alpha   34.78778723
_cell_angle_beta   34.78779051
_cell_angle_gamma   34.78779439
_symmetry_Int_Tables_number   1
_chemical_formula_structural   Dy3Lu(TiAl3)2
_chemical_formula_sum   'Dy3 Lu1 Ti2 Al6'
_cell_volume   248.90324296
_cell_formula_units_Z   1
loop_
 _symmetry_equiv_pos_site_id
 _symmetry_equiv_pos_as_xyz
  1  'x, y, z'
loop_
 _atom_site_type_symbol
 _atom_site_label
 _atom_site_symmetry_multiplicity
 _atom_site_fract_x
 _atom_site_fract_y
 _atom_site_fract_z
 _atom_site_occupancy
  Dy  Dy0  1  0.313196  0.313196  0.313196  1
  Dy  Dy1  1  0.686971  0.686971  0.686971  1
  Dy  Dy2  1  0.186548  0.186548  0.186548  1
  Lu  Lu3  1  0.813689  0.813689  0.813689  1
  Ti  Ti4  1  0.499825  0.499825  0.499825  1
  Ti  Ti5  1  0.999906  0.999906  0.999906  1
  Al  Al6  1  0.250026  0.250026  0.750357  1
  Al  Al7  1  0.749956  0.749956  0.249545  1
  Al  Al8  1  0.250026  0.750357  0.250026  1
  Al  Al9  1  0.749956  0.249545  0.749956  1
  Al  Al10  1  0.750357  0.250026  0.250026  1
  Al  Al11  1  0.249545  0.749956  0.749956  1
