# generated using pymatgen
data_Yb9Hg(BiPt2)2
_symmetry_space_group_name_H-M   'P 1'
_cell_length_a   9.18511415
_cell_length_b   9.18511473
_cell_length_c   9.18511455
_cell_angle_alpha   130.12569319
_cell_angle_beta   130.12569394
_cell_angle_gamma   73.20590498
_symmetry_Int_Tables_number   1
_chemical_formula_structural   Yb9Hg(BiPt2)2
_chemical_formula_sum   'Yb9 Hg1 Bi2 Pt4'
_cell_volume   442.34827380
_cell_formula_units_Z   1
loop_
 _symmetry_equiv_pos_site_id
 _symmetry_equiv_pos_as_xyz
  1  'x, y, z'
loop_
 _atom_site_type_symbol
 _atom_site_label
 _atom_site_symmetry_multiplicity
 _atom_site_fract_x
 _atom_site_fract_y
 _atom_site_fract_z
 _atom_site_occupancy
  Yb  Yb0  1  0.000000  0.000000  0.000000  1
  Yb  Yb1  1  0.783664  0.306956  0.842975  1
  Yb  Yb2  1  0.216336  0.693044  0.157025  1
  Yb  Yb3  1  0.463981  0.940689  0.157025  1
  Yb  Yb4  1  0.306956  0.463981  0.523292  1
  Yb  Yb5  1  0.059311  0.216336  0.523292  1
  Yb  Yb6  1  0.536019  0.059311  0.842975  1
  Yb  Yb7  1  0.693044  0.536019  0.476708  1
  Yb  Yb8  1  0.940689  0.783664  0.476708  1
  Hg  Hg9  1  0.500000  0.500000  0.000000  1
  Bi  Bi10  1  0.237018  0.237018  0.000000  1
  Bi  Bi11  1  0.762982  0.762982  0.000000  1
  Pt  Pt12  1  0.120845  0.634840  0.755687  1
  Pt  Pt13  1  0.879155  0.365160  0.244313  1
  Pt  Pt14  1  0.634840  0.879155  0.513995  1
  Pt  Pt15  1  0.365160  0.120845  0.486005  1
