# generated using pymatgen
data_Eu4In4AgPt3
_symmetry_space_group_name_H-M   'P 1'
_cell_length_a   4.53856600
_cell_length_b   7.51974973
_cell_length_c   8.59409226
_cell_angle_alpha   89.90962420
_cell_angle_beta   90.00000000
_cell_angle_gamma   90.00000000
_symmetry_Int_Tables_number   1
_chemical_formula_structural   Eu4In4AgPt3
_chemical_formula_sum   'Eu4 In4 Ag1 Pt3'
_cell_volume   293.30638249
_cell_formula_units_Z   1
loop_
 _symmetry_equiv_pos_site_id
 _symmetry_equiv_pos_as_xyz
  1  'x, y, z'
loop_
 _atom_site_type_symbol
 _atom_site_label
 _atom_site_symmetry_multiplicity
 _atom_site_fract_x
 _atom_site_fract_y
 _atom_site_fract_z
 _atom_site_occupancy
  Eu  Eu0  1  0.750000  0.456622  0.817568  1
  Eu  Eu1  1  0.250000  0.031721  0.320193  1
  Eu  Eu2  1  0.750000  0.975438  0.670198  1
  Eu  Eu3  1  0.250000  0.525311  0.187462  1
  In  In4  1  0.250000  0.645289  0.561606  1
  In  In5  1  0.250000  0.155807  0.936710  1
  In  In6  1  0.750000  0.352281  0.434500  1
  In  In7  1  0.750000  0.854971  0.069581  1
  Ag  Ag8  1  0.250000  0.771410  0.877562  1
  Pt  Pt9  1  0.250000  0.267132  0.621853  1
  Pt  Pt10  1  0.750000  0.731672  0.379470  1
  Pt  Pt11  1  0.750000  0.232345  0.123297  1
