# generated using pymatgen
data_Dy11Th5(CdRu)4
_symmetry_space_group_name_H-M   'P 1'
_cell_length_a   9.66905599
_cell_length_b   9.74483766
_cell_length_c   9.74483693
_cell_angle_alpha   59.82752707
_cell_angle_beta   60.25690688
_cell_angle_gamma   60.25691246
_symmetry_Int_Tables_number   1
_chemical_formula_structural   Dy11Th5(CdRu)4
_chemical_formula_sum   'Dy11 Th5 Cd4 Ru4'
_cell_volume   650.90891084
_cell_formula_units_Z   1
loop_
 _symmetry_equiv_pos_site_id
 _symmetry_equiv_pos_as_xyz
  1  'x, y, z'
loop_
 _atom_site_type_symbol
 _atom_site_label
 _atom_site_symmetry_multiplicity
 _atom_site_fract_x
 _atom_site_fract_y
 _atom_site_fract_z
 _atom_site_occupancy
  Dy  Dy0  1  0.187859  0.812141  0.812141  1
  Dy  Dy1  1  0.192880  0.808393  0.186299  1
  Dy  Dy2  1  0.812429  0.186299  0.808393  1
  Dy  Dy3  1  0.192880  0.186299  0.808393  1
  Dy  Dy4  1  0.812429  0.808393  0.186299  1
  Dy  Dy5  1  0.933300  0.566700  0.566700  1
  Dy  Dy6  1  0.564483  0.935517  0.935517  1
  Dy  Dy7  1  0.562618  0.936613  0.563525  1
  Dy  Dy8  1  0.937244  0.563525  0.936613  1
  Dy  Dy9  1  0.562618  0.563525  0.936613  1
  Dy  Dy10  1  0.937244  0.936613  0.563525  1
  Th  Th11  1  0.342743  0.350055  0.350055  1
  Th  Th12  1  0.347539  0.348289  0.956634  1
  Th  Th13  1  0.347539  0.956634  0.348289  1
  Th  Th14  1  0.957147  0.350055  0.350055  1
  Th  Th15  1  0.814872  0.185128  0.185128  1
  Cd  Cd16  1  0.582246  0.581145  0.581145  1
  Cd  Cd17  1  0.580882  0.583830  0.254405  1
  Cd  Cd18  1  0.580882  0.254405  0.583830  1
  Cd  Cd19  1  0.255463  0.581145  0.581145  1
  Ru  Ru20  1  0.128363  0.147515  0.147515  1
  Ru  Ru21  1  0.144867  0.142139  0.568128  1
  Ru  Ru22  1  0.144867  0.568128  0.142139  1
  Ru  Ru23  1  0.576608  0.147515  0.147515  1
