# generated using pymatgen
data_Tm2Hf3Ni9As7
_symmetry_space_group_name_H-M   'P 1'
_cell_length_a   9.75267000
_cell_length_b   9.75266966
_cell_length_c   3.82884400
_cell_angle_alpha   90.00000000
_cell_angle_beta   90.00000000
_cell_angle_gamma   120.00000795
_symmetry_Int_Tables_number   1
_chemical_formula_structural   Tm2Hf3Ni9As7
_chemical_formula_sum   'Tm2 Hf3 Ni9 As7'
_cell_volume   315.38810685
_cell_formula_units_Z   1
loop_
 _symmetry_equiv_pos_site_id
 _symmetry_equiv_pos_as_xyz
  1  'x, y, z'
loop_
 _atom_site_type_symbol
 _atom_site_label
 _atom_site_symmetry_multiplicity
 _atom_site_fract_x
 _atom_site_fract_y
 _atom_site_fract_z
 _atom_site_occupancy
  Tm  Tm0  1  0.333333  0.666667  0.000000  1
  Tm  Tm1  1  0.666667  0.333333  0.500000  1
  Hf  Hf2  1  0.230571  0.121122  0.500000  1
  Hf  Hf3  1  0.878878  0.109448  0.500000  1
  Hf  Hf4  1  0.890552  0.769429  0.500000  1
  Ni  Ni5  1  0.126572  0.284608  0.000000  1
  Ni  Ni6  1  0.715392  0.841964  0.000000  1
  Ni  Ni7  1  0.158036  0.873428  0.000000  1
  Ni  Ni8  1  0.424129  0.359677  0.000000  1
  Ni  Ni9  1  0.640323  0.064452  0.000000  1
  Ni  Ni10  1  0.935548  0.575871  0.000000  1
  Ni  Ni11  1  0.057154  0.439500  0.500000  1
  Ni  Ni12  1  0.560500  0.617654  0.500000  1
  Ni  Ni13  1  0.382346  0.942846  0.500000  1
  As  As14  1  0.292786  0.418788  0.500000  1
  As  As15  1  0.581212  0.873997  0.500000  1
  As  As16  1  0.126003  0.707214  0.500000  1
  As  As17  1  0.426110  0.111553  0.000000  1
  As  As18  1  0.888447  0.314558  0.000000  1
  As  As19  1  0.685442  0.573890  0.000000  1
  As  As20  1  0.000000  0.000000  0.000000  1
