# generated using pymatgen
data_Fe3Co(SiTc)6
_symmetry_space_group_name_H-M   'P 1'
_cell_length_a   6.90760200
_cell_length_b   6.90760180
_cell_length_c   4.80876900
_cell_angle_alpha   90.00000000
_cell_angle_beta   90.00000000
_cell_angle_gamma   120.00001055
_symmetry_Int_Tables_number   1
_chemical_formula_structural   Fe3Co(SiTc)6
_chemical_formula_sum   'Fe3 Co1 Si6 Tc6'
_cell_volume   198.70971534
_cell_formula_units_Z   1
loop_
 _symmetry_equiv_pos_site_id
 _symmetry_equiv_pos_as_xyz
  1  'x, y, z'
loop_
 _atom_site_type_symbol
 _atom_site_label
 _atom_site_symmetry_multiplicity
 _atom_site_fract_x
 _atom_site_fract_y
 _atom_site_fract_z
 _atom_site_occupancy
  Fe  Fe0  1  0.666667  0.333333  0.000000  1
  Fe  Fe1  1  0.666667  0.333333  0.500000  1
  Fe  Fe2  1  0.333333  0.666667  0.000000  1
  Co  Co3  1  0.333333  0.666667  0.500000  1
  Si  Si4  1  0.403808  0.997671  0.751126  1
  Si  Si5  1  0.403808  0.406137  0.248874  1
  Si  Si6  1  0.002329  0.596192  0.248874  1
  Si  Si7  1  0.002329  0.406137  0.751126  1
  Si  Si8  1  0.593863  0.596192  0.751126  1
  Si  Si9  1  0.593863  0.997671  0.248874  1
  Tc  Tc10  1  0.000775  0.760027  0.748644  1
  Tc  Tc11  1  0.000775  0.240748  0.251356  1
  Tc  Tc12  1  0.759252  0.760027  0.251356  1
  Tc  Tc13  1  0.759252  0.999225  0.748644  1
  Tc  Tc14  1  0.239973  0.240748  0.748644  1
  Tc  Tc15  1  0.239973  0.999225  0.251356  1
