# generated using pymatgen
data_DyY4Ir2Ru
_symmetry_space_group_name_H-M   'P 1'
_cell_length_a   10.87219300
_cell_length_b   10.87219300
_cell_length_c   6.44978100
_cell_angle_alpha   90.00000000
_cell_angle_beta   90.00000000
_cell_angle_gamma   90.00000000
_symmetry_Int_Tables_number   1
_chemical_formula_structural   DyY4Ir2Ru
_chemical_formula_sum   'Dy4 Y16 Ir8 Ru4'
_cell_volume   762.39365826
_cell_formula_units_Z   4
loop_
 _symmetry_equiv_pos_site_id
 _symmetry_equiv_pos_as_xyz
  1  'x, y, z'
loop_
 _atom_site_type_symbol
 _atom_site_label
 _atom_site_symmetry_multiplicity
 _atom_site_fract_x
 _atom_site_fract_y
 _atom_site_fract_z
 _atom_site_occupancy
  Dy  Dy0  1  0.000000  0.000000  0.500000  1
  Dy  Dy1  1  0.000000  0.000000  0.000000  1
  Dy  Dy2  1  0.500000  0.500000  0.000000  1
  Dy  Dy3  1  0.500000  0.500000  0.500000  1
  Y  Y4  1  0.293415  0.087007  0.378486  1
  Y  Y5  1  0.293415  0.912993  0.878486  1
  Y  Y6  1  0.706585  0.087007  0.878486  1
  Y  Y7  1  0.706585  0.912993  0.378486  1
  Y  Y8  1  0.587007  0.793415  0.878486  1
  Y  Y9  1  0.587007  0.206585  0.378486  1
  Y  Y10  1  0.412993  0.793415  0.378486  1
  Y  Y11  1  0.412993  0.206585  0.878486  1
  Y  Y12  1  0.206585  0.412993  0.621514  1
  Y  Y13  1  0.206585  0.587007  0.121514  1
  Y  Y14  1  0.793415  0.412993  0.121514  1
  Y  Y15  1  0.793415  0.587007  0.621514  1
  Y  Y16  1  0.912993  0.706585  0.121514  1
  Y  Y17  1  0.912993  0.293415  0.621514  1
  Y  Y18  1  0.087007  0.706585  0.621514  1
  Y  Y19  1  0.087007  0.293415  0.121514  1
  Ir  Ir20  1  0.847925  0.152075  0.250000  1
  Ir  Ir21  1  0.847925  0.847925  0.750000  1
  Ir  Ir22  1  0.152075  0.152075  0.750000  1
  Ir  Ir23  1  0.152075  0.847925  0.250000  1
  Ir  Ir24  1  0.652075  0.347925  0.750000  1
  Ir  Ir25  1  0.652075  0.652075  0.250000  1
  Ir  Ir26  1  0.347925  0.347925  0.250000  1
  Ir  Ir27  1  0.347925  0.652075  0.750000  1
  Ru  Ru28  1  0.500000  0.000000  0.123754  1
  Ru  Ru29  1  0.500000  0.000000  0.623754  1
  Ru  Ru30  1  0.000000  0.500000  0.876246  1
  Ru  Ru31  1  0.000000  0.500000  0.376246  1
