# generated using pymatgen
data_Pr2TmPa3N8
_symmetry_space_group_name_H-M   'P 1'
_cell_length_a   7.00343304
_cell_length_b   7.00346404
_cell_length_c   6.87026200
_cell_angle_alpha   120.63963068
_cell_angle_beta   90.00635671
_cell_angle_gamma   119.99640060
_symmetry_Int_Tables_number   1
_chemical_formula_structural   Pr2TmPa3N8
_chemical_formula_sum   'Pr2 Tm1 Pa3 N8'
_cell_volume   235.94680687
_cell_formula_units_Z   1
loop_
 _symmetry_equiv_pos_site_id
 _symmetry_equiv_pos_as_xyz
  1  'x, y, z'
loop_
 _atom_site_type_symbol
 _atom_site_label
 _atom_site_symmetry_multiplicity
 _atom_site_fract_x
 _atom_site_fract_y
 _atom_site_fract_z
 _atom_site_occupancy
  Pr  Pr0  1  0.995978  0.991963  0.987939  1
  Pr  Pr1  1  0.753993  0.507988  0.261985  1
  Tm  Tm2  1  0.375001  0.750004  0.125003  1
  Pa  Pa3  1  0.375004  0.750005  0.625017  1
  Pa  Pa4  1  0.375005  0.250013  0.625016  1
  Pa  Pa5  1  0.875010  0.250012  0.625016  1
  N  N6  1  0.613485  0.227015  0.403279  1
  N  N7  1  0.176270  0.789800  0.403284  1
  N  N8  1  0.613533  0.789806  0.403338  1
  N  N9  1  0.141580  0.283207  0.424789  1
  N  N10  1  0.608418  0.216790  0.825210  1
  N  N11  1  0.136470  0.710202  0.846669  1
  N  N12  1  0.136522  0.272993  0.846730  1
  N  N13  1  0.573730  0.710200  0.846722  1
