# generated using pymatgen
data_Tm7Nb13Si16
_symmetry_space_group_name_H-M   'P 1'
_cell_length_a   6.98447663
_cell_length_b   6.99277711
_cell_length_c   12.92020804
_cell_angle_alpha   90.03838213
_cell_angle_beta   90.16210659
_cell_angle_gamma   89.98299943
_symmetry_Int_Tables_number   1
_chemical_formula_structural   Tm7Nb13Si16
_chemical_formula_sum   'Tm7 Nb13 Si16'
_cell_volume   631.03174378
_cell_formula_units_Z   1
loop_
 _symmetry_equiv_pos_site_id
 _symmetry_equiv_pos_as_xyz
  1  'x, y, z'
loop_
 _atom_site_type_symbol
 _atom_site_label
 _atom_site_symmetry_multiplicity
 _atom_site_fract_x
 _atom_site_fract_y
 _atom_site_fract_z
 _atom_site_occupancy
  Tm  Tm0  1  0.994654  0.337866  0.219673  1
  Tm  Tm1  1  0.001777  0.658714  0.717845  1
  Tm  Tm2  1  0.158434  0.498235  0.466002  1
  Tm  Tm3  1  0.501967  0.842152  0.032047  1
  Tm  Tm4  1  0.841036  0.501988  0.968897  1
  Tm  Tm5  1  0.497945  0.159502  0.530544  1
  Tm  Tm6  1  0.340568  0.998230  0.781888  1
  Nb  Nb7  1  0.649180  0.988715  0.285215  1
  Nb  Nb8  1  0.172857  0.170429  0.002584  1
  Nb  Nb9  1  0.827885  0.829829  0.498491  1
  Nb  Nb10  1  0.333478  0.673309  0.249835  1
  Nb  Nb11  1  0.670920  0.329723  0.749901  1
  Nb  Nb12  1  0.152357  0.995580  0.374218  1
  Nb  Nb13  1  0.846468  0.006735  0.876590  1
  Nb  Nb14  1  0.506526  0.653227  0.624889  1
  Nb  Nb15  1  0.348162  0.494031  0.874601  1
  Nb  Nb16  1  0.497430  0.347862  0.127777  1
  Nb  Nb17  1  0.653901  0.507332  0.372062  1
  Nb  Nb18  1  0.991404  0.152980  0.622418  1
  Nb  Nb19  1  0.006475  0.851860  0.126135  1
  Si  Si20  1  0.302802  0.045569  0.188236  1
  Si  Si21  1  0.703704  0.955862  0.686471  1
  Si  Si22  1  0.455925  0.796941  0.435162  1
  Si  Si23  1  0.205047  0.545206  0.064435  1
  Si  Si24  1  0.545199  0.204381  0.936970  1
  Si  Si25  1  0.795286  0.454657  0.561980  1
  Si  Si26  1  0.044707  0.295498  0.813812  1
  Si  Si27  1  0.953770  0.707393  0.313079  1
  Si  Si28  1  0.371774  0.288533  0.319743  1
  Si  Si29  1  0.635120  0.704684  0.817980  1
  Si  Si30  1  0.204281  0.866266  0.567606  1
  Si  Si31  1  0.134486  0.795895  0.932090  1
  Si  Si32  1  0.792922  0.134474  0.071173  1
  Si  Si33  1  0.859975  0.200243  0.425689  1
  Si  Si34  1  0.294923  0.365167  0.681558  1
  Si  Si35  1  0.706657  0.640931  0.182404  1
