# generated using pymatgen
data_Nb12Fe9Ge3N4
_symmetry_space_group_name_H-M   'P 1'
_cell_length_a   8.09595378
_cell_length_b   8.09595417
_cell_length_c   8.09595383
_cell_angle_alpha   59.84467794
_cell_angle_beta   59.84467507
_cell_angle_gamma   59.84467820
_symmetry_Int_Tables_number   1
_chemical_formula_structural   Nb12Fe9Ge3N4
_chemical_formula_sum   'Nb12 Fe9 Ge3 N4'
_cell_volume   373.90003056
_cell_formula_units_Z   1
loop_
 _symmetry_equiv_pos_site_id
 _symmetry_equiv_pos_as_xyz
  1  'x, y, z'
loop_
 _atom_site_type_symbol
 _atom_site_label
 _atom_site_symmetry_multiplicity
 _atom_site_fract_x
 _atom_site_fract_y
 _atom_site_fract_z
 _atom_site_occupancy
  Nb  Nb0  1  0.802295  0.802295  0.198534  1
  Nb  Nb1  1  0.196477  0.196477  0.802794  1
  Nb  Nb2  1  0.802295  0.198534  0.802295  1
  Nb  Nb3  1  0.196477  0.802794  0.196477  1
  Nb  Nb4  1  0.198534  0.802295  0.802295  1
  Nb  Nb5  1  0.802794  0.196477  0.196477  1
  Nb  Nb6  1  0.447705  0.447705  0.051466  1
  Nb  Nb7  1  0.053523  0.053523  0.447206  1
  Nb  Nb8  1  0.447705  0.051466  0.447705  1
  Nb  Nb9  1  0.053523  0.447206  0.053523  1
  Nb  Nb10  1  0.051466  0.447705  0.447705  1
  Nb  Nb11  1  0.447206  0.053523  0.053523  1
  Fe  Fe12  1  0.625000  0.625000  0.625000  1
  Fe  Fe13  1  0.739036  0.424756  0.424756  1
  Fe  Fe14  1  0.424756  0.739036  0.424756  1
  Fe  Fe15  1  0.424756  0.424756  0.739036  1
  Fe  Fe16  1  0.419208  0.419208  0.419208  1
  Fe  Fe17  1  0.510964  0.825244  0.825244  1
  Fe  Fe18  1  0.825244  0.510964  0.825244  1
  Fe  Fe19  1  0.825244  0.825244  0.510964  1
  Fe  Fe20  1  0.830792  0.830792  0.830792  1
  Ge  Ge21  1  0.125000  0.625000  0.625000  1
  Ge  Ge22  1  0.625000  0.125000  0.625000  1
  Ge  Ge23  1  0.625000  0.625000  0.125000  1
  N  N24  1  0.625000  0.125000  0.125000  1
  N  N25  1  0.125000  0.625000  0.125000  1
  N  N26  1  0.125000  0.125000  0.625000  1
  N  N27  1  0.125000  0.125000  0.125000  1
