# generated using pymatgen
data_Ho9Th(GePb3)2
_symmetry_space_group_name_H-M   'P 1'
_cell_length_a   9.34611400
_cell_length_b   9.35033483
_cell_length_c   6.50688800
_cell_angle_alpha   90.00000000
_cell_angle_beta   90.00000000
_cell_angle_gamma   120.01494193
_symmetry_Int_Tables_number   1
_chemical_formula_structural   Ho9Th(GePb3)2
_chemical_formula_sum   'Ho9 Th1 Ge2 Pb6'
_cell_volume   492.37590366
_cell_formula_units_Z   1
loop_
 _symmetry_equiv_pos_site_id
 _symmetry_equiv_pos_as_xyz
  1  'x, y, z'
loop_
 _atom_site_type_symbol
 _atom_site_label
 _atom_site_symmetry_multiplicity
 _atom_site_fract_x
 _atom_site_fract_y
 _atom_site_fract_z
 _atom_site_occupancy
  Ho  Ho0  1  0.667355  0.333535  0.499606  1
  Ho  Ho1  1  0.332645  0.666181  0.499606  1
  Ho  Ho2  1  0.332645  0.666181  0.000394  1
  Ho  Ho3  1  0.667355  0.333535  0.000394  1
  Ho  Ho4  1  0.744293  0.745500  0.250000  1
  Ho  Ho5  1  0.255707  0.001207  0.250000  1
  Ho  Ho6  1  0.000000  0.257476  0.250000  1
  Ho  Ho7  1  0.248801  0.247039  0.750000  1
  Ho  Ho8  1  0.751199  0.998238  0.750000  1
  Th  Th9  1  0.000000  0.748981  0.750000  1
  Ge  Ge10  1  0.000000  0.003522  0.486752  1
  Ge  Ge11  1  0.000000  0.003522  0.013248  1
  Pb  Pb12  1  0.392150  0.391948  0.250000  1
  Pb  Pb13  1  0.607850  0.999799  0.250000  1
  Pb  Pb14  1  0.000000  0.609914  0.250000  1
  Pb  Pb15  1  0.599901  0.602596  0.750000  1
  Pb  Pb16  1  0.400099  0.002695  0.750000  1
  Pb  Pb17  1  0.000000  0.388127  0.750000  1
