# generated using pymatgen
data_U4Ga5Tc7B
_symmetry_space_group_name_H-M   'P 1'
_cell_length_a   7.15738927
_cell_length_b   7.15739065
_cell_length_c   7.15739025
_cell_angle_alpha   110.46513600
_cell_angle_beta   107.50116246
_cell_angle_gamma   110.46514411
_symmetry_Int_Tables_number   1
_chemical_formula_structural   U4Ga5Tc7B
_chemical_formula_sum   'U4 Ga5 Tc7 B1'
_cell_volume   282.00613136
_cell_formula_units_Z   1
loop_
 _symmetry_equiv_pos_site_id
 _symmetry_equiv_pos_as_xyz
  1  'x, y, z'
loop_
 _atom_site_type_symbol
 _atom_site_label
 _atom_site_symmetry_multiplicity
 _atom_site_fract_x
 _atom_site_fract_y
 _atom_site_fract_z
 _atom_site_occupancy
  U  U0  1  0.471905  0.452091  0.471905  1
  U  U1  1  0.019815  0.547909  0.019815  1
  U  U2  1  0.471905  0.000000  0.019815  1
  U  U3  1  0.019815  0.000000  0.471905  1
  Ga  Ga4  1  0.737260  0.000000  0.737260  1
  Ga  Ga5  1  0.675225  0.693078  0.982147  1
  Ga  Ga6  1  0.289070  0.306922  0.982147  1
  Ga  Ga7  1  0.982147  0.693078  0.675225  1
  Ga  Ga8  1  0.982147  0.306922  0.289070  1
  Tc  Tc9  1  0.493476  0.761090  0.254565  1
  Tc  Tc10  1  0.732387  0.238910  0.493476  1
  Tc  Tc11  1  0.254565  0.761090  0.493476  1
  Tc  Tc12  1  0.237163  0.500000  0.737163  1
  Tc  Tc13  1  0.066266  0.000000  0.066266  1
  Tc  Tc14  1  0.493476  0.238910  0.732387  1
  Tc  Tc15  1  0.737163  0.500000  0.237163  1
  B  B16  1  0.336214  0.000000  0.336214  1
