# generated using pymatgen
data_Er9Lu(In2Co)4
_symmetry_space_group_name_H-M   'P 1'
_cell_length_a   3.53241000
_cell_length_b   7.91051502
_cell_length_c   17.91004905
_cell_angle_alpha   90.00834677
_cell_angle_beta   90.00000000
_cell_angle_gamma   90.00000000
_symmetry_Int_Tables_number   1
_chemical_formula_structural   Er9Lu(In2Co)4
_chemical_formula_sum   'Er9 Lu1 In8 Co4'
_cell_volume   500.46376140
_cell_formula_units_Z   1
loop_
 _symmetry_equiv_pos_site_id
 _symmetry_equiv_pos_as_xyz
  1  'x, y, z'
loop_
 _atom_site_type_symbol
 _atom_site_label
 _atom_site_symmetry_multiplicity
 _atom_site_fract_x
 _atom_site_fract_y
 _atom_site_fract_z
 _atom_site_occupancy
  Er  Er0  1  0.000000  0.884060  0.090313  1
  Er  Er1  1  0.000000  0.753021  0.278475  1
  Er  Er2  1  0.000000  0.746708  0.778307  1
  Er  Er3  1  0.000000  0.384064  0.409794  1
  Er  Er4  1  0.000000  0.115903  0.909680  1
  Er  Er5  1  0.000000  0.247071  0.721434  1
  Er  Er6  1  0.000000  0.500019  0.999995  1
  Er  Er7  1  0.000000  0.253100  0.221545  1
  Er  Er8  1  0.000000  0.999991  0.500027  1
  Lu  Lu9  1  0.000000  0.615547  0.590763  1
  In  In10  1  0.500000  0.205176  0.068484  1
  In  In11  1  0.500000  0.429697  0.847929  1
  In  In12  1  0.500000  0.570295  0.151950  1
  In  In13  1  0.500000  0.070469  0.348073  1
  In  In14  1  0.500000  0.928202  0.651680  1
  In  In15  1  0.500000  0.794830  0.931497  1
  In  In16  1  0.500000  0.704872  0.431951  1
  In  In17  1  0.500000  0.296481  0.568448  1
  Co  Co18  1  0.500000  0.976485  0.196376  1
  Co  Co19  1  0.500000  0.023493  0.803614  1
  Co  Co20  1  0.500000  0.523943  0.695963  1
  Co  Co21  1  0.500000  0.476573  0.303702  1
