# generated using pymatgen
data_TbY3(Ga3Rh)6
_symmetry_space_group_name_H-M   'P 1'
_cell_length_a   7.58389982
_cell_length_b   7.58314096
_cell_length_c   9.54984400
_cell_angle_alpha   90.00000000
_cell_angle_beta   90.00000000
_cell_angle_gamma   119.84848267
_symmetry_Int_Tables_number   1
_chemical_formula_structural   TbY3(Ga3Rh)6
_chemical_formula_sum   'Tb1 Y3 Ga18 Rh6'
_cell_volume   476.35384905
_cell_formula_units_Z   1
loop_
 _symmetry_equiv_pos_site_id
 _symmetry_equiv_pos_as_xyz
  1  'x, y, z'
loop_
 _atom_site_type_symbol
 _atom_site_label
 _atom_site_symmetry_multiplicity
 _atom_site_fract_x
 _atom_site_fract_y
 _atom_site_fract_z
 _atom_site_occupancy
  Tb  Tb0  1  0.332242  0.003123  0.750000  1
  Y  Y1  1  0.996779  0.667616  0.250000  1
  Y  Y2  1  0.003134  0.332246  0.750000  1
  Y  Y3  1  0.667666  0.996769  0.250000  1
  Ga  Ga4  1  0.125220  0.125221  0.250000  1
  Ga  Ga5  1  0.874862  0.874800  0.750000  1
  Ga  Ga6  1  0.000572  0.334125  0.078625  1
  Ga  Ga7  1  0.999465  0.665914  0.921245  1
  Ga  Ga8  1  0.999465  0.665914  0.578755  1
  Ga  Ga9  1  0.334111  0.000596  0.421366  1
  Ga  Ga10  1  0.000572  0.334125  0.421375  1
  Ga  Ga11  1  0.666010  0.999479  0.578761  1
  Ga  Ga12  1  0.666010  0.999479  0.921239  1
  Ga  Ga13  1  0.334111  0.000596  0.078634  1
  Ga  Ga14  1  0.333492  0.333531  0.562594  1
  Ga  Ga15  1  0.666462  0.666456  0.437380  1
  Ga  Ga16  1  0.666462  0.666456  0.062620  1
  Ga  Ga17  1  0.333492  0.333531  0.937406  1
  Ga  Ga18  1  0.338038  0.546736  0.250000  1
  Ga  Ga19  1  0.661776  0.452941  0.750000  1
  Ga  Ga20  1  0.546813  0.338085  0.250000  1
  Ga  Ga21  1  0.453051  0.661944  0.750000  1
  Rh  Rh22  1  0.671710  0.328492  0.000027  1
  Rh  Rh23  1  0.328479  0.671674  0.000018  1
  Rh  Rh24  1  0.328479  0.671674  0.499982  1
  Rh  Rh25  1  0.671710  0.328492  0.499973  1
  Rh  Rh26  1  0.999909  0.999993  0.000047  1
  Rh  Rh27  1  0.999909  0.999993  0.499953  1
