# generated using pymatgen
data_Nd10Hg8Pd3Pt
_symmetry_space_group_name_H-M   'P 1'
_cell_length_a   3.79682900
_cell_length_b   8.18906301
_cell_length_c   18.63142079
_cell_angle_alpha   89.99705861
_cell_angle_beta   90.00000000
_cell_angle_gamma   90.00000000
_symmetry_Int_Tables_number   1
_chemical_formula_structural   Nd10Hg8Pd3Pt
_chemical_formula_sum   'Nd10 Hg8 Pd3 Pt1'
_cell_volume   579.29692704
_cell_formula_units_Z   1
loop_
 _symmetry_equiv_pos_site_id
 _symmetry_equiv_pos_as_xyz
  1  'x, y, z'
loop_
 _atom_site_type_symbol
 _atom_site_label
 _atom_site_symmetry_multiplicity
 _atom_site_fract_x
 _atom_site_fract_y
 _atom_site_fract_z
 _atom_site_occupancy
  Nd  Nd0  1  0.000000  0.118044  0.415782  1
  Nd  Nd1  1  0.000000  0.881190  0.583866  1
  Nd  Nd2  1  0.000000  0.381685  0.915989  1
  Nd  Nd3  1  0.000000  0.617795  0.085368  1
  Nd  Nd4  1  0.000000  0.241339  0.215803  1
  Nd  Nd5  1  0.000000  0.764112  0.784794  1
  Nd  Nd6  1  0.000000  0.263449  0.715412  1
  Nd  Nd7  1  0.000000  0.732215  0.283612  1
  Nd  Nd8  1  0.000000  0.999222  0.999939  1
  Nd  Nd9  1  0.000000  0.499938  0.499962  1
  Hg  Hg10  1  0.500000  0.420160  0.353093  1
  Hg  Hg11  1  0.500000  0.579086  0.649451  1
  Hg  Hg12  1  0.500000  0.078682  0.850112  1
  Hg  Hg13  1  0.500000  0.926154  0.149156  1
  Hg  Hg14  1  0.500000  0.288348  0.065279  1
  Hg  Hg15  1  0.500000  0.709717  0.932602  1
  Hg  Hg16  1  0.500000  0.209005  0.567056  1
  Hg  Hg17  1  0.500000  0.790508  0.432828  1
  Pd  Pd18  1  0.500000  0.024997  0.303821  1
  Pd  Pd19  1  0.500000  0.974747  0.695731  1
  Pd  Pd20  1  0.500000  0.474594  0.803870  1
  Pt  Pt21  1  0.500000  0.525013  0.196473  1
