# generated using pymatgen
data_Cd31BiO32
_symmetry_space_group_name_H-M   'P 1'
_cell_length_a   9.52813200
_cell_length_b   9.52813200
_cell_length_c   9.58867500
_cell_angle_alpha   90.00000000
_cell_angle_beta   90.00000000
_cell_angle_gamma   90.00000000
_symmetry_Int_Tables_number   1
_chemical_formula_structural   Cd31BiO32
_chemical_formula_sum   'Cd31 Bi1 O32'
_cell_volume   870.51073081
_cell_formula_units_Z   1
loop_
 _symmetry_equiv_pos_site_id
 _symmetry_equiv_pos_as_xyz
  1  'x, y, z'
loop_
 _atom_site_type_symbol
 _atom_site_label
 _atom_site_symmetry_multiplicity
 _atom_site_fract_x
 _atom_site_fract_y
 _atom_site_fract_z
 _atom_site_occupancy
  Cd  Cd0  1  0.000000  0.500000  0.000000  1
  Cd  Cd1  1  0.000000  0.500000  0.500000  1
  Cd  Cd2  1  0.500000  0.000000  0.000000  1
  Cd  Cd3  1  0.500000  0.000000  0.500000  1
  Cd  Cd4  1  0.500000  0.500000  0.000000  1
  Cd  Cd5  1  0.500000  0.500000  0.500000  1
  Cd  Cd6  1  0.000000  0.253965  0.246037  1
  Cd  Cd7  1  0.000000  0.253965  0.753963  1
  Cd  Cd8  1  0.000000  0.746035  0.246037  1
  Cd  Cd9  1  0.000000  0.746035  0.753963  1
  Cd  Cd10  1  0.500000  0.250712  0.249368  1
  Cd  Cd11  1  0.500000  0.250712  0.750632  1
  Cd  Cd12  1  0.500000  0.749288  0.249368  1
  Cd  Cd13  1  0.500000  0.749288  0.750632  1
  Cd  Cd14  1  0.253965  0.000000  0.246037  1
  Cd  Cd15  1  0.253965  0.000000  0.753963  1
  Cd  Cd16  1  0.250712  0.500000  0.249368  1
  Cd  Cd17  1  0.250712  0.500000  0.750632  1
  Cd  Cd18  1  0.746035  0.000000  0.246037  1
  Cd  Cd19  1  0.746035  0.000000  0.753963  1
  Cd  Cd20  1  0.749288  0.500000  0.249368  1
  Cd  Cd21  1  0.749288  0.500000  0.750632  1
  Cd  Cd22  1  0.250832  0.250832  0.000000  1
  Cd  Cd23  1  0.253922  0.253922  0.500000  1
  Cd  Cd24  1  0.250832  0.749168  0.000000  1
  Cd  Cd25  1  0.253922  0.746078  0.500000  1
  Cd  Cd26  1  0.749168  0.250832  0.000000  1
  Cd  Cd27  1  0.746078  0.253922  0.500000  1
  Cd  Cd28  1  0.749168  0.749168  0.000000  1
  Cd  Cd29  1  0.746078  0.746078  0.500000  1
  Cd  Cd30  1  0.000000  0.000000  0.000000  1
  Bi  Bi31  1  0.000000  0.000000  0.500000  1
  O  O32  1  0.249712  0.000000  0.000000  1
  O  O33  1  0.248125  0.000000  0.500000  1
  O  O34  1  0.250066  0.500000  0.000000  1
  O  O35  1  0.249267  0.500000  0.500000  1
  O  O36  1  0.750288  0.000000  0.000000  1
  O  O37  1  0.751875  0.000000  0.500000  1
  O  O38  1  0.749934  0.500000  0.000000  1
  O  O39  1  0.750733  0.500000  0.500000  1
  O  O40  1  0.248610  0.248610  0.251278  1
  O  O41  1  0.248610  0.248610  0.748722  1
  O  O42  1  0.248610  0.751390  0.251278  1
  O  O43  1  0.248610  0.751390  0.748722  1
  O  O44  1  0.751390  0.248610  0.251278  1
  O  O45  1  0.751390  0.248610  0.748722  1
  O  O46  1  0.751390  0.751390  0.251278  1
  O  O47  1  0.751390  0.751390  0.748722  1
  O  O48  1  0.000000  0.000000  0.251262  1
  O  O49  1  0.000000  0.000000  0.748738  1
  O  O50  1  0.000000  0.500000  0.251809  1
  O  O51  1  0.000000  0.500000  0.748191  1
  O  O52  1  0.500000  0.000000  0.251809  1
  O  O53  1  0.500000  0.000000  0.748191  1
  O  O54  1  0.500000  0.500000  0.250828  1
  O  O55  1  0.500000  0.500000  0.749172  1
  O  O56  1  0.000000  0.249712  0.000000  1
  O  O57  1  0.000000  0.248125  0.500000  1
  O  O58  1  0.000000  0.750288  0.000000  1
  O  O59  1  0.000000  0.751875  0.500000  1
  O  O60  1  0.500000  0.250066  0.000000  1
  O  O61  1  0.500000  0.249267  0.500000  1
  O  O62  1  0.500000  0.749934  0.000000  1
  O  O63  1  0.500000  0.750733  0.500000  1
