# generated using pymatgen
data_SmY3Co4(Si3Ni4)4
_symmetry_space_group_name_H-M   'P 1'
_cell_length_a   3.76579900
_cell_length_b   6.68592488
_cell_length_c   18.62917830
_cell_angle_alpha   89.78998458
_cell_angle_beta   90.00000000
_cell_angle_gamma   90.00000000
_symmetry_Int_Tables_number   1
_chemical_formula_structural   SmY3Co4(Si3Ni4)4
_chemical_formula_sum   'Sm1 Y3 Co4 Si12 Ni16'
_cell_volume   469.03949119
_cell_formula_units_Z   1
loop_
 _symmetry_equiv_pos_site_id
 _symmetry_equiv_pos_as_xyz
  1  'x, y, z'
loop_
 _atom_site_type_symbol
 _atom_site_label
 _atom_site_symmetry_multiplicity
 _atom_site_fract_x
 _atom_site_fract_y
 _atom_site_fract_z
 _atom_site_occupancy
  Sm  Sm0  1  0.250000  0.624729  0.643594  1
  Y  Y1  1  0.750000  0.377241  0.356685  1
  Y  Y2  1  0.750000  0.123689  0.857426  1
  Y  Y3  1  0.250000  0.875067  0.143548  1
  Co  Co4  1  0.750000  0.381471  0.989309  1
  Co  Co5  1  0.750000  0.117613  0.487145  1
  Co  Co6  1  0.750000  0.638595  0.886781  1
  Co  Co7  1  0.750000  0.862169  0.384724  1
  Si  Si8  1  0.250000  0.838658  0.923550  1
  Si  Si9  1  0.750000  0.148895  0.073887  1
  Si  Si10  1  0.750000  0.347617  0.572421  1
  Si  Si11  1  0.250000  0.662139  0.423033  1
  Si  Si12  1  0.750000  0.621718  0.765412  1
  Si  Si13  1  0.250000  0.376941  0.235965  1
  Si  Si14  1  0.250000  0.414305  0.918292  1
  Si  Si15  1  0.750000  0.581209  0.085133  1
  Si  Si16  1  0.750000  0.923476  0.584758  1
  Si  Si17  1  0.250000  0.084563  0.416460  1
  Si  Si18  1  0.250000  0.123434  0.736713  1
  Si  Si19  1  0.750000  0.877879  0.263176  1
  Ni  Ni20  1  0.250000  0.123812  0.993849  1
  Ni  Ni21  1  0.250000  0.621888  0.014916  1
  Ni  Ni22  1  0.250000  0.351971  0.112288  1
  Ni  Ni23  1  0.250000  0.146826  0.612776  1
  Ni  Ni24  1  0.250000  0.067753  0.294195  1
  Ni  Ni25  1  0.750000  0.931526  0.707355  1
  Ni  Ni26  1  0.750000  0.569256  0.206483  1
  Ni  Ni27  1  0.250000  0.430942  0.796035  1
  Ni  Ni28  1  0.750000  0.636933  0.504019  1
  Ni  Ni29  1  0.250000  0.374097  0.492522  1
  Ni  Ni30  1  0.250000  0.814763  0.799678  1
  Ni  Ni31  1  0.750000  0.183867  0.199728  1
  Ni  Ni32  1  0.750000  0.315187  0.700486  1
  Ni  Ni33  1  0.250000  0.685105  0.298244  1
  Ni  Ni34  1  0.250000  0.880272  0.514237  1
  Ni  Ni35  1  0.750000  0.864395  0.005179  1
