# generated using pymatgen
data_K4Sr4Re(MoN4)3
_symmetry_space_group_name_H-M   'P 1'
_cell_length_a   6.51506892
_cell_length_b   6.51521382
_cell_length_c   12.81593096
_cell_angle_alpha   90.05133977
_cell_angle_beta   90.09320243
_cell_angle_gamma   124.93955168
_symmetry_Int_Tables_number   1
_chemical_formula_structural   K4Sr4Re(MoN4)3
_chemical_formula_sum   'K4 Sr4 Re1 Mo3 N12'
_cell_volume   445.94487885
_cell_formula_units_Z   1
loop_
 _symmetry_equiv_pos_site_id
 _symmetry_equiv_pos_as_xyz
  1  'x, y, z'
loop_
 _atom_site_type_symbol
 _atom_site_label
 _atom_site_symmetry_multiplicity
 _atom_site_fract_x
 _atom_site_fract_y
 _atom_site_fract_z
 _atom_site_occupancy
  K  K0  1  0.964294  0.549709  0.360279  1
  K  K1  1  0.449550  0.036428  0.138518  1
  K  K2  1  0.039535  0.447059  0.638855  1
  K  K3  1  0.551915  0.961327  0.864490  1
  Sr  Sr4  1  0.132817  0.346273  0.083253  1
  Sr  Sr5  1  0.653672  0.867782  0.414284  1
  Sr  Sr6  1  0.865658  0.655561  0.917271  1
  Sr  Sr7  1  0.344265  0.134942  0.583128  1
  Re  Re8  1  0.727423  0.768576  0.660579  1
  Mo  Mo9  1  0.768256  0.725832  0.162873  1
  Mo  Mo10  1  0.274136  0.231615  0.338140  1
  Mo  Mo11  1  0.230693  0.274406  0.838396  1
  N  N12  1  0.475181  0.525557  0.251087  1
  N  N13  1  0.524006  0.484934  0.747266  1
  N  N14  1  0.910526  0.567762  0.119125  1
  N  N15  1  0.432352  0.088984  0.382460  1
  N  N16  1  0.087718  0.430760  0.882307  1
  N  N17  1  0.571045  0.910114  0.618140  1
  N  N18  1  0.833625  0.686719  0.547354  1
  N  N19  1  0.311719  0.166919  0.952435  1
  N  N20  1  0.169284  0.308622  0.453682  1
  N  N21  1  0.690497  0.830197  0.047677  1
  N  N22  1  0.987021  0.012784  0.250901  1
  N  N23  1  0.004812  0.987139  0.747500  1
