# generated using pymatgen
data_Li4Nd(Ni2P3)2
_symmetry_space_group_name_H-M   'P 1'
_cell_length_a   7.84291548
_cell_length_b   7.84291658
_cell_length_c   7.84291650
_cell_angle_alpha   151.44954168
_cell_angle_beta   114.24535307
_cell_angle_gamma   73.19941799
_symmetry_Int_Tables_number   1
_chemical_formula_structural   Li4Nd(Ni2P3)2
_chemical_formula_sum   'Li4 Nd1 Ni4 P6'
_cell_volume   207.36842704
_cell_formula_units_Z   1
loop_
 _symmetry_equiv_pos_site_id
 _symmetry_equiv_pos_as_xyz
  1  'x, y, z'
loop_
 _atom_site_type_symbol
 _atom_site_label
 _atom_site_symmetry_multiplicity
 _atom_site_fract_x
 _atom_site_fract_y
 _atom_site_fract_z
 _atom_site_occupancy
  Li  Li0  1  0.718032  0.718032  0.000000  1
  Li  Li1  1  0.670419  0.500000  0.170419  1
  Li  Li2  1  0.329581  0.500000  0.829581  1
  Li  Li3  1  0.281968  0.281968  0.000000  1
  Nd  Nd4  1  0.000000  0.000000  0.000000  1
  Ni  Ni5  1  0.905753  0.174562  0.731192  1
  Ni  Ni6  1  0.556630  0.825438  0.731192  1
  Ni  Ni7  1  0.443370  0.174562  0.268808  1
  Ni  Ni8  1  0.094247  0.825438  0.268808  1
  P  P9  1  0.977080  0.342751  0.634329  1
  P  P10  1  0.708421  0.342751  0.365671  1
  P  P11  1  0.586291  0.086291  0.500000  1
  P  P12  1  0.413709  0.913709  0.500000  1
  P  P13  1  0.291579  0.657249  0.634329  1
  P  P14  1  0.022920  0.657249  0.365671  1
