# generated using pymatgen
data_Yb4Si10NiPt5
_symmetry_space_group_name_H-M   'P 1'
_cell_length_a   8.19323835
_cell_length_b   8.19323882
_cell_length_c   5.85487174
_cell_angle_alpha   68.93257855
_cell_angle_beta   68.93257970
_cell_angle_gamma   89.96285619
_symmetry_Int_Tables_number   1
_chemical_formula_structural   Yb4Si10NiPt5
_chemical_formula_sum   'Yb4 Si10 Ni1 Pt5'
_cell_volume   338.49558933
_cell_formula_units_Z   1
loop_
 _symmetry_equiv_pos_site_id
 _symmetry_equiv_pos_as_xyz
  1  'x, y, z'
loop_
 _atom_site_type_symbol
 _atom_site_label
 _atom_site_symmetry_multiplicity
 _atom_site_fract_x
 _atom_site_fract_y
 _atom_site_fract_z
 _atom_site_occupancy
  Yb  Yb0  1  0.862533  0.599851  0.764035  1
  Yb  Yb1  1  0.400149  0.137467  0.735965  1
  Yb  Yb2  1  0.137341  0.400349  0.226821  1
  Yb  Yb3  1  0.599651  0.862659  0.273179  1
  Si  Si4  1  0.776063  0.223937  0.750000  1
  Si  Si5  1  0.223380  0.776620  0.250000  1
  Si  Si6  1  0.499359  0.500641  0.750000  1
  Si  Si7  1  0.500705  0.499295  0.250000  1
  Si  Si8  1  0.224526  0.775474  0.750000  1
  Si  Si9  1  0.775890  0.224110  0.250000  1
  Si  Si10  1  0.042196  0.254500  0.836424  1
  Si  Si11  1  0.254800  0.042376  0.365860  1
  Si  Si12  1  0.957624  0.745200  0.134140  1
  Si  Si13  1  0.745500  0.957804  0.663576  1
  Ni  Ni14  1  0.000031  0.999969  0.750000  1
  Pt  Pt15  1  0.522792  0.246367  0.116703  1
  Pt  Pt16  1  0.000073  0.999927  0.250000  1
  Pt  Pt17  1  0.246367  0.522614  0.612703  1
  Pt  Pt18  1  0.477386  0.753633  0.887297  1
  Pt  Pt19  1  0.753633  0.477208  0.383297  1
