# generated using pymatgen
data_K2GdReN4
_symmetry_space_group_name_H-M   'P 1'
_cell_length_a   10.85085317
_cell_length_b   10.51558329
_cell_length_c   8.04713600
_cell_angle_alpha   70.10473713
_cell_angle_beta   65.68038649
_cell_angle_gamma   44.21486923
_symmetry_Int_Tables_number   1
_chemical_formula_structural   K2GdReN4
_chemical_formula_sum   'K8 Gd4 Re4 N16'
_cell_volume   582.01661034
_cell_formula_units_Z   4
loop_
 _symmetry_equiv_pos_site_id
 _symmetry_equiv_pos_as_xyz
  1  'x, y, z'
loop_
 _atom_site_type_symbol
 _atom_site_label
 _atom_site_symmetry_multiplicity
 _atom_site_fract_x
 _atom_site_fract_y
 _atom_site_fract_z
 _atom_site_occupancy
  K  K0  1  0.559533  0.940467  0.940467  1
  K  K1  1  0.940467  0.559533  0.559533  1
  K  K2  1  0.309533  0.690467  0.690467  1
  K  K3  1  0.109127  0.109127  0.890873  1
  K  K4  1  0.140873  0.140873  0.359127  1
  K  K5  1  0.359127  0.359127  0.140873  1
  K  K6  1  0.690467  0.309533  0.309533  1
  K  K7  1  0.890873  0.890873  0.109127  1
  Gd  Gd8  1  0.340798  0.340798  0.659202  1
  Gd  Gd9  1  0.909202  0.909202  0.590798  1
  Gd  Gd10  1  0.659202  0.659202  0.340798  1
  Gd  Gd11  1  0.590798  0.590798  0.909202  1
  Re  Re12  1  0.501067  0.998933  0.501067  1
  Re  Re13  1  0.998933  0.501067  0.998933  1
  Re  Re14  1  0.748933  0.251067  0.748933  1
  Re  Re15  1  0.251067  0.748933  0.251067  1
  N  N16  1  0.014506  0.651726  0.809734  1
  N  N17  1  0.693912  0.299145  0.979046  1
  N  N18  1  0.651726  0.014506  0.524036  1
  N  N19  1  0.524036  0.809734  0.651726  1
  N  N20  1  0.235494  0.598274  0.440266  1
  N  N21  1  0.725964  0.440266  0.598274  1
  N  N22  1  0.979046  0.027897  0.693912  1
  N  N23  1  0.556088  0.950855  0.270954  1
  N  N24  1  0.440266  0.725964  0.235494  1
  N  N25  1  0.950855  0.556088  0.222103  1
  N  N26  1  0.299145  0.693912  0.027897  1
  N  N27  1  0.809734  0.524036  0.014506  1
  N  N28  1  0.222103  0.270954  0.950855  1
  N  N29  1  0.598274  0.235494  0.725964  1
  N  N30  1  0.270954  0.222103  0.556088  1
  N  N31  1  0.027897  0.979046  0.299145  1
