# generated using pymatgen
data_Tb4ReI4
_symmetry_space_group_name_H-M   'P 1'
_cell_length_a   11.32503558
_cell_length_b   11.32503737
_cell_length_c   6.23735500
_cell_angle_alpha   90.00408790
_cell_angle_beta   90.00408804
_cell_angle_gamma   89.99612438
_symmetry_Int_Tables_number   1
_chemical_formula_structural   Tb4ReI4
_chemical_formula_sum   'Tb8 Re2 I8'
_cell_volume   799.98101112
_cell_formula_units_Z   2
loop_
 _symmetry_equiv_pos_site_id
 _symmetry_equiv_pos_as_xyz
  1  'x, y, z'
loop_
 _atom_site_type_symbol
 _atom_site_label
 _atom_site_symmetry_multiplicity
 _atom_site_fract_x
 _atom_site_fract_y
 _atom_site_fract_z
 _atom_site_occupancy
  Tb  Tb0  1  0.800207  0.082092  0.000386  1
  Tb  Tb1  1  0.082092  0.800207  0.500386  1
  Tb  Tb2  1  0.081852  0.199488  0.000312  1
  Tb  Tb3  1  0.199488  0.081852  0.500312  1
  Tb  Tb4  1  0.918148  0.800512  0.999688  1
  Tb  Tb5  1  0.917908  0.199793  0.499614  1
  Tb  Tb6  1  0.199793  0.917908  0.999614  1
  Tb  Tb7  1  0.800512  0.918148  0.499688  1
  Re  Re8  1  0.000081  0.999919  0.250000  1
  Re  Re9  1  0.999919  0.000081  0.750000  1
  I  I10  1  0.643034  0.150102  0.496783  1
  I  I11  1  0.850253  0.643114  0.503188  1
  I  I12  1  0.356886  0.149747  0.996812  1
  I  I13  1  0.149747  0.356886  0.496812  1
  I  I14  1  0.643114  0.850253  0.003188  1
  I  I15  1  0.356966  0.849898  0.503217  1
  I  I16  1  0.150102  0.643034  0.996783  1
  I  I17  1  0.849898  0.356966  0.003217  1
