# generated using pymatgen
data_Lu4Cu4Si3Ge
_symmetry_space_group_name_H-M   'P 1'
_cell_length_a   4.15475600
_cell_length_b   6.87162579
_cell_length_c   7.26538412
_cell_angle_alpha   90.18283212
_cell_angle_beta   90.00000000
_cell_angle_gamma   90.00000000
_symmetry_Int_Tables_number   1
_chemical_formula_structural   Lu4Cu4Si3Ge
_chemical_formula_sum   'Lu4 Cu4 Si3 Ge1'
_cell_volume   207.42514111
_cell_formula_units_Z   1
loop_
 _symmetry_equiv_pos_site_id
 _symmetry_equiv_pos_as_xyz
  1  'x, y, z'
loop_
 _atom_site_type_symbol
 _atom_site_label
 _atom_site_symmetry_multiplicity
 _atom_site_fract_x
 _atom_site_fract_y
 _atom_site_fract_z
 _atom_site_occupancy
  Lu  Lu0  1  0.250000  0.501156  0.704945  1
  Lu  Lu1  1  0.750000  0.499667  0.292961  1
  Lu  Lu2  1  0.250000  0.999957  0.792317  1
  Lu  Lu3  1  0.750000  0.997485  0.207738  1
  Cu  Cu4  1  0.750000  0.820815  0.575737  1
  Cu  Cu5  1  0.250000  0.172507  0.431886  1
  Cu  Cu6  1  0.750000  0.327912  0.918216  1
  Cu  Cu7  1  0.250000  0.686956  0.074998  1
  Si  Si8  1  0.750000  0.718196  0.903743  1
  Si  Si9  1  0.250000  0.779393  0.404556  1
  Si  Si10  1  0.750000  0.220311  0.595770  1
  Ge  Ge11  1  0.250000  0.275644  0.097134  1
