# generated using pymatgen
data_La4Cd3Au10
_symmetry_space_group_name_H-M   'P 1'
_cell_length_a   8.86067683
_cell_length_b   8.86067730
_cell_length_c   10.50656400
_cell_angle_alpha   90.00000000
_cell_angle_beta   90.00000000
_cell_angle_gamma   108.91107383
_symmetry_Int_Tables_number   1
_chemical_formula_structural   La4Cd3Au10
_chemical_formula_sum   'La8 Cd6 Au20'
_cell_volume   780.36197901
_cell_formula_units_Z   2
loop_
 _symmetry_equiv_pos_site_id
 _symmetry_equiv_pos_as_xyz
  1  'x, y, z'
loop_
 _atom_site_type_symbol
 _atom_site_label
 _atom_site_symmetry_multiplicity
 _atom_site_fract_x
 _atom_site_fract_y
 _atom_site_fract_z
 _atom_site_occupancy
  La  La0  1  0.702138  0.297862  0.000000  1
  La  La1  1  0.297862  0.702138  0.000000  1
  La  La2  1  0.797862  0.202138  0.500000  1
  La  La3  1  0.202138  0.797862  0.500000  1
  La  La4  1  0.300167  0.300167  0.205893  1
  La  La5  1  0.699833  0.699833  0.794107  1
  La  La6  1  0.199833  0.199833  0.705893  1
  La  La7  1  0.800167  0.800167  0.294107  1
  Cd  Cd8  1  0.015575  0.515575  0.250000  1
  Cd  Cd9  1  0.984425  0.484425  0.750000  1
  Cd  Cd10  1  0.484425  0.984425  0.750000  1
  Cd  Cd11  1  0.515575  0.015575  0.250000  1
  Cd  Cd12  1  0.000000  0.000000  0.000000  1
  Cd  Cd13  1  0.500000  0.500000  0.500000  1
  Au  Au14  1  0.096716  0.096716  0.405273  1
  Au  Au15  1  0.903284  0.903284  0.594727  1
  Au  Au16  1  0.403284  0.403284  0.905273  1
  Au  Au17  1  0.596716  0.596716  0.094727  1
  Au  Au18  1  0.887474  0.165211  0.207638  1
  Au  Au19  1  0.112526  0.834789  0.792362  1
  Au  Au20  1  0.612526  0.334789  0.707638  1
  Au  Au21  1  0.665211  0.387474  0.292362  1
  Au  Au22  1  0.387474  0.665211  0.292362  1
  Au  Au23  1  0.334789  0.612526  0.707638  1
  Au  Au24  1  0.834789  0.112526  0.792362  1
  Au  Au25  1  0.165211  0.887474  0.207638  1
  Au  Au26  1  0.931077  0.656907  0.020941  1
  Au  Au27  1  0.068923  0.343093  0.979059  1
  Au  Au28  1  0.568923  0.843093  0.520941  1
  Au  Au29  1  0.156907  0.431077  0.479059  1
  Au  Au30  1  0.431077  0.156907  0.479059  1
  Au  Au31  1  0.843093  0.568923  0.520941  1
  Au  Au32  1  0.343093  0.068923  0.979059  1
  Au  Au33  1  0.656907  0.931077  0.020941  1
