# generated using pymatgen
data_LiCaPRh2
_symmetry_space_group_name_H-M   'P 1'
_cell_length_a   5.63696209
_cell_length_b   5.63696125
_cell_length_c   5.63696265
_cell_angle_alpha   135.87395227
_cell_angle_beta   135.87394870
_cell_angle_gamma   64.17527682
_symmetry_Int_Tables_number   1
_chemical_formula_structural   LiCaPRh2
_chemical_formula_sum   'Li1 Ca1 P1 Rh2'
_cell_volume   85.64694697
_cell_formula_units_Z   1
loop_
 _symmetry_equiv_pos_site_id
 _symmetry_equiv_pos_as_xyz
  1  'x, y, z'
loop_
 _atom_site_type_symbol
 _atom_site_label
 _atom_site_symmetry_multiplicity
 _atom_site_fract_x
 _atom_site_fract_y
 _atom_site_fract_z
 _atom_site_occupancy
  Li  Li0  1  0.618952  0.618952  0.000000  1
  Ca  Ca1  1  0.001723  0.001723  0.000000  1
  P  P2  1  0.352970  0.352970  0.000000  1
  Rh  Rh3  1  0.763177  0.263177  0.500000  1
  Rh  Rh4  1  0.263177  0.763177  0.500000  1
