# generated using pymatgen
data_La2PrSm3(RuBr3)2
_symmetry_space_group_name_H-M   'P 1'
_cell_length_a   4.20042800
_cell_length_b   8.87424669
_cell_length_c   12.30499098
_cell_angle_alpha   86.16538834
_cell_angle_beta   90.00000000
_cell_angle_gamma   90.00000000
_symmetry_Int_Tables_number   1
_chemical_formula_structural   La2PrSm3(RuBr3)2
_chemical_formula_sum   'La2 Pr1 Sm3 Ru2 Br6'
_cell_volume   457.64948268
_cell_formula_units_Z   1
loop_
 _symmetry_equiv_pos_site_id
 _symmetry_equiv_pos_as_xyz
  1  'x, y, z'
loop_
 _atom_site_type_symbol
 _atom_site_label
 _atom_site_symmetry_multiplicity
 _atom_site_fract_x
 _atom_site_fract_y
 _atom_site_fract_z
 _atom_site_occupancy
  La  La0  1  0.250000  0.313656  0.382486  1
  La  La1  1  0.750000  0.685890  0.619516  1
  Pr  Pr2  1  0.750000  0.117971  0.159684  1
  Sm  Sm3  1  0.250000  0.894668  0.381438  1
  Sm  Sm4  1  0.750000  0.104146  0.618889  1
  Sm  Sm5  1  0.250000  0.882239  0.837361  1
  Ru  Ru6  1  0.250000  0.893639  0.616555  1
  Ru  Ru7  1  0.750000  0.105356  0.384009  1
  Br  Br8  1  0.250000  0.391884  0.634774  1
  Br  Br9  1  0.750000  0.607441  0.367299  1
  Br  Br10  1  0.250000  0.877831  0.112247  1
  Br  Br11  1  0.750000  0.115069  0.883356  1
  Br  Br12  1  0.250000  0.359387  0.125769  1
  Br  Br13  1  0.750000  0.650823  0.876619  1
