# generated using pymatgen
data_Nd2GaPt9
_symmetry_space_group_name_H-M   'P 1'
_cell_length_a   5.34349279
_cell_length_b   5.34349248
_cell_length_c   8.92538200
_cell_angle_alpha   90.00000000
_cell_angle_beta   90.00000000
_cell_angle_gamma   118.12276204
_symmetry_Int_Tables_number   1
_chemical_formula_structural   Nd2GaPt9
_chemical_formula_sum   'Nd2 Ga1 Pt9'
_cell_volume   224.75849906
_cell_formula_units_Z   1
loop_
 _symmetry_equiv_pos_site_id
 _symmetry_equiv_pos_as_xyz
  1  'x, y, z'
loop_
 _atom_site_type_symbol
 _atom_site_label
 _atom_site_symmetry_multiplicity
 _atom_site_fract_x
 _atom_site_fract_y
 _atom_site_fract_z
 _atom_site_occupancy
  Nd  Nd0  1  0.000000  0.000000  0.766248  1
  Nd  Nd1  1  0.000000  0.000000  0.233752  1
  Ga  Ga2  1  0.500000  0.500000  0.500000  1
  Pt  Pt3  1  0.663276  0.336724  0.745877  1
  Pt  Pt4  1  0.663276  0.336724  0.254123  1
  Pt  Pt5  1  0.500000  0.500000  0.000000  1
  Pt  Pt6  1  0.336724  0.663276  0.745877  1
  Pt  Pt7  1  0.500000  0.000000  0.500000  1
  Pt  Pt8  1  0.000000  0.500000  0.000000  1
  Pt  Pt9  1  0.500000  0.000000  0.000000  1
  Pt  Pt10  1  0.336724  0.663276  0.254123  1
  Pt  Pt11  1  0.000000  0.500000  0.500000  1
