# generated using pymatgen
data_NdSm5Co16(TcP6)2
_symmetry_space_group_name_H-M   'P 1'
_cell_length_a   3.74991400
_cell_length_b   10.59492300
_cell_length_c   12.33499800
_cell_angle_alpha   90.00000000
_cell_angle_beta   90.00000000
_cell_angle_gamma   90.00000000
_symmetry_Int_Tables_number   1
_chemical_formula_structural   NdSm5Co16(TcP6)2
_chemical_formula_sum   'Nd1 Sm5 Co16 Tc2 P12'
_cell_volume   490.07008836
_cell_formula_units_Z   1
loop_
 _symmetry_equiv_pos_site_id
 _symmetry_equiv_pos_as_xyz
  1  'x, y, z'
loop_
 _atom_site_type_symbol
 _atom_site_label
 _atom_site_symmetry_multiplicity
 _atom_site_fract_x
 _atom_site_fract_y
 _atom_site_fract_z
 _atom_site_occupancy
  Nd  Nd0  1  0.000000  0.500000  0.523589  1
  Sm  Sm1  1  0.500000  0.000000  0.476840  1
  Sm  Sm2  1  0.500000  0.817539  0.205792  1
  Sm  Sm3  1  0.500000  0.182461  0.205792  1
  Sm  Sm4  1  0.000000  0.682701  0.794385  1
  Sm  Sm5  1  0.000000  0.317299  0.794385  1
  Co  Co6  1  0.500000  0.500000  0.704960  1
  Co  Co7  1  0.000000  0.000000  0.295865  1
  Co  Co8  1  0.000000  0.500000  0.987575  1
  Co  Co9  1  0.500000  0.000000  0.012476  1
  Co  Co10  1  0.500000  0.331975  0.991074  1
  Co  Co11  1  0.500000  0.668025  0.991074  1
  Co  Co12  1  0.000000  0.167789  0.008900  1
  Co  Co13  1  0.000000  0.832211  0.008900  1
  Co  Co14  1  0.500000  0.295611  0.430362  1
  Co  Co15  1  0.500000  0.704389  0.430362  1
  Co  Co16  1  0.000000  0.202470  0.569594  1
  Co  Co17  1  0.000000  0.797530  0.569594  1
  Co  Co18  1  0.500000  0.880762  0.709176  1
  Co  Co19  1  0.500000  0.119238  0.709176  1
  Co  Co20  1  0.000000  0.619679  0.290530  1
  Co  Co21  1  0.000000  0.380321  0.290530  1
  Tc  Tc22  1  0.500000  0.500000  0.154868  1
  Tc  Tc23  1  0.000000  0.000000  0.844567  1
  P  P24  1  0.500000  0.500000  0.884037  1
  P  P25  1  0.000000  0.000000  0.116207  1
  P  P26  1  0.500000  0.500000  0.344523  1
  P  P27  1  0.000000  0.000000  0.654249  1
  P  P28  1  0.500000  0.307585  0.615494  1
  P  P29  1  0.500000  0.692415  0.615494  1
  P  P30  1  0.000000  0.190723  0.384951  1
  P  P31  1  0.000000  0.809277  0.384951  1
  P  P32  1  0.500000  0.847423  0.894319  1
  P  P33  1  0.500000  0.152577  0.894319  1
  P  P34  1  0.000000  0.652850  0.105544  1
  P  P35  1  0.000000  0.347150  0.105544  1
