# generated using pymatgen
data_Tb2Zn11Cu6
_symmetry_space_group_name_H-M   'P 1'
_cell_length_a   6.65806588
_cell_length_b   6.65806527
_cell_length_c   6.65806669
_cell_angle_alpha   83.00585894
_cell_angle_beta   83.00585420
_cell_angle_gamma   83.00586599
_symmetry_Int_Tables_number   1
_chemical_formula_structural   Tb2Zn11Cu6
_chemical_formula_sum   'Tb2 Zn11 Cu6'
_cell_volume   289.05649994
_cell_formula_units_Z   1
loop_
 _symmetry_equiv_pos_site_id
 _symmetry_equiv_pos_as_xyz
  1  'x, y, z'
loop_
 _atom_site_type_symbol
 _atom_site_label
 _atom_site_symmetry_multiplicity
 _atom_site_fract_x
 _atom_site_fract_y
 _atom_site_fract_z
 _atom_site_occupancy
  Tb  Tb0  1  0.650703  0.650703  0.650703  1
  Tb  Tb1  1  0.341339  0.341339  0.341338  1
  Zn  Zn2  1  0.163112  0.652083  0.652083  1
  Zn  Zn3  1  0.652085  0.652085  0.163111  1
  Zn  Zn4  1  0.652083  0.163112  0.652083  1
  Zn  Zn5  1  0.699483  0.002685  0.300492  1
  Zn  Zn6  1  0.699482  0.300494  0.002685  1
  Zn  Zn7  1  0.893574  0.893574  0.893573  1
  Zn  Zn8  1  0.105382  0.105382  0.105382  1
  Zn  Zn9  1  0.002685  0.300494  0.699482  1
  Zn  Zn10  1  0.300494  0.699482  0.002685  1
  Zn  Zn11  1  0.300494  0.002685  0.699482  1
  Zn  Zn12  1  0.002685  0.699483  0.300492  1
  Cu  Cu13  1  0.346505  0.844059  0.346505  1
  Cu  Cu14  1  0.346505  0.346505  0.844060  1
  Cu  Cu15  1  0.844059  0.346505  0.346505  1
  Cu  Cu16  1  0.999624  0.500084  0.999624  1
  Cu  Cu17  1  0.500084  0.999624  0.999624  1
  Cu  Cu18  1  0.999624  0.999624  0.500085  1
