# generated using pymatgen
data_Nd6Ti4Al12Rh7
_symmetry_space_group_name_H-M   'P 1'
_cell_length_a   9.11507518
_cell_length_b   9.11507443
_cell_length_c   9.11507400
_cell_angle_alpha   60.00000155
_cell_angle_beta   60.00000427
_cell_angle_gamma   59.99999803
_symmetry_Int_Tables_number   1
_chemical_formula_structural   Nd6Ti4Al12Rh7
_chemical_formula_sum   'Nd6 Ti4 Al12 Rh7'
_cell_volume   535.50766011
_cell_formula_units_Z   1
loop_
 _symmetry_equiv_pos_site_id
 _symmetry_equiv_pos_as_xyz
  1  'x, y, z'
loop_
 _atom_site_type_symbol
 _atom_site_label
 _atom_site_symmetry_multiplicity
 _atom_site_fract_x
 _atom_site_fract_y
 _atom_site_fract_z
 _atom_site_occupancy
  Nd  Nd0  1  0.702914  0.297086  0.297086  1
  Nd  Nd1  1  0.702914  0.297086  0.702914  1
  Nd  Nd2  1  0.702914  0.702914  0.297086  1
  Nd  Nd3  1  0.297086  0.702914  0.702914  1
  Nd  Nd4  1  0.297086  0.702914  0.297086  1
  Nd  Nd5  1  0.297086  0.297086  0.702914  1
  Ti  Ti6  1  0.643454  0.118848  0.118848  1
  Ti  Ti7  1  0.118848  0.643454  0.118848  1
  Ti  Ti8  1  0.118848  0.118848  0.643454  1
  Ti  Ti9  1  0.118848  0.118848  0.118848  1
  Al  Al10  1  0.356795  0.881069  0.881069  1
  Al  Al11  1  0.881069  0.356795  0.881069  1
  Al  Al12  1  0.881069  0.881069  0.356795  1
  Al  Al13  1  0.881069  0.881069  0.881069  1
  Al  Al14  1  0.016404  0.327866  0.327866  1
  Al  Al15  1  0.327866  0.016404  0.327866  1
  Al  Al16  1  0.327866  0.327866  0.016404  1
  Al  Al17  1  0.327866  0.327866  0.327866  1
  Al  Al18  1  0.979628  0.673458  0.673458  1
  Al  Al19  1  0.673458  0.979628  0.673458  1
  Al  Al20  1  0.673458  0.673458  0.979628  1
  Al  Al21  1  0.673458  0.673458  0.673458  1
  Rh  Rh22  1  0.000000  0.000000  0.000000  1
  Rh  Rh23  1  0.498246  0.001754  0.001754  1
  Rh  Rh24  1  0.498246  0.001754  0.498246  1
  Rh  Rh25  1  0.498246  0.498246  0.001754  1
  Rh  Rh26  1  0.001754  0.498246  0.498246  1
  Rh  Rh27  1  0.001754  0.498246  0.001754  1
  Rh  Rh28  1  0.001754  0.001754  0.498246  1
