# generated using pymatgen
data_HoPa3(InPt2)2
_symmetry_space_group_name_H-M   'P 1'
_cell_length_a   7.83198936
_cell_length_b   7.83198918
_cell_length_c   3.65958000
_cell_angle_alpha   90.00000000
_cell_angle_beta   90.00000000
_cell_angle_gamma   89.18001467
_symmetry_Int_Tables_number   1
_chemical_formula_structural   HoPa3(InPt2)2
_chemical_formula_sum   'Ho1 Pa3 In2 Pt4'
_cell_volume   224.45585353
_cell_formula_units_Z   1
loop_
 _symmetry_equiv_pos_site_id
 _symmetry_equiv_pos_as_xyz
  1  'x, y, z'
loop_
 _atom_site_type_symbol
 _atom_site_label
 _atom_site_symmetry_multiplicity
 _atom_site_fract_x
 _atom_site_fract_y
 _atom_site_fract_z
 _atom_site_occupancy
  Ho  Ho0  1  0.674900  0.174900  0.500000  1
  Pa  Pa1  1  0.330621  0.830621  0.500000  1
  Pa  Pa2  1  0.826072  0.672835  0.500000  1
  Pa  Pa3  1  0.172835  0.326072  0.500000  1
  In  In4  1  0.993478  0.002513  0.000000  1
  In  In5  1  0.502513  0.493478  0.000000  1
  Pt  Pt6  1  0.360521  0.124633  0.000000  1
  Pt  Pt7  1  0.879831  0.379831  0.000000  1
  Pt  Pt8  1  0.134595  0.634595  0.000000  1
  Pt  Pt9  1  0.624633  0.860521  0.000000  1
