# generated using pymatgen
data_Y8Zr(IO8)3
_symmetry_space_group_name_H-M   'P 1'
_cell_length_a   5.49067871
_cell_length_b   7.75155350
_cell_length_c   11.71749544
_cell_angle_alpha   75.86460742
_cell_angle_beta   89.81682140
_cell_angle_gamma   90.49233101
_symmetry_Int_Tables_number   1
_chemical_formula_structural   Y8Zr(IO8)3
_chemical_formula_sum   'Y8 Zr1 I3 O24'
_cell_volume   483.58633371
_cell_formula_units_Z   1
loop_
 _symmetry_equiv_pos_site_id
 _symmetry_equiv_pos_as_xyz
  1  'x, y, z'
loop_
 _atom_site_type_symbol
 _atom_site_label
 _atom_site_symmetry_multiplicity
 _atom_site_fract_x
 _atom_site_fract_y
 _atom_site_fract_z
 _atom_site_occupancy
  Y  Y0  1  0.181563  0.804963  0.068288  1
  Y  Y1  1  0.256684  0.972483  0.756372  1
  Y  Y2  1  0.743843  0.014104  0.254254  1
  Y  Y3  1  0.317745  0.508228  0.755016  1
  Y  Y4  1  0.197644  0.221889  0.421355  1
  Y  Y5  1  0.697202  0.503642  0.241867  1
  Y  Y6  1  0.805063  0.198148  0.923081  1
  Y  Y7  1  0.804045  0.777505  0.588286  1
  Zr  Zr8  1  0.741966  0.711853  0.892104  1
  I  I9  1  0.254971  0.735224  0.381231  1
  I  I10  1  0.749400  0.266831  0.617443  1
  I  I11  1  0.255597  0.281505  0.112064  1
  O  O12  1  0.865201  0.363558  0.463215  1
  O  O13  1  0.457339  0.858801  0.928519  1
  O  O14  1  0.857211  0.635614  0.067064  1
  O  O15  1  0.022136  0.297615  0.716843  1
  O  O16  1  0.968077  0.287943  0.244747  1
  O  O17  1  0.141102  0.361186  0.952598  1
  O  O18  1  0.625668  0.464833  0.881482  1
  O  O19  1  0.526980  0.151164  0.072273  1
  O  O20  1  0.142439  0.640966  0.534531  1
  O  O21  1  0.024366  0.711459  0.758587  1
  O  O22  1  0.468414  0.223100  0.274466  1
  O  O23  1  0.073337  0.949344  0.391837  1
  O  O24  1  0.474741  0.161792  0.561533  1
  O  O25  1  0.975861  0.709658  0.285652  1
  O  O26  1  0.938826  0.058106  0.604459  1
  O  O27  1  0.576726  0.177573  0.763395  1
  O  O28  1  0.522153  0.774676  0.720567  1
  O  O29  1  0.018853  0.060663  0.105893  1
  O  O30  1  0.621045  0.490981  0.616431  1
  O  O31  1  0.377854  0.513695  0.107020  1
  O  O32  1  0.424687  0.819501  0.230580  1
  O  O33  1  0.375401  0.510359  0.376213  1
  O  O34  1  0.540126  0.837051  0.432470  1
  O  O35  1  0.975736  0.943984  0.898264  1
