# generated using pymatgen
data_CaEu(SnPd)2
_symmetry_space_group_name_H-M   'P 1'
_cell_length_a   4.70946100
_cell_length_b   7.52258256
_cell_length_c   8.07274552
_cell_angle_alpha   92.20469494
_cell_angle_beta   90.00000000
_cell_angle_gamma   90.00000000
_symmetry_Int_Tables_number   1
_chemical_formula_structural   CaEu(SnPd)2
_chemical_formula_sum   'Ca2 Eu2 Sn4 Pd4'
_cell_volume   285.78394816
_cell_formula_units_Z   2
loop_
 _symmetry_equiv_pos_site_id
 _symmetry_equiv_pos_as_xyz
  1  'x, y, z'
loop_
 _atom_site_type_symbol
 _atom_site_label
 _atom_site_symmetry_multiplicity
 _atom_site_fract_x
 _atom_site_fract_y
 _atom_site_fract_z
 _atom_site_occupancy
  Ca  Ca0  1  0.250000  0.519371  0.185492  1
  Ca  Ca1  1  0.750000  0.480629  0.814508  1
  Eu  Eu2  1  0.250000  0.021114  0.311710  1
  Eu  Eu3  1  0.750000  0.978886  0.688290  1
  Sn  Sn4  1  0.250000  0.170662  0.924088  1
  Sn  Sn5  1  0.750000  0.332456  0.426445  1
  Sn  Sn6  1  0.250000  0.667544  0.573555  1
  Sn  Sn7  1  0.750000  0.829338  0.075912  1
  Pd  Pd8  1  0.750000  0.211329  0.100455  1
  Pd  Pd9  1  0.250000  0.297281  0.608297  1
  Pd  Pd10  1  0.750000  0.702719  0.391703  1
  Pd  Pd11  1  0.250000  0.788671  0.899545  1
