# generated using pymatgen
data_DyY(Ga3Ir)3
_symmetry_space_group_name_H-M   'P 1'
_cell_length_a   7.58319071
_cell_length_b   7.58352205
_cell_length_c   9.51251400
_cell_angle_alpha   90.00000000
_cell_angle_beta   90.00000000
_cell_angle_gamma   119.85123004
_symmetry_Int_Tables_number   1
_chemical_formula_structural   DyY(Ga3Ir)3
_chemical_formula_sum   'Dy2 Y2 Ga18 Ir6'
_cell_volume   474.45822058
_cell_formula_units_Z   2
loop_
 _symmetry_equiv_pos_site_id
 _symmetry_equiv_pos_as_xyz
  1  'x, y, z'
loop_
 _atom_site_type_symbol
 _atom_site_label
 _atom_site_symmetry_multiplicity
 _atom_site_fract_x
 _atom_site_fract_y
 _atom_site_fract_z
 _atom_site_occupancy
  Dy  Dy0  1  0.669092  0.996363  0.250000  1
  Dy  Dy1  1  0.330908  0.003637  0.750000  1
  Y  Y2  1  0.996293  0.669087  0.250000  1
  Y  Y3  1  0.003707  0.330913  0.750000  1
  Ga  Ga4  1  0.127973  0.128250  0.250000  1
  Ga  Ga5  1  0.872027  0.871750  0.750000  1
  Ga  Ga6  1  0.999218  0.333990  0.080365  1
  Ga  Ga7  1  0.000782  0.666010  0.919635  1
  Ga  Ga8  1  0.000782  0.666010  0.580365  1
  Ga  Ga9  1  0.334307  0.999404  0.419831  1
  Ga  Ga10  1  0.999218  0.333990  0.419635  1
  Ga  Ga11  1  0.665693  0.000596  0.580169  1
  Ga  Ga12  1  0.665693  0.000596  0.919831  1
  Ga  Ga13  1  0.334307  0.999404  0.080169  1
  Ga  Ga14  1  0.332162  0.332008  0.565261  1
  Ga  Ga15  1  0.667838  0.667992  0.434739  1
  Ga  Ga16  1  0.667838  0.667992  0.065261  1
  Ga  Ga17  1  0.332162  0.332008  0.934739  1
  Ga  Ga18  1  0.339865  0.546134  0.250000  1
  Ga  Ga19  1  0.660135  0.453866  0.750000  1
  Ga  Ga20  1  0.545709  0.339129  0.250000  1
  Ga  Ga21  1  0.454291  0.660871  0.750000  1
  Ir  Ir22  1  0.671219  0.328731  0.999999  1
  Ir  Ir23  1  0.328781  0.671269  0.000001  1
  Ir  Ir24  1  0.328781  0.671269  0.499999  1
  Ir  Ir25  1  0.671219  0.328731  0.500001  1
  Ir  Ir26  1  0.000000  0.000000  0.000000  1
  Ir  Ir27  1  0.000000  0.000000  0.500000  1
