# generated using pymatgen
data_YbY6FeBr12
_symmetry_space_group_name_H-M   'P 1'
_cell_length_a   9.19187463
_cell_length_b   9.19187542
_cell_length_c   9.19187540
_cell_angle_alpha   107.03873122
_cell_angle_beta   107.03872075
_cell_angle_gamma   107.03871267
_symmetry_Int_Tables_number   1
_chemical_formula_structural   YbY6FeBr12
_chemical_formula_sum   'Yb1 Y6 Fe1 Br12'
_cell_volume   646.09779874
_cell_formula_units_Z   1
loop_
 _symmetry_equiv_pos_site_id
 _symmetry_equiv_pos_as_xyz
  1  'x, y, z'
loop_
 _atom_site_type_symbol
 _atom_site_label
 _atom_site_symmetry_multiplicity
 _atom_site_fract_x
 _atom_site_fract_y
 _atom_site_fract_z
 _atom_site_occupancy
  Yb  Yb0  1  0.000000  0.000000  0.000000  1
  Y  Y1  1  0.806702  0.525416  0.599431  1
  Y  Y2  1  0.525416  0.599431  0.806702  1
  Y  Y3  1  0.193298  0.474584  0.400569  1
  Y  Y4  1  0.474584  0.400569  0.193298  1
  Y  Y5  1  0.599431  0.806702  0.525416  1
  Y  Y6  1  0.400569  0.193298  0.474584  1
  Fe  Fe7  1  0.500000  0.500000  0.500000  1
  Br  Br8  1  0.723644  0.181865  0.573044  1
  Br  Br9  1  0.955996  0.879343  0.655862  1
  Br  Br10  1  0.573044  0.723644  0.181865  1
  Br  Br11  1  0.120657  0.344138  0.044004  1
  Br  Br12  1  0.655862  0.955996  0.879343  1
  Br  Br13  1  0.879343  0.655862  0.955996  1
  Br  Br14  1  0.044004  0.120657  0.344138  1
  Br  Br15  1  0.818135  0.426956  0.276356  1
  Br  Br16  1  0.344138  0.044004  0.120657  1
  Br  Br17  1  0.276356  0.818135  0.426956  1
  Br  Br18  1  0.181865  0.573044  0.723644  1
  Br  Br19  1  0.426956  0.276356  0.818135  1
