# generated using pymatgen
data_LiCaC2
_symmetry_space_group_name_H-M   'P 1'
_cell_length_a   3.63591167
_cell_length_b   6.29928778
_cell_length_c   4.74556392
_cell_angle_alpha   90.00145465
_cell_angle_beta   89.99470724
_cell_angle_gamma   149.95617478
_symmetry_Int_Tables_number   1
_chemical_formula_structural   LiCaC2
_chemical_formula_sum   'Li1 Ca1 C2'
_cell_volume   54.41735914
_cell_formula_units_Z   1
loop_
 _symmetry_equiv_pos_site_id
 _symmetry_equiv_pos_as_xyz
  1  'x, y, z'
loop_
 _atom_site_type_symbol
 _atom_site_label
 _atom_site_symmetry_multiplicity
 _atom_site_fract_x
 _atom_site_fract_y
 _atom_site_fract_z
 _atom_site_occupancy
  Li  Li0  1  0.857773  0.017089  0.985495  1
  Ca  Ca1  1  0.862829  0.352842  0.485470  1
  C  C2  1  0.859798  0.684932  0.848602  1
  C  C3  1  0.859768  0.684986  0.122737  1
