# generated using pymatgen
data_Eu2TmTaO7
_symmetry_space_group_name_H-M   'P 1'
_cell_length_a   6.55233606
_cell_length_b   6.47765213
_cell_length_c   7.61666300
_cell_angle_alpha   90.00000000
_cell_angle_beta   90.00000000
_cell_angle_gamma   109.58877140
_symmetry_Int_Tables_number   1
_chemical_formula_structural   Eu2TmTaO7
_chemical_formula_sum   'Eu4 Tm2 Ta2 O14'
_cell_volume   304.56936170
_cell_formula_units_Z   2
loop_
 _symmetry_equiv_pos_site_id
 _symmetry_equiv_pos_as_xyz
  1  'x, y, z'
loop_
 _atom_site_type_symbol
 _atom_site_label
 _atom_site_symmetry_multiplicity
 _atom_site_fract_x
 _atom_site_fract_y
 _atom_site_fract_z
 _atom_site_occupancy
  Eu  Eu0  1  0.525068  0.995851  0.751209  1
  Eu  Eu1  1  0.474932  0.004149  0.251209  1
  Eu  Eu2  1  0.504414  0.502860  0.500419  1
  Eu  Eu3  1  0.495586  0.497140  0.000419  1
  Tm  Tm4  1  0.998861  0.463522  0.748772  1
  Tm  Tm5  1  0.001139  0.536478  0.248772  1
  Ta  Ta6  1  0.000068  0.000151  0.500296  1
  Ta  Ta7  1  0.999932  0.999849  0.000296  1
  O  O8  1  0.644711  0.363449  0.750875  1
  O  O9  1  0.355289  0.636551  0.250875  1
  O  O10  1  0.949142  0.074230  0.750047  1
  O  O11  1  0.050858  0.925770  0.250047  1
  O  O12  1  0.944131  0.680687  0.537213  1
  O  O13  1  0.055869  0.319313  0.037213  1
  O  O14  1  0.322504  0.085343  0.975497  1
  O  O15  1  0.677496  0.914657  0.475497  1
  O  O16  1  0.357612  0.620904  0.749246  1
  O  O17  1  0.642388  0.379096  0.249246  1
  O  O18  1  0.950753  0.684790  0.959109  1
  O  O19  1  0.049247  0.315210  0.459109  1
  O  O20  1  0.320008  0.083113  0.527319  1
  O  O21  1  0.679992  0.916887  0.027319  1
