# generated using pymatgen
data_GdPb4W3O13
_symmetry_space_group_name_H-M   'P 1'
_cell_length_a   7.64253282
_cell_length_b   7.64253276
_cell_length_c   7.64253090
_cell_angle_alpha   60.44721305
_cell_angle_beta   60.44721638
_cell_angle_gamma   60.44721231
_symmetry_Int_Tables_number   1
_chemical_formula_structural   GdPb4W3O13
_chemical_formula_sum   'Gd1 Pb4 W3 O13'
_cell_volume   318.83478487
_cell_formula_units_Z   1
loop_
 _symmetry_equiv_pos_site_id
 _symmetry_equiv_pos_as_xyz
  1  'x, y, z'
loop_
 _atom_site_type_symbol
 _atom_site_label
 _atom_site_symmetry_multiplicity
 _atom_site_fract_x
 _atom_site_fract_y
 _atom_site_fract_z
 _atom_site_occupancy
  Gd  Gd0  1  0.501408  0.501408  0.501408  1
  Pb  Pb1  1  0.996554  0.996554  0.996554  1
  Pb  Pb2  1  0.493941  0.003943  0.003943  1
  Pb  Pb3  1  0.003943  0.003943  0.493941  1
  Pb  Pb4  1  0.003943  0.493941  0.003943  1
  W  W5  1  0.001818  0.500266  0.500266  1
  W  W6  1  0.500266  0.500266  0.001818  1
  W  W7  1  0.500266  0.001818  0.500266  1
  O  O8  1  0.862810  0.411927  0.411927  1
  O  O9  1  0.417779  0.813456  0.813456  1
  O  O10  1  0.411927  0.411927  0.862810  1
  O  O11  1  0.813456  0.813456  0.417779  1
  O  O12  1  0.813456  0.417779  0.813456  1
  O  O13  1  0.411927  0.862810  0.411927  1
  O  O14  1  0.144766  0.583814  0.583814  1
  O  O15  1  0.581873  0.188311  0.188311  1
  O  O16  1  0.583814  0.583814  0.144766  1
  O  O17  1  0.188311  0.188311  0.581873  1
  O  O18  1  0.188311  0.581873  0.188311  1
  O  O19  1  0.583814  0.144766  0.583814  1
  O  O20  1  0.120615  0.120615  0.120615  1
