# generated using pymatgen
data_Sc2GeB2Ir2Ru3
_symmetry_space_group_name_H-M   'P 1'
_cell_length_a   9.42173590
_cell_length_b   9.41852791
_cell_length_c   3.01669800
_cell_angle_alpha   90.00000000
_cell_angle_beta   90.00000000
_cell_angle_gamma   89.94977868
_symmetry_Int_Tables_number   1
_chemical_formula_structural   Sc2GeB2Ir2Ru3
_chemical_formula_sum   'Sc4 Ge2 B4 Ir4 Ru6'
_cell_volume   267.69830661
_cell_formula_units_Z   2
loop_
 _symmetry_equiv_pos_site_id
 _symmetry_equiv_pos_as_xyz
  1  'x, y, z'
loop_
 _atom_site_type_symbol
 _atom_site_label
 _atom_site_symmetry_multiplicity
 _atom_site_fract_x
 _atom_site_fract_y
 _atom_site_fract_z
 _atom_site_occupancy
  Sc  Sc0  1  0.673925  0.173195  0.000000  1
  Sc  Sc1  1  0.328968  0.824178  0.000000  1
  Sc  Sc2  1  0.173291  0.327461  0.000000  1
  Sc  Sc3  1  0.824446  0.673012  0.000000  1
  Ge  Ge4  1  0.998974  0.005170  0.000000  1
  Ge  Ge5  1  0.496616  0.500549  0.000000  1
  B  B6  1  0.123524  0.622042  0.000000  1
  B  B7  1  0.879898  0.375317  0.000000  1
  B  B8  1  0.620791  0.873720  0.000000  1
  B  B9  1  0.380632  0.124901  0.000000  1
  Ir  Ir10  1  0.216824  0.071139  0.500000  1
  Ir  Ir11  1  0.784534  0.927362  0.500000  1
  Ir  Ir12  1  0.069744  0.787692  0.500000  1
  Ir  Ir13  1  0.713676  0.428437  0.500000  1
  Ru  Ru14  1  0.929439  0.214158  0.500000  1
  Ru  Ru15  1  0.284633  0.572076  0.500000  1
  Ru  Ru16  1  0.570597  0.711804  0.500000  1
  Ru  Ru17  1  0.429948  0.286921  0.500000  1
  Ru  Ru18  1  0.500803  0.999265  0.500000  1
  Ru  Ru19  1  0.998738  0.501603  0.500000  1
