# generated using pymatgen
data_Pr2Ho14MgHg3Ir4
_symmetry_space_group_name_H-M   'P 1'
_cell_length_a   9.65092074
_cell_length_b   9.63469117
_cell_length_c   9.64598900
_cell_angle_alpha   59.96121276
_cell_angle_beta   60.01691299
_cell_angle_gamma   59.84090188
_symmetry_Int_Tables_number   1
_chemical_formula_structural   Pr2Ho14MgHg3Ir4
_chemical_formula_sum   'Pr2 Ho14 Mg1 Hg3 Ir4'
_cell_volume   633.34675820
_cell_formula_units_Z   1
loop_
 _symmetry_equiv_pos_site_id
 _symmetry_equiv_pos_as_xyz
  1  'x, y, z'
loop_
 _atom_site_type_symbol
 _atom_site_label
 _atom_site_symmetry_multiplicity
 _atom_site_fract_x
 _atom_site_fract_y
 _atom_site_fract_z
 _atom_site_occupancy
  Pr  Pr0  1  0.564040  0.565891  0.935035  1
  Pr  Pr1  1  0.936568  0.933774  0.564829  1
  Ho  Ho2  1  0.349288  0.348743  0.345388  1
  Ho  Ho3  1  0.349288  0.348743  0.956584  1
  Ho  Ho4  1  0.350066  0.954418  0.347759  1
  Ho  Ho5  1  0.944620  0.351136  0.352123  1
  Ho  Ho6  1  0.808585  0.189499  0.191377  1
  Ho  Ho7  1  0.185584  0.812035  0.813426  1
  Ho  Ho8  1  0.185584  0.812035  0.188957  1
  Ho  Ho9  1  0.808585  0.189499  0.810540  1
  Ho  Ho10  1  0.188102  0.190007  0.810946  1
  Ho  Ho11  1  0.807766  0.808682  0.191777  1
  Ho  Ho12  1  0.940739  0.557298  0.558418  1
  Ho  Ho13  1  0.556903  0.942740  0.941098  1
  Ho  Ho14  1  0.556903  0.942740  0.559260  1
  Ho  Ho15  1  0.940739  0.557298  0.943545  1
  Mg  Mg16  1  0.284554  0.569668  0.572890  1
  Hg  Hg17  1  0.583771  0.588203  0.581680  1
  Hg  Hg18  1  0.583771  0.588203  0.246345  1
  Hg  Hg19  1  0.578038  0.244802  0.588579  1
  Ir  Ir20  1  0.142029  0.145227  0.137777  1
  Ir  Ir21  1  0.142029  0.145227  0.574968  1
  Ir  Ir22  1  0.136626  0.575085  0.144144  1
  Ir  Ir23  1  0.575827  0.139054  0.142559  1
