# generated using pymatgen
data_ZrNp7(TcB6)4
_symmetry_space_group_name_H-M   'P 1'
_cell_length_a   3.59662600
_cell_length_b   9.26776392
_cell_length_c   11.31995732
_cell_angle_alpha   89.92647594
_cell_angle_beta   90.00000000
_cell_angle_gamma   90.00000000
_symmetry_Int_Tables_number   1
_chemical_formula_structural   ZrNp7(TcB6)4
_chemical_formula_sum   'Zr1 Np7 Tc4 B24'
_cell_volume   377.32421178
_cell_formula_units_Z   1
loop_
 _symmetry_equiv_pos_site_id
 _symmetry_equiv_pos_as_xyz
  1  'x, y, z'
loop_
 _atom_site_type_symbol
 _atom_site_label
 _atom_site_symmetry_multiplicity
 _atom_site_fract_x
 _atom_site_fract_y
 _atom_site_fract_z
 _atom_site_occupancy
  Zr  Zr0  1  0.000000  0.337068  0.407108  1
  Np  Np1  1  0.000000  0.661656  0.592959  1
  Np  Np2  1  0.000000  0.837997  0.094327  1
  Np  Np3  1  0.000000  0.161922  0.906970  1
  Np  Np4  1  0.000000  0.960485  0.399498  1
  Np  Np5  1  0.000000  0.042505  0.599160  1
  Np  Np6  1  0.000000  0.458851  0.099242  1
  Np  Np7  1  0.000000  0.540795  0.900057  1
  Tc  Tc8  1  0.000000  0.643747  0.320012  1
  Tc  Tc9  1  0.000000  0.354042  0.679058  1
  Tc  Tc10  1  0.000000  0.147147  0.182016  1
  Tc  Tc11  1  0.000000  0.854039  0.818874  1
  B  B12  1  0.500000  0.549765  0.432578  1
  B  B13  1  0.500000  0.448487  0.567346  1
  B  B14  1  0.500000  0.052206  0.068691  1
  B  B15  1  0.500000  0.948020  0.932086  1
  B  B16  1  0.500000  0.742697  0.423971  1
  B  B17  1  0.500000  0.257065  0.575717  1
  B  B18  1  0.500000  0.243654  0.076535  1
  B  B19  1  0.500000  0.756750  0.923868  1
  B  B20  1  0.500000  0.804605  0.274554  1
  B  B21  1  0.500000  0.194580  0.725557  1
  B  B22  1  0.500000  0.306006  0.226116  1
  B  B23  1  0.500000  0.694828  0.774361  1
  B  B24  1  0.500000  0.644982  0.188890  1
  B  B25  1  0.500000  0.353684  0.811139  1
  B  B26  1  0.500000  0.146789  0.312044  1
  B  B27  1  0.500000  0.854069  0.687848  1
  B  B28  1  0.500000  0.988051  0.220882  1
  B  B29  1  0.500000  0.011759  0.779265  1
  B  B30  1  0.500000  0.486285  0.280612  1
  B  B31  1  0.500000  0.511894  0.720061  1
  B  B32  1  0.500000  0.643012  0.040031  1
  B  B33  1  0.500000  0.356773  0.959995  1
  B  B34  1  0.500000  0.146646  0.459401  1
  B  B35  1  0.500000  0.857139  0.539170  1
