# generated using pymatgen
data_TbPr4Dy5(Sn5Rh2)4
_symmetry_space_group_name_H-M   'P 1'
_cell_length_a   14.16608800
_cell_length_b   14.16608800
_cell_length_c   4.56761200
_cell_angle_alpha   90.00000000
_cell_angle_beta   90.00000000
_cell_angle_gamma   90.00000000
_symmetry_Int_Tables_number   1
_chemical_formula_structural   TbPr4Dy5(Sn5Rh2)4
_chemical_formula_sum   'Tb1 Pr4 Dy5 Sn20 Rh8'
_cell_volume   916.61946577
_cell_formula_units_Z   1
loop_
 _symmetry_equiv_pos_site_id
 _symmetry_equiv_pos_as_xyz
  1  'x, y, z'
loop_
 _atom_site_type_symbol
 _atom_site_label
 _atom_site_symmetry_multiplicity
 _atom_site_fract_x
 _atom_site_fract_y
 _atom_site_fract_z
 _atom_site_occupancy
  Tb  Tb0  1  0.500000  0.500000  0.000000  1
  Pr  Pr1  1  0.888060  0.388051  0.500000  1
  Pr  Pr2  1  0.111940  0.611949  0.500000  1
  Pr  Pr3  1  0.388051  0.111940  0.500000  1
  Pr  Pr4  1  0.611949  0.888060  0.500000  1
  Dy  Dy5  1  0.000000  0.000000  0.000000  1
  Dy  Dy6  1  0.677305  0.177293  0.500000  1
  Dy  Dy7  1  0.322695  0.822707  0.500000  1
  Dy  Dy8  1  0.177293  0.322695  0.500000  1
  Dy  Dy9  1  0.822707  0.677305  0.500000  1
  Sn  Sn10  1  0.570378  0.070379  0.000000  1
  Sn  Sn11  1  0.429622  0.929621  0.000000  1
  Sn  Sn12  1  0.070379  0.429622  0.000000  1
  Sn  Sn13  1  0.929621  0.570378  0.000000  1
  Sn  Sn14  1  0.654193  0.698177  0.000000  1
  Sn  Sn15  1  0.345807  0.301823  0.000000  1
  Sn  Sn16  1  0.154200  0.801828  0.000000  1
  Sn  Sn17  1  0.845800  0.198172  0.000000  1
  Sn  Sn18  1  0.301823  0.654193  0.000000  1
  Sn  Sn19  1  0.698177  0.345807  0.000000  1
  Sn  Sn20  1  0.198172  0.154200  0.000000  1
  Sn  Sn21  1  0.801828  0.845800  0.000000  1
  Sn  Sn22  1  0.661339  0.505784  0.500000  1
  Sn  Sn23  1  0.338661  0.494216  0.500000  1
  Sn  Sn24  1  0.161153  0.994199  0.500000  1
  Sn  Sn25  1  0.838847  0.005801  0.500000  1
  Sn  Sn26  1  0.494216  0.661339  0.500000  1
  Sn  Sn27  1  0.505784  0.338661  0.500000  1
  Sn  Sn28  1  0.005801  0.161153  0.500000  1
  Sn  Sn29  1  0.994199  0.838847  0.500000  1
  Rh  Rh30  1  0.746141  0.529573  0.000000  1
  Rh  Rh31  1  0.253859  0.470427  0.000000  1
  Rh  Rh32  1  0.246016  0.970448  0.000000  1
  Rh  Rh33  1  0.753984  0.029552  0.000000  1
  Rh  Rh34  1  0.470427  0.746141  0.000000  1
  Rh  Rh35  1  0.529573  0.253859  0.000000  1
  Rh  Rh36  1  0.029552  0.246016  0.000000  1
  Rh  Rh37  1  0.970448  0.753984  0.000000  1
