# generated using pymatgen
data_Ho9Tm6Sc5Bi12
_symmetry_space_group_name_H-M   'P 1'
_cell_length_a   8.06268401
_cell_length_b   9.33934727
_cell_length_c   11.87993731
_cell_angle_alpha   89.94793256
_cell_angle_beta   90.06791392
_cell_angle_gamma   89.98178401
_symmetry_Int_Tables_number   1
_chemical_formula_structural   Ho9Tm6Sc5Bi12
_chemical_formula_sum   'Ho9 Tm6 Sc5 Bi12'
_cell_volume   894.56068184
_cell_formula_units_Z   1
loop_
 _symmetry_equiv_pos_site_id
 _symmetry_equiv_pos_as_xyz
  1  'x, y, z'
loop_
 _atom_site_type_symbol
 _atom_site_label
 _atom_site_symmetry_multiplicity
 _atom_site_fract_x
 _atom_site_fract_y
 _atom_site_fract_z
 _atom_site_occupancy
  Ho  Ho0  1  0.353331  0.247604  0.282237  1
  Ho  Ho1  1  0.643911  0.749754  0.716685  1
  Ho  Ho2  1  0.145068  0.749236  0.783875  1
  Ho  Ho3  1  0.855399  0.249272  0.215860  1
  Ho  Ho4  1  0.185181  0.249294  0.781311  1
  Ho  Ho5  1  0.814257  0.749559  0.218932  1
  Ho  Ho6  1  0.314562  0.750603  0.281012  1
  Ho  Ho7  1  0.684920  0.249490  0.719868  1
  Ho  Ho8  1  0.804966  0.934732  0.940978  1
  Tm  Tm9  1  0.304080  0.933940  0.558902  1
  Tm  Tm10  1  0.805922  0.565923  0.941675  1
  Tm  Tm11  1  0.695560  0.065947  0.440836  1
  Tm  Tm12  1  0.195410  0.434929  0.058949  1
  Tm  Tm13  1  0.695753  0.433770  0.440962  1
  Tm  Tm14  1  0.304457  0.566335  0.559180  1
  Sc  Sc15  1  0.024506  0.249963  0.511875  1
  Sc  Sc16  1  0.975970  0.749774  0.486942  1
  Sc  Sc17  1  0.475351  0.750337  0.012253  1
  Sc  Sc18  1  0.522420  0.248143  0.988712  1
  Sc  Sc19  1  0.196373  0.068851  0.058442  1
  Bi  Bi20  1  0.401762  0.250256  0.542147  1
  Bi  Bi21  1  0.598531  0.749761  0.457388  1
  Bi  Bi22  1  0.100945  0.756703  0.043785  1
  Bi  Bi23  1  0.905322  0.248861  0.958689  1
  Bi  Bi24  1  0.066440  0.003925  0.329113  1
  Bi  Bi25  1  0.933881  0.995852  0.668949  1
  Bi  Bi26  1  0.432020  0.995902  0.832054  1
  Bi  Bi27  1  0.933718  0.503412  0.669272  1
  Bi  Bi28  1  0.563788  0.003727  0.168320  1
  Bi  Bi29  1  0.066354  0.495812  0.330166  1
  Bi  Bi30  1  0.566024  0.495158  0.169217  1
  Bi  Bi31  1  0.433820  0.503176  0.831414  1
