# generated using pymatgen
data_Dy2Ho7Tm3(GaCo2)2
_symmetry_space_group_name_H-M   'P 1'
_cell_length_a   8.21003796
_cell_length_b   8.21634906
_cell_length_c   8.22036737
_cell_angle_alpha   112.04551481
_cell_angle_beta   109.46611611
_cell_angle_gamma   106.97653901
_symmetry_Int_Tables_number   1
_chemical_formula_structural   Dy2Ho7Tm3(GaCo2)2
_chemical_formula_sum   'Dy2 Ho7 Tm3 Ga2 Co4'
_cell_volume   425.84878410
_cell_formula_units_Z   1
loop_
 _symmetry_equiv_pos_site_id
 _symmetry_equiv_pos_as_xyz
  1  'x, y, z'
loop_
 _atom_site_type_symbol
 _atom_site_label
 _atom_site_symmetry_multiplicity
 _atom_site_fract_x
 _atom_site_fract_y
 _atom_site_fract_z
 _atom_site_occupancy
  Dy  Dy0  1  0.959535  0.261022  0.697872  1
  Dy  Dy1  1  0.042114  0.739470  0.303486  1
  Ho  Ho2  1  0.672569  0.485159  0.811788  1
  Ho  Ho3  1  0.563140  0.261141  0.301311  1
  Ho  Ho4  1  0.435853  0.739193  0.697553  1
  Ho  Ho5  1  0.181463  0.781008  0.961360  1
  Ho  Ho6  1  0.819261  0.780655  0.599554  1
  Ho  Ho7  1  0.179812  0.219245  0.399414  1
  Ho  Ho8  1  0.819496  0.218837  0.039453  1
  Tm  Tm9  1  0.672475  0.859725  0.186637  1
  Tm  Tm10  1  0.327482  0.513645  0.186821  1
  Tm  Tm11  1  0.326987  0.140278  0.813795  1
  Ga  Ga12  1  0.999627  0.499738  0.500046  1
  Ga  Ga13  1  0.499718  0.999075  0.499354  1
  Co  Co14  1  0.115288  0.115279  0.999188  1
  Co  Co15  1  0.885630  0.885439  0.000714  1
  Co  Co16  1  0.660598  0.500378  0.161784  1
  Co  Co17  1  0.338952  0.500709  0.839868  1
