# generated using pymatgen
data_Tm4Zr3SnIr4
_symmetry_space_group_name_H-M   'P 1'
_cell_length_a   4.44151800
_cell_length_b   7.12873515
_cell_length_c   8.30047658
_cell_angle_alpha   93.40163095
_cell_angle_beta   90.00000000
_cell_angle_gamma   90.00000000
_symmetry_Int_Tables_number   1
_chemical_formula_structural   Tm4Zr3SnIr4
_chemical_formula_sum   'Tm4 Zr3 Sn1 Ir4'
_cell_volume   262.35001512
_cell_formula_units_Z   1
loop_
 _symmetry_equiv_pos_site_id
 _symmetry_equiv_pos_as_xyz
  1  'x, y, z'
loop_
 _atom_site_type_symbol
 _atom_site_label
 _atom_site_symmetry_multiplicity
 _atom_site_fract_x
 _atom_site_fract_y
 _atom_site_fract_z
 _atom_site_occupancy
  Tm  Tm0  1  0.250000  0.033022  0.336075  1
  Tm  Tm1  1  0.250000  0.518396  0.177401  1
  Tm  Tm2  1  0.750000  0.994084  0.667003  1
  Tm  Tm3  1  0.750000  0.462422  0.817658  1
  Zr  Zr4  1  0.250000  0.135092  0.926118  1
  Zr  Zr5  1  0.250000  0.643910  0.564993  1
  Zr  Zr6  1  0.750000  0.855521  0.072648  1
  Sn  Sn7  1  0.750000  0.355649  0.425934  1
  Ir  Ir8  1  0.250000  0.268224  0.627172  1
  Ir  Ir9  1  0.250000  0.757287  0.894772  1
  Ir  Ir10  1  0.750000  0.744851  0.389641  1
  Ir  Ir11  1  0.750000  0.231542  0.100585  1
