# generated using pymatgen
data_Rb8Na4Tb3NdSb8
_symmetry_space_group_name_H-M   'P 1'
_cell_length_a   11.39777609
_cell_length_b   11.39838406
_cell_length_c   7.52827230
_cell_angle_alpha   89.98857036
_cell_angle_beta   90.00984743
_cell_angle_gamma   98.11188703
_symmetry_Int_Tables_number   1
_chemical_formula_structural   Rb8Na4Tb3NdSb8
_chemical_formula_sum   'Rb8 Na4 Tb3 Nd1 Sb8'
_cell_volume   968.25879998
_cell_formula_units_Z   1
loop_
 _symmetry_equiv_pos_site_id
 _symmetry_equiv_pos_as_xyz
  1  'x, y, z'
loop_
 _atom_site_type_symbol
 _atom_site_label
 _atom_site_symmetry_multiplicity
 _atom_site_fract_x
 _atom_site_fract_y
 _atom_site_fract_z
 _atom_site_occupancy
  Rb  Rb0  1  0.069946  0.429748  0.249668  1
  Rb  Rb1  1  0.429744  0.069940  0.750340  1
  Rb  Rb2  1  0.931006  0.569797  0.750517  1
  Rb  Rb3  1  0.569801  0.931011  0.249492  1
  Rb  Rb4  1  0.677042  0.322168  0.214694  1
  Rb  Rb5  1  0.823165  0.176911  0.715200  1
  Rb  Rb6  1  0.322175  0.677047  0.785308  1
  Rb  Rb7  1  0.176911  0.823163  0.284798  1
  Na  Na8  1  0.381977  0.381969  0.000010  1
  Na  Na9  1  0.117582  0.117581  0.500001  1
  Na  Na10  1  0.617650  0.617660  0.999991  1
  Na  Na11  1  0.882927  0.882934  0.499980  1
  Tb  Tb12  1  0.131408  0.131409  0.999994  1
  Tb  Tb13  1  0.367302  0.367298  0.499995  1
  Tb  Tb14  1  0.869645  0.869646  0.000006  1
  Nd  Nd15  1  0.632314  0.632314  0.500008  1
  Sb  Sb16  1  0.851173  0.653153  0.245234  1
  Sb  Sb17  1  0.653155  0.851172  0.754754  1
  Sb  Sb18  1  0.153274  0.346363  0.749788  1
  Sb  Sb19  1  0.346353  0.153269  0.250222  1
  Sb  Sb20  1  0.900111  0.100549  0.212779  1
  Sb  Sb21  1  0.599036  0.395764  0.715355  1
  Sb  Sb22  1  0.100544  0.900107  0.787222  1
  Sb  Sb23  1  0.395757  0.599026  0.284644  1
