# generated using pymatgen
data_DyHo2Zr(Al3Ir)6
_symmetry_space_group_name_H-M   'P 1'
_cell_length_a   7.54045827
_cell_length_b   7.53085181
_cell_length_c   9.41479600
_cell_angle_alpha   90.00000000
_cell_angle_beta   90.00000000
_cell_angle_gamma   119.61979637
_symmetry_Int_Tables_number   1
_chemical_formula_structural   DyHo2Zr(Al3Ir)6
_chemical_formula_sum   'Dy1 Ho2 Zr1 Al18 Ir6'
_cell_volume   464.76619709
_cell_formula_units_Z   1
loop_
 _symmetry_equiv_pos_site_id
 _symmetry_equiv_pos_as_xyz
  1  'x, y, z'
loop_
 _atom_site_type_symbol
 _atom_site_label
 _atom_site_symmetry_multiplicity
 _atom_site_fract_x
 _atom_site_fract_y
 _atom_site_fract_z
 _atom_site_occupancy
  Dy  Dy0  1  0.005698  0.328206  0.750000  1
  Ho  Ho1  1  0.670478  0.995475  0.250000  1
  Ho  Ho2  1  0.329645  0.006450  0.750000  1
  Zr  Zr3  1  0.996375  0.671406  0.250000  1
  Al  Al4  1  0.125494  0.122915  0.250000  1
  Al  Al5  1  0.871236  0.869795  0.750000  1
  Al  Al6  1  0.000200  0.337473  0.078324  1
  Al  Al7  1  0.999484  0.665344  0.929683  1
  Al  Al8  1  0.999484  0.665344  0.570317  1
  Al  Al9  1  0.332324  0.998191  0.421670  1
  Al  Al10  1  0.000200  0.337473  0.421676  1
  Al  Al11  1  0.664651  0.998324  0.574349  1
  Al  Al12  1  0.664651  0.998324  0.925651  1
  Al  Al13  1  0.332324  0.998191  0.078330  1
  Al  Al14  1  0.333941  0.333911  0.551226  1
  Al  Al15  1  0.668879  0.667000  0.443247  1
  Al  Al16  1  0.668879  0.667000  0.056753  1
  Al  Al17  1  0.333941  0.333911  0.948774  1
  Al  Al18  1  0.335739  0.549284  0.250000  1
  Al  Al19  1  0.660923  0.452408  0.750000  1
  Al  Al20  1  0.554480  0.343820  0.250000  1
  Al  Al21  1  0.451380  0.659975  0.750000  1
  Ir  Ir22  1  0.672187  0.327912  0.000824  1
  Ir  Ir23  1  0.328006  0.672323  0.001475  1
  Ir  Ir24  1  0.328006  0.672323  0.498525  1
  Ir  Ir25  1  0.672187  0.327912  0.499176  1
  Ir  Ir26  1  0.999606  0.999655  0.000743  1
  Ir  Ir27  1  0.999606  0.999655  0.499257  1
