# generated using pymatgen
data_Yb6ReAuO12
_symmetry_space_group_name_H-M   'P 1'
_cell_length_a   5.84042899
_cell_length_b   5.48305971
_cell_length_c   9.61914772
_cell_angle_alpha   55.39808150
_cell_angle_beta   89.16911542
_cell_angle_gamma   90.00384751
_symmetry_Int_Tables_number   1
_chemical_formula_structural   Yb6ReAuO12
_chemical_formula_sum   'Yb6 Re1 Au1 O12'
_cell_volume   253.51187811
_cell_formula_units_Z   1
loop_
 _symmetry_equiv_pos_site_id
 _symmetry_equiv_pos_as_xyz
  1  'x, y, z'
loop_
 _atom_site_type_symbol
 _atom_site_label
 _atom_site_symmetry_multiplicity
 _atom_site_fract_x
 _atom_site_fract_y
 _atom_site_fract_z
 _atom_site_occupancy
  Yb  Yb0  1  0.571230  0.238769  0.240593  1
  Yb  Yb1  1  0.062894  0.791103  0.228871  1
  Yb  Yb2  1  0.500000  0.000000  0.000000  1
  Yb  Yb3  1  0.000000  0.000000  0.500000  1
  Yb  Yb4  1  0.937106  0.208897  0.771129  1
  Yb  Yb5  1  0.428770  0.761231  0.759407  1
  Re  Re6  1  0.500000  0.500000  0.500000  1
  Au  Au7  1  0.000000  0.500000  0.000000  1
  O  O8  1  0.549836  0.392792  0.722865  1
  O  O9  1  0.058334  0.611433  0.761994  1
  O  O10  1  0.450164  0.607208  0.277135  1
  O  O11  1  0.941666  0.388567  0.238006  1
  O  O12  1  0.774627  0.735513  0.427442  1
  O  O13  1  0.289507  0.253745  0.070127  1
  O  O14  1  0.225373  0.264487  0.572558  1
  O  O15  1  0.710493  0.746255  0.929873  1
  O  O16  1  0.187550  0.852778  0.945493  1
  O  O17  1  0.668786  0.163050  0.551580  1
  O  O18  1  0.812450  0.147222  0.054507  1
  O  O19  1  0.331214  0.836950  0.448420  1
