# generated using pymatgen
data_La4Ga7(GeRh2)3
_symmetry_space_group_name_H-M   'P 1'
_cell_length_a   8.70184484
_cell_length_b   8.73782759
_cell_length_c   8.73782769
_cell_angle_alpha   140.81590498
_cell_angle_beta   108.00925204
_cell_angle_gamma   85.21824265
_symmetry_Int_Tables_number   1
_chemical_formula_structural   La4Ga7(GeRh2)3
_chemical_formula_sum   'La4 Ga7 Ge3 Rh6'
_cell_volume   385.46074497
_cell_formula_units_Z   1
loop_
 _symmetry_equiv_pos_site_id
 _symmetry_equiv_pos_as_xyz
  1  'x, y, z'
loop_
 _atom_site_type_symbol
 _atom_site_label
 _atom_site_symmetry_multiplicity
 _atom_site_fract_x
 _atom_site_fract_y
 _atom_site_fract_z
 _atom_site_occupancy
  La  La0  1  0.361375  0.130626  0.230749  1
  La  La1  1  0.638802  0.866642  0.772160  1
  La  La2  1  0.096933  0.367109  0.729824  1
  La  La3  1  0.905131  0.634799  0.270331  1
  Ga  Ga4  1  0.999463  0.251752  0.250452  1
  Ga  Ga5  1  0.999463  0.749012  0.747711  1
  Ga  Ga6  1  0.718610  0.969077  0.251369  1
  Ga  Ga7  1  0.282259  0.534719  0.252565  1
  Ga  Ga8  1  0.282259  0.029694  0.747540  1
  Ga  Ga9  1  0.718610  0.467240  0.749532  1
  Ga  Ga10  1  0.563431  0.404004  0.159427  1
  Ge  Ge11  1  0.240249  0.900274  0.339975  1
  Ge  Ge12  1  0.755812  0.095655  0.660157  1
  Ge  Ge13  1  0.438335  0.597087  0.841247  1
  Rh  Rh14  1  0.961528  0.859079  0.102449  1
  Rh  Rh15  1  0.498292  0.752300  0.249236  1
  Rh  Rh16  1  0.754801  0.357739  0.397063  1
  Rh  Rh17  1  0.247354  0.641318  0.606035  1
  Rh  Rh18  1  0.039002  0.142818  0.896184  1
  Rh  Rh19  1  0.498292  0.249056  0.745992  1
