# generated using pymatgen
data_CaLa3(AlPt)4
_symmetry_space_group_name_H-M   'P 1'
_cell_length_a   4.52445600
_cell_length_b   7.19913168
_cell_length_c   7.92962354
_cell_angle_alpha   89.14452206
_cell_angle_beta   90.00000000
_cell_angle_gamma   90.00000000
_symmetry_Int_Tables_number   1
_chemical_formula_structural   CaLa3(AlPt)4
_chemical_formula_sum   'Ca1 La3 Al4 Pt4'
_cell_volume   258.25613368
_cell_formula_units_Z   1
loop_
 _symmetry_equiv_pos_site_id
 _symmetry_equiv_pos_as_xyz
  1  'x, y, z'
loop_
 _atom_site_type_symbol
 _atom_site_label
 _atom_site_symmetry_multiplicity
 _atom_site_fract_x
 _atom_site_fract_y
 _atom_site_fract_z
 _atom_site_occupancy
  Ca  Ca0  1  0.750000  0.471204  0.183301  1
  La  La1  1  0.250000  0.033084  0.681164  1
  La  La2  1  0.250000  0.529523  0.826293  1
  La  La3  1  0.750000  0.966592  0.318265  1
  Al  Al4  1  0.250000  0.147429  0.067903  1
  Al  Al5  1  0.250000  0.636219  0.430482  1
  Al  Al6  1  0.750000  0.854889  0.937133  1
  Al  Al7  1  0.750000  0.361195  0.559455  1
  Pt  Pt8  1  0.250000  0.281718  0.381245  1
  Pt  Pt9  1  0.250000  0.785536  0.113478  1
  Pt  Pt10  1  0.750000  0.716127  0.618364  1
  Pt  Pt11  1  0.750000  0.216484  0.882917  1
