# generated using pymatgen
data_YEr4(In2Pd)2
_symmetry_space_group_name_H-M   'P 1'
_cell_length_a   3.60586700
_cell_length_b   8.12121100
_cell_length_c   18.16498600
_cell_angle_alpha   90.00000000
_cell_angle_beta   90.00000000
_cell_angle_gamma   90.00000000
_symmetry_Int_Tables_number   1
_chemical_formula_structural   YEr4(In2Pd)2
_chemical_formula_sum   'Y2 Er8 In8 Pd4'
_cell_volume   531.94357255
_cell_formula_units_Z   2
loop_
 _symmetry_equiv_pos_site_id
 _symmetry_equiv_pos_as_xyz
  1  'x, y, z'
loop_
 _atom_site_type_symbol
 _atom_site_label
 _atom_site_symmetry_multiplicity
 _atom_site_fract_x
 _atom_site_fract_y
 _atom_site_fract_z
 _atom_site_occupancy
  Y  Y0  1  0.000000  0.500000  0.500000  1
  Y  Y1  1  0.000000  0.000000  0.000000  1
  Er  Er2  1  0.000000  0.739128  0.281048  1
  Er  Er3  1  0.000000  0.260872  0.718952  1
  Er  Er4  1  0.000000  0.760872  0.781048  1
  Er  Er5  1  0.000000  0.239128  0.218952  1
  Er  Er6  1  0.000000  0.617074  0.083825  1
  Er  Er7  1  0.000000  0.382926  0.916175  1
  Er  Er8  1  0.000000  0.882926  0.583825  1
  Er  Er9  1  0.000000  0.117074  0.416175  1
  In  In10  1  0.500000  0.707623  0.932570  1
  In  In11  1  0.500000  0.292377  0.067430  1
  In  In12  1  0.500000  0.792377  0.432570  1
  In  In13  1  0.500000  0.207623  0.567430  1
  In  In14  1  0.500000  0.581989  0.650574  1
  In  In15  1  0.500000  0.418011  0.349426  1
  In  In16  1  0.500000  0.918011  0.150574  1
  In  In17  1  0.500000  0.081989  0.849426  1
  Pd  Pd18  1  0.500000  0.523433  0.196076  1
  Pd  Pd19  1  0.500000  0.476567  0.803924  1
  Pd  Pd20  1  0.500000  0.976567  0.696076  1
  Pd  Pd21  1  0.500000  0.023433  0.303924  1
