# generated using pymatgen
data_Tb5TmAl24Os5Pt3
_symmetry_space_group_name_H-M   'P 1'
_cell_length_a   8.82211452
_cell_length_b   8.84615318
_cell_length_c   9.55472477
_cell_angle_alpha   90.15048078
_cell_angle_beta   89.73031737
_cell_angle_gamma   119.54454245
_symmetry_Int_Tables_number   1
_chemical_formula_structural   Tb5TmAl24Os5Pt3
_chemical_formula_sum   'Tb5 Tm1 Al24 Os5 Pt3'
_cell_volume   648.70324933
_cell_formula_units_Z   1
loop_
 _symmetry_equiv_pos_site_id
 _symmetry_equiv_pos_as_xyz
  1  'x, y, z'
loop_
 _atom_site_type_symbol
 _atom_site_label
 _atom_site_symmetry_multiplicity
 _atom_site_fract_x
 _atom_site_fract_y
 _atom_site_fract_z
 _atom_site_occupancy
  Tb  Tb0  1  0.188102  0.382525  0.250418  1
  Tb  Tb1  1  0.812196  0.617363  0.749737  1
  Tb  Tb2  1  0.615245  0.814189  0.252217  1
  Tb  Tb3  1  0.385274  0.185656  0.747861  1
  Tb  Tb4  1  0.193964  0.809793  0.251114  1
  Tm  Tm5  1  0.803153  0.191539  0.748076  1
  Al  Al6  1  0.335627  0.671522  0.029762  1
  Al  Al7  1  0.665122  0.328586  0.968670  1
  Al  Al8  1  0.669394  0.331239  0.529334  1
  Al  Al9  1  0.330789  0.668567  0.471789  1
  Al  Al10  1  0.157478  0.325326  0.574933  1
  Al  Al11  1  0.841555  0.673737  0.426220  1
  Al  Al12  1  0.673616  0.841243  0.575784  1
  Al  Al13  1  0.836420  0.675448  0.077143  1
  Al  Al14  1  0.327222  0.159508  0.425205  1
  Al  Al15  1  0.162698  0.323790  0.921987  1
  Al  Al16  1  0.163839  0.834501  0.576245  1
  Al  Al17  1  0.326416  0.159159  0.075540  1
  Al  Al18  1  0.836208  0.165261  0.425132  1
  Al  Al19  1  0.674608  0.841840  0.923422  1
  Al  Al20  1  0.831750  0.159649  0.076476  1
  Al  Al21  1  0.168557  0.840455  0.922075  1
  Al  Al22  1  0.561291  0.125483  0.249895  1
  Al  Al23  1  0.439798  0.874823  0.750084  1
  Al  Al24  1  0.873731  0.437397  0.252953  1
  Al  Al25  1  0.125575  0.561153  0.747500  1
  Al  Al26  1  0.563092  0.436426  0.249839  1
  Al  Al27  1  0.436958  0.563461  0.750236  1
  Al  Al28  1  0.998757  0.003542  0.250199  1
  Al  Al29  1  0.999760  0.998183  0.749784  1
  Os  Os30  1  0.500923  0.000534  0.999308  1
  Os  Os31  1  0.500737  0.000338  0.500637  1
  Os  Os32  1  0.999630  0.499241  0.500647  1
  Os  Os33  1  0.000224  0.999850  0.999931  1
  Os  Os34  1  0.000168  0.999766  0.500046  1
  Pt  Pt35  1  0.999840  0.499378  0.999693  1
  Pt  Pt36  1  0.500201  0.499763  0.999824  1
  Pt  Pt37  1  0.500082  0.499767  0.500284  1
