# generated using pymatgen
data_ZnTcN
_symmetry_space_group_name_H-M   'P 1'
_cell_length_a   6.07735248
_cell_length_b   2.83418502
_cell_length_c   7.21604581
_cell_angle_alpha   89.99999643
_cell_angle_beta   22.17980721
_cell_angle_gamma   76.51585983
_symmetry_Int_Tables_number   1
_chemical_formula_structural   ZnTcN
_chemical_formula_sum   'Zn1 Tc1 N1'
_cell_volume   36.90144250
_cell_formula_units_Z   1
loop_
 _symmetry_equiv_pos_site_id
 _symmetry_equiv_pos_as_xyz
  1  'x, y, z'
loop_
 _atom_site_type_symbol
 _atom_site_label
 _atom_site_symmetry_multiplicity
 _atom_site_fract_x
 _atom_site_fract_y
 _atom_site_fract_z
 _atom_site_occupancy
  Zn  Zn0  1  0.535859  0.232069  0.426034  1
  Tc  Tc1  1  0.675763  0.162118  0.693536  1
  N  N2  1  0.806376  0.596812  0.789431  1
