# generated using pymatgen
data_Zr10AgGeBiPb5
_symmetry_space_group_name_H-M   'P 1'
_cell_length_a   8.86541263
_cell_length_b   8.86541395
_cell_length_c   5.98678548
_cell_angle_alpha   90.02294616
_cell_angle_beta   90.02294006
_cell_angle_gamma   119.96352815
_symmetry_Int_Tables_number   1
_chemical_formula_structural   Zr10AgGeBiPb5
_chemical_formula_sum   'Zr10 Ag1 Ge1 Bi1 Pb5'
_cell_volume   407.64456285
_cell_formula_units_Z   1
loop_
 _symmetry_equiv_pos_site_id
 _symmetry_equiv_pos_as_xyz
  1  'x, y, z'
loop_
 _atom_site_type_symbol
 _atom_site_label
 _atom_site_symmetry_multiplicity
 _atom_site_fract_x
 _atom_site_fract_y
 _atom_site_fract_z
 _atom_site_occupancy
  Zr  Zr0  1  0.667128  0.333583  0.000653  1
  Zr  Zr1  1  0.333583  0.667128  0.000653  1
  Zr  Zr2  1  0.333391  0.666939  0.499379  1
  Zr  Zr3  1  0.666939  0.333391  0.499379  1
  Zr  Zr4  1  0.731282  0.731282  0.763678  1
  Zr  Zr5  1  0.268110  0.998763  0.763695  1
  Zr  Zr6  1  0.998763  0.268110  0.763695  1
  Zr  Zr7  1  0.268751  0.268751  0.236630  1
  Zr  Zr8  1  0.731206  0.000065  0.236238  1
  Zr  Zr9  1  0.000065  0.731206  0.236238  1
  Ag  Ag10  1  0.999552  0.999552  0.499501  1
  Ge  Ge11  1  0.999840  0.999840  0.000311  1
  Bi  Bi12  1  0.386334  0.386334  0.743759  1
  Pb  Pb13  1  0.614371  0.000044  0.743674  1
  Pb  Pb14  1  0.000044  0.614371  0.743674  1
  Pb  Pb15  1  0.615129  0.615129  0.255980  1
  Pb  Pb16  1  0.385671  0.999842  0.256431  1
  Pb  Pb17  1  0.999842  0.385671  0.256431  1
