# generated using pymatgen
data_NaNd3(Si5Pt3)2
_symmetry_space_group_name_H-M   'P 1'
_cell_length_a   8.27872832
_cell_length_b   8.26016547
_cell_length_c   8.26016513
_cell_angle_alpha   137.02249968
_cell_angle_beta   104.66422949
_cell_angle_gamma   90.83785009
_symmetry_Int_Tables_number   1
_chemical_formula_structural   NaNd3(Si5Pt3)2
_chemical_formula_sum   'Na1 Nd3 Si10 Pt6'
_cell_volume   355.01491114
_cell_formula_units_Z   1
loop_
 _symmetry_equiv_pos_site_id
 _symmetry_equiv_pos_as_xyz
  1  'x, y, z'
loop_
 _atom_site_type_symbol
 _atom_site_label
 _atom_site_symmetry_multiplicity
 _atom_site_fract_x
 _atom_site_fract_y
 _atom_site_fract_z
 _atom_site_occupancy
  Na  Na0  1  0.895355  0.129137  0.766217  1
  Nd  Nd1  1  0.640661  0.373316  0.267345  1
  Nd  Nd2  1  0.362082  0.629430  0.732652  1
  Nd  Nd3  1  0.100124  0.868956  0.231168  1
  Si  Si4  1  0.270768  0.520832  0.248726  1
  Si  Si5  1  0.730499  0.478080  0.751943  1
  Si  Si6  1  0.730499  0.978555  0.252419  1
  Si  Si7  1  0.270768  0.022042  0.749936  1
  Si  Si8  1  0.461308  0.110683  0.350625  1
  Si  Si9  1  0.542277  0.891520  0.650757  1
  Si  Si10  1  0.763994  0.612001  0.151993  1
  Si  Si11  1  0.234882  0.386553  0.848329  1
  Si  Si12  1  0.998940  0.247033  0.245646  1
  Si  Si13  1  0.998940  0.753294  0.751907  1
  Pt  Pt14  1  0.250999  0.137179  0.113819  1
  Pt  Pt15  1  0.751559  0.863629  0.887930  1
  Pt  Pt16  1  0.025440  0.635868  0.389572  1
  Pt  Pt17  1  0.974780  0.362469  0.612311  1
  Pt  Pt18  1  0.498063  0.252843  0.751485  1
  Pt  Pt19  1  0.498063  0.746578  0.245220  1
