# generated using pymatgen
data_DyTm3(Si3Ni5)4
_symmetry_space_group_name_H-M   'P 1'
_cell_length_a   3.79300300
_cell_length_b   6.57168945
_cell_length_c   18.69673770
_cell_angle_alpha   89.80602349
_cell_angle_beta   90.00000000
_cell_angle_gamma   90.00000000
_symmetry_Int_Tables_number   1
_chemical_formula_structural   DyTm3(Si3Ni5)4
_chemical_formula_sum   'Dy1 Tm3 Si12 Ni20'
_cell_volume   466.04039820
_cell_formula_units_Z   1
loop_
 _symmetry_equiv_pos_site_id
 _symmetry_equiv_pos_as_xyz
  1  'x, y, z'
loop_
 _atom_site_type_symbol
 _atom_site_label
 _atom_site_symmetry_multiplicity
 _atom_site_fract_x
 _atom_site_fract_y
 _atom_site_fract_z
 _atom_site_occupancy
  Dy  Dy0  1  0.250000  0.624276  0.856483  1
  Tm  Tm1  1  0.250000  0.876333  0.355757  1
  Tm  Tm2  1  0.750000  0.123077  0.643603  1
  Tm  Tm3  1  0.750000  0.376787  0.144390  1
  Si  Si4  1  0.250000  0.079185  0.087794  1
  Si  Si5  1  0.750000  0.923468  0.913859  1
  Si  Si6  1  0.750000  0.579248  0.413189  1
  Si  Si7  1  0.250000  0.419855  0.586002  1
  Si  Si8  1  0.250000  0.655307  0.074277  1
  Si  Si9  1  0.750000  0.342381  0.926269  1
  Si  Si10  1  0.750000  0.155298  0.425344  1
  Si  Si11  1  0.250000  0.843950  0.573988  1
  Si  Si12  1  0.250000  0.383104  0.262104  1
  Si  Si13  1  0.750000  0.618032  0.737201  1
  Si  Si14  1  0.750000  0.882455  0.238138  1
  Si  Si15  1  0.250000  0.118152  0.761781  1
  Ni  Ni16  1  0.250000  0.073815  0.208079  1
  Ni  Ni17  1  0.750000  0.927793  0.792363  1
  Ni  Ni18  1  0.750000  0.573181  0.292852  1
  Ni  Ni19  1  0.250000  0.427215  0.706481  1
  Ni  Ni20  1  0.250000  0.615412  0.483082  1
  Ni  Ni21  1  0.750000  0.384345  0.516030  1
  Ni  Ni22  1  0.750000  0.114464  0.017702  1
  Ni  Ni23  1  0.250000  0.887655  0.984597  1
  Ni  Ni24  1  0.250000  0.687514  0.198814  1
  Ni  Ni25  1  0.750000  0.311627  0.800622  1
  Ni  Ni26  1  0.750000  0.187658  0.300634  1
  Ni  Ni27  1  0.250000  0.813277  0.698592  1
  Ni  Ni28  1  0.250000  0.352558  0.383716  1
  Ni  Ni29  1  0.750000  0.645846  0.615253  1
  Ni  Ni30  1  0.750000  0.851820  0.116680  1
  Ni  Ni31  1  0.250000  0.146507  0.883922  1
  Ni  Ni32  1  0.250000  0.364821  0.005782  1
  Ni  Ni33  1  0.750000  0.634200  0.995053  1
  Ni  Ni34  1  0.750000  0.865376  0.494283  1
  Ni  Ni35  1  0.250000  0.134009  0.505284  1
