# generated using pymatgen
data_Ho10TcHg3
_symmetry_space_group_name_H-M   'P 1'
_cell_length_a   9.52637000
_cell_length_b   9.52637136
_cell_length_c   9.74215400
_cell_angle_alpha   90.00000000
_cell_angle_beta   90.00000000
_cell_angle_gamma   119.99999527
_symmetry_Int_Tables_number   1
_chemical_formula_structural   Ho10TcHg3
_chemical_formula_sum   'Ho20 Tc2 Hg6'
_cell_volume   765.66817430
_cell_formula_units_Z   2
loop_
 _symmetry_equiv_pos_site_id
 _symmetry_equiv_pos_as_xyz
  1  'x, y, z'
loop_
 _atom_site_type_symbol
 _atom_site_label
 _atom_site_symmetry_multiplicity
 _atom_site_fract_x
 _atom_site_fract_y
 _atom_site_fract_z
 _atom_site_occupancy
  Ho  Ho0  1  0.000000  0.000000  0.500000  1
  Ho  Ho1  1  0.000000  0.000000  0.000000  1
  Ho  Ho2  1  0.540428  0.459572  0.250000  1
  Ho  Ho3  1  0.540428  0.080856  0.250000  1
  Ho  Ho4  1  0.919144  0.459572  0.250000  1
  Ho  Ho5  1  0.459572  0.540428  0.750000  1
  Ho  Ho6  1  0.459572  0.919144  0.750000  1
  Ho  Ho7  1  0.080856  0.540428  0.750000  1
  Ho  Ho8  1  0.209435  0.790565  0.440000  1
  Ho  Ho9  1  0.209435  0.418872  0.440000  1
  Ho  Ho10  1  0.581128  0.790565  0.440000  1
  Ho  Ho11  1  0.790565  0.209435  0.560000  1
  Ho  Ho12  1  0.790565  0.581128  0.560000  1
  Ho  Ho13  1  0.418872  0.209435  0.560000  1
  Ho  Ho14  1  0.790565  0.209435  0.940000  1
  Ho  Ho15  1  0.790565  0.581128  0.940000  1
  Ho  Ho16  1  0.418872  0.209435  0.940000  1
  Ho  Ho17  1  0.209435  0.790565  0.060000  1
  Ho  Ho18  1  0.209435  0.418872  0.060000  1
  Ho  Ho19  1  0.581128  0.790565  0.060000  1
  Tc  Tc20  1  0.333333  0.666667  0.250000  1
  Tc  Tc21  1  0.666667  0.333333  0.750000  1
  Hg  Hg22  1  0.881102  0.118898  0.250000  1
  Hg  Hg23  1  0.881102  0.762205  0.250000  1
  Hg  Hg24  1  0.237795  0.118898  0.250000  1
  Hg  Hg25  1  0.118898  0.881102  0.750000  1
  Hg  Hg26  1  0.118898  0.237795  0.750000  1
  Hg  Hg27  1  0.762205  0.881102  0.750000  1
