# generated using pymatgen
data_Ho3Er7In8CuPt3
_symmetry_space_group_name_H-M   'P 1'
_cell_length_a   3.60425700
_cell_length_b   8.09998581
_cell_length_c   18.09950947
_cell_angle_alpha   89.91516752
_cell_angle_beta   90.00000000
_cell_angle_gamma   90.00000000
_symmetry_Int_Tables_number   1
_chemical_formula_structural   Ho3Er7In8CuPt3
_chemical_formula_sum   'Ho3 Er7 In8 Cu1 Pt3'
_cell_volume   528.40429329
_cell_formula_units_Z   1
loop_
 _symmetry_equiv_pos_site_id
 _symmetry_equiv_pos_as_xyz
  1  'x, y, z'
loop_
 _atom_site_type_symbol
 _atom_site_label
 _atom_site_symmetry_multiplicity
 _atom_site_fract_x
 _atom_site_fract_y
 _atom_site_fract_z
 _atom_site_occupancy
  Ho  Ho0  1  0.000000  0.735409  0.280321  1
  Ho  Ho1  1  0.000000  0.999160  0.000495  1
  Ho  Ho2  1  0.000000  0.499345  0.499445  1
  Er  Er3  1  0.000000  0.117549  0.414988  1
  Er  Er4  1  0.000000  0.884467  0.584097  1
  Er  Er5  1  0.000000  0.384132  0.915623  1
  Er  Er6  1  0.000000  0.617311  0.084726  1
  Er  Er7  1  0.000000  0.246525  0.219970  1
  Er  Er8  1  0.000000  0.757101  0.779611  1
  Er  Er9  1  0.000000  0.257188  0.720373  1
  In  In10  1  0.500000  0.419353  0.352065  1
  In  In11  1  0.500000  0.577578  0.647822  1
  In  In12  1  0.500000  0.076908  0.851682  1
  In  In13  1  0.500000  0.925035  0.151391  1
  In  In14  1  0.500000  0.291799  0.066948  1
  In  In15  1  0.500000  0.708761  0.933651  1
  In  In16  1  0.500000  0.208731  0.566153  1
  In  In17  1  0.500000  0.793983  0.431663  1
  Cu  Cu18  1  0.500000  0.024195  0.302110  1
  Pt  Pt19  1  0.500000  0.974910  0.695923  1
  Pt  Pt20  1  0.500000  0.474905  0.803613  1
  Pt  Pt21  1  0.500000  0.525655  0.197329  1
