# generated using pymatgen
data_Lu4MnFe3Os4
_symmetry_space_group_name_H-M   'P 1'
_cell_length_a   5.18406960
_cell_length_b   5.17214032
_cell_length_c   8.56978907
_cell_angle_alpha   90.00000175
_cell_angle_beta   90.01205057
_cell_angle_gamma   119.92390283
_symmetry_Int_Tables_number   1
_chemical_formula_structural   Lu4MnFe3Os4
_chemical_formula_sum   'Lu4 Mn1 Fe3 Os4'
_cell_volume   199.14728160
_cell_formula_units_Z   1
loop_
 _symmetry_equiv_pos_site_id
 _symmetry_equiv_pos_as_xyz
  1  'x, y, z'
loop_
 _atom_site_type_symbol
 _atom_site_label
 _atom_site_symmetry_multiplicity
 _atom_site_fract_x
 _atom_site_fract_y
 _atom_site_fract_z
 _atom_site_occupancy
  Lu  Lu0  1  0.331528  0.665765  0.437615  1
  Lu  Lu1  1  0.663608  0.331804  0.563264  1
  Lu  Lu2  1  0.664947  0.332473  0.933695  1
  Lu  Lu3  1  0.333099  0.666550  0.064120  1
  Mn  Mn4  1  0.995171  0.997586  0.996297  1
  Fe  Fe5  1  0.172960  0.339658  0.753274  1
  Fe  Fe6  1  0.172960  0.833302  0.753274  1
  Fe  Fe7  1  0.337198  0.168598  0.246367  1
  Os  Os8  1  0.833833  0.660534  0.246940  1
  Os  Os9  1  0.661671  0.830836  0.753782  1
  Os  Os10  1  0.833833  0.173298  0.246940  1
  Os  Os11  1  0.999192  0.999596  0.504432  1
