# generated using pymatgen
data_La3Pa3(Ni3Bi4)2
_symmetry_space_group_name_H-M   'P 1'
_cell_length_a   8.47534401
_cell_length_b   8.45469385
_cell_length_c   8.47534390
_cell_angle_alpha   109.73995131
_cell_angle_beta   109.60660003
_cell_angle_gamma   109.16630359
_symmetry_Int_Tables_number   1
_chemical_formula_structural   La3Pa3(Ni3Bi4)2
_chemical_formula_sum   'La3 Pa3 Ni6 Bi8'
_cell_volume   466.92694641
_cell_formula_units_Z   1
loop_
 _symmetry_equiv_pos_site_id
 _symmetry_equiv_pos_as_xyz
  1  'x, y, z'
loop_
 _atom_site_type_symbol
 _atom_site_label
 _atom_site_symmetry_multiplicity
 _atom_site_fract_x
 _atom_site_fract_y
 _atom_site_fract_z
 _atom_site_occupancy
  La  La0  1  0.628319  0.750000  0.378319  1
  La  La1  1  0.250914  0.127649  0.876493  1
  La  La2  1  0.748844  0.372351  0.623265  1
  Pa  Pa3  1  0.126741  0.878658  0.250476  1
  Pa  Pa4  1  0.371818  0.621342  0.748083  1
  Pa  Pa5  1  0.870541  0.250000  0.120541  1
  Ni  Ni6  1  0.643288  0.360782  0.236983  1
  Ni  Ni7  1  0.876201  0.139218  0.782505  1
  Ni  Ni8  1  0.367677  0.250000  0.617677  1
  Ni  Ni9  1  0.131295  0.750000  0.881295  1
  Ni  Ni10  1  0.231084  0.613059  0.369704  1
  Ni  Ni11  1  0.756644  0.886941  0.118025  1
  Bi  Bi12  1  0.333166  0.334208  0.333640  1
  Bi  Bi13  1  0.166507  0.504317  0.003131  1
  Bi  Bi14  1  0.999432  0.165792  0.498957  1
  Bi  Bi15  1  0.835948  0.834202  0.836332  1
  Bi  Bi16  1  0.498815  0.995683  0.162191  1
  Bi  Bi17  1  0.666739  0.505147  0.999045  1
  Bi  Bi18  1  0.493898  0.994853  0.661591  1
  Bi  Bi19  1  0.002130  0.665798  0.501746  1
