# generated using pymatgen
data_LuZr(Pa2Ga5)2
_symmetry_space_group_name_H-M   'P 1'
_cell_length_a   5.97315105
_cell_length_b   5.97315269
_cell_length_c   9.39736000
_cell_angle_alpha   90.00000000
_cell_angle_beta   90.00000000
_cell_angle_gamma   102.86990105
_symmetry_Int_Tables_number   1
_chemical_formula_structural   LuZr(Pa2Ga5)2
_chemical_formula_sum   'Lu1 Zr1 Pa4 Ga10'
_cell_volume   326.86122167
_cell_formula_units_Z   1
loop_
 _symmetry_equiv_pos_site_id
 _symmetry_equiv_pos_as_xyz
  1  'x, y, z'
loop_
 _atom_site_type_symbol
 _atom_site_label
 _atom_site_symmetry_multiplicity
 _atom_site_fract_x
 _atom_site_fract_y
 _atom_site_fract_z
 _atom_site_occupancy
  Lu  Lu0  1  0.643110  0.643110  0.250000  1
  Zr  Zr1  1  0.354697  0.354697  0.750000  1
  Pa  Pa2  1  0.792964  0.204827  0.000031  1
  Pa  Pa3  1  0.204827  0.792964  0.000031  1
  Pa  Pa4  1  0.204827  0.792964  0.499969  1
  Pa  Pa5  1  0.792964  0.204827  0.499969  1
  Ga  Ga6  1  0.081911  0.485072  0.250000  1
  Ga  Ga7  1  0.926200  0.512568  0.750000  1
  Ga  Ga8  1  0.485072  0.081911  0.250000  1
  Ga  Ga9  1  0.512568  0.926200  0.750000  1
  Ga  Ga10  1  0.027220  0.027220  0.250000  1
  Ga  Ga11  1  0.977724  0.977724  0.750000  1
  Ga  Ga12  1  0.314686  0.314686  0.047469  1
  Ga  Ga13  1  0.683272  0.683272  0.944670  1
  Ga  Ga14  1  0.683272  0.683272  0.555330  1
  Ga  Ga15  1  0.314686  0.314686  0.452531  1
