# generated using pymatgen
data_Y2AlZnPt2
_symmetry_space_group_name_H-M   'P 1'
_cell_length_a   4.40275900
_cell_length_b   6.84872100
_cell_length_c   7.87549200
_cell_angle_alpha   90.00000000
_cell_angle_beta   90.00000000
_cell_angle_gamma   90.00000000
_symmetry_Int_Tables_number   1
_chemical_formula_structural   Y2AlZnPt2
_chemical_formula_sum   'Y4 Al2 Zn2 Pt4'
_cell_volume   237.47182108
_cell_formula_units_Z   2
loop_
 _symmetry_equiv_pos_site_id
 _symmetry_equiv_pos_as_xyz
  1  'x, y, z'
loop_
 _atom_site_type_symbol
 _atom_site_label
 _atom_site_symmetry_multiplicity
 _atom_site_fract_x
 _atom_site_fract_y
 _atom_site_fract_z
 _atom_site_occupancy
  Y  Y0  1  0.250000  0.022521  0.687550  1
  Y  Y1  1  0.250000  0.522521  0.812450  1
  Y  Y2  1  0.750000  0.973435  0.316114  1
  Y  Y3  1  0.750000  0.473435  0.183886  1
  Al  Al4  1  0.750000  0.854178  0.937279  1
  Al  Al5  1  0.750000  0.354178  0.562721  1
  Zn  Zn6  1  0.250000  0.154805  0.068419  1
  Zn  Zn7  1  0.250000  0.654805  0.431581  1
  Pt  Pt8  1  0.250000  0.266021  0.394429  1
  Pt  Pt9  1  0.250000  0.766021  0.105571  1
  Pt  Pt10  1  0.750000  0.729041  0.622441  1
  Pt  Pt11  1  0.750000  0.229041  0.877559  1
