# generated using pymatgen
data_NdTaTiIr2
_symmetry_space_group_name_H-M   'P 1'
_cell_length_a   6.15433891
_cell_length_b   6.15433871
_cell_length_c   6.15434059
_cell_angle_alpha   138.06978040
_cell_angle_beta   138.06976282
_cell_angle_gamma   60.79615660
_symmetry_Int_Tables_number   1
_chemical_formula_structural   NdTaTiIr2
_chemical_formula_sum   'Nd1 Ta1 Ti1 Ir2'
_cell_volume   102.95754910
_cell_formula_units_Z   1
loop_
 _symmetry_equiv_pos_site_id
 _symmetry_equiv_pos_as_xyz
  1  'x, y, z'
loop_
 _atom_site_type_symbol
 _atom_site_label
 _atom_site_symmetry_multiplicity
 _atom_site_fract_x
 _atom_site_fract_y
 _atom_site_fract_z
 _atom_site_occupancy
  Nd  Nd0  1  0.000000  0.000000  0.000000  1
  Ta  Ta1  1  0.250000  0.750000  0.500000  1
  Ti  Ti2  1  0.750000  0.250000  0.500000  1
  Ir  Ir3  1  0.623993  0.623993  0.000000  1
  Ir  Ir4  1  0.376007  0.376007  0.000000  1
