# generated using pymatgen
data_YbDy4Pa3TlPt8Pb3
_symmetry_space_group_name_H-M   'P 1'
_cell_length_a   7.96800100
_cell_length_b   7.96800071
_cell_length_c   7.19818000
_cell_angle_alpha   90.00000000
_cell_angle_beta   90.00000000
_cell_angle_gamma   90.90671040
_symmetry_Int_Tables_number   1
_chemical_formula_structural   YbDy4Pa3TlPt8Pb3
_chemical_formula_sum   'Yb1 Dy4 Pa3 Tl1 Pt8 Pb3'
_cell_volume   456.94829709
_cell_formula_units_Z   1
loop_
 _symmetry_equiv_pos_site_id
 _symmetry_equiv_pos_as_xyz
  1  'x, y, z'
loop_
 _atom_site_type_symbol
 _atom_site_label
 _atom_site_symmetry_multiplicity
 _atom_site_fract_x
 _atom_site_fract_y
 _atom_site_fract_z
 _atom_site_occupancy
  Yb  Yb0  1  0.177164  0.823764  0.500720  1
  Dy  Dy1  1  0.339752  0.342402  0.500367  1
  Dy  Dy2  1  0.656658  0.661371  0.500247  1
  Dy  Dy3  1  0.839572  0.159420  0.999730  1
  Dy  Dy4  1  0.159593  0.841371  0.999560  1
  Pa  Pa5  1  0.678462  0.675972  0.999282  1
  Pa  Pa6  1  0.826602  0.173276  0.500710  1
  Pa  Pa7  1  0.324060  0.321276  0.999023  1
  Tl  Tl8  1  0.492873  0.996718  0.745982  1
  Pt  Pt9  1  0.864094  0.873973  0.737277  1
  Pt  Pt10  1  0.126476  0.135034  0.737729  1
  Pt  Pt11  1  0.632476  0.366380  0.766061  1
  Pt  Pt12  1  0.632645  0.367546  0.233459  1
  Pt  Pt13  1  0.379314  0.620507  0.218519  1
  Pt  Pt14  1  0.126108  0.134903  0.262849  1
  Pt  Pt15  1  0.865549  0.873899  0.262913  1
  Pt  Pt16  1  0.379572  0.621102  0.781645  1
  Pb  Pb17  1  0.493000  0.996977  0.253860  1
  Pb  Pb18  1  0.002983  0.507164  0.746109  1
  Pb  Pb19  1  0.003047  0.506945  0.253959  1
