# generated using pymatgen
data_Y3Pa(Ta3Ge4)2
_symmetry_space_group_name_H-M   'P 1'
_cell_length_a   7.04460900
_cell_length_b   7.16885545
_cell_length_c   13.57394100
_cell_angle_alpha   89.97965955
_cell_angle_beta   90.00000000
_cell_angle_gamma   90.00000000
_symmetry_Int_Tables_number   1
_chemical_formula_structural   Y3Pa(Ta3Ge4)2
_chemical_formula_sum   'Y6 Pa2 Ta12 Ge16'
_cell_volume   685.50818826
_cell_formula_units_Z   2
loop_
 _symmetry_equiv_pos_site_id
 _symmetry_equiv_pos_as_xyz
  1  'x, y, z'
loop_
 _atom_site_type_symbol
 _atom_site_label
 _atom_site_symmetry_multiplicity
 _atom_site_fract_x
 _atom_site_fract_y
 _atom_site_fract_z
 _atom_site_occupancy
  Y  Y0  1  0.504699  0.325858  0.095460  1
  Y  Y1  1  0.004699  0.174142  0.404540  1
  Y  Y2  1  0.504723  0.327690  0.405422  1
  Y  Y3  1  0.004723  0.172310  0.094578  1
  Y  Y4  1  0.490376  0.674081  0.906753  1
  Y  Y5  1  0.990376  0.825919  0.593247  1
  Pa  Pa6  1  0.493403  0.673393  0.592788  1
  Pa  Pa7  1  0.993403  0.826607  0.907212  1
  Ta  Ta8  1  0.656164  0.168006  0.627085  1
  Ta  Ta9  1  0.156164  0.331994  0.872915  1
  Ta  Ta10  1  0.338306  0.831474  0.126143  1
  Ta  Ta11  1  0.838306  0.668526  0.373857  1
  Ta  Ta12  1  0.344531  0.828748  0.375217  1
  Ta  Ta13  1  0.844531  0.671252  0.124783  1
  Ta  Ta14  1  0.665991  0.162966  0.874255  1
  Ta  Ta15  1  0.165991  0.337034  0.625745  1
  Ta  Ta16  1  0.834928  0.491604  0.751393  1
  Ta  Ta17  1  0.334928  0.008396  0.748607  1
  Ta  Ta18  1  0.165827  0.513315  0.249307  1
  Ta  Ta19  1  0.665827  0.986685  0.250693  1
  Ge  Ge20  1  0.676573  0.960525  0.457253  1
  Ge  Ge21  1  0.176573  0.539475  0.042747  1
  Ge  Ge22  1  0.326666  0.043244  0.956957  1
  Ge  Ge23  1  0.826666  0.456756  0.543043  1
  Ge  Ge24  1  0.321375  0.041740  0.542759  1
  Ge  Ge25  1  0.821375  0.458260  0.957241  1
  Ge  Ge26  1  0.675009  0.958285  0.043782  1
  Ge  Ge27  1  0.175009  0.541715  0.456218  1
  Ge  Ge28  1  0.461331  0.376113  0.752333  1
  Ge  Ge29  1  0.961331  0.123887  0.747667  1
  Ge  Ge30  1  0.540475  0.622786  0.248968  1
  Ge  Ge31  1  0.040475  0.877214  0.251032  1
  Ge  Ge32  1  0.692625  0.859241  0.750708  1
  Ge  Ge33  1  0.192625  0.640759  0.749292  1
  Ge  Ge34  1  0.306997  0.139370  0.250083  1
  Ge  Ge35  1  0.806997  0.360630  0.249917  1
