# generated using pymatgen
data_Dy3YUPt15
_symmetry_space_group_name_H-M   'P 1'
_cell_length_a   4.13982400
_cell_length_b   4.13982400
_cell_length_c   20.48920200
_cell_angle_alpha   90.00000000
_cell_angle_beta   90.00000000
_cell_angle_gamma   90.00000000
_symmetry_Int_Tables_number   1
_chemical_formula_structural   Dy3YUPt15
_chemical_formula_sum   'Dy3 Y1 U1 Pt15'
_cell_volume   351.14686873
_cell_formula_units_Z   1
loop_
 _symmetry_equiv_pos_site_id
 _symmetry_equiv_pos_as_xyz
  1  'x, y, z'
loop_
 _atom_site_type_symbol
 _atom_site_label
 _atom_site_symmetry_multiplicity
 _atom_site_fract_x
 _atom_site_fract_y
 _atom_site_fract_z
 _atom_site_occupancy
  Dy  Dy0  1  0.000000  0.000000  0.202812  1
  Dy  Dy1  1  0.000000  0.000000  0.400793  1
  Dy  Dy2  1  0.000000  0.000000  0.599112  1
  Y  Y3  1  0.000000  0.000000  0.797398  1
  U  U4  1  0.000000  0.000000  0.000063  1
  Pt  Pt5  1  0.500000  0.500000  0.000043  1
  Pt  Pt6  1  0.500000  0.500000  0.199333  1
  Pt  Pt7  1  0.500000  0.500000  0.400055  1
  Pt  Pt8  1  0.500000  0.500000  0.599915  1
  Pt  Pt9  1  0.500000  0.500000  0.800665  1
  Pt  Pt10  1  0.500000  0.000000  0.097034  1
  Pt  Pt11  1  0.500000  0.000000  0.300090  1
  Pt  Pt12  1  0.500000  0.000000  0.499985  1
  Pt  Pt13  1  0.500000  0.000000  0.699596  1
  Pt  Pt14  1  0.500000  0.000000  0.903201  1
  Pt  Pt15  1  0.000000  0.500000  0.097034  1
  Pt  Pt16  1  0.000000  0.500000  0.300090  1
  Pt  Pt17  1  0.000000  0.500000  0.499985  1
  Pt  Pt18  1  0.000000  0.500000  0.699596  1
  Pt  Pt19  1  0.000000  0.500000  0.903201  1
