# generated using pymatgen
data_Tb2ThCuNi8
_symmetry_space_group_name_H-M   'P 1'
_cell_length_a   4.98061567
_cell_length_b   5.01267549
_cell_length_c   8.72138107
_cell_angle_alpha   73.29891197
_cell_angle_beta   73.24209356
_cell_angle_gamma   59.78683406
_symmetry_Int_Tables_number   1
_chemical_formula_structural   Tb2ThCuNi8
_chemical_formula_sum   'Tb2 Th1 Cu1 Ni8'
_cell_volume   177.48723305
_cell_formula_units_Z   1
loop_
 _symmetry_equiv_pos_site_id
 _symmetry_equiv_pos_as_xyz
  1  'x, y, z'
loop_
 _atom_site_type_symbol
 _atom_site_label
 _atom_site_symmetry_multiplicity
 _atom_site_fract_x
 _atom_site_fract_y
 _atom_site_fract_z
 _atom_site_occupancy
  Tb  Tb0  1  0.141392  0.140967  0.576674  1
  Tb  Tb1  1  0.860686  0.861141  0.417031  1
  Th  Th2  1  0.999121  0.998763  0.003352  1
  Cu  Cu3  1  0.080873  0.582838  0.753448  1
  Ni  Ni4  1  0.583035  0.583270  0.751775  1
  Ni  Ni5  1  0.583035  0.081918  0.751775  1
  Ni  Ni6  1  0.917923  0.417124  0.247830  1
  Ni  Ni7  1  0.415957  0.417269  0.248447  1
  Ni  Ni8  1  0.415957  0.918329  0.248447  1
  Ni  Ni9  1  0.337720  0.330540  0.001197  1
  Ni  Ni10  1  0.661920  0.668557  0.000969  1
  Ni  Ni11  1  0.502380  0.499282  0.499055  1
