# generated using pymatgen
data_Mo3RuBr12
_symmetry_space_group_name_H-M   'P 1'
_cell_length_a   6.08987400
_cell_length_b   7.19101300
_cell_length_c   12.50067200
_cell_angle_alpha   90.00000000
_cell_angle_beta   90.00000000
_cell_angle_gamma   90.00139738
_symmetry_Int_Tables_number   1
_chemical_formula_structural   Mo3RuBr12
_chemical_formula_sum   'Mo3 Ru1 Br12'
_cell_volume   547.43396717
_cell_formula_units_Z   1
loop_
 _symmetry_equiv_pos_site_id
 _symmetry_equiv_pos_as_xyz
  1  'x, y, z'
loop_
 _atom_site_type_symbol
 _atom_site_label
 _atom_site_symmetry_multiplicity
 _atom_site_fract_x
 _atom_site_fract_y
 _atom_site_fract_z
 _atom_site_occupancy
  Mo  Mo0  1  0.228749  0.746956  0.000000  1
  Mo  Mo1  1  0.273368  0.253068  0.500000  1
  Mo  Mo2  1  0.771231  0.746973  0.000000  1
  Ru  Ru3  1  0.730424  0.253011  0.500000  1
  Br  Br4  1  0.504806  0.106280  0.646503  1
  Br  Br5  1  0.000061  0.896797  0.850308  1
  Br  Br6  1  0.504806  0.106280  0.353497  1
  Br  Br7  1  0.000061  0.896797  0.149692  1
  Br  Br8  1  0.999992  0.446804  0.000000  1
  Br  Br9  1  0.504754  0.546850  0.500000  1
  Br  Br10  1  0.500005  0.031476  0.000000  1
  Br  Br11  1  0.993999  0.976812  0.500000  1
  Br  Br12  1  0.993889  0.390934  0.362532  1
  Br  Br13  1  0.499983  0.605013  0.141667  1
  Br  Br14  1  0.993889  0.390934  0.637468  1
  Br  Br15  1  0.499983  0.605013  0.858333  1
