# generated using pymatgen
data_Cs12Sc3GaS12
_symmetry_space_group_name_H-M   'P 1'
_cell_length_a   10.88928131
_cell_length_b   10.88927945
_cell_length_c   13.91446900
_cell_angle_alpha   89.96265794
_cell_angle_beta   89.96270530
_cell_angle_gamma   138.83756157
_symmetry_Int_Tables_number   1
_chemical_formula_structural   Cs12Sc3GaS12
_chemical_formula_sum   'Cs12 Sc3 Ga1 S12'
_cell_volume   1085.97425091
_cell_formula_units_Z   1
loop_
 _symmetry_equiv_pos_site_id
 _symmetry_equiv_pos_as_xyz
  1  'x, y, z'
loop_
 _atom_site_type_symbol
 _atom_site_label
 _atom_site_symmetry_multiplicity
 _atom_site_fract_x
 _atom_site_fract_y
 _atom_site_fract_z
 _atom_site_occupancy
  Cs  Cs0  1  0.873519  0.872799  0.672964  1
  Cs  Cs1  1  0.127183  0.126488  0.326994  1
  Cs  Cs2  1  0.624328  0.629442  0.172201  1
  Cs  Cs3  1  0.370501  0.375567  0.827824  1
  Cs  Cs4  1  0.150816  0.507570  0.125950  1
  Cs  Cs5  1  0.492427  0.849182  0.874118  1
  Cs  Cs6  1  0.963028  0.321526  0.632205  1
  Cs  Cs7  1  0.678559  0.037062  0.367757  1
  Cs  Cs8  1  0.835942  0.471781  0.870596  1
  Cs  Cs9  1  0.528332  0.164101  0.129418  1
  Cs  Cs10  1  0.039340  0.677979  0.366352  1
  Cs  Cs11  1  0.322093  0.960792  0.633676  1
  Sc  Sc12  1  0.416733  0.583154  0.499994  1
  Sc  Sc13  1  0.078412  0.921544  0.999968  1
  Sc  Sc14  1  0.584284  0.415709  0.500020  1
  Ga  Ga15  1  0.918064  0.081890  0.000015  1
  S  S16  1  0.302902  0.301959  0.574524  1
  S  S17  1  0.697893  0.696979  0.425443  1
  S  S18  1  0.191718  0.203401  0.072133  1
  S  S19  1  0.796540  0.808230  0.927828  1
  S  S20  1  0.714886  0.003276  0.113289  1
  S  S21  1  0.996666  0.285012  0.886694  1
  S  S22  1  0.510591  0.806352  0.617122  1
  S  S23  1  0.193662  0.489449  0.382830  1
  S  S24  1  0.304824  0.011712  0.886020  1
  S  S25  1  0.988436  0.695354  0.114018  1
  S  S26  1  0.491096  0.192804  0.382802  1
  S  S27  1  0.807226  0.508888  0.617247  1
