# generated using pymatgen
data_TbHo11Fe2I17
_symmetry_space_group_name_H-M   'P 1'
_cell_length_a   9.71661693
_cell_length_b   11.67469003
_cell_length_c   11.66317050
_cell_angle_alpha   93.47024340
_cell_angle_beta   104.96284982
_cell_angle_gamma   114.07313599
_symmetry_Int_Tables_number   1
_chemical_formula_structural   TbHo11Fe2I17
_chemical_formula_sum   'Tb1 Ho11 Fe2 I17'
_cell_volume   1146.20830255
_cell_formula_units_Z   1
loop_
 _symmetry_equiv_pos_site_id
 _symmetry_equiv_pos_as_xyz
  1  'x, y, z'
loop_
 _atom_site_type_symbol
 _atom_site_label
 _atom_site_symmetry_multiplicity
 _atom_site_fract_x
 _atom_site_fract_y
 _atom_site_fract_z
 _atom_site_occupancy
  Tb  Tb0  1  0.859165  0.712969  0.845347  1
  Ho  Ho1  1  0.050249  0.499395  0.318971  1
  Ho  Ho2  1  0.989550  0.808321  0.586916  1
  Ho  Ho3  1  0.656755  0.241857  0.281073  1
  Ho  Ho4  1  0.009024  0.193561  0.409287  1
  Ho  Ho5  1  0.218078  0.671941  0.983745  1
  Ho  Ho6  1  0.253204  0.977782  0.888631  1
  Ho  Ho7  1  0.338046  0.757765  0.720791  1
  Ho  Ho8  1  0.947236  0.496656  0.679892  1
  Ho  Ho9  1  0.748635  0.025809  0.112885  1
  Ho  Ho10  1  0.143312  0.287326  0.154021  1
  Ho  Ho11  1  0.783533  0.326870  0.020083  1
  Fe  Fe12  1  0.101485  0.737760  0.785522  1
  Fe  Fe13  1  0.897982  0.262454  0.214717  1
  I  I14  1  0.782629  0.528025  0.417640  1
  I  I15  1  0.646154  0.417716  0.762578  1
  I  I16  1  0.847099  0.898242  0.327245  1
  I  I17  1  0.331009  0.215392  0.368665  1
  I  I18  1  0.156514  0.102323  0.671647  1
  I  I19  1  0.583227  0.051144  0.843116  1
  I  I20  1  0.761492  0.189999  0.539862  1
  I  I21  1  0.549377  0.712805  0.953996  1
  I  I22  1  0.355588  0.581509  0.237649  1
  I  I23  1  0.216752  0.473022  0.584148  1
  I  I24  1  0.058852  0.369326  0.896999  1
  I  I25  1  0.447904  0.287179  0.044553  1
  I  I26  1  0.999125  0.999238  0.998845  1
  I  I27  1  0.238925  0.808960  0.461889  1
  I  I28  1  0.414369  0.946972  0.157003  1
  I  I29  1  0.671716  0.786321  0.629508  1
  I  I30  1  0.943016  0.631359  0.102779  1
