# generated using pymatgen
data_TaNb5V4Si6B
_symmetry_space_group_name_H-M   'P 1'
_cell_length_a   7.46917103
_cell_length_b   7.47182246
_cell_length_c   5.04431902
_cell_angle_alpha   89.99524976
_cell_angle_beta   90.00951151
_cell_angle_gamma   119.98826651
_symmetry_Int_Tables_number   1
_chemical_formula_structural   TaNb5V4Si6B
_chemical_formula_sum   'Ta1 Nb5 V4 Si6 B1'
_cell_volume   243.82793181
_cell_formula_units_Z   1
loop_
 _symmetry_equiv_pos_site_id
 _symmetry_equiv_pos_as_xyz
  1  'x, y, z'
loop_
 _atom_site_type_symbol
 _atom_site_label
 _atom_site_symmetry_multiplicity
 _atom_site_fract_x
 _atom_site_fract_y
 _atom_site_fract_z
 _atom_site_occupancy
  Ta  Ta0  1  0.246184  0.000000  0.754191  1
  Nb  Nb1  1  0.000796  0.753656  0.245943  1
  Nb  Nb2  1  0.247140  0.246344  0.245943  1
  Nb  Nb3  1  0.752947  0.000000  0.246761  1
  Nb  Nb4  1  0.000506  0.246860  0.753511  1
  Nb  Nb5  1  0.753647  0.753140  0.753511  1
  V  V6  1  0.332977  0.667200  0.500401  1
  V  V7  1  0.665779  0.332800  0.500401  1
  V  V8  1  0.666186  0.333001  0.999633  1
  V  V9  1  0.333184  0.666999  0.999633  1
  Si  Si10  1  0.000016  0.404010  0.247528  1
  Si  Si11  1  0.596006  0.595990  0.247528  1
  Si  Si12  1  0.404182  0.000000  0.247589  1
  Si  Si13  1  0.999972  0.595643  0.752511  1
  Si  Si14  1  0.404329  0.404357  0.752511  1
  Si  Si15  1  0.596117  0.000000  0.752421  1
  B  B16  1  0.000031  0.000000  0.499985  1
