# generated using pymatgen
data_Li5Hf(TiRh2)6
_symmetry_space_group_name_H-M   'P 1'
_cell_length_a   4.35167200
_cell_length_b   6.05823400
_cell_length_c   12.88114900
_cell_angle_alpha   89.99992658
_cell_angle_beta   90.00118835
_cell_angle_gamma   90.00035086
_symmetry_Int_Tables_number   1
_chemical_formula_structural   Li5Hf(TiRh2)6
_chemical_formula_sum   'Li5 Hf1 Ti6 Rh12'
_cell_volume   339.59149236
_cell_formula_units_Z   1
loop_
 _symmetry_equiv_pos_site_id
 _symmetry_equiv_pos_as_xyz
  1  'x, y, z'
loop_
 _atom_site_type_symbol
 _atom_site_label
 _atom_site_symmetry_multiplicity
 _atom_site_fract_x
 _atom_site_fract_y
 _atom_site_fract_z
 _atom_site_occupancy
  Li  Li0  1  0.499877  0.000000  0.168444  1
  Li  Li1  1  0.999853  0.500001  0.335660  1
  Li  Li2  1  0.500000  0.000000  0.500000  1
  Li  Li3  1  0.000145  0.499997  0.664340  1
  Li  Li4  1  0.500124  0.000000  0.831556  1
  Hf  Hf5  1  0.000000  0.499999  0.000000  1
  Ti  Ti6  1  0.000000  0.000000  0.000000  1
  Ti  Ti7  1  0.499933  0.499999  0.180114  1
  Ti  Ti8  1  0.999872  0.000002  0.339548  1
  Ti  Ti9  1  0.500000  0.499999  0.500000  1
  Ti  Ti10  1  0.000129  0.999998  0.660452  1
  Ti  Ti11  1  0.500068  0.499999  0.819886  1
  Rh  Rh12  1  0.499996  0.245337  0.000001  1
  Rh  Rh13  1  0.500004  0.754663  0.999999  1
  Rh  Rh14  1  0.999878  0.247467  0.170018  1
  Rh  Rh15  1  0.999879  0.752530  0.170016  1
  Rh  Rh16  1  0.499881  0.246781  0.335853  1
  Rh  Rh17  1  0.499870  0.753217  0.335853  1
  Rh  Rh18  1  0.000005  0.251553  0.500002  1
  Rh  Rh19  1  0.999995  0.748447  0.499998  1
  Rh  Rh20  1  0.500131  0.246783  0.664147  1
  Rh  Rh21  1  0.500120  0.753219  0.664147  1
  Rh  Rh22  1  0.000122  0.247470  0.829984  1
  Rh  Rh23  1  0.000123  0.752533  0.829982  1
