# generated using pymatgen
data_Sr11(HgSb2)6
_symmetry_space_group_name_H-M   'P 1'
_cell_length_a   4.81818629
_cell_length_b   12.78727607
_cell_length_c   16.92268343
_cell_angle_alpha   110.30775346
_cell_angle_beta   98.18435725
_cell_angle_gamma   90.00000003
_symmetry_Int_Tables_number   1
_chemical_formula_structural   Sr11(HgSb2)6
_chemical_formula_sum   'Sr11 Hg6 Sb12'
_cell_volume   966.49276908
_cell_formula_units_Z   1
loop_
 _symmetry_equiv_pos_site_id
 _symmetry_equiv_pos_as_xyz
  1  'x, y, z'
loop_
 _atom_site_type_symbol
 _atom_site_label
 _atom_site_symmetry_multiplicity
 _atom_site_fract_x
 _atom_site_fract_y
 _atom_site_fract_z
 _atom_site_occupancy
  Sr  Sr0  1  0.000000  0.000000  0.000000  1
  Sr  Sr1  1  0.019296  0.681029  0.038591  1
  Sr  Sr2  1  0.113657  0.508969  0.227316  1
  Sr  Sr3  1  0.126185  0.014458  0.252368  1
  Sr  Sr4  1  0.201952  0.343726  0.403906  1
  Sr  Sr5  1  0.721922  0.863230  0.443845  1
  Sr  Sr6  1  0.278078  0.136770  0.556156  1
  Sr  Sr7  1  0.798048  0.656275  0.596094  1
  Sr  Sr8  1  0.873816  0.985543  0.747632  1
  Sr  Sr9  1  0.886343  0.491031  0.772685  1
  Sr  Sr10  1  0.980704  0.318970  0.961409  1
  Hg  Hg11  1  0.546450  0.241973  0.092899  1
  Hg  Hg12  1  0.599520  0.746353  0.199038  1
  Hg  Hg13  1  0.219740  0.665952  0.439481  1
  Hg  Hg14  1  0.780260  0.334047  0.560519  1
  Hg  Hg15  1  0.400481  0.253647  0.800962  1
  Hg  Hg16  1  0.453550  0.758027  0.907101  1
  Sb  Sb17  1  0.542862  0.500058  0.085723  1
  Sb  Sb18  1  0.547189  0.888217  0.094377  1
  Sb  Sb19  1  0.091278  0.234621  0.182557  1
  Sb  Sb20  1  0.150198  0.785948  0.300396  1
  Sb  Sb21  1  0.689978  0.526220  0.379955  1
  Sb  Sb22  1  0.704150  0.132229  0.408299  1
  Sb  Sb23  1  0.295850  0.867770  0.591700  1
  Sb  Sb24  1  0.310022  0.473779  0.620045  1
  Sb  Sb25  1  0.849802  0.214053  0.699604  1
  Sb  Sb26  1  0.908722  0.765380  0.817443  1
  Sb  Sb27  1  0.452812  0.111784  0.905622  1
  Sb  Sb28  1  0.457139  0.499942  0.914278  1
