# generated using pymatgen
data_Tb3Dy5(TmIr2)2
_symmetry_space_group_name_H-M   'P 1'
_cell_length_a   6.48724638
_cell_length_b   7.19868998
_cell_length_c   8.52284556
_cell_angle_alpha   96.54519925
_cell_angle_beta   112.36488745
_cell_angle_gamma   89.98490948
_symmetry_Int_Tables_number   1
_chemical_formula_structural   Tb3Dy5(TmIr2)2
_chemical_formula_sum   'Tb3 Dy5 Tm2 Ir4'
_cell_volume   365.27347165
_cell_formula_units_Z   1
loop_
 _symmetry_equiv_pos_site_id
 _symmetry_equiv_pos_as_xyz
  1  'x, y, z'
loop_
 _atom_site_type_symbol
 _atom_site_label
 _atom_site_symmetry_multiplicity
 _atom_site_fract_x
 _atom_site_fract_y
 _atom_site_fract_z
 _atom_site_occupancy
  Tb  Tb0  1  0.971056  0.918714  0.181959  1
  Tb  Tb1  1  0.789173  0.581229  0.818178  1
  Tb  Tb2  1  0.029095  0.081310  0.818189  1
  Dy  Dy3  1  0.210799  0.418620  0.181869  1
  Dy  Dy4  1  0.652795  0.816621  0.439786  1
  Dy  Dy5  1  0.212976  0.683240  0.560040  1
  Dy  Dy6  1  0.347163  0.183368  0.560089  1
  Dy  Dy7  1  0.786779  0.316746  0.439699  1
  Tm  Tm8  1  0.429339  0.749942  0.000047  1
  Tm  Tm9  1  0.570567  0.250071  0.000089  1
  Ir  Ir10  1  0.821691  0.572152  0.217359  1
  Ir  Ir11  1  0.603915  0.927622  0.782602  1
  Ir  Ir12  1  0.178745  0.427650  0.782743  1
  Ir  Ir13  1  0.395907  0.072716  0.217350  1
