# generated using pymatgen
data_Ho3ThNi2C5
_symmetry_space_group_name_H-M   'P 1'
_cell_length_a   3.69213500
_cell_length_b   3.71844400
_cell_length_c   11.62797900
_cell_angle_alpha   90.00000000
_cell_angle_beta   90.00000000
_cell_angle_gamma   90.00000000
_symmetry_Int_Tables_number   1
_chemical_formula_structural   Ho3ThNi2C5
_chemical_formula_sum   'Ho3 Th1 Ni2 C5'
_cell_volume   159.64049157
_cell_formula_units_Z   1
loop_
 _symmetry_equiv_pos_site_id
 _symmetry_equiv_pos_as_xyz
  1  'x, y, z'
loop_
 _atom_site_type_symbol
 _atom_site_label
 _atom_site_symmetry_multiplicity
 _atom_site_fract_x
 _atom_site_fract_y
 _atom_site_fract_z
 _atom_site_occupancy
  Ho  Ho0  1  0.500000  0.503168  0.210251  1
  Ho  Ho1  1  0.500000  0.503168  0.789749  1
  Ho  Ho2  1  0.500000  0.205106  0.500000  1
  Th  Th3  1  0.000000  0.997253  0.000000  1
  Ni  Ni4  1  0.000000  0.698626  0.386321  1
  Ni  Ni5  1  0.000000  0.698626  0.613679  1
  C  C6  1  0.000000  0.005043  0.232190  1
  C  C7  1  0.000000  0.005043  0.767810  1
  C  C8  1  0.000000  0.196852  0.335967  1
  C  C9  1  0.000000  0.196852  0.664033  1
  C  C10  1  0.500000  0.491762  0.000000  1
