# generated using pymatgen
data_Y20Cd3Hg3Ru2
_symmetry_space_group_name_H-M   'P 1'
_cell_length_a   9.65170600
_cell_length_b   9.65170549
_cell_length_c   9.81439300
_cell_angle_alpha   90.00000000
_cell_angle_beta   90.00000000
_cell_angle_gamma   120.00000174
_symmetry_Int_Tables_number   1
_chemical_formula_structural   Y20Cd3Hg3Ru2
_chemical_formula_sum   'Y20 Cd3 Hg3 Ru2'
_cell_volume   791.77578340
_cell_formula_units_Z   1
loop_
 _symmetry_equiv_pos_site_id
 _symmetry_equiv_pos_as_xyz
  1  'x, y, z'
loop_
 _atom_site_type_symbol
 _atom_site_label
 _atom_site_symmetry_multiplicity
 _atom_site_fract_x
 _atom_site_fract_y
 _atom_site_fract_z
 _atom_site_occupancy
  Y  Y0  1  0.000000  0.000000  0.491862  1
  Y  Y1  1  0.000000  0.000000  0.008138  1
  Y  Y2  1  0.209371  0.790629  0.439121  1
  Y  Y3  1  0.209371  0.418743  0.439121  1
  Y  Y4  1  0.581257  0.790629  0.439121  1
  Y  Y5  1  0.790407  0.209593  0.559690  1
  Y  Y6  1  0.790407  0.580814  0.559690  1
  Y  Y7  1  0.419186  0.209593  0.559690  1
  Y  Y8  1  0.790407  0.209593  0.940310  1
  Y  Y9  1  0.790407  0.580814  0.940310  1
  Y  Y10  1  0.419186  0.209593  0.940310  1
  Y  Y11  1  0.209371  0.790629  0.060879  1
  Y  Y12  1  0.209371  0.418743  0.060879  1
  Y  Y13  1  0.581257  0.790629  0.060879  1
  Y  Y14  1  0.541351  0.458649  0.250000  1
  Y  Y15  1  0.541351  0.082703  0.250000  1
  Y  Y16  1  0.917297  0.458649  0.250000  1
  Y  Y17  1  0.458762  0.541238  0.750000  1
  Y  Y18  1  0.458762  0.917524  0.750000  1
  Y  Y19  1  0.082476  0.541238  0.750000  1
  Cd  Cd20  1  0.113596  0.886404  0.750000  1
  Cd  Cd21  1  0.113596  0.227192  0.750000  1
  Cd  Cd22  1  0.772808  0.886404  0.750000  1
  Hg  Hg23  1  0.879915  0.120085  0.250000  1
  Hg  Hg24  1  0.879915  0.759831  0.250000  1
  Hg  Hg25  1  0.240169  0.120085  0.250000  1
  Ru  Ru26  1  0.333333  0.666667  0.250000  1
  Ru  Ru27  1  0.666667  0.333333  0.750000  1
