# generated using pymatgen
data_Tb16YHo3Pb16
_symmetry_space_group_name_H-M   'P 1'
_cell_length_a   8.22704703
_cell_length_b   15.71109600
_cell_length_c   8.31489500
_cell_angle_alpha   90.00005433
_cell_angle_beta   90.00505279
_cell_angle_gamma   89.99705309
_symmetry_Int_Tables_number   1
_chemical_formula_structural   Tb16YHo3Pb16
_chemical_formula_sum   'Tb16 Y1 Ho3 Pb16'
_cell_volume   1074.74944515
_cell_formula_units_Z   1
loop_
 _symmetry_equiv_pos_site_id
 _symmetry_equiv_pos_as_xyz
  1  'x, y, z'
loop_
 _atom_site_type_symbol
 _atom_site_label
 _atom_site_symmetry_multiplicity
 _atom_site_fract_x
 _atom_site_fract_y
 _atom_site_fract_z
 _atom_site_occupancy
  Tb  Tb0  1  0.622797  0.620358  0.159184  1
  Tb  Tb1  1  0.123147  0.879658  0.340521  1
  Tb  Tb2  1  0.377077  0.120437  0.840668  1
  Tb  Tb3  1  0.877087  0.379529  0.659367  1
  Tb  Tb4  1  0.377075  0.379575  0.840669  1
  Tb  Tb5  1  0.877091  0.120480  0.659369  1
  Tb  Tb6  1  0.622801  0.879636  0.159187  1
  Tb  Tb7  1  0.123145  0.620335  0.340519  1
  Tb  Tb8  1  0.466060  0.600132  0.676841  1
  Tb  Tb9  1  0.966295  0.899857  0.823416  1
  Tb  Tb10  1  0.533803  0.100210  0.323258  1
  Tb  Tb11  1  0.033816  0.399809  0.176744  1
  Tb  Tb12  1  0.533802  0.399800  0.323250  1
  Tb  Tb13  1  0.033813  0.100198  0.176741  1
  Tb  Tb14  1  0.466061  0.899860  0.676835  1
  Tb  Tb15  1  0.966296  0.600133  0.823413  1
  Y  Y16  1  0.791199  0.749990  0.496663  1
  Ho  Ho17  1  0.291070  0.750000  0.003460  1
  Ho  Ho18  1  0.208871  0.250006  0.503435  1
  Ho  Ho19  1  0.708865  0.249999  0.996559  1
  Pb  Pb20  1  0.718903  0.457128  0.967173  1
  Pb  Pb21  1  0.218870  0.042874  0.532825  1
  Pb  Pb22  1  0.281111  0.957151  0.032779  1
  Pb  Pb23  1  0.781090  0.542610  0.467084  1
  Pb  Pb24  1  0.281118  0.542848  0.032778  1
  Pb  Pb25  1  0.781089  0.957387  0.467088  1
  Pb  Pb26  1  0.718909  0.042877  0.967172  1
  Pb  Pb27  1  0.218862  0.457131  0.532827  1
  Pb  Pb28  1  0.427433  0.749997  0.373077  1
  Pb  Pb29  1  0.928033  0.749998  0.126350  1
  Pb  Pb30  1  0.572130  0.250003  0.626751  1
  Pb  Pb31  1  0.072155  0.250000  0.873292  1
  Pb  Pb32  1  0.654139  0.749995  0.848544  1
  Pb  Pb33  1  0.154855  0.749996  0.652157  1
  Pb  Pb34  1  0.345550  0.250001  0.152032  1
  Pb  Pb35  1  0.845581  0.250003  0.347971  1
