# generated using pymatgen
data_SmErRe7Si4Mo
_symmetry_space_group_name_H-M   'P 1'
_cell_length_a   7.70398473
_cell_length_b   7.14558989
_cell_length_c   4.17608100
_cell_angle_alpha   90.00000000
_cell_angle_beta   90.00000000
_cell_angle_gamma   90.54435311
_symmetry_Int_Tables_number   1
_chemical_formula_structural   SmErRe7Si4Mo
_chemical_formula_sum   'Sm1 Er1 Re7 Si4 Mo1'
_cell_volume   229.88085992
_cell_formula_units_Z   1
loop_
 _symmetry_equiv_pos_site_id
 _symmetry_equiv_pos_as_xyz
  1  'x, y, z'
loop_
 _atom_site_type_symbol
 _atom_site_label
 _atom_site_symmetry_multiplicity
 _atom_site_fract_x
 _atom_site_fract_y
 _atom_site_fract_z
 _atom_site_occupancy
  Sm  Sm0  1  0.000094  0.001090  0.500000  1
  Er  Er1  1  0.501086  0.499095  0.000000  1
  Re  Re2  1  0.604789  0.155502  0.500000  1
  Re  Re3  1  0.396575  0.842813  0.500000  1
  Re  Re4  1  0.892322  0.655333  0.000000  1
  Re  Re5  1  0.160370  0.581296  0.500000  1
  Re  Re6  1  0.835477  0.420319  0.500000  1
  Re  Re7  1  0.344246  0.082732  0.000000  1
  Re  Re8  1  0.657997  0.914815  0.000000  1
  Si  Si9  1  0.692652  0.721625  0.500000  1
  Si  Si10  1  0.308762  0.278018  0.500000  1
  Si  Si11  1  0.196382  0.774348  0.000000  1
  Si  Si12  1  0.801693  0.223968  0.000000  1
  Mo  Mo13  1  0.107554  0.349046  0.000000  1
