# generated using pymatgen
data_Gd2Ho2ReB12Ru
_symmetry_space_group_name_H-M   'P 1'
_cell_length_a   3.67973700
_cell_length_b   9.17234073
_cell_length_c   11.57506775
_cell_angle_alpha   89.78804848
_cell_angle_beta   90.00000000
_cell_angle_gamma   90.00000000
_symmetry_Int_Tables_number   1
_chemical_formula_structural   Gd2Ho2ReB12Ru
_chemical_formula_sum   'Gd4 Ho4 Re2 B24 Ru2'
_cell_volume   390.67671661
_cell_formula_units_Z   2
loop_
 _symmetry_equiv_pos_site_id
 _symmetry_equiv_pos_as_xyz
  1  'x, y, z'
loop_
 _atom_site_type_symbol
 _atom_site_label
 _atom_site_symmetry_multiplicity
 _atom_site_fract_x
 _atom_site_fract_y
 _atom_site_fract_z
 _atom_site_occupancy
  Gd  Gd0  1  0.000000  0.324907  0.415110  1
  Gd  Gd1  1  0.000000  0.675093  0.584890  1
  Gd  Gd2  1  0.000000  0.821964  0.087444  1
  Gd  Gd3  1  0.000000  0.178036  0.912556  1
  Ho  Ho4  1  0.000000  0.943233  0.370870  1
  Ho  Ho5  1  0.000000  0.056767  0.629130  1
  Ho  Ho6  1  0.000000  0.443194  0.129455  1
  Ho  Ho7  1  0.000000  0.556806  0.870545  1
  Re  Re8  1  0.000000  0.639064  0.319927  1
  Re  Re9  1  0.000000  0.360936  0.680073  1
  B  B10  1  0.500000  0.553611  0.432320  1
  B  B11  1  0.500000  0.446389  0.567680  1
  B  B12  1  0.500000  0.054372  0.067836  1
  B  B13  1  0.500000  0.945628  0.932164  1
  B  B14  1  0.500000  0.748898  0.418466  1
  B  B15  1  0.500000  0.251102  0.581534  1
  B  B16  1  0.500000  0.248593  0.081703  1
  B  B17  1  0.500000  0.751407  0.918297  1
  B  B18  1  0.500000  0.791958  0.265786  1
  B  B19  1  0.500000  0.208042  0.734214  1
  B  B20  1  0.500000  0.290792  0.233712  1
  B  B21  1  0.500000  0.709208  0.766288  1
  B  B22  1  0.500000  0.631528  0.185257  1
  B  B23  1  0.500000  0.368472  0.814743  1
  B  B24  1  0.500000  0.131220  0.313828  1
  B  B25  1  0.500000  0.868780  0.686172  1
  B  B26  1  0.500000  0.984192  0.212402  1
  B  B27  1  0.500000  0.015808  0.787598  1
  B  B28  1  0.500000  0.483494  0.287082  1
  B  B29  1  0.500000  0.516506  0.712918  1
  B  B30  1  0.500000  0.602923  0.028269  1
  B  B31  1  0.500000  0.397077  0.971731  1
  B  B32  1  0.500000  0.102612  0.471476  1
  B  B33  1  0.500000  0.897388  0.528524  1
  Ru  Ru34  1  0.000000  0.138575  0.179140  1
  Ru  Ru35  1  0.000000  0.861425  0.820860  1
