# generated using pymatgen
data_Sc3Pa(TcB6)2
_symmetry_space_group_name_H-M   'P 1'
_cell_length_a   3.58492100
_cell_length_b   8.95719908
_cell_length_c   11.28957250
_cell_angle_alpha   90.16875032
_cell_angle_beta   90.00000000
_cell_angle_gamma   90.00000000
_symmetry_Int_Tables_number   1
_chemical_formula_structural   Sc3Pa(TcB6)2
_chemical_formula_sum   'Sc6 Pa2 Tc4 B24'
_cell_volume   362.51620916
_cell_formula_units_Z   2
loop_
 _symmetry_equiv_pos_site_id
 _symmetry_equiv_pos_as_xyz
  1  'x, y, z'
loop_
 _atom_site_type_symbol
 _atom_site_label
 _atom_site_symmetry_multiplicity
 _atom_site_fract_x
 _atom_site_fract_y
 _atom_site_fract_z
 _atom_site_occupancy
  Sc  Sc0  1  0.000000  0.822166  0.084634  1
  Sc  Sc1  1  0.000000  0.177834  0.915366  1
  Sc  Sc2  1  0.000000  0.945130  0.371050  1
  Sc  Sc3  1  0.000000  0.054870  0.628950  1
  Sc  Sc4  1  0.000000  0.443815  0.125157  1
  Sc  Sc5  1  0.000000  0.556185  0.874843  1
  Pa  Pa6  1  0.000000  0.319800  0.413053  1
  Pa  Pa7  1  0.000000  0.680200  0.586947  1
  Tc  Tc8  1  0.000000  0.639537  0.319096  1
  Tc  Tc9  1  0.000000  0.360463  0.680904  1
  Tc  Tc10  1  0.000000  0.140318  0.179735  1
  Tc  Tc11  1  0.000000  0.859682  0.820265  1
  B  B12  1  0.500000  0.554686  0.432084  1
  B  B13  1  0.500000  0.445314  0.567916  1
  B  B14  1  0.500000  0.053512  0.064526  1
  B  B15  1  0.500000  0.946488  0.935474  1
  B  B16  1  0.500000  0.754287  0.417482  1
  B  B17  1  0.500000  0.245713  0.582518  1
  B  B18  1  0.500000  0.251673  0.077211  1
  B  B19  1  0.500000  0.748327  0.922789  1
  B  B20  1  0.500000  0.795120  0.262045  1
  B  B21  1  0.500000  0.204880  0.737955  1
  B  B22  1  0.500000  0.293771  0.232458  1
  B  B23  1  0.500000  0.706229  0.767542  1
  B  B24  1  0.500000  0.630910  0.180799  1
  B  B25  1  0.500000  0.369090  0.819201  1
  B  B26  1  0.500000  0.128595  0.315037  1
  B  B27  1  0.500000  0.871405  0.684963  1
  B  B28  1  0.500000  0.979530  0.210600  1
  B  B29  1  0.500000  0.020470  0.789400  1
  B  B30  1  0.500000  0.482005  0.283883  1
  B  B31  1  0.500000  0.517995  0.716117  1
  B  B32  1  0.500000  0.600257  0.027463  1
  B  B33  1  0.500000  0.399743  0.972537  1
  B  B34  1  0.500000  0.099649  0.472505  1
  B  B35  1  0.500000  0.900351  0.527495  1
