# generated using pymatgen
data_Dy2Y(CdGa)3
_symmetry_space_group_name_H-M   'P 1'
_cell_length_a   7.27307220
_cell_length_b   7.27307207
_cell_length_c   4.40704000
_cell_angle_alpha   90.00000000
_cell_angle_beta   90.00000000
_cell_angle_gamma   120.02669011
_symmetry_Int_Tables_number   1
_chemical_formula_structural   Dy2Y(CdGa)3
_chemical_formula_sum   'Dy2 Y1 Cd3 Ga3'
_cell_volume   201.83503249
_cell_formula_units_Z   1
loop_
 _symmetry_equiv_pos_site_id
 _symmetry_equiv_pos_as_xyz
  1  'x, y, z'
loop_
 _atom_site_type_symbol
 _atom_site_label
 _atom_site_symmetry_multiplicity
 _atom_site_fract_x
 _atom_site_fract_y
 _atom_site_fract_z
 _atom_site_occupancy
  Dy  Dy0  1  0.576519  0.999952  0.500000  1
  Dy  Dy1  1  0.999952  0.576519  0.500000  1
  Y  Y2  1  0.423495  0.423495  0.500000  1
  Cd  Cd3  1  0.751276  0.751276  0.000000  1
  Cd  Cd4  1  0.248812  0.999903  0.000000  1
  Cd  Cd5  1  0.999903  0.248812  0.000000  1
  Ga  Ga6  1  0.666977  0.333332  0.000000  1
  Ga  Ga7  1  0.333332  0.666977  0.000000  1
  Ga  Ga8  1  0.999735  0.999735  0.500000  1
