# generated using pymatgen
data_Nd2DyY3PtI10
_symmetry_space_group_name_H-M   'P 1'
_cell_length_a   7.81333098
_cell_length_b   9.85101266
_cell_length_c   9.99425782
_cell_angle_alpha   107.16959689
_cell_angle_beta   96.33983309
_cell_angle_gamma   105.06204678
_symmetry_Int_Tables_number   1
_chemical_formula_structural   Nd2DyY3PtI10
_chemical_formula_sum   'Nd2 Dy1 Y3 Pt1 I10'
_cell_volume   694.96590113
_cell_formula_units_Z   1
loop_
 _symmetry_equiv_pos_site_id
 _symmetry_equiv_pos_as_xyz
  1  'x, y, z'
loop_
 _atom_site_type_symbol
 _atom_site_label
 _atom_site_symmetry_multiplicity
 _atom_site_fract_x
 _atom_site_fract_y
 _atom_site_fract_z
 _atom_site_occupancy
  Nd  Nd0  1  0.880090  0.956705  0.244709  1
  Nd  Nd1  1  0.120191  0.043729  0.755622  1
  Dy  Dy2  1  0.345064  0.124486  0.160965  1
  Y  Y3  1  0.652234  0.874435  0.837956  1
  Y  Y4  1  0.970898  0.286611  0.086790  1
  Y  Y5  1  0.028960  0.713518  0.913407  1
  Pt  Pt6  1  0.000084  0.000280  0.000160  1
  I  I7  1  0.351059  0.448409  0.268644  1
  I  I8  1  0.650054  0.550764  0.731216  1
  I  I9  1  0.917622  0.622963  0.173823  1
  I  I10  1  0.082351  0.377140  0.826396  1
  I  I11  1  0.447989  0.818178  0.088324  1
  I  I12  1  0.552119  0.182592  0.912927  1
  I  I13  1  0.266970  0.087285  0.453613  1
  I  I14  1  0.734488  0.913195  0.545965  1
  I  I15  1  0.770956  0.259993  0.338658  1
  I  I16  1  0.228868  0.739718  0.660824  1
