# generated using pymatgen
data_Tm7Th(InNi)2
_symmetry_space_group_name_H-M   'P 1'
_cell_length_a   9.51710278
_cell_length_b   9.51710292
_cell_length_c   9.58695500
_cell_angle_alpha   59.75691179
_cell_angle_beta   59.75691128
_cell_angle_gamma   60.03549907
_symmetry_Int_Tables_number   1
_chemical_formula_structural   Tm7Th(InNi)2
_chemical_formula_sum   'Tm14 Th2 In4 Ni4'
_cell_volume   611.90668733
_cell_formula_units_Z   2
loop_
 _symmetry_equiv_pos_site_id
 _symmetry_equiv_pos_as_xyz
  1  'x, y, z'
loop_
 _atom_site_type_symbol
 _atom_site_label
 _atom_site_symmetry_multiplicity
 _atom_site_fract_x
 _atom_site_fract_y
 _atom_site_fract_z
 _atom_site_occupancy
  Tm  Tm0  1  0.347898  0.951260  0.350421  1
  Tm  Tm1  1  0.951260  0.347898  0.350421  1
  Tm  Tm2  1  0.813355  0.189487  0.186769  1
  Tm  Tm3  1  0.189487  0.813355  0.810389  1
  Tm  Tm4  1  0.189487  0.813355  0.186769  1
  Tm  Tm5  1  0.813355  0.189487  0.810389  1
  Tm  Tm6  1  0.187260  0.187260  0.812740  1
  Tm  Tm7  1  0.811832  0.811832  0.188168  1
  Tm  Tm8  1  0.936841  0.562716  0.564448  1
  Tm  Tm9  1  0.562716  0.936841  0.935995  1
  Tm  Tm10  1  0.562716  0.936841  0.564448  1
  Tm  Tm11  1  0.936841  0.562716  0.935995  1
  Tm  Tm12  1  0.562309  0.562309  0.937691  1
  Tm  Tm13  1  0.937034  0.937034  0.562966  1
  Th  Th14  1  0.343505  0.343505  0.351231  1
  Th  Th15  1  0.343505  0.343505  0.961757  1
  In  In16  1  0.585511  0.585511  0.581992  1
  In  In17  1  0.585511  0.585511  0.246985  1
  In  In18  1  0.587025  0.249901  0.581537  1
  In  In19  1  0.249901  0.587025  0.581537  1
  Ni  Ni20  1  0.142302  0.142302  0.141724  1
  Ni  Ni21  1  0.142302  0.142302  0.573673  1
  Ni  Ni22  1  0.144474  0.573572  0.140978  1
  Ni  Ni23  1  0.573572  0.144474  0.140978  1
