# generated using pymatgen
data_Ti10CuSn3GeSb3
_symmetry_space_group_name_H-M   'P 1'
_cell_length_a   8.23187900
_cell_length_b   8.23188033
_cell_length_c   5.52372600
_cell_angle_alpha   90.00000000
_cell_angle_beta   90.00000000
_cell_angle_gamma   120.00000673
_symmetry_Int_Tables_number   1
_chemical_formula_structural   Ti10CuSn3GeSb3
_chemical_formula_sum   'Ti10 Cu1 Sn3 Ge1 Sb3'
_cell_volume   324.16099451
_cell_formula_units_Z   1
loop_
 _symmetry_equiv_pos_site_id
 _symmetry_equiv_pos_as_xyz
  1  'x, y, z'
loop_
 _atom_site_type_symbol
 _atom_site_label
 _atom_site_symmetry_multiplicity
 _atom_site_fract_x
 _atom_site_fract_y
 _atom_site_fract_z
 _atom_site_occupancy
  Ti  Ti0  1  0.666667  0.333333  0.499277  1
  Ti  Ti1  1  0.333333  0.666667  0.499277  1
  Ti  Ti2  1  0.333333  0.666667  0.000995  1
  Ti  Ti3  1  0.666667  0.333333  0.000995  1
  Ti  Ti4  1  0.731526  0.731526  0.248493  1
  Ti  Ti5  1  0.268474  0.000000  0.248493  1
  Ti  Ti6  1  0.000000  0.268474  0.248493  1
  Ti  Ti7  1  0.264976  0.264976  0.751900  1
  Ti  Ti8  1  0.735024  0.000000  0.751900  1
  Ti  Ti9  1  0.000000  0.735024  0.751900  1
  Cu  Cu10  1  0.000000  0.000000  0.495267  1
  Sn  Sn11  1  0.385662  0.385662  0.252977  1
  Sn  Sn12  1  0.614338  0.000000  0.252977  1
  Sn  Sn13  1  0.000000  0.614338  0.252977  1
  Ge  Ge14  1  0.000000  0.000000  0.003939  1
  Sb  Sb15  1  0.610474  0.610474  0.746713  1
  Sb  Sb16  1  0.389526  0.000000  0.746713  1
  Sb  Sb17  1  0.000000  0.389526  0.746713  1
