# generated using pymatgen
data_Sc4Cr7Si10Os
_symmetry_space_group_name_H-M   'P 1'
_cell_length_a   4.91426658
_cell_length_b   7.56765204
_cell_length_c   9.25398443
_cell_angle_alpha   114.14774333
_cell_angle_beta   105.39795865
_cell_angle_gamma   89.99999479
_symmetry_Int_Tables_number   1
_chemical_formula_structural   Sc4Cr7Si10Os
_chemical_formula_sum   'Sc4 Cr7 Si10 Os1'
_cell_volume   300.44626176
_cell_formula_units_Z   1
loop_
 _symmetry_equiv_pos_site_id
 _symmetry_equiv_pos_as_xyz
  1  'x, y, z'
loop_
 _atom_site_type_symbol
 _atom_site_label
 _atom_site_symmetry_multiplicity
 _atom_site_fract_x
 _atom_site_fract_y
 _atom_site_fract_z
 _atom_site_occupancy
  Sc  Sc0  1  0.143667  0.022540  0.287334  1
  Sc  Sc1  1  0.642297  0.260035  0.284597  1
  Sc  Sc2  1  0.357665  0.739215  0.715332  1
  Sc  Sc3  1  0.857957  0.977226  0.715916  1
  Cr  Cr4  1  0.561984  0.809682  0.123969  1
  Cr  Cr5  1  0.443550  0.691261  0.381996  1
  Cr  Cr6  1  0.938445  0.691261  0.381996  1
  Cr  Cr7  1  0.060564  0.309502  0.617049  1
  Cr  Cr8  1  0.556484  0.309502  0.617049  1
  Cr  Cr9  1  0.437100  0.190870  0.874200  1
  Cr  Cr10  1  0.938839  0.684775  0.877681  1
  Si  Si11  1  0.251308  0.995615  0.998006  1
  Si  Si12  1  0.746698  0.995615  0.998006  1
  Si  Si13  1  0.563658  0.488292  0.127318  1
  Si  Si14  1  0.064089  0.644944  0.128178  1
  Si  Si15  1  0.711099  0.003177  0.422199  1
  Si  Si16  1  0.213484  0.421290  0.426968  1
  Si  Si17  1  0.789352  0.580945  0.578706  1
  Si  Si18  1  0.289281  0.996853  0.578563  1
  Si  Si19  1  0.933817  0.359750  0.867637  1
  Si  Si20  1  0.436016  0.513223  0.872032  1
  Os  Os21  1  0.062633  0.314423  0.125267  1
