# generated using pymatgen
data_P2Ru(O3F)2
_symmetry_space_group_name_H-M   'P 1'
_cell_length_a   5.06186325
_cell_length_b   5.06093198
_cell_length_c   6.77286015
_cell_angle_alpha   90.08955267
_cell_angle_beta   89.93868326
_cell_angle_gamma   119.95340914
_symmetry_Int_Tables_number   1
_chemical_formula_structural   P2Ru(O3F)2
_chemical_formula_sum   'P2 Ru1 O6 F2'
_cell_volume   150.33039385
_cell_formula_units_Z   1
loop_
 _symmetry_equiv_pos_site_id
 _symmetry_equiv_pos_as_xyz
  1  'x, y, z'
loop_
 _atom_site_type_symbol
 _atom_site_label
 _atom_site_symmetry_multiplicity
 _atom_site_fract_x
 _atom_site_fract_y
 _atom_site_fract_z
 _atom_site_occupancy
  P  P0  1  0.333434  0.666775  0.227728  1
  P  P1  1  0.666567  0.333225  0.772273  1
  Ru  Ru2  1  0.000000  0.000000  0.000000  1
  O  O3  1  0.278065  0.350456  0.170996  1
  O  O4  1  0.072750  0.722398  0.170958  1
  O  O5  1  0.649583  0.927474  0.171152  1
  O  O6  1  0.350417  0.072526  0.828848  1
  O  O7  1  0.927249  0.277602  0.829042  1
  O  O8  1  0.721935  0.649544  0.829004  1
  F  F9  1  0.666667  0.333061  0.541628  1
  F  F10  1  0.333334  0.666939  0.458373  1
