# generated using pymatgen
data_MgTi3GaPt11
_symmetry_space_group_name_H-M   'P 1'
_cell_length_a   5.64583000
_cell_length_b   5.56385410
_cell_length_c   9.11246400
_cell_angle_alpha   90.00000000
_cell_angle_beta   90.00000000
_cell_angle_gamma   120.48859400
_symmetry_Int_Tables_number   1
_chemical_formula_structural   MgTi3GaPt11
_chemical_formula_sum   'Mg1 Ti3 Ga1 Pt11'
_cell_volume   246.66677712
_cell_formula_units_Z   1
loop_
 _symmetry_equiv_pos_site_id
 _symmetry_equiv_pos_as_xyz
  1  'x, y, z'
loop_
 _atom_site_type_symbol
 _atom_site_label
 _atom_site_symmetry_multiplicity
 _atom_site_fract_x
 _atom_site_fract_y
 _atom_site_fract_z
 _atom_site_occupancy
  Mg  Mg0  1  0.328327  0.656655  0.250000  1
  Ti  Ti1  1  0.007176  0.014352  0.507116  1
  Ti  Ti2  1  0.007176  0.014352  0.992884  1
  Ti  Ti3  1  0.668383  0.336765  0.750000  1
  Ga  Ga4  1  0.817659  0.635320  0.250000  1
  Pt  Pt5  1  0.508111  0.507174  0.498627  1
  Pt  Pt6  1  0.503480  0.006960  0.503406  1
  Pt  Pt7  1  0.999062  0.507174  0.498627  1
  Pt  Pt8  1  0.508111  0.507174  0.001373  1
  Pt  Pt9  1  0.503480  0.006960  0.996594  1
  Pt  Pt10  1  0.999062  0.507174  0.001373  1
  Pt  Pt11  1  0.318852  0.146648  0.250000  1
  Pt  Pt12  1  0.827795  0.146648  0.250000  1
  Pt  Pt13  1  0.168039  0.336078  0.750000  1
  Pt  Pt14  1  0.667670  0.835284  0.750000  1
  Pt  Pt15  1  0.167615  0.835284  0.750000  1
