# generated using pymatgen
data_Y8Tm4Co4SnRu
_symmetry_space_group_name_H-M   'P 1'
_cell_length_a   8.27367452
_cell_length_b   8.27367486
_cell_length_c   8.27367356
_cell_angle_alpha   111.36712015
_cell_angle_beta   110.51246392
_cell_angle_gamma   106.57357881
_symmetry_Int_Tables_number   1
_chemical_formula_structural   Y8Tm4Co4SnRu
_chemical_formula_sum   'Y8 Tm4 Co4 Sn1 Ru1'
_cell_volume   435.13030464
_cell_formula_units_Z   1
loop_
 _symmetry_equiv_pos_site_id
 _symmetry_equiv_pos_as_xyz
  1  'x, y, z'
loop_
 _atom_site_type_symbol
 _atom_site_label
 _atom_site_symmetry_multiplicity
 _atom_site_fract_x
 _atom_site_fract_y
 _atom_site_fract_z
 _atom_site_occupancy
  Y  Y0  1  0.412356  0.218651  0.193705  1
  Y  Y1  1  0.587644  0.781349  0.806295  1
  Y  Y2  1  0.024946  0.218651  0.806295  1
  Y  Y3  1  0.975054  0.781349  0.193705  1
  Y  Y4  1  0.184422  0.284160  0.468582  1
  Y  Y5  1  0.815578  0.715840  0.531418  1
  Y  Y6  1  0.184422  0.715840  0.900262  1
  Y  Y7  1  0.815578  0.284160  0.099738  1
  Tm  Tm8  1  0.314133  0.623532  0.309397  1
  Tm  Tm9  1  0.685867  0.376468  0.690603  1
  Tm  Tm10  1  0.314133  0.004737  0.690603  1
  Tm  Tm11  1  0.685867  0.995263  0.309397  1
  Co  Co12  1  0.379067  0.000000  0.379067  1
  Co  Co13  1  0.620933  0.000000  0.620933  1
  Co  Co14  1  0.111829  0.611829  0.500000  1
  Co  Co15  1  0.888171  0.388171  0.500000  1
  Sn  Sn16  1  0.500000  0.500000  0.000000  1
  Ru  Ru17  1  0.000000  0.000000  0.000000  1
