# generated using pymatgen
data_Th3Mn2Al3Pd
_symmetry_space_group_name_H-M   'P 1'
_cell_length_a   7.04496400
_cell_length_b   7.04496418
_cell_length_c   4.26178500
_cell_angle_alpha   90.00000000
_cell_angle_beta   90.00000000
_cell_angle_gamma   119.99999916
_symmetry_Int_Tables_number   1
_chemical_formula_structural   Th3Mn2Al3Pd
_chemical_formula_sum   'Th3 Mn2 Al3 Pd1'
_cell_volume   183.18071056
_cell_formula_units_Z   1
loop_
 _symmetry_equiv_pos_site_id
 _symmetry_equiv_pos_as_xyz
  1  'x, y, z'
loop_
 _atom_site_type_symbol
 _atom_site_label
 _atom_site_symmetry_multiplicity
 _atom_site_fract_x
 _atom_site_fract_y
 _atom_site_fract_z
 _atom_site_occupancy
  Th  Th0  1  0.431133  0.431133  0.500000  1
  Th  Th1  1  0.568867  0.000000  0.500000  1
  Th  Th2  1  0.000000  0.568867  0.500000  1
  Mn  Mn3  1  0.666667  0.333333  0.000000  1
  Mn  Mn4  1  0.333333  0.666667  0.000000  1
  Al  Al5  1  0.764927  0.764927  0.000000  1
  Al  Al6  1  0.235073  0.000000  0.000000  1
  Al  Al7  1  0.000000  0.235073  0.000000  1
  Pd  Pd8  1  0.000000  0.000000  0.500000  1
