# generated using pymatgen
data_Zn2FeNi5B4
_symmetry_space_group_name_H-M   'P 1'
_cell_length_a   2.88975500
_cell_length_b   4.95012352
_cell_length_c   8.41364771
_cell_angle_alpha   100.55378350
_cell_angle_beta   90.00000000
_cell_angle_gamma   106.97097747
_symmetry_Int_Tables_number   1
_chemical_formula_structural   Zn2FeNi5B4
_chemical_formula_sum   'Zn2 Fe1 Ni5 B4'
_cell_volume   112.98274844
_cell_formula_units_Z   1
loop_
 _symmetry_equiv_pos_site_id
 _symmetry_equiv_pos_as_xyz
  1  'x, y, z'
loop_
 _atom_site_type_symbol
 _atom_site_label
 _atom_site_symmetry_multiplicity
 _atom_site_fract_x
 _atom_site_fract_y
 _atom_site_fract_z
 _atom_site_occupancy
  Zn  Zn0  1  0.862313  0.724627  0.475934  1
  Zn  Zn1  1  0.138452  0.276905  0.525434  1
  Fe  Fe2  1  0.635302  0.270606  0.001910  1
  Ni  Ni3  1  0.219719  0.439438  0.253863  1
  Ni  Ni4  1  0.495591  0.991182  0.286845  1
  Ni  Ni5  1  0.503061  0.006123  0.709663  1
  Ni  Ni6  1  0.780683  0.561367  0.750318  1
  Ni  Ni7  1  0.363967  0.727933  0.996817  1
  B  B8  1  0.017166  0.034332  0.111363  1
  B  B9  1  0.840800  0.681601  0.181062  1
  B  B10  1  0.155924  0.311850  0.818800  1
  B  B11  1  0.987018  0.974036  0.887995  1
