# generated using pymatgen
data_Tm6Al24Fe2IrRu5
_symmetry_space_group_name_H-M   'P 1'
_cell_length_a   8.73869270
_cell_length_b   8.73869181
_cell_length_c   9.49829191
_cell_angle_alpha   89.94139371
_cell_angle_beta   90.05860577
_cell_angle_gamma   120.03924139
_symmetry_Int_Tables_number   1
_chemical_formula_structural   Tm6Al24Fe2IrRu5
_chemical_formula_sum   'Tm6 Al24 Fe2 Ir1 Ru5'
_cell_volume   627.90922897
_cell_formula_units_Z   1
loop_
 _symmetry_equiv_pos_site_id
 _symmetry_equiv_pos_as_xyz
  1  'x, y, z'
loop_
 _atom_site_type_symbol
 _atom_site_label
 _atom_site_symmetry_multiplicity
 _atom_site_fract_x
 _atom_site_fract_y
 _atom_site_fract_z
 _atom_site_occupancy
  Tm  Tm0  1  0.805777  0.194223  0.749951  1
  Tm  Tm1  1  0.194223  0.805777  0.250049  1
  Tm  Tm2  1  0.387888  0.193344  0.749408  1
  Tm  Tm3  1  0.612112  0.806656  0.250592  1
  Tm  Tm4  1  0.806656  0.612112  0.749408  1
  Tm  Tm5  1  0.193344  0.387888  0.250592  1
  Al  Al6  1  0.667699  0.332301  0.980586  1
  Al  Al7  1  0.332301  0.667699  0.019414  1
  Al  Al8  1  0.333281  0.666719  0.480903  1
  Al  Al9  1  0.666719  0.333281  0.519097  1
  Al  Al10  1  0.840191  0.159809  0.423795  1
  Al  Al11  1  0.159809  0.840191  0.576205  1
  Al  Al12  1  0.319277  0.159715  0.423365  1
  Al  Al13  1  0.159373  0.840627  0.923186  1
  Al  Al14  1  0.680723  0.840285  0.576635  1
  Al  Al15  1  0.840627  0.159373  0.076814  1
  Al  Al16  1  0.840285  0.680723  0.423365  1
  Al  Al17  1  0.681344  0.841819  0.923687  1
  Al  Al18  1  0.159715  0.319277  0.576635  1
  Al  Al19  1  0.318656  0.158181  0.076313  1
  Al  Al20  1  0.158181  0.318656  0.923687  1
  Al  Al21  1  0.841819  0.681344  0.076313  1
  Al  Al22  1  0.438062  0.561938  0.748739  1
  Al  Al23  1  0.561938  0.438062  0.251261  1
  Al  Al24  1  0.123068  0.561144  0.750115  1
  Al  Al25  1  0.876932  0.438856  0.249885  1
  Al  Al26  1  0.438856  0.876932  0.750115  1
  Al  Al27  1  0.561144  0.123068  0.249885  1
  Al  Al28  1  0.000117  0.999883  0.750187  1
  Al  Al29  1  0.999883  0.000117  0.249813  1
  Fe  Fe30  1  0.000000  0.000000  0.000000  1
  Fe  Fe31  1  0.000000  0.000000  0.500000  1
  Ir  Ir32  1  0.500000  0.500000  0.000000  1
  Ru  Ru33  1  0.000000  0.500000  0.000000  1
  Ru  Ru34  1  0.500000  0.500000  0.500000  1
  Ru  Ru35  1  0.500000  0.000000  0.000000  1
  Ru  Ru36  1  0.000000  0.500000  0.500000  1
  Ru  Ru37  1  0.500000  0.000000  0.500000  1
