# generated using pymatgen
data_Tm3Co7P6IrRh
_symmetry_space_group_name_H-M   'P 1'
_cell_length_a   3.70490400
_cell_length_b   10.66390400
_cell_length_c   12.33749800
_cell_angle_alpha   90.00000000
_cell_angle_beta   90.00000000
_cell_angle_gamma   90.00000000
_symmetry_Int_Tables_number   1
_chemical_formula_structural   Tm3Co7P6IrRh
_chemical_formula_sum   'Tm6 Co14 P12 Ir2 Rh2'
_cell_volume   487.43900795
_cell_formula_units_Z   2
loop_
 _symmetry_equiv_pos_site_id
 _symmetry_equiv_pos_as_xyz
  1  'x, y, z'
loop_
 _atom_site_type_symbol
 _atom_site_label
 _atom_site_symmetry_multiplicity
 _atom_site_fract_x
 _atom_site_fract_y
 _atom_site_fract_z
 _atom_site_occupancy
  Tm  Tm0  1  0.000000  0.500000  0.520143  1
  Tm  Tm1  1  0.500000  0.000000  0.479857  1
  Tm  Tm2  1  0.500000  0.813648  0.205906  1
  Tm  Tm3  1  0.500000  0.186352  0.205906  1
  Tm  Tm4  1  0.000000  0.686352  0.794094  1
  Tm  Tm5  1  0.000000  0.313648  0.794094  1
  Co  Co6  1  0.000000  0.500000  0.987760  1
  Co  Co7  1  0.500000  0.000000  0.012240  1
  Co  Co8  1  0.500000  0.331718  0.993609  1
  Co  Co9  1  0.500000  0.668282  0.993609  1
  Co  Co10  1  0.000000  0.168282  0.006391  1
  Co  Co11  1  0.000000  0.831718  0.006391  1
  Co  Co12  1  0.500000  0.300024  0.429767  1
  Co  Co13  1  0.500000  0.699976  0.429767  1
  Co  Co14  1  0.000000  0.199976  0.570233  1
  Co  Co15  1  0.000000  0.800024  0.570233  1
  Co  Co16  1  0.500000  0.879475  0.709318  1
  Co  Co17  1  0.500000  0.120525  0.709318  1
  Co  Co18  1  0.000000  0.620525  0.290682  1
  Co  Co19  1  0.000000  0.379475  0.290682  1
  P  P20  1  0.500000  0.500000  0.889774  1
  P  P21  1  0.000000  0.000000  0.110226  1
  P  P22  1  0.500000  0.500000  0.351060  1
  P  P23  1  0.000000  0.000000  0.648940  1
  P  P24  1  0.500000  0.302928  0.613889  1
  P  P25  1  0.500000  0.697072  0.613889  1
  P  P26  1  0.000000  0.197072  0.386111  1
  P  P27  1  0.000000  0.802928  0.386111  1
  P  P28  1  0.500000  0.844171  0.893966  1
  P  P29  1  0.500000  0.155829  0.893966  1
  P  P30  1  0.000000  0.655829  0.106034  1
  P  P31  1  0.000000  0.344171  0.106034  1
  Ir  Ir32  1  0.500000  0.500000  0.702735  1
  Ir  Ir33  1  0.000000  0.000000  0.297265  1
  Rh  Rh34  1  0.500000  0.500000  0.160660  1
  Rh  Rh35  1  0.000000  0.000000  0.839340  1
