# generated using pymatgen
data_Dy3HoGaSi3Ni4
_symmetry_space_group_name_H-M   'P 1'
_cell_length_a   4.18978000
_cell_length_b   6.87004589
_cell_length_c   7.16835905
_cell_angle_alpha   90.09936420
_cell_angle_beta   90.00000000
_cell_angle_gamma   90.00000000
_symmetry_Int_Tables_number   1
_chemical_formula_structural   Dy3HoGaSi3Ni4
_chemical_formula_sum   'Dy3 Ho1 Ga1 Si3 Ni4'
_cell_volume   206.33359943
_cell_formula_units_Z   1
loop_
 _symmetry_equiv_pos_site_id
 _symmetry_equiv_pos_as_xyz
  1  'x, y, z'
loop_
 _atom_site_type_symbol
 _atom_site_label
 _atom_site_symmetry_multiplicity
 _atom_site_fract_x
 _atom_site_fract_y
 _atom_site_fract_z
 _atom_site_occupancy
  Dy  Dy0  1  0.250000  0.008774  0.797514  1
  Dy  Dy1  1  0.250000  0.511107  0.699201  1
  Dy  Dy2  1  0.750000  0.490063  0.302301  1
  Ho  Ho3  1  0.750000  0.985496  0.204028  1
  Ga  Ga4  1  0.750000  0.306793  0.913322  1
  Si  Si5  1  0.250000  0.188850  0.410751  1
  Si  Si6  1  0.250000  0.685353  0.085279  1
  Si  Si7  1  0.750000  0.808833  0.588245  1
  Ni  Ni8  1  0.250000  0.812049  0.415432  1
  Ni  Ni9  1  0.250000  0.316578  0.093546  1
  Ni  Ni10  1  0.750000  0.180761  0.574212  1
  Ni  Ni11  1  0.750000  0.705341  0.916170  1
