# generated using pymatgen
data_Lu4MgNi2Ag
_symmetry_space_group_name_H-M   'P 1'
_cell_length_a   8.36522795
_cell_length_b   8.36522924
_cell_length_c   8.36522821
_cell_angle_alpha   128.71662874
_cell_angle_beta   128.71663316
_cell_angle_gamma   75.46695764
_symmetry_Int_Tables_number   1
_chemical_formula_structural   Lu4MgNi2Ag
_chemical_formula_sum   'Lu8 Mg2 Ni4 Ag2'
_cell_volume   346.77992156
_cell_formula_units_Z   2
loop_
 _symmetry_equiv_pos_site_id
 _symmetry_equiv_pos_as_xyz
  1  'x, y, z'
loop_
 _atom_site_type_symbol
 _atom_site_label
 _atom_site_symmetry_multiplicity
 _atom_site_fract_x
 _atom_site_fract_y
 _atom_site_fract_z
 _atom_site_occupancy
  Lu  Lu0  1  0.800882  0.300882  0.838331  1
  Lu  Lu1  1  0.199118  0.699118  0.161669  1
  Lu  Lu2  1  0.462552  0.962552  0.161669  1
  Lu  Lu3  1  0.300882  0.462552  0.500000  1
  Lu  Lu4  1  0.037448  0.199118  0.500000  1
  Lu  Lu5  1  0.537448  0.037448  0.838331  1
  Lu  Lu6  1  0.699118  0.537448  0.500000  1
  Lu  Lu7  1  0.962552  0.800882  0.500000  1
  Mg  Mg8  1  0.000000  0.000000  0.000000  1
  Mg  Mg9  1  0.500000  0.500000  0.000000  1
  Ni  Ni10  1  0.127441  0.627441  0.754884  1
  Ni  Ni11  1  0.872559  0.372559  0.245116  1
  Ni  Ni12  1  0.627441  0.872559  0.500000  1
  Ni  Ni13  1  0.372559  0.127441  0.500000  1
  Ag  Ag14  1  0.250000  0.250000  0.000000  1
  Ag  Ag15  1  0.750000  0.750000  0.000000  1
