# generated using pymatgen
data_Al3ZnRh4
_symmetry_space_group_name_H-M   'P 1'
_cell_length_a   5.21178373
_cell_length_b   5.21178471
_cell_length_c   4.25624200
_cell_angle_alpha   90.00000000
_cell_angle_beta   90.00000000
_cell_angle_gamma   109.25973893
_symmetry_Int_Tables_number   1
_chemical_formula_structural   Al3ZnRh4
_chemical_formula_sum   'Al3 Zn1 Rh4'
_cell_volume   109.14059743
_cell_formula_units_Z   1
loop_
 _symmetry_equiv_pos_site_id
 _symmetry_equiv_pos_as_xyz
  1  'x, y, z'
loop_
 _atom_site_type_symbol
 _atom_site_label
 _atom_site_symmetry_multiplicity
 _atom_site_fract_x
 _atom_site_fract_y
 _atom_site_fract_z
 _atom_site_occupancy
  Al  Al0  1  0.000000  0.000000  0.000000  1
  Al  Al1  1  0.745859  0.254141  0.500000  1
  Al  Al2  1  0.254141  0.745859  0.500000  1
  Zn  Zn3  1  0.500000  0.500000  0.000000  1
  Rh  Rh4  1  0.500000  0.000000  0.000000  1
  Rh  Rh5  1  0.000000  0.500000  0.000000  1
  Rh  Rh6  1  0.756100  0.756100  0.500000  1
  Rh  Rh7  1  0.243900  0.243900  0.500000  1
