# generated using pymatgen
data_Mg5Si16IrPd8Rh
_symmetry_space_group_name_H-M   'P 1'
_cell_length_a   8.91142661
_cell_length_b   8.92768726
_cell_length_c   8.92222513
_cell_angle_alpha   59.91715387
_cell_angle_beta   60.04969666
_cell_angle_gamma   60.09712177
_symmetry_Int_Tables_number   1
_chemical_formula_structural   Mg5Si16IrPd8Rh
_chemical_formula_sum   'Mg5 Si16 Ir1 Pd8 Rh1'
_cell_volume   502.17139790
_cell_formula_units_Z   1
loop_
 _symmetry_equiv_pos_site_id
 _symmetry_equiv_pos_as_xyz
  1  'x, y, z'
loop_
 _atom_site_type_symbol
 _atom_site_label
 _atom_site_symmetry_multiplicity
 _atom_site_fract_x
 _atom_site_fract_y
 _atom_site_fract_z
 _atom_site_occupancy
  Mg  Mg0  1  0.196480  0.602107  0.600587  1
  Mg  Mg1  1  0.600578  0.600135  0.198654  1
  Mg  Mg2  1  0.600439  0.602206  0.600169  1
  Mg  Mg3  1  0.601491  0.195806  0.600174  1
  Mg  Mg4  1  0.250467  0.242440  0.257029  1
  Si  Si5  1  0.204576  0.663884  0.203962  1
  Si  Si6  1  0.927563  0.664377  0.203848  1
  Si  Si7  1  0.208188  0.198292  0.663432  1
  Si  Si8  1  0.660059  0.202646  0.211560  1
  Si  Si9  1  0.928994  0.199116  0.663259  1
  Si  Si10  1  0.205652  0.662443  0.926570  1
  Si  Si11  1  0.925254  0.202732  0.211396  1
  Si  Si12  1  0.662364  0.926740  0.210320  1
  Si  Si13  1  0.201050  0.926402  0.210266  1
  Si  Si14  1  0.208574  0.924555  0.658418  1
  Si  Si15  1  0.533256  0.827855  0.814308  1
  Si  Si16  1  0.825088  0.827331  0.816289  1
  Si  Si17  1  0.664635  0.203041  0.930114  1
  Si  Si18  1  0.820716  0.831643  0.525707  1
  Si  Si19  1  0.821501  0.540127  0.817940  1
  Si  Si20  1  0.201669  0.202296  0.930837  1
  Ir  Ir21  1  0.989076  0.988672  0.511177  1
  Pd  Pd22  1  0.986178  0.513701  0.986778  1
  Pd  Pd23  1  0.378850  0.376743  0.865140  1
  Pd  Pd24  1  0.376852  0.381939  0.379800  1
  Pd  Pd25  1  0.861694  0.382777  0.378977  1
  Pd  Pd26  1  0.986474  0.513815  0.513097  1
  Pd  Pd27  1  0.514149  0.514185  0.986058  1
  Pd  Pd28  1  0.383607  0.857261  0.376575  1
  Pd  Pd29  1  0.513771  0.986218  0.986596  1
  Rh  Rh30  1  0.510752  0.988512  0.510962  1
