# generated using pymatgen
data_YLu(Zr4Pb3)2
_symmetry_space_group_name_H-M   'P 1'
_cell_length_a   8.78971018
_cell_length_b   8.73692090
_cell_length_c   5.96794700
_cell_angle_alpha   90.00000000
_cell_angle_beta   90.00000000
_cell_angle_gamma   120.43949780
_symmetry_Int_Tables_number   1
_chemical_formula_structural   YLu(Zr4Pb3)2
_chemical_formula_sum   'Y1 Lu1 Zr8 Pb6'
_cell_volume   395.13737884
_cell_formula_units_Z   1
loop_
 _symmetry_equiv_pos_site_id
 _symmetry_equiv_pos_as_xyz
  1  'x, y, z'
loop_
 _atom_site_type_symbol
 _atom_site_label
 _atom_site_symmetry_multiplicity
 _atom_site_fract_x
 _atom_site_fract_y
 _atom_site_fract_z
 _atom_site_occupancy
  Y  Y0  1  0.764669  0.762428  0.250000  1
  Lu  Lu1  1  0.002228  0.240071  0.250000  1
  Zr  Zr2  1  0.751093  0.000938  0.750000  1
  Zr  Zr3  1  0.332808  0.667140  0.500811  1
  Zr  Zr4  1  0.250165  0.999757  0.250000  1
  Zr  Zr5  1  0.664747  0.333632  0.500917  1
  Zr  Zr6  1  0.000541  0.757285  0.750000  1
  Zr  Zr7  1  0.332808  0.667140  0.999189  1
  Zr  Zr8  1  0.238764  0.238930  0.750000  1
  Zr  Zr9  1  0.664747  0.333632  0.999083  1
  Pb  Pb10  1  0.607395  0.608455  0.750000  1
  Pb  Pb11  1  0.389705  0.000075  0.750000  1
  Pb  Pb12  1  0.605030  0.001530  0.250000  1
  Pb  Pb13  1  0.999303  0.391699  0.750000  1
  Pb  Pb14  1  0.393412  0.391910  0.250000  1
  Pb  Pb15  1  0.002586  0.605377  0.250000  1
