# generated using pymatgen
data_K3Y2(InBr4)3
_symmetry_space_group_name_H-M   'P 1'
_cell_length_a   8.49943738
_cell_length_b   7.94955119
_cell_length_c   13.83028500
_cell_angle_alpha   55.96366648
_cell_angle_beta   89.85456005
_cell_angle_gamma   89.79221244
_symmetry_Int_Tables_number   1
_chemical_formula_structural   K3Y2(InBr4)3
_chemical_formula_sum   'K3 Y2 In3 Br12'
_cell_volume   774.37140164
_cell_formula_units_Z   1
loop_
 _symmetry_equiv_pos_site_id
 _symmetry_equiv_pos_as_xyz
  1  'x, y, z'
loop_
 _atom_site_type_symbol
 _atom_site_label
 _atom_site_symmetry_multiplicity
 _atom_site_fract_x
 _atom_site_fract_y
 _atom_site_fract_z
 _atom_site_occupancy
  K  K0  1  0.073958  0.716020  0.757889  1
  K  K1  1  0.926737  0.281182  0.242930  1
  K  K2  1  0.572485  0.281450  0.746535  1
  Y  Y3  1  0.496433  0.998672  0.499999  1
  Y  Y4  1  0.002300  0.999416  0.000681  1
  In  In5  1  0.500389  0.499112  0.001955  1
  In  In6  1  0.997001  0.499782  0.498946  1
  In  In7  1  0.438527  0.722406  0.258649  1
  Br  Br8  1  0.777655  0.765717  0.568680  1
  Br  Br9  1  0.220448  0.237796  0.428714  1
  Br  Br10  1  0.276693  0.242109  0.928413  1
  Br  Br11  1  0.722471  0.763167  0.072941  1
  Br  Br12  1  0.450164  0.890703  0.729357  1
  Br  Br13  1  0.551474  0.102504  0.270049  1
  Br  Br14  1  0.947103  0.109567  0.770783  1
  Br  Br15  1  0.054445  0.889766  0.230467  1
  Br  Br16  1  0.323428  0.657039  0.551704  1
  Br  Br17  1  0.671620  0.345300  0.443282  1
  Br  Br18  1  0.824688  0.341595  0.948832  1
  Br  Br19  1  0.171980  0.656698  0.049195  1
