# generated using pymatgen
data_Ac2C(NO)2
_symmetry_space_group_name_H-M   'P 1'
_cell_length_a   4.17389400
_cell_length_b   4.17386364
_cell_length_c   8.59615500
_cell_angle_alpha   89.99991992
_cell_angle_beta   90.00028802
_cell_angle_gamma   119.99979250
_symmetry_Int_Tables_number   1
_chemical_formula_structural   Ac2C(NO)2
_chemical_formula_sum   'Ac2 C1 N2 O2'
_cell_volume   129.69267550
_cell_formula_units_Z   1
loop_
 _symmetry_equiv_pos_site_id
 _symmetry_equiv_pos_as_xyz
  1  'x, y, z'
loop_
 _atom_site_type_symbol
 _atom_site_label
 _atom_site_symmetry_multiplicity
 _atom_site_fract_x
 _atom_site_fract_y
 _atom_site_fract_z
 _atom_site_occupancy
  Ac  Ac0  1  0.333339  0.666669  0.185372  1
  Ac  Ac1  1  0.666662  0.333330  0.814628  1
  C  C2  1  0.000002  0.000001  0.500000  1
  N  N3  1  0.000007  0.000002  0.355797  1
  N  N4  1  0.999994  0.999997  0.644203  1
  O  O5  1  0.666670  0.333336  0.103711  1
  O  O6  1  0.333333  0.666666  0.896290  1
