# generated using pymatgen
data_Ca2SbAsO6
_symmetry_space_group_name_H-M   'P 1'
_cell_length_a   7.68094201
_cell_length_b   7.68094167
_cell_length_c   5.49486400
_cell_angle_alpha   90.00000000
_cell_angle_beta   90.00000000
_cell_angle_gamma   108.20391373
_symmetry_Int_Tables_number   1
_chemical_formula_structural   Ca2SbAsO6
_chemical_formula_sum   'Ca4 Sb2 As2 O12'
_cell_volume   307.95479829
_cell_formula_units_Z   2
loop_
 _symmetry_equiv_pos_site_id
 _symmetry_equiv_pos_as_xyz
  1  'x, y, z'
loop_
 _atom_site_type_symbol
 _atom_site_label
 _atom_site_symmetry_multiplicity
 _atom_site_fract_x
 _atom_site_fract_y
 _atom_site_fract_z
 _atom_site_occupancy
  Ca  Ca0  1  0.313511  0.087427  0.755560  1
  Ca  Ca1  1  0.912573  0.686489  0.755560  1
  Ca  Ca2  1  0.087427  0.313511  0.255560  1
  Ca  Ca3  1  0.686489  0.912573  0.255560  1
  Sb  Sb4  1  0.578053  0.421947  0.255523  1
  Sb  Sb5  1  0.421947  0.578053  0.755523  1
  As  As6  1  0.818087  0.181913  0.807066  1
  As  As7  1  0.181913  0.818087  0.307066  1
  O  O8  1  0.355262  0.355673  0.510488  1
  O  O9  1  0.596610  0.085159  0.909055  1
  O  O10  1  0.085159  0.596610  0.409055  1
  O  O11  1  0.644327  0.644738  0.510488  1
  O  O12  1  0.170088  0.829912  0.996316  1
  O  O13  1  0.644738  0.644327  0.010488  1
  O  O14  1  0.829912  0.170088  0.496316  1
  O  O15  1  0.355673  0.355262  0.010488  1
  O  O16  1  0.061048  0.938952  0.464887  1
  O  O17  1  0.403390  0.914841  0.409055  1
  O  O18  1  0.938952  0.061048  0.964887  1
  O  O19  1  0.914841  0.403390  0.909055  1
