# generated using pymatgen
data_TbLu2Sc3MnBi2
_symmetry_space_group_name_H-M   'P 1'
_cell_length_a   7.91320300
_cell_length_b   7.90342540
_cell_length_c   4.21676200
_cell_angle_alpha   90.00000000
_cell_angle_beta   90.00000000
_cell_angle_gamma   120.04093673
_symmetry_Int_Tables_number   1
_chemical_formula_structural   TbLu2Sc3MnBi2
_chemical_formula_sum   'Tb1 Lu2 Sc3 Mn1 Bi2'
_cell_volume   228.29588819
_cell_formula_units_Z   1
loop_
 _symmetry_equiv_pos_site_id
 _symmetry_equiv_pos_as_xyz
  1  'x, y, z'
loop_
 _atom_site_type_symbol
 _atom_site_label
 _atom_site_symmetry_multiplicity
 _atom_site_fract_x
 _atom_site_fract_y
 _atom_site_fract_z
 _atom_site_occupancy
  Tb  Tb0  1  0.611833  0.000000  0.000000  1
  Lu  Lu1  1  0.999467  0.615784  0.000000  1
  Lu  Lu2  1  0.383683  0.384216  0.000000  1
  Sc  Sc3  1  0.224459  0.000000  0.500000  1
  Sc  Sc4  1  0.001981  0.225072  0.500000  1
  Sc  Sc5  1  0.776909  0.774928  0.500000  1
  Mn  Mn6  1  0.003300  0.000000  0.000000  1
  Bi  Bi7  1  0.331213  0.664059  0.500000  1
  Bi  Bi8  1  0.667154  0.335941  0.500000  1
