# generated using pymatgen
data_Ca2La(GaIr)2
_symmetry_space_group_name_H-M   'P 1'
_cell_length_a   5.76230300
_cell_length_b   8.04269000
_cell_length_c   13.91411900
_cell_angle_alpha   90.00000000
_cell_angle_beta   90.00000000
_cell_angle_gamma   90.00000000
_symmetry_Int_Tables_number   1
_chemical_formula_structural   Ca2La(GaIr)2
_chemical_formula_sum   'Ca8 La4 Ga8 Ir8'
_cell_volume   644.84172916
_cell_formula_units_Z   4
loop_
 _symmetry_equiv_pos_site_id
 _symmetry_equiv_pos_as_xyz
  1  'x, y, z'
loop_
 _atom_site_type_symbol
 _atom_site_label
 _atom_site_symmetry_multiplicity
 _atom_site_fract_x
 _atom_site_fract_y
 _atom_site_fract_z
 _atom_site_occupancy
  Ca  Ca0  1  0.849563  0.391514  0.900194  1
  Ca  Ca1  1  0.849563  0.108486  0.099806  1
  Ca  Ca2  1  0.150437  0.891514  0.599806  1
  Ca  Ca3  1  0.150437  0.608486  0.400194  1
  Ca  Ca4  1  0.369753  0.253010  0.250905  1
  Ca  Ca5  1  0.369753  0.246990  0.749095  1
  Ca  Ca6  1  0.630247  0.753010  0.249095  1
  Ca  Ca7  1  0.630247  0.746990  0.750905  1
  La  La8  1  0.151340  0.593412  0.093603  1
  La  La9  1  0.151340  0.906588  0.906397  1
  La  La10  1  0.848660  0.093412  0.406397  1
  La  La11  1  0.848660  0.406588  0.593603  1
  Ga  Ga12  1  0.398341  0.250000  0.000000  1
  Ga  Ga13  1  0.601659  0.750000  0.500000  1
  Ga  Ga14  1  0.625049  0.750000  0.000000  1
  Ga  Ga15  1  0.374951  0.250000  0.500000  1
  Ga  Ga16  1  0.847492  0.408043  0.253584  1
  Ga  Ga17  1  0.847492  0.091957  0.746416  1
  Ga  Ga18  1  0.152508  0.908043  0.246416  1
  Ga  Ga19  1  0.152508  0.591957  0.753584  1
  Ir  Ir20  1  0.641467  0.473557  0.096310  1
  Ir  Ir21  1  0.641467  0.026443  0.903690  1
  Ir  Ir22  1  0.358533  0.973557  0.403690  1
  Ir  Ir23  1  0.358533  0.526443  0.596310  1
  Ir  Ir24  1  0.355304  0.532316  0.910490  1
  Ir  Ir25  1  0.355304  0.967684  0.089510  1
  Ir  Ir26  1  0.644696  0.032316  0.589510  1
  Ir  Ir27  1  0.644696  0.467684  0.410490  1
