# generated using pymatgen
data_Ti3Si4Mo9
_symmetry_space_group_name_H-M   'P 1'
_cell_length_a   4.95104800
_cell_length_b   4.92159736
_cell_length_c   9.76355542
_cell_angle_alpha   89.96134701
_cell_angle_beta   90.00000000
_cell_angle_gamma   90.00000000
_symmetry_Int_Tables_number   1
_chemical_formula_structural   Ti3Si4Mo9
_chemical_formula_sum   'Ti3 Si4 Mo9'
_cell_volume   237.90913300
_cell_formula_units_Z   1
loop_
 _symmetry_equiv_pos_site_id
 _symmetry_equiv_pos_as_xyz
  1  'x, y, z'
loop_
 _atom_site_type_symbol
 _atom_site_label
 _atom_site_symmetry_multiplicity
 _atom_site_fract_x
 _atom_site_fract_y
 _atom_site_fract_z
 _atom_site_occupancy
  Ti  Ti0  1  0.000000  0.500274  0.376533  1
  Ti  Ti1  1  0.000000  0.503237  0.874475  1
  Ti  Ti2  1  0.500000  0.251099  0.001309  1
  Si  Si3  1  0.500000  0.497849  0.249672  1
  Si  Si4  1  0.500000  0.497600  0.753644  1
  Si  Si5  1  0.000000  0.002815  0.997973  1
  Si  Si6  1  0.000000  0.000908  0.497555  1
  Mo  Mo7  1  0.500000  0.249094  0.500929  1
  Mo  Mo8  1  0.749533  0.998816  0.250084  1
  Mo  Mo9  1  0.749554  0.998508  0.747773  1
  Mo  Mo10  1  0.000000  0.500505  0.127183  1
  Mo  Mo11  1  0.000000  0.498065  0.624625  1
  Mo  Mo12  1  0.500000  0.753894  0.999750  1
  Mo  Mo13  1  0.500000  0.750011  0.500636  1
  Mo  Mo14  1  0.250467  0.998816  0.250084  1
  Mo  Mo15  1  0.250446  0.998508  0.747773  1
