# generated using pymatgen
data_K3RhO4
_symmetry_space_group_name_H-M   'P 1'
_cell_length_a   7.96930052
_cell_length_b   8.49977600
_cell_length_c   9.03621668
_cell_angle_alpha   89.99827109
_cell_angle_beta   90.04302938
_cell_angle_gamma   90.00006510
_symmetry_Int_Tables_number   1
_chemical_formula_structural   K3RhO4
_chemical_formula_sum   'K12 Rh4 O16'
_cell_volume   612.08847035
_cell_formula_units_Z   4
loop_
 _symmetry_equiv_pos_site_id
 _symmetry_equiv_pos_as_xyz
  1  'x, y, z'
loop_
 _atom_site_type_symbol
 _atom_site_label
 _atom_site_symmetry_multiplicity
 _atom_site_fract_x
 _atom_site_fract_y
 _atom_site_fract_z
 _atom_site_occupancy
  K  K0  1  0.051590  0.273876  0.035840  1
  K  K1  1  0.832514  0.970744  0.250030  1
  K  K2  1  0.167449  0.029172  0.749958  1
  K  K3  1  0.667540  0.470827  0.749973  1
  K  K4  1  0.948435  0.726128  0.964141  1
  K  K5  1  0.448461  0.773862  0.535853  1
  K  K6  1  0.551549  0.226169  0.035871  1
  K  K7  1  0.051603  0.273869  0.464145  1
  K  K8  1  0.948389  0.726144  0.535866  1
  K  K9  1  0.551584  0.226156  0.464150  1
  K  K10  1  0.448469  0.773858  0.964152  1
  K  K11  1  0.332488  0.529256  0.250016  1
  Rh  Rh12  1  0.279110  0.001047  0.250179  1
  Rh  Rh13  1  0.779105  0.498899  0.250151  1
  Rh  Rh14  1  0.220917  0.500954  0.749668  1
  Rh  Rh15  1  0.720749  0.999028  0.749937  1
  O  O16  1  0.304364  0.223657  0.250057  1
  O  O17  1  0.804388  0.276268  0.250052  1
  O  O18  1  0.195660  0.723583  0.749958  1
  O  O19  1  0.695645  0.776381  0.749956  1
  O  O20  1  0.996085  0.581262  0.250100  1
  O  O21  1  0.496079  0.918737  0.250106  1
  O  O22  1  0.503843  0.081344  0.749928  1
  O  O23  1  0.003895  0.418757  0.749903  1
  O  O24  1  0.835091  0.041158  0.575500  1
  O  O25  1  0.335042  0.458939  0.924352  1
  O  O26  1  0.664900  0.541149  0.424564  1
  O  O27  1  0.164986  0.958904  0.075641  1
  O  O28  1  0.164891  0.958845  0.424570  1
  O  O29  1  0.835031  0.041100  0.924412  1
  O  O30  1  0.335189  0.458817  0.575374  1
  O  O31  1  0.664959  0.541109  0.075596  1
