# generated using pymatgen
data_LaDyCr2(TeO6)2
_symmetry_space_group_name_H-M   'P 1'
_cell_length_a   5.21787910
_cell_length_b   5.21754786
_cell_length_c   10.12498811
_cell_angle_alpha   89.99646129
_cell_angle_beta   90.00507076
_cell_angle_gamma   120.00156840
_symmetry_Int_Tables_number   1
_chemical_formula_structural   LaDyCr2(TeO6)2
_chemical_formula_sum   'La1 Dy1 Cr2 Te2 O12'
_cell_volume   238.71446815
_cell_formula_units_Z   1
loop_
 _symmetry_equiv_pos_site_id
 _symmetry_equiv_pos_as_xyz
  1  'x, y, z'
loop_
 _atom_site_type_symbol
 _atom_site_label
 _atom_site_symmetry_multiplicity
 _atom_site_fract_x
 _atom_site_fract_y
 _atom_site_fract_z
 _atom_site_occupancy
  La  La0  1  0.999975  0.000070  0.999990  1
  Dy  Dy1  1  0.000031  0.000040  0.500015  1
  Cr  Cr2  1  0.667080  0.333560  0.741465  1
  Cr  Cr3  1  0.333158  0.666282  0.258548  1
  Te  Te4  1  0.666545  0.333118  0.258601  1
  Te  Te5  1  0.333502  0.666894  0.741410  1
  O  O6  1  0.623439  0.991674  0.850612  1
  O  O7  1  0.368157  0.376851  0.850592  1
  O  O8  1  0.008604  0.631979  0.850566  1
  O  O9  1  0.376530  0.008402  0.149377  1
  O  O10  1  0.631815  0.623165  0.149415  1
  O  O11  1  0.991326  0.367982  0.149411  1
  O  O12  1  0.351457  0.988857  0.635222  1
  O  O13  1  0.637355  0.648682  0.635234  1
  O  O14  1  0.011310  0.362842  0.635276  1
  O  O15  1  0.648484  0.011073  0.364775  1
  O  O16  1  0.362605  0.351372  0.364744  1
  O  O17  1  0.988634  0.637156  0.364747  1
