# generated using pymatgen
data_Y4CdPt11
_symmetry_space_group_name_H-M   'P 1'
_cell_length_a   4.16226600
_cell_length_b   5.86195345
_cell_length_c   11.73603700
_cell_angle_alpha   88.85501562
_cell_angle_beta   90.00000000
_cell_angle_gamma   90.00000000
_symmetry_Int_Tables_number   1
_chemical_formula_structural   Y4CdPt11
_chemical_formula_sum   'Y4 Cd1 Pt11'
_cell_volume   286.29050397
_cell_formula_units_Z   1
loop_
 _symmetry_equiv_pos_site_id
 _symmetry_equiv_pos_as_xyz
  1  'x, y, z'
loop_
 _atom_site_type_symbol
 _atom_site_label
 _atom_site_symmetry_multiplicity
 _atom_site_fract_x
 _atom_site_fract_y
 _atom_site_fract_z
 _atom_site_occupancy
  Y  Y0  1  0.500000  0.755660  0.375789  1
  Y  Y1  1  0.500000  0.726920  0.865656  1
  Y  Y2  1  0.500000  0.273080  0.134344  1
  Y  Y3  1  0.500000  0.244340  0.624211  1
  Cd  Cd4  1  0.000000  0.000000  0.000000  1
  Pt  Pt5  1  0.000000  0.012546  0.251352  1
  Pt  Pt6  1  0.000000  0.987454  0.748648  1
  Pt  Pt7  1  0.000000  0.500000  0.000000  1
  Pt  Pt8  1  0.000000  0.500000  0.500000  1
  Pt  Pt9  1  0.000000  0.513992  0.249899  1
  Pt  Pt10  1  0.000000  0.486008  0.750101  1
  Pt  Pt11  1  0.500000  0.255128  0.377116  1
  Pt  Pt12  1  0.500000  0.236258  0.876741  1
  Pt  Pt13  1  0.500000  0.763742  0.123259  1
  Pt  Pt14  1  0.500000  0.744872  0.622884  1
  Pt  Pt15  1  0.000000  0.000000  0.500000  1
