# generated using pymatgen
data_Li2La4Al2Ir3Rh
_symmetry_space_group_name_H-M   'P 1'
_cell_length_a   4.11252900
_cell_length_b   7.43406606
_cell_length_c   16.87775344
_cell_angle_alpha   90.23630778
_cell_angle_beta   90.00000000
_cell_angle_gamma   90.00000000
_symmetry_Int_Tables_number   1
_chemical_formula_structural   Li2La4Al2Ir3Rh
_chemical_formula_sum   'Li4 La8 Al4 Ir6 Rh2'
_cell_volume   515.99599849
_cell_formula_units_Z   2
loop_
 _symmetry_equiv_pos_site_id
 _symmetry_equiv_pos_as_xyz
  1  'x, y, z'
loop_
 _atom_site_type_symbol
 _atom_site_label
 _atom_site_symmetry_multiplicity
 _atom_site_fract_x
 _atom_site_fract_y
 _atom_site_fract_z
 _atom_site_occupancy
  Li  Li0  1  0.250000  0.649406  0.349585  1
  Li  Li1  1  0.750000  0.350594  0.650415  1
  Li  Li2  1  0.750000  0.849769  0.851741  1
  Li  Li3  1  0.250000  0.150231  0.148259  1
  La  La4  1  0.250000  0.527563  0.781728  1
  La  La5  1  0.750000  0.472437  0.218272  1
  La  La6  1  0.750000  0.973723  0.279794  1
  La  La7  1  0.250000  0.026277  0.720206  1
  La  La8  1  0.250000  0.665683  0.561390  1
  La  La9  1  0.750000  0.334317  0.438610  1
  La  La10  1  0.750000  0.835856  0.061034  1
  La  La11  1  0.250000  0.164144  0.938966  1
  Al  Al12  1  0.250000  0.496637  0.062147  1
  Al  Al13  1  0.750000  0.503363  0.937853  1
  Al  Al14  1  0.750000  0.003163  0.562898  1
  Al  Al15  1  0.250000  0.996837  0.437102  1
  Ir  Ir16  1  0.250000  0.747103  0.181059  1
  Ir  Ir17  1  0.750000  0.252897  0.818941  1
  Ir  Ir18  1  0.750000  0.753531  0.678984  1
  Ir  Ir19  1  0.250000  0.246469  0.321016  1
  Ir  Ir20  1  0.250000  0.709303  0.939069  1
  Ir  Ir21  1  0.750000  0.290697  0.060931  1
  Rh  Rh22  1  0.750000  0.792252  0.438651  1
  Rh  Rh23  1  0.250000  0.207748  0.561349  1
