# generated using pymatgen
data_Y4Al6IrRu
_symmetry_space_group_name_H-M   'P 1'
_cell_length_a   5.54042900
_cell_length_b   5.54042816
_cell_length_c   8.75614400
_cell_angle_alpha   90.00000000
_cell_angle_beta   90.00000000
_cell_angle_gamma   120.00001100
_symmetry_Int_Tables_number   1
_chemical_formula_structural   Y4Al6IrRu
_chemical_formula_sum   'Y4 Al6 Ir1 Ru1'
_cell_volume   232.77171174
_cell_formula_units_Z   1
loop_
 _symmetry_equiv_pos_site_id
 _symmetry_equiv_pos_as_xyz
  1  'x, y, z'
loop_
 _atom_site_type_symbol
 _atom_site_label
 _atom_site_symmetry_multiplicity
 _atom_site_fract_x
 _atom_site_fract_y
 _atom_site_fract_z
 _atom_site_occupancy
  Y  Y0  1  0.333333  0.666667  0.447617  1
  Y  Y1  1  0.666667  0.333333  0.945321  1
  Y  Y2  1  0.333333  0.666667  0.054679  1
  Y  Y3  1  0.666667  0.333333  0.552383  1
  Al  Al4  1  0.837884  0.675769  0.250082  1
  Al  Al5  1  0.837884  0.162116  0.250082  1
  Al  Al6  1  0.162116  0.837884  0.749918  1
  Al  Al7  1  0.324231  0.162116  0.250082  1
  Al  Al8  1  0.675769  0.837884  0.749918  1
  Al  Al9  1  0.162116  0.324231  0.749918  1
  Ir  Ir10  1  0.000000  0.000000  0.500000  1
  Ru  Ru11  1  0.000000  0.000000  0.000000  1
