# generated using pymatgen
data_Y3CS2
_symmetry_space_group_name_H-M   'P 1'
_cell_length_a   6.73948506
_cell_length_b   6.73948517
_cell_length_c   6.73948496
_cell_angle_alpha   147.75060795
_cell_angle_beta   132.50122690
_cell_angle_gamma   58.57785783
_symmetry_Int_Tables_number   1
_chemical_formula_structural   Y3CS2
_chemical_formula_sum   'Y3 C1 S2'
_cell_volume   119.44843198
_cell_formula_units_Z   1
loop_
 _symmetry_equiv_pos_site_id
 _symmetry_equiv_pos_as_xyz
  1  'x, y, z'
loop_
 _atom_site_type_symbol
 _atom_site_label
 _atom_site_symmetry_multiplicity
 _atom_site_fract_x
 _atom_site_fract_y
 _atom_site_fract_z
 _atom_site_occupancy
  Y  Y0  1  0.858084  0.358084  0.500000  1
  Y  Y1  1  0.500000  0.000000  0.500000  1
  Y  Y2  1  0.141916  0.641916  0.500000  1
  C  C3  1  0.000000  0.000000  0.000000  1
  S  S4  1  0.672306  0.672306  0.000000  1
  S  S5  1  0.327694  0.327694  0.000000  1
