# generated using pymatgen
data_Er3BRh6Pb
_symmetry_space_group_name_H-M   'P 1'
_cell_length_a   5.81423200
_cell_length_b   5.81423147
_cell_length_c   13.96343400
_cell_angle_alpha   90.00000000
_cell_angle_beta   90.00000000
_cell_angle_gamma   120.00000303
_symmetry_Int_Tables_number   1
_chemical_formula_structural   Er3BRh6Pb
_chemical_formula_sum   'Er6 B2 Rh12 Pb2'
_cell_volume   408.79683930
_cell_formula_units_Z   2
loop_
 _symmetry_equiv_pos_site_id
 _symmetry_equiv_pos_as_xyz
  1  'x, y, z'
loop_
 _atom_site_type_symbol
 _atom_site_label
 _atom_site_symmetry_multiplicity
 _atom_site_fract_x
 _atom_site_fract_y
 _atom_site_fract_z
 _atom_site_occupancy
  Er  Er0  1  0.000000  0.000000  0.750000  1
  Er  Er1  1  0.000000  0.000000  0.250000  1
  Er  Er2  1  0.333333  0.666667  0.413974  1
  Er  Er3  1  0.666667  0.333333  0.913974  1
  Er  Er4  1  0.666667  0.333333  0.586026  1
  Er  Er5  1  0.333333  0.666667  0.086026  1
  B  B6  1  0.000000  0.000000  0.500000  1
  B  B7  1  0.000000  0.000000  0.000000  1
  Rh  Rh8  1  0.342463  0.171232  0.414435  1
  Rh  Rh9  1  0.828768  0.171232  0.414435  1
  Rh  Rh10  1  0.828768  0.657537  0.414435  1
  Rh  Rh11  1  0.171232  0.342463  0.914435  1
  Rh  Rh12  1  0.657537  0.828768  0.585565  1
  Rh  Rh13  1  0.657537  0.828768  0.914435  1
  Rh  Rh14  1  0.342463  0.171232  0.085565  1
  Rh  Rh15  1  0.171232  0.342463  0.585565  1
  Rh  Rh16  1  0.171232  0.828768  0.585565  1
  Rh  Rh17  1  0.828768  0.171232  0.085565  1
  Rh  Rh18  1  0.828768  0.657537  0.085565  1
  Rh  Rh19  1  0.171232  0.828768  0.914435  1
  Pb  Pb20  1  0.333333  0.666667  0.750000  1
  Pb  Pb21  1  0.666667  0.333333  0.250000  1
