# generated using pymatgen
data_Dy3Er2Bi3
_symmetry_space_group_name_H-M   'P 1'
_cell_length_a   8.24659900
_cell_length_b   9.49208600
_cell_length_c   12.02897000
_cell_angle_alpha   90.00000000
_cell_angle_beta   90.00000000
_cell_angle_gamma   90.00000000
_symmetry_Int_Tables_number   1
_chemical_formula_structural   Dy3Er2Bi3
_chemical_formula_sum   'Dy12 Er8 Bi12'
_cell_volume   941.59682004
_cell_formula_units_Z   4
loop_
 _symmetry_equiv_pos_site_id
 _symmetry_equiv_pos_as_xyz
  1  'x, y, z'
loop_
 _atom_site_type_symbol
 _atom_site_label
 _atom_site_symmetry_multiplicity
 _atom_site_fract_x
 _atom_site_fract_y
 _atom_site_fract_z
 _atom_site_occupancy
  Dy  Dy0  1  0.352418  0.750000  0.215279  1
  Dy  Dy1  1  0.852418  0.750000  0.284721  1
  Dy  Dy2  1  0.647582  0.250000  0.784721  1
  Dy  Dy3  1  0.147582  0.250000  0.715279  1
  Dy  Dy4  1  0.475746  0.250000  0.488325  1
  Dy  Dy5  1  0.975746  0.250000  0.011675  1
  Dy  Dy6  1  0.524254  0.750000  0.511675  1
  Dy  Dy7  1  0.024254  0.750000  0.988325  1
  Dy  Dy8  1  0.312529  0.250000  0.218648  1
  Dy  Dy9  1  0.812529  0.250000  0.281352  1
  Dy  Dy10  1  0.687471  0.750000  0.781352  1
  Dy  Dy11  1  0.187471  0.750000  0.718648  1
  Er  Er12  1  0.692709  0.564080  0.058374  1
  Er  Er13  1  0.192709  0.935920  0.441626  1
  Er  Er14  1  0.307291  0.064080  0.941626  1
  Er  Er15  1  0.807291  0.435920  0.558374  1
  Er  Er16  1  0.307291  0.435920  0.941626  1
  Er  Er17  1  0.807291  0.064080  0.558374  1
  Er  Er18  1  0.692709  0.935920  0.058374  1
  Er  Er19  1  0.192709  0.564080  0.441626  1
  Bi  Bi20  1  0.407425  0.750000  0.956812  1
  Bi  Bi21  1  0.907425  0.750000  0.543188  1
  Bi  Bi22  1  0.592575  0.250000  0.043188  1
  Bi  Bi23  1  0.092575  0.250000  0.456812  1
  Bi  Bi24  1  0.564837  0.995520  0.325313  1
  Bi  Bi25  1  0.064837  0.504480  0.174687  1
  Bi  Bi26  1  0.435163  0.495520  0.674687  1
  Bi  Bi27  1  0.935163  0.004480  0.825313  1
  Bi  Bi28  1  0.435163  0.004480  0.674687  1
  Bi  Bi29  1  0.935163  0.495520  0.825313  1
  Bi  Bi30  1  0.564837  0.504480  0.325313  1
  Bi  Bi31  1  0.064837  0.995520  0.174687  1
