# generated using pymatgen
data_Tb11TmCo5Sn
_symmetry_space_group_name_H-M   'P 1'
_cell_length_a   8.27790381
_cell_length_b   8.27790332
_cell_length_c   8.28008609
_cell_angle_alpha   107.04270833
_cell_angle_beta   110.69273201
_cell_angle_gamma   110.69473923
_symmetry_Int_Tables_number   1
_chemical_formula_structural   Tb11TmCo5Sn
_chemical_formula_sum   'Tb11 Tm1 Co5 Sn1'
_cell_volume   436.24298592
_cell_formula_units_Z   1
loop_
 _symmetry_equiv_pos_site_id
 _symmetry_equiv_pos_as_xyz
  1  'x, y, z'
loop_
 _atom_site_type_symbol
 _atom_site_label
 _atom_site_symmetry_multiplicity
 _atom_site_fract_x
 _atom_site_fract_y
 _atom_site_fract_z
 _atom_site_occupancy
  Tb  Tb0  1  0.478961  0.292350  0.185774  1
  Tb  Tb1  1  0.105706  0.291805  0.814747  1
  Tb  Tb2  1  0.893425  0.706814  0.185774  1
  Tb  Tb3  1  0.522942  0.709040  0.814747  1
  Tb  Tb4  1  0.304314  0.618426  0.313083  1
  Tb  Tb5  1  0.306610  0.991876  0.686875  1
  Tb  Tb6  1  0.695000  0.380264  0.686875  1
  Tb  Tb7  1  0.694657  0.008769  0.313083  1
  Tb  Tb8  1  0.191510  0.207847  0.399357  1
  Tb  Tb9  1  0.807222  0.792583  0.599805  1
  Tb  Tb10  1  0.192659  0.792062  0.984720  1
  Tm  Tm11  1  0.806999  0.207528  0.014529  1
  Co  Co12  1  0.499865  0.612503  0.112368  1
  Co  Co13  1  0.500851  0.387124  0.887975  1
  Co  Co14  1  0.377888  0.999741  0.377629  1
  Co  Co15  1  0.623263  0.000755  0.624018  1
  Co  Co16  1  0.998542  0.001117  0.999660  1
  Sn  Sn17  1  0.999584  0.499397  0.498982  1
