# generated using pymatgen
data_Sb12OsRh2Au
_symmetry_space_group_name_H-M   'P 1'
_cell_length_a   8.23110099
_cell_length_b   8.21377349
_cell_length_c   8.22067367
_cell_angle_alpha   109.47152795
_cell_angle_beta   109.64061908
_cell_angle_gamma   109.64261967
_symmetry_Int_Tables_number   1
_chemical_formula_structural   Sb12OsRh2Au
_chemical_formula_sum   'Sb12 Os1 Rh2 Au1'
_cell_volume   426.03316576
_cell_formula_units_Z   1
loop_
 _symmetry_equiv_pos_site_id
 _symmetry_equiv_pos_as_xyz
  1  'x, y, z'
loop_
 _atom_site_type_symbol
 _atom_site_label
 _atom_site_symmetry_multiplicity
 _atom_site_fract_x
 _atom_site_fract_y
 _atom_site_fract_z
 _atom_site_occupancy
  Sb  Sb0  1  0.156165  0.818411  0.663882  1
  Sb  Sb1  1  0.843835  0.181589  0.336118  1
  Sb  Sb2  1  0.856424  0.500409  0.661502  1
  Sb  Sb3  1  0.143576  0.499591  0.338498  1
  Sb  Sb4  1  0.817911  0.661189  0.156429  1
  Sb  Sb5  1  0.182089  0.338811  0.843571  1
  Sb  Sb6  1  0.503409  0.664023  0.857990  1
  Sb  Sb7  1  0.496591  0.335977  0.142010  1
  Sb  Sb8  1  0.662591  0.153865  0.818761  1
  Sb  Sb9  1  0.337409  0.846135  0.181239  1
  Sb  Sb10  1  0.661306  0.856502  0.500544  1
  Sb  Sb11  1  0.338694  0.143498  0.499456  1
  Os  Os12  1  0.500000  0.000000  0.000000  1
  Rh  Rh13  1  0.000000  0.000000  0.500000  1
  Rh  Rh14  1  0.000000  0.500000  0.000000  1
  Au  Au15  1  0.500000  0.500000  0.500000  1
