# generated using pymatgen
data_Tb5ZnSe4
_symmetry_space_group_name_H-M   'P 1'
_cell_length_a   7.13447305
_cell_length_b   7.13446905
_cell_length_c   7.13444000
_cell_angle_alpha   99.55727159
_cell_angle_beta   99.55762384
_cell_angle_gamma   131.90743576
_symmetry_Int_Tables_number   1
_chemical_formula_structural   Tb5ZnSe4
_chemical_formula_sum   'Tb5 Zn1 Se4'
_cell_volume   246.80895364
_cell_formula_units_Z   1
loop_
 _symmetry_equiv_pos_site_id
 _symmetry_equiv_pos_as_xyz
  1  'x, y, z'
loop_
 _atom_site_type_symbol
 _atom_site_label
 _atom_site_symmetry_multiplicity
 _atom_site_fract_x
 _atom_site_fract_y
 _atom_site_fract_z
 _atom_site_occupancy
  Tb  Tb0  1  0.401900  0.795890  0.197790  1
  Tb  Tb1  1  0.000000  0.000000  0.000000  1
  Tb  Tb2  1  0.598100  0.204110  0.802210  1
  Tb  Tb3  1  0.204110  0.401900  0.606010  1
  Tb  Tb4  1  0.795890  0.598100  0.393990  1
  Zn  Zn5  1  0.500000  0.500000  0.000000  1
  Se  Se6  1  0.096760  0.697458  0.794218  1
  Se  Se7  1  0.697458  0.903241  0.600698  1
  Se  Se8  1  0.302542  0.096759  0.399302  1
  Se  Se9  1  0.903240  0.302542  0.205782  1
