# generated using pymatgen
data_Tm12InNi4Ru
_symmetry_space_group_name_H-M   'P 1'
_cell_length_a   8.18146973
_cell_length_b   8.18554336
_cell_length_c   8.18437200
_cell_angle_alpha   106.87307033
_cell_angle_beta   110.04047671
_cell_angle_gamma   111.53541755
_symmetry_Int_Tables_number   1
_chemical_formula_structural   Tm12InNi4Ru
_chemical_formula_sum   'Tm12 In1 Ni4 Ru1'
_cell_volume   421.20543339
_cell_formula_units_Z   1
loop_
 _symmetry_equiv_pos_site_id
 _symmetry_equiv_pos_as_xyz
  1  'x, y, z'
loop_
 _atom_site_type_symbol
 _atom_site_label
 _atom_site_symmetry_multiplicity
 _atom_site_fract_x
 _atom_site_fract_y
 _atom_site_fract_z
 _atom_site_occupancy
  Tm  Tm0  1  0.690063  0.280297  0.970341  1
  Tm  Tm1  1  0.309897  0.719538  0.029513  1
  Tm  Tm2  1  0.689896  0.719733  0.409667  1
  Tm  Tm3  1  0.310038  0.280282  0.590330  1
  Tm  Tm4  1  0.805468  0.126546  0.321079  1
  Tm  Tm5  1  0.805427  0.484356  0.678901  1
  Tm  Tm6  1  0.194533  0.873572  0.679032  1
  Tm  Tm7  1  0.194651  0.515698  0.321067  1
  Tm  Tm8  1  0.603787  0.785630  0.818117  1
  Tm  Tm9  1  0.967572  0.785616  0.181956  1
  Tm  Tm10  1  0.032434  0.214281  0.818116  1
  Tm  Tm11  1  0.396202  0.214300  0.181902  1
  In  In12  1  0.500148  0.999995  0.500151  1
  Ni  Ni13  1  0.859265  0.500048  0.359155  1
  Ni  Ni14  1  0.140489  0.500042  0.640278  1
  Ni  Ni15  1  0.999775  0.120882  0.120690  1
  Ni  Ni16  1  0.000401  0.879319  0.879663  1
  Ru  Ru17  1  0.499953  0.499868  0.000039  1
