# generated using pymatgen
data_Cs2Np(SO)2
_symmetry_space_group_name_H-M   'P 1'
_cell_length_a   7.57868341
_cell_length_b   7.57868188
_cell_length_c   8.41282718
_cell_angle_alpha   73.92800941
_cell_angle_beta   73.92801351
_cell_angle_gamma   61.88463512
_symmetry_Int_Tables_number   1
_chemical_formula_structural   Cs2Np(SO)2
_chemical_formula_sum   'Cs4 Np2 S4 O4'
_cell_volume   403.37291107
_cell_formula_units_Z   2
loop_
 _symmetry_equiv_pos_site_id
 _symmetry_equiv_pos_as_xyz
  1  'x, y, z'
loop_
 _atom_site_type_symbol
 _atom_site_label
 _atom_site_symmetry_multiplicity
 _atom_site_fract_x
 _atom_site_fract_y
 _atom_site_fract_z
 _atom_site_occupancy
  Cs  Cs0  1  0.677655  0.675574  0.661618  1
  Cs  Cs1  1  0.324426  0.322345  0.838382  1
  Cs  Cs2  1  0.322345  0.324426  0.338382  1
  Cs  Cs3  1  0.675574  0.677655  0.161618  1
  Np  Np4  1  0.999825  0.000175  0.750000  1
  Np  Np5  1  0.000175  0.999825  0.250000  1
  S  S6  1  0.223095  0.776128  0.999576  1
  S  S7  1  0.223872  0.776905  0.500424  1
  S  S8  1  0.776905  0.223872  0.000424  1
  S  S9  1  0.776128  0.223095  0.499576  1
  O  O10  1  0.148189  0.150704  0.675185  1
  O  O11  1  0.849296  0.851811  0.824815  1
  O  O12  1  0.851811  0.849296  0.324815  1
  O  O13  1  0.150704  0.148189  0.175185  1
