# generated using pymatgen
data_Ca3Dy2Y(Si3Ru)8
_symmetry_space_group_name_H-M   'P 1'
_cell_length_a   10.17389613
_cell_length_b   10.17389686
_cell_length_c   8.15670600
_cell_angle_alpha   89.99015130
_cell_angle_beta   89.99014733
_cell_angle_gamma   132.72129669
_symmetry_Int_Tables_number   1
_chemical_formula_structural   Ca3Dy2Y(Si3Ru)8
_chemical_formula_sum   'Ca3 Dy2 Y1 Si24 Ru8'
_cell_volume   620.26497249
_cell_formula_units_Z   1
loop_
 _symmetry_equiv_pos_site_id
 _symmetry_equiv_pos_as_xyz
  1  'x, y, z'
loop_
 _atom_site_type_symbol
 _atom_site_label
 _atom_site_symmetry_multiplicity
 _atom_site_fract_x
 _atom_site_fract_y
 _atom_site_fract_z
 _atom_site_occupancy
  Ca  Ca0  1  0.500082  0.499918  0.500000  1
  Ca  Ca1  1  0.500955  0.000809  0.749813  1
  Ca  Ca2  1  0.999191  0.499045  0.250187  1
  Dy  Dy3  1  0.498399  0.998426  0.250155  1
  Dy  Dy4  1  0.001574  0.501601  0.749845  1
  Y  Y5  1  0.999947  0.000053  0.000000  1
  Si  Si6  1  0.795054  0.204946  0.500000  1
  Si  Si7  1  0.294209  0.705791  0.000000  1
  Si  Si8  1  0.205512  0.794488  0.500000  1
  Si  Si9  1  0.705259  0.294741  0.000000  1
  Si  Si10  1  0.331852  0.337200  0.831775  1
  Si  Si11  1  0.662800  0.668148  0.168225  1
  Si  Si12  1  0.170393  0.165327  0.334281  1
  Si  Si13  1  0.834673  0.829607  0.665719  1
  Si  Si14  1  0.122822  0.889251  0.728039  1
  Si  Si15  1  0.110749  0.877178  0.271961  1
  Si  Si16  1  0.608672  0.375718  0.229333  1
  Si  Si17  1  0.624282  0.391328  0.770667  1
  Si  Si18  1  0.875066  0.108560  0.271844  1
  Si  Si19  1  0.891440  0.124934  0.728156  1
  Si  Si20  1  0.389358  0.622572  0.770635  1
  Si  Si21  1  0.377428  0.610642  0.229365  1
  Si  Si22  1  0.346179  0.112773  0.505061  1
  Si  Si23  1  0.887227  0.653821  0.494939  1
  Si  Si24  1  0.388814  0.155503  0.006778  1
  Si  Si25  1  0.844497  0.611186  0.993222  1
  Si  Si26  1  0.653822  0.886475  0.492365  1
  Si  Si27  1  0.113525  0.346178  0.507635  1
  Si  Si28  1  0.610511  0.844428  0.996471  1
  Si  Si29  1  0.155572  0.389489  0.003529  1
  Ru  Ru30  1  0.670795  0.329205  0.500000  1
  Ru  Ru31  1  0.168897  0.831103  0.000000  1
  Ru  Ru32  1  0.330052  0.669948  0.500000  1
  Ru  Ru33  1  0.830248  0.169752  0.000000  1
  Ru  Ru34  1  0.124637  0.125234  0.627257  1
  Ru  Ru35  1  0.874766  0.875363  0.372743  1
  Ru  Ru36  1  0.372715  0.371974  0.124779  1
  Ru  Ru37  1  0.628026  0.627285  0.875221  1
