# generated using pymatgen
data_Sc12Si11POs4
_symmetry_space_group_name_H-M   'P 1'
_cell_length_a   4.01979800
_cell_length_b   10.26099051
_cell_length_c   11.64584358
_cell_angle_alpha   89.96380717
_cell_angle_beta   90.00000000
_cell_angle_gamma   90.00000000
_symmetry_Int_Tables_number   1
_chemical_formula_structural   Sc12Si11POs4
_chemical_formula_sum   'Sc12 Si11 P1 Os4'
_cell_volume   480.35728534
_cell_formula_units_Z   1
loop_
 _symmetry_equiv_pos_site_id
 _symmetry_equiv_pos_as_xyz
  1  'x, y, z'
loop_
 _atom_site_type_symbol
 _atom_site_label
 _atom_site_symmetry_multiplicity
 _atom_site_fract_x
 _atom_site_fract_y
 _atom_site_fract_z
 _atom_site_occupancy
  Sc  Sc0  1  0.250000  0.878279  0.016081  1
  Sc  Sc1  1  0.250000  0.623548  0.518977  1
  Sc  Sc2  1  0.750000  0.123213  0.980546  1
  Sc  Sc3  1  0.750000  0.377252  0.481323  1
  Sc  Sc4  1  0.250000  0.922029  0.610061  1
  Sc  Sc5  1  0.250000  0.578970  0.104404  1
  Sc  Sc6  1  0.750000  0.078641  0.395654  1
  Sc  Sc7  1  0.750000  0.419494  0.894635  1
  Sc  Sc8  1  0.250000  0.658290  0.798076  1
  Sc  Sc9  1  0.250000  0.840706  0.297497  1
  Sc  Sc10  1  0.750000  0.340727  0.201966  1
  Sc  Sc11  1  0.750000  0.157230  0.701716  1
  Si  Si12  1  0.250000  0.485163  0.321897  1
  Si  Si13  1  0.750000  0.985308  0.177461  1
  Si  Si14  1  0.750000  0.514148  0.677991  1
  Si  Si15  1  0.250000  0.250477  0.842043  1
  Si  Si16  1  0.250000  0.248008  0.342324  1
  Si  Si17  1  0.750000  0.748713  0.156833  1
  Si  Si18  1  0.750000  0.751416  0.658017  1
  Si  Si19  1  0.250000  0.195272  0.546135  1
  Si  Si20  1  0.250000  0.304371  0.046174  1
  Si  Si21  1  0.750000  0.805975  0.454229  1
  Si  Si22  1  0.750000  0.695998  0.952634  1
  P  P23  1  0.250000  0.014557  0.824101  1
  Os  Os24  1  0.250000  0.389400  0.677167  1
  Os  Os25  1  0.250000  0.108965  0.176520  1
  Os  Os26  1  0.750000  0.609959  0.323292  1
  Os  Os27  1  0.750000  0.893891  0.822247  1
