# generated using pymatgen
data_Tm2Cu3Ni4
_symmetry_space_group_name_H-M   'P 1'
_cell_length_a   4.90083380
_cell_length_b   4.89515744
_cell_length_c   6.51053100
_cell_angle_alpha   82.42918741
_cell_angle_beta   81.89001574
_cell_angle_gamma   119.93534422
_symmetry_Int_Tables_number   1
_chemical_formula_structural   Tm2Cu3Ni4
_chemical_formula_sum   'Tm2 Cu3 Ni4'
_cell_volume   130.22588908
_cell_formula_units_Z   1
loop_
 _symmetry_equiv_pos_site_id
 _symmetry_equiv_pos_as_xyz
  1  'x, y, z'
loop_
 _atom_site_type_symbol
 _atom_site_label
 _atom_site_symmetry_multiplicity
 _atom_site_fract_x
 _atom_site_fract_y
 _atom_site_fract_z
 _atom_site_occupancy
  Tm  Tm0  1  0.600293  0.600017  0.238230  1
  Tm  Tm1  1  0.395958  0.400309  0.760641  1
  Cu  Cu2  1  0.288299  0.954837  0.158305  1
  Cu  Cu3  1  0.043641  0.706624  0.842168  1
  Cu  Cu4  1  0.713707  0.050263  0.842063  1
  Ni  Ni5  1  0.999572  0.000115  0.500116  1
  Ni  Ni6  1  0.957376  0.286943  0.162602  1
  Ni  Ni7  1  0.500876  0.000181  0.498701  1
  Ni  Ni8  1  0.000278  0.500709  0.497173  1
