# generated using pymatgen
data_Sr2TiNbO6
_symmetry_space_group_name_H-M   'P 1'
_cell_length_a   5.69005820
_cell_length_b   5.69005752
_cell_length_c   5.69005828
_cell_angle_alpha   120.41422708
_cell_angle_beta   120.41422833
_cell_angle_gamma   89.28402247
_symmetry_Int_Tables_number   1
_chemical_formula_structural   Sr2TiNbO6
_chemical_formula_sum   'Sr2 Ti1 Nb1 O6'
_cell_volume   129.44063400
_cell_formula_units_Z   1
loop_
 _symmetry_equiv_pos_site_id
 _symmetry_equiv_pos_as_xyz
  1  'x, y, z'
loop_
 _atom_site_type_symbol
 _atom_site_label
 _atom_site_symmetry_multiplicity
 _atom_site_fract_x
 _atom_site_fract_y
 _atom_site_fract_z
 _atom_site_occupancy
  Sr  Sr0  1  0.750000  0.250000  0.500000  1
  Sr  Sr1  1  0.250000  0.750000  0.500000  1
  Ti  Ti2  1  0.000000  0.000000  0.000000  1
  Nb  Nb3  1  0.500000  0.500000  0.000000  1
  O  O4  1  0.279656  0.215616  0.495272  1
  O  O5  1  0.720344  0.784384  0.504728  1
  O  O6  1  0.215616  0.720344  0.935960  1
  O  O7  1  0.784384  0.279656  0.064040  1
  O  O8  1  0.247241  0.247241  0.000000  1
  O  O9  1  0.752759  0.752759  0.000000  1
