# generated using pymatgen
data_TbHo11Co4SnRu
_symmetry_space_group_name_H-M   'P 1'
_cell_length_a   8.25631914
_cell_length_b   8.24221444
_cell_length_c   8.24221418
_cell_angle_alpha   111.32338231
_cell_angle_beta   110.56781460
_cell_angle_gamma   106.49703827
_symmetry_Int_Tables_number   1
_chemical_formula_structural   TbHo11Co4SnRu
_chemical_formula_sum   'Tb1 Ho11 Co4 Sn1 Ru1'
_cell_volume   431.24767164
_cell_formula_units_Z   1
loop_
 _symmetry_equiv_pos_site_id
 _symmetry_equiv_pos_as_xyz
  1  'x, y, z'
loop_
 _atom_site_type_symbol
 _atom_site_label
 _atom_site_symmetry_multiplicity
 _atom_site_fract_x
 _atom_site_fract_y
 _atom_site_fract_z
 _atom_site_occupancy
  Tb  Tb0  1  0.408264  0.214860  0.193404  1
  Ho  Ho1  1  0.591485  0.785102  0.806383  1
  Ho  Ho2  1  0.020909  0.215119  0.805790  1
  Ho  Ho3  1  0.978429  0.785259  0.193169  1
  Ho  Ho4  1  0.184396  0.287520  0.472316  1
  Ho  Ho5  1  0.815989  0.713603  0.529168  1
  Ho  Ho6  1  0.184396  0.712080  0.896877  1
  Ho  Ho7  1  0.815989  0.286821  0.102387  1
  Ho  Ho8  1  0.312567  0.619868  0.306342  1
  Ho  Ho9  1  0.687340  0.380618  0.694323  1
  Ho  Ho10  1  0.312567  0.006225  0.692698  1
  Ho  Ho11  1  0.687340  0.993018  0.306724  1
  Co  Co12  1  0.377604  0.999425  0.378179  1
  Co  Co13  1  0.623082  0.000230  0.622852  1
  Co  Co14  1  0.111622  0.611663  0.499959  1
  Co  Co15  1  0.889488  0.388349  0.501139  1
  Sn  Sn16  1  0.499974  0.500568  0.999406  1
  Ru  Ru17  1  0.998558  0.999672  0.998885  1
