# generated using pymatgen
data_Ho4Tc3B8Os
_symmetry_space_group_name_H-M   'P 1'
_cell_length_a   5.28561800
_cell_length_b   5.92534323
_cell_length_c   6.41782082
_cell_angle_alpha   90.30616535
_cell_angle_beta   90.00000000
_cell_angle_gamma   90.00000000
_symmetry_Int_Tables_number   1
_chemical_formula_structural   Ho4Tc3B8Os
_chemical_formula_sum   'Ho4 Tc3 B8 Os1'
_cell_volume   200.99750769
_cell_formula_units_Z   1
loop_
 _symmetry_equiv_pos_site_id
 _symmetry_equiv_pos_as_xyz
  1  'x, y, z'
loop_
 _atom_site_type_symbol
 _atom_site_label
 _atom_site_symmetry_multiplicity
 _atom_site_fract_x
 _atom_site_fract_y
 _atom_site_fract_z
 _atom_site_occupancy
  Ho  Ho0  1  0.250000  0.013650  0.338444  1
  Ho  Ho1  1  0.250000  0.513386  0.161077  1
  Ho  Ho2  1  0.750000  0.985647  0.663248  1
  Ho  Ho3  1  0.750000  0.485620  0.836799  1
  Tc  Tc4  1  0.250000  0.181219  0.814264  1
  Tc  Tc5  1  0.250000  0.679373  0.684075  1
  Tc  Tc6  1  0.750000  0.819785  0.185721  1
  B  B7  1  0.078531  0.368631  0.536140  1
  B  B8  1  0.420937  0.870311  0.964017  1
  B  B9  1  0.580331  0.631140  0.463948  1
  B  B10  1  0.920554  0.132125  0.036855  1
  B  B11  1  0.919669  0.631140  0.463948  1
  B  B12  1  0.579446  0.132125  0.036855  1
  B  B13  1  0.421469  0.368631  0.536140  1
  B  B14  1  0.079063  0.870311  0.964017  1
  Os  Os15  1  0.750000  0.316905  0.314452  1
