# generated using pymatgen
data_Er4Zr3SnF28
_symmetry_space_group_name_H-M   'P 1'
_cell_length_a   5.62876692
_cell_length_b   8.96320825
_cell_length_c   12.13433300
_cell_angle_alpha   62.69775896
_cell_angle_beta   89.95262646
_cell_angle_gamma   89.93785820
_symmetry_Int_Tables_number   1
_chemical_formula_structural   Er4Zr3SnF28
_chemical_formula_sum   'Er4 Zr3 Sn1 F28'
_cell_volume   543.99929830
_cell_formula_units_Z   1
loop_
 _symmetry_equiv_pos_site_id
 _symmetry_equiv_pos_as_xyz
  1  'x, y, z'
loop_
 _atom_site_type_symbol
 _atom_site_label
 _atom_site_symmetry_multiplicity
 _atom_site_fract_x
 _atom_site_fract_y
 _atom_site_fract_z
 _atom_site_occupancy
  Er  Er0  1  0.756787  0.817081  0.764495  1
  Er  Er1  1  0.255995  0.184206  0.733397  1
  Er  Er2  1  0.242772  0.183681  0.237898  1
  Er  Er3  1  0.744013  0.814716  0.265940  1
  Zr  Zr4  1  0.756563  0.273180  0.957390  1
  Zr  Zr5  1  0.256126  0.725990  0.543077  1
  Zr  Zr6  1  0.244091  0.725341  0.043840  1
  Sn  Sn7  1  0.742075  0.272695  0.457140  1
  F  F8  1  0.457733  0.708314  0.915157  1
  F  F9  1  0.944868  0.294273  0.584111  1
  F  F10  1  0.542190  0.290455  0.085696  1
  F  F11  1  0.042247  0.709131  0.414823  1
  F  F12  1  0.440381  0.274154  0.546123  1
  F  F13  1  0.938789  0.728256  0.950235  1
  F  F14  1  0.562143  0.725247  0.451450  1
  F  F15  1  0.061654  0.271060  0.050866  1
  F  F16  1  0.781378  0.527449  0.859482  1
  F  F17  1  0.275470  0.471572  0.639713  1
  F  F18  1  0.218243  0.471326  0.141974  1
  F  F19  1  0.720784  0.521554  0.359316  1
  F  F20  1  0.758312  0.019194  0.059596  1
  F  F21  1  0.258527  0.979999  0.441589  1
  F  F22  1  0.242343  0.978891  0.939482  1
  F  F23  1  0.743826  0.023092  0.553526  1
  F  F24  1  0.972773  0.732308  0.645196  1
  F  F25  1  0.474580  0.269160  0.853384  1
  F  F26  1  0.027726  0.272448  0.358859  1
  F  F27  1  0.527164  0.729859  0.146575  1
  F  F28  1  0.041177  0.748695  0.175484  1
  F  F29  1  0.545295  0.254656  0.325406  1
  F  F30  1  0.961288  0.251321  0.825211  1
  F  F31  1  0.461099  0.749144  0.674308  1
  F  F32  1  0.424579  0.971579  0.235079  1
  F  F33  1  0.923732  0.028310  0.267282  1
  F  F34  1  0.576635  0.029659  0.765180  1
  F  F35  1  0.076643  0.972005  0.731721  1
