# generated using pymatgen
data_Yb14TlSb11
_symmetry_space_group_name_H-M   'P 1'
_cell_length_a   16.21706344
_cell_length_b   16.21706364
_cell_length_c   16.21706400
_cell_angle_alpha   117.95788830
_cell_angle_beta   117.95788868
_cell_angle_gamma   93.57500032
_symmetry_Int_Tables_number   1
_chemical_formula_structural   Yb14TlSb11
_chemical_formula_sum   'Yb56 Tl4 Sb44'
_cell_volume   3102.34833613
_cell_formula_units_Z   4
loop_
 _symmetry_equiv_pos_site_id
 _symmetry_equiv_pos_as_xyz
  1  'x, y, z'
loop_
 _atom_site_type_symbol
 _atom_site_label
 _atom_site_symmetry_multiplicity
 _atom_site_fract_x
 _atom_site_fract_y
 _atom_site_fract_z
 _atom_site_occupancy
  Yb  Yb0  1  0.001443  0.719785  0.631136  1
  Yb  Yb1  1  0.501443  0.870308  0.281658  1
  Yb  Yb2  1  0.969785  0.751443  0.131136  1
  Yb  Yb3  1  0.469785  0.338650  0.218342  1
  Yb  Yb4  1  0.748557  0.530215  0.868864  1
  Yb  Yb5  1  0.248557  0.379692  0.218342  1
  Yb  Yb6  1  0.780215  0.498557  0.368864  1
  Yb  Yb7  1  0.280215  0.911350  0.281658  1
  Yb  Yb8  1  0.588650  0.219785  0.718342  1
  Yb  Yb9  1  0.088650  0.370308  0.368864  1
  Yb  Yb10  1  0.120308  0.251443  0.781658  1
  Yb  Yb11  1  0.620308  0.838650  0.868864  1
  Yb  Yb12  1  0.161350  0.030215  0.781658  1
  Yb  Yb13  1  0.661350  0.879692  0.131136  1
  Yb  Yb14  1  0.629692  0.998557  0.718342  1
  Yb  Yb15  1  0.129692  0.411350  0.631136  1
  Yb  Yb16  1  0.846822  0.743991  0.849539  1
  Yb  Yb17  1  0.346822  0.497282  0.102831  1
  Yb  Yb18  1  0.993991  0.596822  0.349539  1
  Yb  Yb19  1  0.493991  0.144451  0.397169  1
  Yb  Yb20  1  0.903178  0.506009  0.650461  1
  Yb  Yb21  1  0.403178  0.752718  0.397169  1
  Yb  Yb22  1  0.756009  0.653178  0.150461  1
  Yb  Yb23  1  0.256009  0.105549  0.102831  1
  Yb  Yb24  1  0.394451  0.243991  0.897169  1
  Yb  Yb25  1  0.894451  0.997282  0.150461  1
  Yb  Yb26  1  0.747282  0.096822  0.602831  1
  Yb  Yb27  1  0.247282  0.644451  0.650461  1
  Yb  Yb28  1  0.355549  0.006009  0.602831  1
  Yb  Yb29  1  0.855549  0.252718  0.349539  1
  Yb  Yb30  1  0.002718  0.153178  0.897169  1
  Yb  Yb31  1  0.502718  0.605549  0.849539  1
  Yb  Yb32  1  0.977353  0.375000  0.102353  1
  Yb  Yb33  1  0.477353  0.375000  0.602353  1
  Yb  Yb34  1  0.625000  0.727353  0.602353  1
  Yb  Yb35  1  0.125000  0.522647  0.897647  1
  Yb  Yb36  1  0.772647  0.875000  0.397647  1
  Yb  Yb37  1  0.272647  0.875000  0.897647  1
  Yb  Yb38  1  0.625000  0.227353  0.102353  1
  Yb  Yb39  1  0.125000  0.022647  0.397647  1
  Yb  Yb40  1  0.212271  0.193121  0.340535  1
  Yb  Yb41  1  0.712271  0.371736  0.019150  1
  Yb  Yb42  1  0.443121  0.962271  0.840535  1
  Yb  Yb43  1  0.943121  0.102586  0.480850  1
  Yb  Yb44  1  0.537729  0.056879  0.159465  1
  Yb  Yb45  1  0.037729  0.878264  0.480850  1
  Yb  Yb46  1  0.306879  0.287729  0.659465  1
  Yb  Yb47  1  0.806879  0.147414  0.019150  1
  Yb  Yb48  1  0.352586  0.693121  0.980850  1
  Yb  Yb49  1  0.852586  0.871736  0.659465  1
  Yb  Yb50  1  0.621736  0.462271  0.519150  1
  Yb  Yb51  1  0.121736  0.602586  0.159465  1
  Yb  Yb52  1  0.397414  0.556879  0.519150  1
  Yb  Yb53  1  0.897414  0.378264  0.840535  1
  Yb  Yb54  1  0.128264  0.787729  0.980850  1
  Yb  Yb55  1  0.628264  0.647414  0.340535  1
  Tl  Tl56  1  0.000000  0.000000  0.000000  1
  Tl  Tl57  1  0.500000  0.500000  0.000000  1
  Tl  Tl58  1  0.250000  0.750000  0.500000  1
  Tl  Tl59  1  0.750000  0.250000  0.500000  1
  Sb  Sb60  1  0.885623  0.885623  0.271246  1
  Sb  Sb61  1  0.385623  0.114377  0.000000  1
  Sb  Sb62  1  0.135623  0.635623  0.771246  1
  Sb  Sb63  1  0.635623  0.864377  0.500000  1
  Sb  Sb64  1  0.864377  0.364377  0.228754  1
  Sb  Sb65  1  0.364377  0.135623  0.500000  1
  Sb  Sb66  1  0.614377  0.614377  0.728754  1
  Sb  Sb67  1  0.114377  0.385623  0.000000  1
  Sb  Sb68  1  0.075262  0.921085  0.857965  1
  Sb  Sb69  1  0.575262  0.717296  0.154176  1
  Sb  Sb70  1  0.171085  0.825262  0.357965  1
  Sb  Sb71  1  0.671085  0.313120  0.345824  1
  Sb  Sb72  1  0.674738  0.328915  0.642035  1
  Sb  Sb73  1  0.174738  0.532704  0.345824  1
  Sb  Sb74  1  0.578915  0.424738  0.142035  1
  Sb  Sb75  1  0.078915  0.936880  0.154176  1
  Sb  Sb76  1  0.563120  0.421085  0.845824  1
  Sb  Sb77  1  0.063120  0.217296  0.142035  1
  Sb  Sb78  1  0.967296  0.325262  0.654176  1
  Sb  Sb79  1  0.467296  0.813120  0.642035  1
  Sb  Sb80  1  0.186880  0.828915  0.654176  1
  Sb  Sb81  1  0.686880  0.032704  0.357965  1
  Sb  Sb82  1  0.782704  0.924738  0.845824  1
  Sb  Sb83  1  0.282704  0.436880  0.857965  1
  Sb  Sb84  1  0.791579  0.645553  0.593290  1
  Sb  Sb85  1  0.291579  0.698289  0.146027  1
  Sb  Sb86  1  0.895553  0.541579  0.093290  1
  Sb  Sb87  1  0.395553  0.302262  0.353973  1
  Sb  Sb88  1  0.958421  0.604447  0.906710  1
  Sb  Sb89  1  0.458421  0.551711  0.353973  1
  Sb  Sb90  1  0.854447  0.708421  0.406710  1
  Sb  Sb91  1  0.354447  0.947738  0.146027  1
  Sb  Sb92  1  0.552262  0.145553  0.853973  1
  Sb  Sb93  1  0.052262  0.198289  0.406710  1
  Sb  Sb94  1  0.948289  0.041579  0.646027  1
  Sb  Sb95  1  0.448289  0.802262  0.906710  1
  Sb  Sb96  1  0.197738  0.104447  0.646027  1
  Sb  Sb97  1  0.697738  0.051711  0.093290  1
  Sb  Sb98  1  0.801711  0.208421  0.853973  1
  Sb  Sb99  1  0.301711  0.447738  0.593290  1
  Sb  Sb100  1  0.750000  0.750000  0.000000  1
  Sb  Sb101  1  0.250000  0.250000  0.000000  1
  Sb  Sb102  1  0.000000  0.500000  0.500000  1
  Sb  Sb103  1  0.500000  0.000000  0.500000  1
