# generated using pymatgen
data_Pr5Ni4(P4Ru5)3
_symmetry_space_group_name_H-M   'P 1'
_cell_length_a   12.58814400
_cell_length_b   12.58814358
_cell_length_c   3.91321400
_cell_angle_alpha   90.00000000
_cell_angle_beta   90.00000000
_cell_angle_gamma   120.00000112
_symmetry_Int_Tables_number   1
_chemical_formula_structural   Pr5Ni4(P4Ru5)3
_chemical_formula_sum   'Pr5 Ni4 P12 Ru15'
_cell_volume   537.01648224
_cell_formula_units_Z   1
loop_
 _symmetry_equiv_pos_site_id
 _symmetry_equiv_pos_as_xyz
  1  'x, y, z'
loop_
 _atom_site_type_symbol
 _atom_site_label
 _atom_site_symmetry_multiplicity
 _atom_site_fract_x
 _atom_site_fract_y
 _atom_site_fract_z
 _atom_site_occupancy
  Pr  Pr0  1  0.666667  0.333333  0.000000  1
  Pr  Pr1  1  0.333333  0.666667  0.000000  1
  Pr  Pr2  1  0.185302  0.185302  0.500000  1
  Pr  Pr3  1  0.814698  0.000000  0.500000  1
  Pr  Pr4  1  0.000000  0.814698  0.500000  1
  Ni  Ni5  1  0.715909  0.715909  0.500000  1
  Ni  Ni6  1  0.284091  0.000000  0.500000  1
  Ni  Ni7  1  0.000000  0.284091  0.500000  1
  Ni  Ni8  1  0.000000  0.000000  0.000000  1
  P  P9  1  0.370372  0.370372  0.000000  1
  P  P10  1  0.629628  0.000000  0.000000  1
  P  P11  1  0.000000  0.629628  0.000000  1
  P  P12  1  0.834983  0.311377  0.500000  1
  P  P13  1  0.688623  0.523605  0.500000  1
  P  P14  1  0.476395  0.165017  0.500000  1
  P  P15  1  0.311377  0.834983  0.500000  1
  P  P16  1  0.523605  0.688623  0.500000  1
  P  P17  1  0.165017  0.476395  0.500000  1
  P  P18  1  0.822015  0.822015  0.000000  1
  P  P19  1  0.177985  0.000000  0.000000  1
  P  P20  1  0.000000  0.177985  0.000000  1
  Ru  Ru21  1  0.824602  0.197556  0.000000  1
  Ru  Ru22  1  0.802444  0.627044  0.000000  1
  Ru  Ru23  1  0.372956  0.175398  0.000000  1
  Ru  Ru24  1  0.197556  0.824602  0.000000  1
  Ru  Ru25  1  0.627044  0.802444  0.000000  1
  Ru  Ru26  1  0.175398  0.372956  0.000000  1
  Ru  Ru27  1  0.553536  0.553536  0.000000  1
  Ru  Ru28  1  0.446464  0.000000  0.000000  1
  Ru  Ru29  1  0.000000  0.446464  0.000000  1
  Ru  Ru30  1  0.638749  0.124891  0.500000  1
  Ru  Ru31  1  0.875109  0.513859  0.500000  1
  Ru  Ru32  1  0.486141  0.361251  0.500000  1
  Ru  Ru33  1  0.124891  0.638749  0.500000  1
  Ru  Ru34  1  0.513859  0.875109  0.500000  1
  Ru  Ru35  1  0.361251  0.486141  0.500000  1
