# generated using pymatgen
data_Y3ErPt4F28
_symmetry_space_group_name_H-M   'P 1'
_cell_length_a   5.55021016
_cell_length_b   8.87864682
_cell_length_c   11.99620287
_cell_angle_alpha   62.52219750
_cell_angle_beta   89.97232917
_cell_angle_gamma   89.98436429
_symmetry_Int_Tables_number   1
_chemical_formula_structural   Y3ErPt4F28
_chemical_formula_sum   'Y3 Er1 Pt4 F28'
_cell_volume   524.46490166
_cell_formula_units_Z   1
loop_
 _symmetry_equiv_pos_site_id
 _symmetry_equiv_pos_as_xyz
  1  'x, y, z'
loop_
 _atom_site_type_symbol
 _atom_site_label
 _atom_site_symmetry_multiplicity
 _atom_site_fract_x
 _atom_site_fract_y
 _atom_site_fract_z
 _atom_site_occupancy
  Y  Y0  1  0.761228  0.813217  0.764470  1
  Y  Y1  1  0.261085  0.186721  0.735505  1
  Y  Y2  1  0.238688  0.184785  0.235786  1
  Er  Er3  1  0.738800  0.813099  0.264251  1
  Pt  Pt4  1  0.758999  0.271821  0.957276  1
  Pt  Pt5  1  0.259510  0.727880  0.542311  1
  Pt  Pt6  1  0.240620  0.727672  0.044172  1
  Pt  Pt7  1  0.740757  0.273500  0.456235  1
  F  F8  1  0.434225  0.702228  0.916721  1
  F  F9  1  0.934439  0.298181  0.583978  1
  F  F10  1  0.565003  0.297655  0.084434  1
  F  F11  1  0.063524  0.703042  0.415091  1
  F  F12  1  0.438907  0.277599  0.541621  1
  F  F13  1  0.939809  0.722687  0.958548  1
  F  F14  1  0.561515  0.723964  0.456135  1
  F  F15  1  0.060867  0.276839  0.042188  1
  F  F16  1  0.776777  0.520733  0.858916  1
  F  F17  1  0.277069  0.479039  0.640886  1
  F  F18  1  0.223158  0.478547  0.141557  1
  F  F19  1  0.723542  0.523151  0.358315  1
  F  F20  1  0.753441  0.022610  0.050864  1
  F  F21  1  0.253113  0.976714  0.450142  1
  F  F22  1  0.246471  0.976570  0.950883  1
  F  F23  1  0.746482  0.024650  0.548942  1
  F  F24  1  0.966418  0.723535  0.635764  1
  F  F25  1  0.465507  0.276319  0.864145  1
  F  F26  1  0.034551  0.276477  0.363648  1
  F  F27  1  0.534502  0.724781  0.137233  1
  F  F28  1  0.049889  0.746625  0.176225  1
  F  F29  1  0.552795  0.254657  0.323844  1
  F  F30  1  0.946750  0.254177  0.824267  1
  F  F31  1  0.447099  0.745585  0.675338  1
  F  F32  1  0.418757  0.967904  0.232873  1
  F  F33  1  0.913387  0.027132  0.267425  1
  F  F34  1  0.586246  0.030575  0.767776  1
  F  F35  1  0.086070  0.969329  0.732232  1
