# generated using pymatgen
data_NaTbY5Co6Sn23
_symmetry_space_group_name_H-M   'P 1'
_cell_length_a   9.73225903
_cell_length_b   9.73299582
_cell_length_c   9.96849103
_cell_angle_alpha   90.00000144
_cell_angle_beta   90.00775926
_cell_angle_gamma   120.00250941
_symmetry_Int_Tables_number   1
_chemical_formula_structural   NaTbY5Co6Sn23
_chemical_formula_sum   'Na1 Tb1 Y5 Co6 Sn23'
_cell_volume   817.72874154
_cell_formula_units_Z   1
loop_
 _symmetry_equiv_pos_site_id
 _symmetry_equiv_pos_as_xyz
  1  'x, y, z'
loop_
 _atom_site_type_symbol
 _atom_site_label
 _atom_site_symmetry_multiplicity
 _atom_site_fract_x
 _atom_site_fract_y
 _atom_site_fract_z
 _atom_site_occupancy
  Na  Na0  1  0.999998  0.999999  0.999998  1
  Tb  Tb1  1  0.042271  0.521136  0.305596  1
  Y  Y2  1  0.478849  0.957736  0.305611  1
  Y  Y3  1  0.478849  0.521112  0.305611  1
  Y  Y4  1  0.957718  0.478859  0.694371  1
  Y  Y5  1  0.521150  0.042270  0.694389  1
  Y  Y6  1  0.521150  0.478879  0.694389  1
  Co  Co7  1  0.170267  0.829758  0.799331  1
  Co  Co8  1  0.659491  0.829745  0.799323  1
  Co  Co9  1  0.170267  0.340509  0.799331  1
  Co  Co10  1  0.829749  0.170279  0.200673  1
  Co  Co11  1  0.340518  0.170259  0.200669  1
  Co  Co12  1  0.829749  0.659470  0.200673  1
  Sn  Sn13  1  0.999989  0.999995  0.499994  1
  Sn  Sn14  1  0.115892  0.884169  0.272162  1
  Sn  Sn15  1  0.768278  0.884139  0.272154  1
  Sn  Sn16  1  0.115892  0.231724  0.272162  1
  Sn  Sn17  1  0.884130  0.115864  0.727848  1
  Sn  Sn18  1  0.231717  0.115858  0.727848  1
  Sn  Sn19  1  0.884130  0.768264  0.727848  1
  Sn  Sn20  1  0.343818  0.000004  0.000002  1
  Sn  Sn21  1  0.656169  0.656186  0.999997  1
  Sn  Sn22  1  0.000013  0.343836  0.999993  1
  Sn  Sn23  1  0.343818  0.343814  0.000002  1
  Sn  Sn24  1  0.000013  0.656177  0.999993  1
  Sn  Sn25  1  0.656169  0.999983  0.999997  1
  Sn  Sn26  1  0.781455  0.562941  0.452872  1
  Sn  Sn27  1  0.781455  0.218514  0.452872  1
  Sn  Sn28  1  0.437058  0.218529  0.452830  1
  Sn  Sn29  1  0.218508  0.437061  0.547163  1
  Sn  Sn30  1  0.218508  0.781446  0.547163  1
  Sn  Sn31  1  0.562942  0.781471  0.547166  1
  Sn  Sn32  1  0.666662  0.333331  0.184972  1
  Sn  Sn33  1  0.333337  0.666669  0.815025  1
  Sn  Sn34  1  0.666671  0.333335  0.884935  1
  Sn  Sn35  1  0.333353  0.666677  0.115036  1
