# generated using pymatgen
data_Hf8ZnIn4Pd4Pt3
_symmetry_space_group_name_H-M   'P 1'
_cell_length_a   7.48837724
_cell_length_b   7.49312518
_cell_length_c   6.87293789
_cell_angle_alpha   90.11799666
_cell_angle_beta   90.20335819
_cell_angle_gamma   90.35301724
_symmetry_Int_Tables_number   1
_chemical_formula_structural   Hf8ZnIn4Pd4Pt3
_chemical_formula_sum   'Hf8 Zn1 In4 Pd4 Pt3'
_cell_volume   385.63922553
_cell_formula_units_Z   1
loop_
 _symmetry_equiv_pos_site_id
 _symmetry_equiv_pos_as_xyz
  1  'x, y, z'
loop_
 _atom_site_type_symbol
 _atom_site_label
 _atom_site_symmetry_multiplicity
 _atom_site_fract_x
 _atom_site_fract_y
 _atom_site_fract_z
 _atom_site_occupancy
  Hf  Hf0  1  0.142207  0.146232  0.996212  1
  Hf  Hf1  1  0.844291  0.848667  0.001443  1
  Hf  Hf2  1  0.654473  0.354375  0.506482  1
  Hf  Hf3  1  0.357200  0.652042  0.504357  1
  Hf  Hf4  1  0.696334  0.314402  0.993407  1
  Hf  Hf5  1  0.316690  0.694910  0.995342  1
  Hf  Hf6  1  0.809168  0.811671  0.498176  1
  Hf  Hf7  1  0.182219  0.184579  0.503991  1
  Zn  Zn8  1  0.371111  0.370223  0.207431  1
  In  In9  1  0.498359  0.004851  0.250066  1
  In  In10  1  0.497761  0.004429  0.746278  1
  In  In11  1  0.003951  0.499390  0.250477  1
  In  In12  1  0.005709  0.502779  0.746273  1
  Pd  Pd13  1  0.869399  0.129998  0.288323  1
  Pd  Pd14  1  0.367329  0.367265  0.796172  1
  Pd  Pd15  1  0.130336  0.869002  0.285138  1
  Pd  Pd16  1  0.131165  0.866992  0.711603  1
  Pt  Pt17  1  0.629342  0.629026  0.786330  1
  Pt  Pt18  1  0.621677  0.621521  0.216899  1
  Pt  Pt19  1  0.871279  0.127646  0.715600  1
