# generated using pymatgen
data_Ba4Nd5Y3Se16
_symmetry_space_group_name_H-M   'P 1'
_cell_length_a   4.29948400
_cell_length_b   12.98851966
_cell_length_c   15.46418700
_cell_angle_alpha   89.85143731
_cell_angle_beta   90.00000000
_cell_angle_gamma   90.00000000
_symmetry_Int_Tables_number   1
_chemical_formula_structural   Ba4Nd5Y3Se16
_chemical_formula_sum   'Ba4 Nd5 Y3 Se16'
_cell_volume   863.57811154
_cell_formula_units_Z   1
loop_
 _symmetry_equiv_pos_site_id
 _symmetry_equiv_pos_as_xyz
  1  'x, y, z'
loop_
 _atom_site_type_symbol
 _atom_site_label
 _atom_site_symmetry_multiplicity
 _atom_site_fract_x
 _atom_site_fract_y
 _atom_site_fract_z
 _atom_site_occupancy
  Ba  Ba0  1  0.250000  0.758893  0.338773  1
  Ba  Ba1  1  0.250000  0.256715  0.164216  1
  Ba  Ba2  1  0.750000  0.241027  0.659562  1
  Ba  Ba3  1  0.750000  0.741678  0.837687  1
  Nd  Nd4  1  0.250000  0.429973  0.389902  1
  Nd  Nd5  1  0.250000  0.929398  0.109875  1
  Nd  Nd6  1  0.750000  0.572332  0.607343  1
  Nd  Nd7  1  0.750000  0.067962  0.889563  1
  Nd  Nd8  1  0.250000  0.422245  0.901034  1
  Y  Y9  1  0.250000  0.923008  0.599265  1
  Y  Y10  1  0.750000  0.578719  0.101582  1
  Y  Y11  1  0.750000  0.076104  0.400467  1
  Se  Se12  1  0.250000  0.208550  0.826325  1
  Se  Se13  1  0.250000  0.713694  0.669321  1
  Se  Se14  1  0.750000  0.787643  0.171745  1
  Se  Se15  1  0.750000  0.286391  0.331110  1
  Se  Se16  1  0.250000  0.125661  0.522434  1
  Se  Se17  1  0.250000  0.630331  0.979923  1
  Se  Se18  1  0.750000  0.873640  0.477099  1
  Se  Se19  1  0.750000  0.373859  0.029379  1
  Se  Se20  1  0.250000  0.523913  0.213884  1
  Se  Se21  1  0.250000  0.022790  0.287158  1
  Se  Se22  1  0.750000  0.479639  0.782858  1
  Se  Se23  1  0.750000  0.975974  0.712402  1
  Se  Se24  1  0.250000  0.416241  0.578900  1
  Se  Se25  1  0.250000  0.914288  0.920466  1
  Se  Se26  1  0.750000  0.585008  0.418599  1
  Se  Se27  1  0.750000  0.084325  0.079126  1
