# generated using pymatgen
data_Ce2BeCoSi4
_symmetry_space_group_name_H-M   'P 1'
_cell_length_a   8.40282410
_cell_length_b   8.40282454
_cell_length_c   4.01507900
_cell_angle_alpha   90.00000000
_cell_angle_beta   90.00000000
_cell_angle_gamma   151.72536243
_symmetry_Int_Tables_number   1
_chemical_formula_structural   Ce2BeCoSi4
_chemical_formula_sum   'Ce2 Be1 Co1 Si4'
_cell_volume   134.29090214
_cell_formula_units_Z   1
loop_
 _symmetry_equiv_pos_site_id
 _symmetry_equiv_pos_as_xyz
  1  'x, y, z'
loop_
 _atom_site_type_symbol
 _atom_site_label
 _atom_site_symmetry_multiplicity
 _atom_site_fract_x
 _atom_site_fract_y
 _atom_site_fract_z
 _atom_site_occupancy
  Ce  Ce0  1  0.111062  0.888938  0.250000  1
  Ce  Ce1  1  0.896320  0.103680  0.750000  1
  Be  Be2  1  0.674836  0.325164  0.750000  1
  Co  Co3  1  0.318100  0.681900  0.250000  1
  Si  Si4  1  0.752469  0.247531  0.250000  1
  Si  Si5  1  0.250307  0.749693  0.750000  1
  Si  Si6  1  0.538416  0.461584  0.750000  1
  Si  Si7  1  0.458490  0.541510  0.250000  1
