# generated using pymatgen
data_Ce2Dy2Ga12Pd
_symmetry_space_group_name_H-M   'P 1'
_cell_length_a   7.60885394
_cell_length_b   7.60885367
_cell_length_c   7.53770564
_cell_angle_alpha   109.33766739
_cell_angle_beta   109.33766347
_cell_angle_gamma   110.11607888
_symmetry_Int_Tables_number   1
_chemical_formula_structural   Ce2Dy2Ga12Pd
_chemical_formula_sum   'Ce2 Dy2 Ga12 Pd1'
_cell_volume   334.34468532
_cell_formula_units_Z   1
loop_
 _symmetry_equiv_pos_site_id
 _symmetry_equiv_pos_as_xyz
  1  'x, y, z'
loop_
 _atom_site_type_symbol
 _atom_site_label
 _atom_site_symmetry_multiplicity
 _atom_site_fract_x
 _atom_site_fract_y
 _atom_site_fract_z
 _atom_site_occupancy
  Ce  Ce0  1  0.000000  0.000000  0.500000  1
  Ce  Ce1  1  0.500000  0.500000  0.500000  1
  Dy  Dy2  1  0.000000  0.500000  0.000000  1
  Dy  Dy3  1  0.500000  0.000000  0.000000  1
  Ga  Ga4  1  0.750000  0.250000  0.500000  1
  Ga  Ga5  1  0.749470  0.498654  0.248123  1
  Ga  Ga6  1  0.501346  0.250530  0.751877  1
  Ga  Ga7  1  0.250530  0.501346  0.751877  1
  Ga  Ga8  1  0.250000  0.750000  0.500000  1
  Ga  Ga9  1  0.498654  0.749470  0.248123  1
  Ga  Ga10  1  0.702741  0.702741  0.000000  1
  Ga  Ga11  1  0.296964  0.999787  0.296751  1
  Ga  Ga12  1  0.999787  0.296964  0.296751  1
  Ga  Ga13  1  0.297259  0.297259  0.000000  1
  Ga  Ga14  1  0.703036  0.000213  0.703249  1
  Ga  Ga15  1  0.000213  0.703036  0.703249  1
  Pd  Pd16  1  0.000000  0.000000  0.000000  1
