# generated using pymatgen
data_CeGd(B4Mo)2
_symmetry_space_group_name_H-M   'P 1'
_cell_length_a   6.05551401
_cell_length_b   11.70913688
_cell_length_c   3.67166100
_cell_angle_alpha   90.00000000
_cell_angle_beta   90.00000000
_cell_angle_gamma   89.90668169
_symmetry_Int_Tables_number   1
_chemical_formula_structural   CeGd(B4Mo)2
_chemical_formula_sum   'Ce2 Gd2 B16 Mo4'
_cell_volume   260.33819930
_cell_formula_units_Z   2
loop_
 _symmetry_equiv_pos_site_id
 _symmetry_equiv_pos_as_xyz
  1  'x, y, z'
loop_
 _atom_site_type_symbol
 _atom_site_label
 _atom_site_symmetry_multiplicity
 _atom_site_fract_x
 _atom_site_fract_y
 _atom_site_fract_z
 _atom_site_occupancy
  Ce  Ce0  1  0.625381  0.348763  0.000000  1
  Ce  Ce1  1  0.374619  0.651237  0.000000  1
  Gd  Gd2  1  0.125471  0.149821  0.000000  1
  Gd  Gd3  1  0.874529  0.850179  0.000000  1
  B  B4  1  0.785933  0.184935  0.500000  1
  B  B5  1  0.214067  0.815065  0.500000  1
  B  B6  1  0.285477  0.314192  0.500000  1
  B  B7  1  0.714523  0.685808  0.500000  1
  B  B8  1  0.865545  0.032093  0.500000  1
  B  B9  1  0.134455  0.967907  0.500000  1
  B  B10  1  0.364417  0.467706  0.500000  1
  B  B11  1  0.635583  0.532294  0.500000  1
  B  B12  1  0.886404  0.452904  0.500000  1
  B  B13  1  0.113596  0.547096  0.500000  1
  B  B14  1  0.385685  0.046835  0.500000  1
  B  B15  1  0.614315  0.953165  0.500000  1
  B  B16  1  0.974518  0.307480  0.500000  1
  B  B17  1  0.025482  0.692520  0.500000  1
  B  B18  1  0.476384  0.191997  0.500000  1
  B  B19  1  0.523616  0.808003  0.500000  1
  Mo  Mo20  1  0.628362  0.084204  0.000000  1
  Mo  Mo21  1  0.371638  0.915796  0.000000  1
  Mo  Mo22  1  0.130957  0.415469  0.000000  1
  Mo  Mo23  1  0.869043  0.584531  0.000000  1
