# generated using pymatgen
data_Pr16Tm4Ir5Pt7
_symmetry_space_group_name_H-M   'P 1'
_cell_length_a   11.38634195
_cell_length_b   11.38634195
_cell_length_c   6.52756467
_cell_angle_alpha   90.11622101
_cell_angle_beta   90.11622101
_cell_angle_gamma   90.09648398
_symmetry_Int_Tables_number   1
_chemical_formula_structural   Pr16Tm4Ir5Pt7
_chemical_formula_sum   'Pr16 Tm4 Ir5 Pt7'
_cell_volume   846.28612694
_cell_formula_units_Z   1
loop_
 _symmetry_equiv_pos_site_id
 _symmetry_equiv_pos_as_xyz
  1  'x, y, z'
loop_
 _atom_site_type_symbol
 _atom_site_label
 _atom_site_symmetry_multiplicity
 _atom_site_fract_x
 _atom_site_fract_y
 _atom_site_fract_z
 _atom_site_occupancy
  Pr  Pr0  1  0.291496  0.086963  0.376526  1
  Pr  Pr1  1  0.291954  0.909156  0.877646  1
  Pr  Pr2  1  0.708703  0.087266  0.876802  1
  Pr  Pr3  1  0.708216  0.912119  0.376414  1
  Pr  Pr4  1  0.584228  0.789528  0.876277  1
  Pr  Pr5  1  0.587504  0.209760  0.377219  1
  Pr  Pr6  1  0.410540  0.788827  0.382228  1
  Pr  Pr7  1  0.412191  0.208229  0.876863  1
  Pr  Pr8  1  0.210472  0.415772  0.623723  1
  Pr  Pr9  1  0.211173  0.589460  0.117772  1
  Pr  Pr10  1  0.790240  0.412496  0.122781  1
  Pr  Pr11  1  0.791771  0.587809  0.623137  1
  Pr  Pr12  1  0.913037  0.708504  0.123474  1
  Pr  Pr13  1  0.912734  0.291297  0.623198  1
  Pr  Pr14  1  0.090844  0.708046  0.622354  1
  Pr  Pr15  1  0.087881  0.291784  0.123586  1
  Tm  Tm16  1  0.999988  0.999715  0.500542  1
  Tm  Tm17  1  0.000285  0.000012  0.999458  1
  Tm  Tm18  1  0.498225  0.501188  0.999453  1
  Tm  Tm19  1  0.498812  0.501775  0.500547  1
  Ir  Ir20  1  0.355000  0.645000  0.750000  1
  Ir  Ir21  1  0.500331  0.000313  0.117649  1
  Ir  Ir22  1  0.500144  0.000983  0.616663  1
  Ir  Ir23  1  0.999017  0.499856  0.883337  1
  Ir  Ir24  1  0.999687  0.499669  0.382351  1
  Pt  Pt25  1  0.854974  0.145026  0.250000  1
  Pt  Pt26  1  0.854713  0.854799  0.749984  1
  Pt  Pt27  1  0.145201  0.145287  0.750016  1
  Pt  Pt28  1  0.144742  0.855258  0.250000  1
  Pt  Pt29  1  0.645224  0.354776  0.750000  1
  Pt  Pt30  1  0.646244  0.645572  0.250052  1
  Pt  Pt31  1  0.354428  0.353756  0.249948  1
