# generated using pymatgen
data_Tm16Lu4Ir7Pt5
_symmetry_space_group_name_H-M   'P 1'
_cell_length_a   10.84631650
_cell_length_b   10.84631650
_cell_length_c   6.28200113
_cell_angle_alpha   90.01645164
_cell_angle_beta   90.01645164
_cell_angle_gamma   89.71143610
_symmetry_Int_Tables_number   1
_chemical_formula_structural   Tm16Lu4Ir7Pt5
_chemical_formula_sum   'Tm16 Lu4 Ir7 Pt5'
_cell_volume   739.02139727
_cell_formula_units_Z   1
loop_
 _symmetry_equiv_pos_site_id
 _symmetry_equiv_pos_as_xyz
  1  'x, y, z'
loop_
 _atom_site_type_symbol
 _atom_site_label
 _atom_site_symmetry_multiplicity
 _atom_site_fract_x
 _atom_site_fract_y
 _atom_site_fract_z
 _atom_site_occupancy
  Tm  Tm0  1  0.295433  0.089308  0.375794  1
  Tm  Tm1  1  0.295455  0.909850  0.874831  1
  Tm  Tm2  1  0.704080  0.085334  0.874352  1
  Tm  Tm3  1  0.703797  0.909621  0.374485  1
  Tm  Tm4  1  0.584551  0.789548  0.879123  1
  Tm  Tm5  1  0.582946  0.206788  0.375077  1
  Tm  Tm6  1  0.414632  0.791277  0.378410  1
  Tm  Tm7  1  0.411337  0.207054  0.880973  1
  Tm  Tm8  1  0.210452  0.415449  0.620877  1
  Tm  Tm9  1  0.208723  0.585368  0.121590  1
  Tm  Tm10  1  0.793212  0.417054  0.124923  1
  Tm  Tm11  1  0.792946  0.588663  0.619027  1
  Tm  Tm12  1  0.910692  0.704567  0.124206  1
  Tm  Tm13  1  0.914666  0.295920  0.625648  1
  Tm  Tm14  1  0.090150  0.704545  0.625169  1
  Tm  Tm15  1  0.090379  0.296203  0.125515  1
  Lu  Lu16  1  0.999510  0.000179  0.499570  1
  Lu  Lu17  1  0.999821  0.000490  0.000430  1
  Lu  Lu18  1  0.498184  0.500492  0.000832  1
  Lu  Lu19  1  0.499508  0.501816  0.499168  1
  Ir  Ir20  1  0.653802  0.651801  0.248953  1
  Ir  Ir21  1  0.348199  0.346198  0.251047  1
  Ir  Ir22  1  0.346350  0.653650  0.750000  1
  Ir  Ir23  1  0.500084  0.999872  0.121551  1
  Ir  Ir24  1  0.499739  0.000010  0.623177  1
  Ir  Ir25  1  0.999990  0.500261  0.876823  1
  Ir  Ir26  1  0.000128  0.499916  0.378449  1
  Pt  Pt27  1  0.846619  0.153381  0.250000  1
  Pt  Pt28  1  0.846697  0.848431  0.750390  1
  Pt  Pt29  1  0.151569  0.153303  0.749610  1
  Pt  Pt30  1  0.152400  0.847600  0.250000  1
  Pt  Pt31  1  0.653949  0.346051  0.750000  1
