# generated using pymatgen
data_Ba4SmOsO8
_symmetry_space_group_name_H-M   'P 1'
_cell_length_a   7.45447469
_cell_length_b   7.45447293
_cell_length_c   6.04687000
_cell_angle_alpha   90.00000000
_cell_angle_beta   90.00000000
_cell_angle_gamma   132.38203637
_symmetry_Int_Tables_number   1
_chemical_formula_structural   Ba4SmOsO8
_chemical_formula_sum   'Ba4 Sm1 Os1 O8'
_cell_volume   248.20649862
_cell_formula_units_Z   1
loop_
 _symmetry_equiv_pos_site_id
 _symmetry_equiv_pos_as_xyz
  1  'x, y, z'
loop_
 _atom_site_type_symbol
 _atom_site_label
 _atom_site_symmetry_multiplicity
 _atom_site_fract_x
 _atom_site_fract_y
 _atom_site_fract_z
 _atom_site_occupancy
  Ba  Ba0  1  0.354986  0.645014  0.000000  1
  Ba  Ba1  1  0.852663  0.147337  0.500000  1
  Ba  Ba2  1  0.147337  0.852663  0.500000  1
  Ba  Ba3  1  0.645014  0.354986  0.000000  1
  Sm  Sm4  1  0.000000  0.000000  0.000000  1
  Os  Os5  1  0.500000  0.500000  0.500000  1
  O  O6  1  0.264764  0.264764  0.728899  1
  O  O7  1  0.735236  0.735236  0.271101  1
  O  O8  1  0.735236  0.735236  0.728899  1
  O  O9  1  0.264764  0.264764  0.271101  1
  O  O10  1  0.169213  0.830787  0.000000  1
  O  O11  1  0.649263  0.350737  0.500000  1
  O  O12  1  0.350737  0.649263  0.500000  1
  O  O13  1  0.830787  0.169213  0.000000  1
