# generated using pymatgen
data_Dy4Er8InCo4Ir
_symmetry_space_group_name_H-M   'P 1'
_cell_length_a   8.24936229
_cell_length_b   8.24936252
_cell_length_c   8.24936290
_cell_angle_alpha   111.05911518
_cell_angle_beta   110.81978212
_cell_angle_gamma   106.57314901
_symmetry_Int_Tables_number   1
_chemical_formula_structural   Dy4Er8InCo4Ir
_chemical_formula_sum   'Dy4 Er8 In1 Co4 Ir1'
_cell_volume   431.32887476
_cell_formula_units_Z   1
loop_
 _symmetry_equiv_pos_site_id
 _symmetry_equiv_pos_as_xyz
  1  'x, y, z'
loop_
 _atom_site_type_symbol
 _atom_site_label
 _atom_site_symmetry_multiplicity
 _atom_site_fract_x
 _atom_site_fract_y
 _atom_site_fract_z
 _atom_site_occupancy
  Dy  Dy0  1  0.184683  0.286442  0.471124  1
  Dy  Dy1  1  0.815317  0.713558  0.528876  1
  Dy  Dy2  1  0.184683  0.713558  0.898241  1
  Dy  Dy3  1  0.815317  0.286442  0.101759  1
  Er  Er4  1  0.315315  0.622025  0.306710  1
  Er  Er5  1  0.684685  0.377975  0.693290  1
  Er  Er6  1  0.315315  0.008604  0.693290  1
  Er  Er7  1  0.684685  0.991396  0.306710  1
  Er  Er8  1  0.410089  0.216348  0.193742  1
  Er  Er9  1  0.589911  0.783652  0.806258  1
  Er  Er10  1  0.022606  0.216348  0.806258  1
  Er  Er11  1  0.977394  0.783652  0.193742  1
  In  In12  1  0.500000  0.500000  0.000000  1
  Co  Co13  1  0.112104  0.612104  0.500000  1
  Co  Co14  1  0.887896  0.387896  0.500000  1
  Co  Co15  1  0.377940  0.000000  0.377940  1
  Co  Co16  1  0.622060  0.000000  0.622060  1
  Ir  Ir17  1  0.000000  0.000000  0.000000  1
