# generated using pymatgen
data_Zr3TiNbSn3C
_symmetry_space_group_name_H-M   'P 1'
_cell_length_a   8.36657200
_cell_length_b   8.36657123
_cell_length_c   5.67068700
_cell_angle_alpha   90.00000000
_cell_angle_beta   90.00000000
_cell_angle_gamma   120.00000306
_symmetry_Int_Tables_number   1
_chemical_formula_structural   Zr3TiNbSn3C
_chemical_formula_sum   'Zr6 Ti2 Nb2 Sn6 C2'
_cell_volume   343.76476475
_cell_formula_units_Z   2
loop_
 _symmetry_equiv_pos_site_id
 _symmetry_equiv_pos_as_xyz
  1  'x, y, z'
loop_
 _atom_site_type_symbol
 _atom_site_label
 _atom_site_symmetry_multiplicity
 _atom_site_fract_x
 _atom_site_fract_y
 _atom_site_fract_z
 _atom_site_occupancy
  Zr  Zr0  1  0.223572  0.000000  0.750387  1
  Zr  Zr1  1  0.776428  0.000000  0.249613  1
  Zr  Zr2  1  0.000000  0.223572  0.750387  1
  Zr  Zr3  1  0.000000  0.776428  0.249613  1
  Zr  Zr4  1  0.776428  0.776428  0.750387  1
  Zr  Zr5  1  0.223572  0.223572  0.249613  1
  Ti  Ti6  1  0.333333  0.666667  0.500000  1
  Ti  Ti7  1  0.666667  0.333333  0.500000  1
  Nb  Nb8  1  0.666667  0.333333  0.000000  1
  Nb  Nb9  1  0.333333  0.666667  0.000000  1
  Sn  Sn10  1  0.590890  0.000000  0.747924  1
  Sn  Sn11  1  0.409110  0.000000  0.252076  1
  Sn  Sn12  1  0.000000  0.590890  0.747924  1
  Sn  Sn13  1  0.000000  0.409110  0.252076  1
  Sn  Sn14  1  0.409110  0.409110  0.747924  1
  Sn  Sn15  1  0.590890  0.590890  0.252076  1
  C  C16  1  0.000000  0.000000  0.500000  1
  C  C17  1  0.000000  0.000000  0.000000  1
