# generated using pymatgen
data_Tb2Mn2I
_symmetry_space_group_name_H-M   'P 1'
_cell_length_a   3.88393000
_cell_length_b   3.88392946
_cell_length_c   17.77528400
_cell_angle_alpha   90.00000000
_cell_angle_beta   90.00000000
_cell_angle_gamma   119.99998757
_symmetry_Int_Tables_number   1
_chemical_formula_structural   Tb2Mn2I
_chemical_formula_sum   'Tb4 Mn4 I2'
_cell_volume   232.21483549
_cell_formula_units_Z   2
loop_
 _symmetry_equiv_pos_site_id
 _symmetry_equiv_pos_as_xyz
  1  'x, y, z'
loop_
 _atom_site_type_symbol
 _atom_site_label
 _atom_site_symmetry_multiplicity
 _atom_site_fract_x
 _atom_site_fract_y
 _atom_site_fract_z
 _atom_site_occupancy
  Tb  Tb0  1  0.000000  0.000000  0.109787  1
  Tb  Tb1  1  0.000000  0.000000  0.890213  1
  Tb  Tb2  1  0.000000  0.000000  0.609787  1
  Tb  Tb3  1  0.000000  0.000000  0.390213  1
  Mn  Mn4  1  0.333333  0.666667  0.508775  1
  Mn  Mn5  1  0.666667  0.333333  0.491225  1
  Mn  Mn6  1  0.666667  0.333333  0.008775  1
  Mn  Mn7  1  0.333333  0.666667  0.991225  1
  I  I8  1  0.333333  0.666667  0.250000  1
  I  I9  1  0.666667  0.333333  0.750000  1
