# generated using pymatgen
data_HoErTiIr3
_symmetry_space_group_name_H-M   'P 1'
_cell_length_a   5.17133032
_cell_length_b   5.60084601
_cell_length_c   5.60084500
_cell_angle_alpha   60.00000004
_cell_angle_beta   57.21224554
_cell_angle_gamma   57.21225753
_symmetry_Int_Tables_number   1
_chemical_formula_structural   HoErTiIr3
_chemical_formula_sum   'Ho1 Er1 Ti1 Ir3'
_cell_volume   109.63451077
_cell_formula_units_Z   1
loop_
 _symmetry_equiv_pos_site_id
 _symmetry_equiv_pos_as_xyz
  1  'x, y, z'
loop_
 _atom_site_type_symbol
 _atom_site_label
 _atom_site_symmetry_multiplicity
 _atom_site_fract_x
 _atom_site_fract_y
 _atom_site_fract_z
 _atom_site_occupancy
  Ho  Ho0  1  0.244274  0.251909  0.251909  1
  Er  Er1  1  0.006568  0.997810  0.997810  1
  Ti  Ti2  1  0.124941  0.625020  0.625020  1
  Ir  Ir3  1  0.624739  0.124939  0.625161  1
  Ir  Ir4  1  0.624739  0.625161  0.124939  1
  Ir  Ir5  1  0.624739  0.625161  0.625161  1
