# generated using pymatgen
data_Cs3Th2TlSe6
_symmetry_space_group_name_H-M   'P 1'
_cell_length_a   7.77135912
_cell_length_b   7.77135912
_cell_length_c   8.65514200
_cell_angle_alpha   81.32694775
_cell_angle_beta   81.32694775
_cell_angle_gamma   120.01533689
_symmetry_Int_Tables_number   1
_chemical_formula_structural   Cs3Th2TlSe6
_chemical_formula_sum   'Cs3 Th2 Tl1 Se6'
_cell_volume   431.53262948
_cell_formula_units_Z   1
loop_
 _symmetry_equiv_pos_site_id
 _symmetry_equiv_pos_as_xyz
  1  'x, y, z'
loop_
 _atom_site_type_symbol
 _atom_site_label
 _atom_site_symmetry_multiplicity
 _atom_site_fract_x
 _atom_site_fract_y
 _atom_site_fract_z
 _atom_site_occupancy
  Cs  Cs0  1  0.652262  0.347738  0.500000  1
  Cs  Cs1  1  0.347738  0.652262  0.500000  1
  Cs  Cs2  1  0.000000  0.000000  0.500000  1
  Th  Th3  1  0.832190  0.167810  0.000000  1
  Th  Th4  1  0.167810  0.832190  0.000000  1
  Tl  Tl5  1  0.500000  0.500000  0.000000  1
  Se  Se6  1  0.806184  0.806184  0.191112  1
  Se  Se7  1  0.193816  0.193816  0.808888  1
  Se  Se8  1  0.433024  0.060257  0.197635  1
  Se  Se9  1  0.566976  0.939743  0.802365  1
  Se  Se10  1  0.939743  0.566976  0.802365  1
  Se  Se11  1  0.060257  0.433024  0.197635  1
