# generated using pymatgen
data_LaY3CdNi
_symmetry_space_group_name_H-M   'P 1'
_cell_length_a   9.70068825
_cell_length_b   9.70076474
_cell_length_c   9.70083596
_cell_angle_alpha   59.82186073
_cell_angle_beta   59.82320390
_cell_angle_gamma   59.82363824
_symmetry_Int_Tables_number   1
_chemical_formula_structural   LaY3CdNi
_chemical_formula_sum   'La4 Y12 Cd4 Ni4'
_cell_volume   642.91479400
_cell_formula_units_Z   4
loop_
 _symmetry_equiv_pos_site_id
 _symmetry_equiv_pos_as_xyz
  1  'x, y, z'
loop_
 _atom_site_type_symbol
 _atom_site_label
 _atom_site_symmetry_multiplicity
 _atom_site_fract_x
 _atom_site_fract_y
 _atom_site_fract_z
 _atom_site_occupancy
  La  La0  1  0.599056  0.599108  0.599078  1
  La  La1  1  0.600557  0.600570  0.199462  1
  La  La2  1  0.600622  0.199425  0.600566  1
  La  La3  1  0.199428  0.600546  0.600575  1
  Y  Y4  1  0.063485  0.437168  0.437137  1
  Y  Y5  1  0.435621  0.064087  0.064144  1
  Y  Y6  1  0.437164  0.063406  0.437140  1
  Y  Y7  1  0.064117  0.435670  0.064046  1
  Y  Y8  1  0.437167  0.437204  0.063402  1
  Y  Y9  1  0.064099  0.064082  0.435666  1
  Y  Y10  1  0.185674  0.816104  0.816097  1
  Y  Y11  1  0.815173  0.184790  0.184787  1
  Y  Y12  1  0.816152  0.185675  0.816096  1
  Y  Y13  1  0.184772  0.815199  0.184805  1
  Y  Y14  1  0.816132  0.816094  0.185700  1
  Y  Y15  1  0.184782  0.184816  0.815138  1
  Cd  Cd16  1  0.831876  0.831868  0.831896  1
  Cd  Cd17  1  0.831451  0.831500  0.502778  1
  Cd  Cd18  1  0.831457  0.502801  0.831491  1
  Cd  Cd19  1  0.502756  0.831480  0.831475  1
  Ni  Ni20  1  0.391533  0.391514  0.391535  1
  Ni  Ni21  1  0.390548  0.390431  0.825938  1
  Ni  Ni22  1  0.390421  0.825889  0.390514  1
  Ni  Ni23  1  0.825955  0.390574  0.390535  1
