# generated using pymatgen
data_Y4Zn2CdRu
_symmetry_space_group_name_H-M   'P 1'
_cell_length_a   7.22594657
_cell_length_b   7.08078100
_cell_length_c   7.22581655
_cell_angle_alpha   90.00000000
_cell_angle_beta   90.11379260
_cell_angle_gamma   90.00000000
_symmetry_Int_Tables_number   1
_chemical_formula_structural   Y4Zn2CdRu
_chemical_formula_sum   'Y8 Zn4 Cd2 Ru2'
_cell_volume   369.71066912
_cell_formula_units_Z   2
loop_
 _symmetry_equiv_pos_site_id
 _symmetry_equiv_pos_as_xyz
  1  'x, y, z'
loop_
 _atom_site_type_symbol
 _atom_site_label
 _atom_site_symmetry_multiplicity
 _atom_site_fract_x
 _atom_site_fract_y
 _atom_site_fract_z
 _atom_site_occupancy
  Y  Y0  1  0.763972  0.500106  0.263979  1
  Y  Y1  1  0.763972  0.999894  0.263979  1
  Y  Y2  1  0.234594  0.000105  0.265419  1
  Y  Y3  1  0.234594  0.499894  0.265419  1
  Y  Y4  1  0.765407  0.500105  0.734580  1
  Y  Y5  1  0.765407  0.999895  0.734580  1
  Y  Y6  1  0.236027  0.000100  0.736020  1
  Y  Y7  1  0.236027  0.499900  0.736020  1
  Zn  Zn8  1  0.999753  0.250000  0.999999  1
  Zn  Zn9  1  0.000245  0.750001  0.999999  1
  Zn  Zn10  1  0.500245  0.250000  0.499988  1
  Zn  Zn11  1  0.499752  0.750001  0.500010  1
  Cd  Cd12  1  0.500187  0.250000  0.999993  1
  Cd  Cd13  1  0.499812  0.750001  0.000005  1
  Ru  Ru14  1  0.000123  0.750001  0.499962  1
  Ru  Ru15  1  0.999883  0.250000  0.500042  1
