# generated using pymatgen
data_Ho9Lu(In2Co)4
_symmetry_space_group_name_H-M   'P 1'
_cell_length_a   3.55208700
_cell_length_b   7.91078010
_cell_length_c   17.93664928
_cell_angle_alpha   90.05190732
_cell_angle_beta   90.00000000
_cell_angle_gamma   90.00000000
_symmetry_Int_Tables_number   1
_chemical_formula_structural   Ho9Lu(In2Co)4
_chemical_formula_sum   'Ho9 Lu1 In8 Co4'
_cell_volume   504.01567655
_cell_formula_units_Z   1
loop_
 _symmetry_equiv_pos_site_id
 _symmetry_equiv_pos_as_xyz
  1  'x, y, z'
loop_
 _atom_site_type_symbol
 _atom_site_label
 _atom_site_symmetry_multiplicity
 _atom_site_fract_x
 _atom_site_fract_y
 _atom_site_fract_z
 _atom_site_occupancy
  Ho  Ho0  1  0.000000  0.882627  0.090368  1
  Ho  Ho1  1  0.000000  0.751045  0.278713  1
  Ho  Ho2  1  0.000000  0.747679  0.777477  1
  Ho  Ho3  1  0.000000  0.383478  0.410138  1
  Ho  Ho4  1  0.000000  0.116274  0.909328  1
  Ho  Ho5  1  0.000000  0.247671  0.721234  1
  Ho  Ho6  1  0.000000  0.499540  0.999568  1
  Ho  Ho7  1  0.000000  0.251388  0.222103  1
  Ho  Ho8  1  0.000000  0.002099  0.500415  1
  Lu  Lu9  1  0.000000  0.617567  0.591026  1
  In  In10  1  0.500000  0.205431  0.068905  1
  In  In11  1  0.500000  0.431302  0.846864  1
  In  In12  1  0.500000  0.567398  0.151604  1
  In  In13  1  0.500000  0.068318  0.348157  1
  In  In14  1  0.500000  0.928705  0.651594  1
  In  In15  1  0.500000  0.793656  0.930601  1
  In  In16  1  0.500000  0.703951  0.433121  1
  In  In17  1  0.500000  0.300498  0.569378  1
  Co  Co18  1  0.500000  0.976556  0.196260  1
  Co  Co19  1  0.500000  0.022251  0.803604  1
  Co  Co20  1  0.500000  0.524611  0.694978  1
  Co  Co21  1  0.500000  0.477954  0.304566  1
