# generated using pymatgen
data_Pr8Y12Si15Pd
_symmetry_space_group_name_H-M   'P 1'
_cell_length_a   7.58405715
_cell_length_b   7.81178899
_cell_length_c   14.89769847
_cell_angle_alpha   89.79434533
_cell_angle_beta   89.55834417
_cell_angle_gamma   90.30130683
_symmetry_Int_Tables_number   1
_chemical_formula_structural   Pr8Y12Si15Pd
_chemical_formula_sum   'Pr8 Y12 Si15 Pd1'
_cell_volume   882.57071183
_cell_formula_units_Z   1
loop_
 _symmetry_equiv_pos_site_id
 _symmetry_equiv_pos_as_xyz
  1  'x, y, z'
loop_
 _atom_site_type_symbol
 _atom_site_label
 _atom_site_symmetry_multiplicity
 _atom_site_fract_x
 _atom_site_fract_y
 _atom_site_fract_z
 _atom_site_occupancy
  Pr  Pr0  1  0.021894  0.179139  0.400928  1
  Pr  Pr1  1  0.523699  0.319807  0.398909  1
  Pr  Pr2  1  0.474014  0.679191  0.901584  1
  Pr  Pr3  1  0.477115  0.678331  0.600426  1
  Pr  Pr4  1  0.976717  0.822908  0.598144  1
  Pr  Pr5  1  0.974353  0.820786  0.901528  1
  Pr  Pr6  1  0.524592  0.321637  0.098317  1
  Pr  Pr7  1  0.025751  0.179657  0.099710  1
  Y  Y8  1  0.325029  0.180925  0.620926  1
  Y  Y9  1  0.676353  0.822350  0.376018  1
  Y  Y10  1  0.654430  0.989648  0.749361  1
  Y  Y11  1  0.177138  0.670688  0.378627  1
  Y  Y12  1  0.822271  0.318946  0.878345  1
  Y  Y13  1  0.822402  0.325432  0.621341  1
  Y  Y14  1  0.847583  0.490432  0.251571  1
  Y  Y15  1  0.347644  0.006670  0.250122  1
  Y  Y16  1  0.319355  0.178599  0.877666  1
  Y  Y17  1  0.178714  0.679478  0.122698  1
  Y  Y18  1  0.681606  0.822867  0.123442  1
  Y  Y19  1  0.154898  0.508686  0.747562  1
  Si  Si20  1  0.269958  0.881649  0.750169  1
  Si  Si21  1  0.471710  0.611995  0.248401  1
  Si  Si22  1  0.028625  0.114125  0.750317  1
  Si  Si23  1  0.531100  0.386848  0.752473  1
  Si  Si24  1  0.974646  0.885944  0.251032  1
  Si  Si25  1  0.729536  0.121490  0.248909  1
  Si  Si26  1  0.855106  0.531522  0.039847  1
  Si  Si27  1  0.356501  0.969544  0.040332  1
  Si  Si28  1  0.143388  0.469435  0.961275  1
  Si  Si29  1  0.646083  0.030892  0.538768  1
  Si  Si30  1  0.354246  0.968055  0.459804  1
  Si  Si31  1  0.844868  0.532850  0.457877  1
  Si  Si32  1  0.771075  0.619468  0.752527  1
  Si  Si33  1  0.230982  0.377550  0.248810  1
  Si  Si34  1  0.643482  0.029995  0.960553  1
  Pd  Pd35  1  0.143139  0.472462  0.541680  1
