# generated using pymatgen
data_Cs6Li4TiSiAs6
_symmetry_space_group_name_H-M   'P 1'
_cell_length_a   10.26189596
_cell_length_b   10.26189511
_cell_length_c   17.33641600
_cell_angle_alpha   90.00000000
_cell_angle_beta   90.00000000
_cell_angle_gamma   142.61328611
_symmetry_Int_Tables_number   1
_chemical_formula_structural   Cs6Li4TiSiAs6
_chemical_formula_sum   'Cs12 Li8 Ti2 Si2 As12'
_cell_volume   1108.51164541
_cell_formula_units_Z   2
loop_
 _symmetry_equiv_pos_site_id
 _symmetry_equiv_pos_as_xyz
  1  'x, y, z'
loop_
 _atom_site_type_symbol
 _atom_site_label
 _atom_site_symmetry_multiplicity
 _atom_site_fract_x
 _atom_site_fract_y
 _atom_site_fract_z
 _atom_site_occupancy
  Cs  Cs0  1  0.104462  0.449613  0.664745  1
  Cs  Cs1  1  0.717241  0.714643  0.676837  1
  Cs  Cs2  1  0.214643  0.217241  0.823163  1
  Cs  Cs3  1  0.782759  0.785357  0.176837  1
  Cs  Cs4  1  0.949613  0.604462  0.835255  1
  Cs  Cs5  1  0.550387  0.895538  0.335255  1
  Cs  Cs6  1  0.395538  0.050387  0.164745  1
  Cs  Cs7  1  0.055991  0.394771  0.164981  1
  Cs  Cs8  1  0.894771  0.555991  0.335019  1
  Cs  Cs9  1  0.444009  0.105229  0.664981  1
  Cs  Cs10  1  0.605229  0.944010  0.835019  1
  Cs  Cs11  1  0.285357  0.282759  0.323163  1
  Li  Li12  1  0.916351  0.083649  0.000000  1
  Li  Li13  1  0.583649  0.416351  0.500000  1
  Li  Li14  1  0.079487  0.920513  0.000000  1
  Li  Li15  1  0.420513  0.579487  0.500000  1
  Li  Li16  1  0.750412  0.249588  0.000000  1
  Li  Li17  1  0.749588  0.250412  0.500000  1
  Li  Li18  1  0.250324  0.749676  0.000000  1
  Li  Li19  1  0.249676  0.750324  0.500000  1
  Ti  Ti20  1  0.917448  0.082552  0.500000  1
  Ti  Ti21  1  0.582552  0.417448  0.000000  1
  Si  Si22  1  0.084152  0.915848  0.500000  1
  Si  Si23  1  0.415848  0.584152  0.000000  1
  As  As24  1  0.883730  0.567610  0.077297  1
  As  As25  1  0.432390  0.116270  0.922703  1
  As  As26  1  0.616270  0.932390  0.577297  1
  As  As27  1  0.936246  0.623669  0.577488  1
  As  As28  1  0.123669  0.436246  0.922512  1
  As  As29  1  0.563754  0.876331  0.077488  1
  As  As30  1  0.376331  0.063754  0.422512  1
  As  As31  1  0.214188  0.208916  0.577248  1
  As  As32  1  0.708916  0.714188  0.922752  1
  As  As33  1  0.285812  0.291084  0.077248  1
  As  As34  1  0.067610  0.383730  0.422703  1
  As  As35  1  0.791084  0.785812  0.422752  1
