# generated using pymatgen
data_Sc3Cu4(SiGe)2
_symmetry_space_group_name_H-M   'P 1'
_cell_length_a   3.98367938
_cell_length_b   6.48222595
_cell_length_c   7.61599491
_cell_angle_alpha   115.18652934
_cell_angle_beta   105.16108103
_cell_angle_gamma   90.00000864
_symmetry_Int_Tables_number   1
_chemical_formula_structural   Sc3Cu4(SiGe)2
_chemical_formula_sum   'Sc3 Cu4 Si2 Ge2'
_cell_volume   170.37606420
_cell_formula_units_Z   1
loop_
 _symmetry_equiv_pos_site_id
 _symmetry_equiv_pos_as_xyz
  1  'x, y, z'
loop_
 _atom_site_type_symbol
 _atom_site_label
 _atom_site_symmetry_multiplicity
 _atom_site_fract_x
 _atom_site_fract_y
 _atom_site_fract_z
 _atom_site_occupancy
  Sc  Sc0  1  0.000000  0.500000  0.000000  1
  Sc  Sc1  1  0.873313  0.873313  0.746627  1
  Sc  Sc2  1  0.126687  0.126687  0.253373  1
  Cu  Cu3  1  0.676984  0.482254  0.353967  1
  Cu  Cu4  1  0.676984  0.871714  0.353967  1
  Cu  Cu5  1  0.323016  0.128286  0.646033  1
  Cu  Cu6  1  0.323016  0.517746  0.646033  1
  Si  Si7  1  0.783924  0.283924  0.567848  1
  Si  Si8  1  0.216076  0.716076  0.432152  1
  Ge  Ge9  1  0.500000  0.804722  0.000000  1
  Ge  Ge10  1  0.500000  0.195278  0.000000  1
