# generated using pymatgen
data_ZrNi21B6As
_symmetry_space_group_name_H-M   'P 1'
_cell_length_a   7.46152731
_cell_length_b   7.46152693
_cell_length_c   7.46152800
_cell_angle_alpha   59.99999525
_cell_angle_beta   59.99999693
_cell_angle_gamma   59.99999883
_symmetry_Int_Tables_number   1
_chemical_formula_structural   ZrNi21B6As
_chemical_formula_sum   'Zr1 Ni21 B6 As1'
_cell_volume   293.74344854
_cell_formula_units_Z   1
loop_
 _symmetry_equiv_pos_site_id
 _symmetry_equiv_pos_as_xyz
  1  'x, y, z'
loop_
 _atom_site_type_symbol
 _atom_site_label
 _atom_site_symmetry_multiplicity
 _atom_site_fract_x
 _atom_site_fract_y
 _atom_site_fract_z
 _atom_site_occupancy
  Zr  Zr0  1  0.250000  0.250000  0.250000  1
  Ni  Ni1  1  0.000000  0.000000  0.000000  1
  Ni  Ni2  1  0.623949  0.623949  0.128153  1
  Ni  Ni3  1  0.623949  0.128153  0.623949  1
  Ni  Ni4  1  0.128153  0.623949  0.623949  1
  Ni  Ni5  1  0.623949  0.623949  0.623949  1
  Ni  Ni6  1  0.391558  0.391558  0.825326  1
  Ni  Ni7  1  0.391558  0.825326  0.391558  1
  Ni  Ni8  1  0.825326  0.391558  0.391558  1
  Ni  Ni9  1  0.391558  0.391558  0.391558  1
  Ni  Ni10  1  0.002740  0.002740  0.335140  1
  Ni  Ni11  1  0.659380  0.002740  0.335140  1
  Ni  Ni12  1  0.002740  0.659380  0.335140  1
  Ni  Ni13  1  0.659380  0.335140  0.002740  1
  Ni  Ni14  1  0.002740  0.335140  0.002740  1
  Ni  Ni15  1  0.002740  0.335140  0.659380  1
  Ni  Ni16  1  0.335140  0.659380  0.002740  1
  Ni  Ni17  1  0.335140  0.002740  0.659380  1
  Ni  Ni18  1  0.335140  0.002740  0.002740  1
  Ni  Ni19  1  0.002740  0.002740  0.659380  1
  Ni  Ni20  1  0.002740  0.659380  0.002740  1
  Ni  Ni21  1  0.659380  0.002740  0.002740  1
  B  B22  1  0.729939  0.729939  0.270061  1
  B  B23  1  0.270061  0.729939  0.270061  1
  B  B24  1  0.729939  0.270061  0.270061  1
  B  B25  1  0.270061  0.270061  0.729939  1
  B  B26  1  0.729939  0.270061  0.729939  1
  B  B27  1  0.270061  0.729939  0.729939  1
  As  As28  1  0.750000  0.750000  0.750000  1
