# generated using pymatgen
data_Li2TiRh3O8
_symmetry_space_group_name_H-M   'P 1'
_cell_length_a   5.91225276
_cell_length_b   5.91268976
_cell_length_c   5.91350819
_cell_angle_alpha   62.87700742
_cell_angle_beta   62.88752065
_cell_angle_gamma   62.90028678
_symmetry_Int_Tables_number   1
_chemical_formula_structural   Li2TiRh3O8
_chemical_formula_sum   'Li2 Ti1 Rh3 O8'
_cell_volume   155.55425698
_cell_formula_units_Z   1
loop_
 _symmetry_equiv_pos_site_id
 _symmetry_equiv_pos_as_xyz
  1  'x, y, z'
loop_
 _atom_site_type_symbol
 _atom_site_label
 _atom_site_symmetry_multiplicity
 _atom_site_fract_x
 _atom_site_fract_y
 _atom_site_fract_z
 _atom_site_occupancy
  Li  Li0  1  0.121640  0.121636  0.121622  1
  Li  Li1  1  0.878337  0.878352  0.878364  1
  Ti  Ti2  1  0.500252  0.499882  0.499811  1
  Rh  Rh3  1  0.999866  0.500058  0.500057  1
  Rh  Rh4  1  0.500117  0.000152  0.499647  1
  Rh  Rh5  1  0.500085  0.499771  0.000146  1
  O  O6  1  0.260806  0.260777  0.260858  1
  O  O7  1  0.265219  0.265218  0.716502  1
  O  O8  1  0.265252  0.716470  0.265254  1
  O  O9  1  0.716307  0.265352  0.265362  1
  O  O10  1  0.283597  0.734728  0.734753  1
  O  O11  1  0.734660  0.283768  0.734687  1
  O  O12  1  0.734679  0.734691  0.283808  1
  O  O13  1  0.739182  0.739144  0.739130  1
