# generated using pymatgen
data_Cs2La10B2Br17
_symmetry_space_group_name_H-M   'P 1'
_cell_length_a   9.53924747
_cell_length_b   11.16655286
_cell_length_c   11.16638040
_cell_angle_alpha   106.82194714
_cell_angle_beta   94.04877898
_cell_angle_gamma   94.04943819
_symmetry_Int_Tables_number   1
_chemical_formula_structural   Cs2La10B2Br17
_chemical_formula_sum   'Cs2 La10 B2 Br17'
_cell_volume   1130.53357936
_cell_formula_units_Z   1
loop_
 _symmetry_equiv_pos_site_id
 _symmetry_equiv_pos_as_xyz
  1  'x, y, z'
loop_
 _atom_site_type_symbol
 _atom_site_label
 _atom_site_symmetry_multiplicity
 _atom_site_fract_x
 _atom_site_fract_y
 _atom_site_fract_z
 _atom_site_occupancy
  Cs  Cs0  1  0.000004  0.822207  0.177798  1
  Cs  Cs1  1  0.999996  0.177792  0.822201  1
  La  La2  1  0.438172  0.164639  0.164637  1
  La  La3  1  0.570804  0.511848  0.209027  1
  La  La4  1  0.833182  0.291450  0.291454  1
  La  La5  1  0.317186  0.438111  0.438110  1
  La  La6  1  0.429185  0.790968  0.488160  1
  La  La7  1  0.570815  0.209033  0.511841  1
  La  La8  1  0.682814  0.561889  0.561890  1
  La  La9  1  0.166819  0.708550  0.708546  1
  La  La10  1  0.429196  0.488153  0.790974  1
  La  La11  1  0.561827  0.835361  0.835363  1
  B  B12  1  0.575402  0.347654  0.347651  1
  B  B13  1  0.424598  0.652346  0.652349  1
  Br  Br14  1  0.579876  0.688500  0.023998  1
  Br  Br15  1  0.716271  0.067059  0.067064  1
  Br  Br16  1  0.856623  0.450561  0.117609  1
  Br  Br17  1  0.135946  0.210102  0.210103  1
  Br  Br18  1  0.277876  0.600518  0.255019  1
  Br  Br19  1  0.420125  0.976007  0.311497  1
  Br  Br20  1  0.722118  0.744983  0.399486  1
  Br  Br21  1  0.856639  0.117625  0.450572  1
  Br  Br22  1  0.000000  0.499999  0.499999  1
  Br  Br23  1  0.143361  0.882375  0.549428  1
  Br  Br24  1  0.277883  0.255017  0.600514  1
  Br  Br25  1  0.579875  0.023993  0.688504  1
  Br  Br26  1  0.722125  0.399482  0.744981  1
  Br  Br27  1  0.864054  0.789898  0.789897  1
  Br  Br28  1  0.143377  0.549439  0.882391  1
  Br  Br29  1  0.283729  0.932940  0.932935  1
  Br  Br30  1  0.420124  0.311501  0.976002  1
