# generated using pymatgen
data_La12Nd2Pd5Rh
_symmetry_space_group_name_H-M   'P 1'
_cell_length_a   10.33764735
_cell_length_b   10.33764832
_cell_length_c   6.58476852
_cell_angle_alpha   90.03665437
_cell_angle_beta   89.96335506
_cell_angle_gamma   120.10734843
_symmetry_Int_Tables_number   1
_chemical_formula_structural   La12Nd2Pd5Rh
_chemical_formula_sum   'La12 Nd2 Pd5 Rh1'
_cell_volume   608.75661468
_cell_formula_units_Z   1
loop_
 _symmetry_equiv_pos_site_id
 _symmetry_equiv_pos_as_xyz
  1  'x, y, z'
loop_
 _atom_site_type_symbol
 _atom_site_label
 _atom_site_symmetry_multiplicity
 _atom_site_fract_x
 _atom_site_fract_y
 _atom_site_fract_z
 _atom_site_occupancy
  La  La0  1  0.127084  0.872916  0.244742  1
  La  La1  1  0.748432  0.880238  0.243408  1
  La  La2  1  0.119762  0.251568  0.243408  1
  La  La3  1  0.872465  0.127535  0.752182  1
  La  La4  1  0.253896  0.126447  0.745907  1
  La  La5  1  0.873553  0.746104  0.745907  1
  La  La6  1  0.538011  0.461989  0.443041  1
  La  La7  1  0.920218  0.455358  0.438854  1
  La  La8  1  0.544642  0.079782  0.438854  1
  La  La9  1  0.461758  0.538242  0.942764  1
  La  La10  1  0.076472  0.537297  0.941440  1
  La  La11  1  0.462703  0.923528  0.941440  1
  Nd  Nd12  1  0.333052  0.666948  0.453519  1
  Nd  Nd13  1  0.668398  0.331602  0.958821  1
  Pd  Pd14  1  0.375566  0.188206  0.191245  1
  Pd  Pd15  1  0.811794  0.624434  0.191245  1
  Pd  Pd16  1  0.188134  0.811866  0.692011  1
  Pd  Pd17  1  0.623873  0.811862  0.691505  1
  Pd  Pd18  1  0.188138  0.376127  0.691505  1
  Rh  Rh19  1  0.812051  0.187949  0.193990  1
