# generated using pymatgen
data_DyPa3CuTe12
_symmetry_space_group_name_H-M   'P 1'
_cell_length_a   7.45210652
_cell_length_b   7.45210676
_cell_length_c   11.22889832
_cell_angle_alpha   70.93624337
_cell_angle_beta   70.93624384
_cell_angle_gamma   69.23482355
_symmetry_Int_Tables_number   1
_chemical_formula_structural   DyPa3CuTe12
_chemical_formula_sum   'Dy1 Pa3 Cu1 Te12'
_cell_volume   535.18870795
_cell_formula_units_Z   1
loop_
 _symmetry_equiv_pos_site_id
 _symmetry_equiv_pos_as_xyz
  1  'x, y, z'
loop_
 _atom_site_type_symbol
 _atom_site_label
 _atom_site_symmetry_multiplicity
 _atom_site_fract_x
 _atom_site_fract_y
 _atom_site_fract_z
 _atom_site_occupancy
  Dy  Dy0  1  0.810180  0.810180  0.833099  1
  Pa  Pa1  1  0.311879  0.311879  0.837457  1
  Pa  Pa2  1  0.688594  0.190119  0.166562  1
  Pa  Pa3  1  0.190119  0.688594  0.166562  1
  Cu  Cu4  1  0.815340  0.815340  0.530972  1
  Te  Te5  1  0.013444  0.013444  0.324753  1
  Te  Te6  1  0.503528  0.503528  0.328576  1
  Te  Te7  1  0.487593  0.996663  0.669242  1
  Te  Te8  1  0.996663  0.487593  0.669242  1
  Te  Te9  1  0.257295  0.257295  0.332503  1
  Te  Te10  1  0.752570  0.752570  0.327969  1
  Te  Te11  1  0.246883  0.738734  0.668401  1
  Te  Te12  1  0.738734  0.246883  0.668401  1
  Te  Te13  1  0.023229  0.023229  0.946536  1
  Te  Te14  1  0.517196  0.517196  0.946799  1
  Te  Te15  1  0.477846  0.980206  0.058663  1
  Te  Te16  1  0.980206  0.477846  0.058663  1
