# generated using pymatgen
data_CaRe3Si2Os
_symmetry_space_group_name_H-M   'P 1'
_cell_length_a   7.39570254
_cell_length_b   7.39570267
_cell_length_c   4.06882800
_cell_angle_alpha   90.00000000
_cell_angle_beta   90.00000000
_cell_angle_gamma   148.00518277
_symmetry_Int_Tables_number   1
_chemical_formula_structural   CaRe3Si2Os
_chemical_formula_sum   'Ca1 Re3 Si2 Os1'
_cell_volume   117.91662564
_cell_formula_units_Z   1
loop_
 _symmetry_equiv_pos_site_id
 _symmetry_equiv_pos_as_xyz
  1  'x, y, z'
loop_
 _atom_site_type_symbol
 _atom_site_label
 _atom_site_symmetry_multiplicity
 _atom_site_fract_x
 _atom_site_fract_y
 _atom_site_fract_z
 _atom_site_occupancy
  Ca  Ca0  1  0.998532  0.001468  0.000000  1
  Re  Re1  1  0.695949  0.304049  0.000000  1
  Re  Re2  1  0.303946  0.696052  0.000000  1
  Re  Re3  1  0.187245  0.812753  0.500001  1
  Si  Si4  1  0.585902  0.414096  0.500001  1
  Si  Si5  1  0.412601  0.587397  0.500001  1
  Os  Os6  1  0.815820  0.184178  0.500001  1
