# generated using pymatgen
data_Nd12Th4Mg3CdIr4
_symmetry_space_group_name_H-M   'P 1'
_cell_length_a   10.04254071
_cell_length_b   10.05167192
_cell_length_c   10.05167300
_cell_angle_alpha   59.99999975
_cell_angle_beta   59.96991733
_cell_angle_gamma   59.96991974
_symmetry_Int_Tables_number   1
_chemical_formula_structural   Nd12Th4Mg3CdIr4
_chemical_formula_sum   'Nd12 Th4 Mg3 Cd1 Ir4'
_cell_volume   717.14610518
_cell_formula_units_Z   1
loop_
 _symmetry_equiv_pos_site_id
 _symmetry_equiv_pos_as_xyz
  1  'x, y, z'
loop_
 _atom_site_type_symbol
 _atom_site_label
 _atom_site_symmetry_multiplicity
 _atom_site_fract_x
 _atom_site_fract_y
 _atom_site_fract_z
 _atom_site_occupancy
  Nd  Nd0  1  0.809580  0.190304  0.190304  1
  Nd  Nd1  1  0.191752  0.808788  0.808788  1
  Nd  Nd2  1  0.191752  0.808788  0.190672  1
  Nd  Nd3  1  0.809580  0.190304  0.809812  1
  Nd  Nd4  1  0.191752  0.190672  0.808788  1
  Nd  Nd5  1  0.809580  0.809812  0.190304  1
  Nd  Nd6  1  0.937770  0.563633  0.563633  1
  Nd  Nd7  1  0.564843  0.935399  0.935399  1
  Nd  Nd8  1  0.564843  0.935399  0.564358  1
  Nd  Nd9  1  0.937770  0.563633  0.934964  1
  Nd  Nd10  1  0.564843  0.564358  0.935399  1
  Nd  Nd11  1  0.937770  0.934964  0.563633  1
  Th  Th12  1  0.343940  0.344419  0.344419  1
  Th  Th13  1  0.343940  0.344419  0.967222  1
  Th  Th14  1  0.343940  0.967222  0.344419  1
  Th  Th15  1  0.967611  0.344130  0.344130  1
  Mg  Mg16  1  0.577224  0.579465  0.579465  1
  Mg  Mg17  1  0.577224  0.579465  0.263843  1
  Mg  Mg18  1  0.577224  0.263843  0.579465  1
  Cd  Cd19  1  0.259819  0.580060  0.580060  1
  Ir  Ir20  1  0.144098  0.144942  0.144942  1
  Ir  Ir21  1  0.144098  0.144942  0.566016  1
  Ir  Ir22  1  0.144098  0.566016  0.144942  1
  Ir  Ir23  1  0.564945  0.145018  0.145018  1
