# generated using pymatgen
data_Dy4Tm2Si24OsRu7
_symmetry_space_group_name_H-M   'P 1'
_cell_length_a   10.09661203
_cell_length_b   10.09661316
_cell_length_c   8.13501501
_cell_angle_alpha   89.99490725
_cell_angle_beta   89.99490684
_cell_angle_gamma   132.52515829
_symmetry_Int_Tables_number   1
_chemical_formula_structural   Dy4Tm2Si24OsRu7
_chemical_formula_sum   'Dy4 Tm2 Si24 Os1 Ru7'
_cell_volume   611.17530727
_cell_formula_units_Z   1
loop_
 _symmetry_equiv_pos_site_id
 _symmetry_equiv_pos_as_xyz
  1  'x, y, z'
loop_
 _atom_site_type_symbol
 _atom_site_label
 _atom_site_symmetry_multiplicity
 _atom_site_fract_x
 _atom_site_fract_y
 _atom_site_fract_z
 _atom_site_occupancy
  Dy  Dy0  1  0.502291  0.002381  0.750271  1
  Dy  Dy1  1  0.997619  0.497709  0.249729  1
  Dy  Dy2  1  0.497796  0.997438  0.249634  1
  Dy  Dy3  1  0.002562  0.502204  0.750366  1
  Tm  Tm4  1  0.499996  0.500004  0.500000  1
  Tm  Tm5  1  0.000037  0.999963  0.000000  1
  Si  Si6  1  0.795579  0.204421  0.500000  1
  Si  Si7  1  0.294914  0.705086  0.000000  1
  Si  Si8  1  0.205030  0.794970  0.500000  1
  Si  Si9  1  0.705223  0.294777  0.000000  1
  Si  Si10  1  0.331995  0.332205  0.833675  1
  Si  Si11  1  0.667795  0.668005  0.166325  1
  Si  Si12  1  0.167087  0.166855  0.332559  1
  Si  Si13  1  0.833145  0.832913  0.667441  1
  Si  Si14  1  0.121968  0.887881  0.729113  1
  Si  Si15  1  0.112119  0.878032  0.270887  1
  Si  Si16  1  0.612217  0.378168  0.227274  1
  Si  Si17  1  0.621832  0.387783  0.772726  1
  Si  Si18  1  0.877234  0.111113  0.270321  1
  Si  Si19  1  0.888887  0.122766  0.729679  1
  Si  Si20  1  0.387548  0.622160  0.771758  1
  Si  Si21  1  0.377840  0.612452  0.228242  1
  Si  Si22  1  0.344096  0.111025  0.505169  1
  Si  Si23  1  0.888975  0.655904  0.494831  1
  Si  Si24  1  0.387481  0.154069  0.004756  1
  Si  Si25  1  0.845931  0.612519  0.995244  1
  Si  Si26  1  0.653969  0.887575  0.493715  1
  Si  Si27  1  0.112425  0.346031  0.506285  1
  Si  Si28  1  0.612266  0.845633  0.995300  1
  Si  Si29  1  0.154367  0.387734  0.004700  1
  Os  Os30  1  0.668865  0.331135  0.500000  1
  Ru  Ru31  1  0.168890  0.831110  0.000000  1
  Ru  Ru32  1  0.331100  0.668900  0.500000  1
  Ru  Ru33  1  0.831158  0.168842  0.000000  1
  Ru  Ru34  1  0.127402  0.127615  0.626948  1
  Ru  Ru35  1  0.872385  0.872598  0.373052  1
  Ru  Ru36  1  0.374091  0.374116  0.128046  1
  Ru  Ru37  1  0.625884  0.625909  0.871954  1
