# generated using pymatgen
data_TbHo2Al7Cu2
_symmetry_space_group_name_H-M   'P 1'
_cell_length_a   9.07953758
_cell_length_b   9.07953798
_cell_length_c   9.07953803
_cell_angle_alpha   35.17054507
_cell_angle_beta   35.17054051
_cell_angle_gamma   35.17054077
_symmetry_Int_Tables_number   1
_chemical_formula_structural   TbHo2Al7Cu2
_chemical_formula_sum   'Tb1 Ho2 Al7 Cu2'
_cell_volume   221.80673103
_cell_formula_units_Z   1
loop_
 _symmetry_equiv_pos_site_id
 _symmetry_equiv_pos_as_xyz
  1  'x, y, z'
loop_
 _atom_site_type_symbol
 _atom_site_label
 _atom_site_symmetry_multiplicity
 _atom_site_fract_x
 _atom_site_fract_y
 _atom_site_fract_z
 _atom_site_occupancy
  Tb  Tb0  1  0.000000  0.000000  0.000000  1
  Ho  Ho1  1  0.857809  0.857809  0.857809  1
  Ho  Ho2  1  0.142191  0.142191  0.142191  1
  Al  Al3  1  0.418265  0.418265  0.927022  1
  Al  Al4  1  0.927022  0.418265  0.418265  1
  Al  Al5  1  0.418265  0.927022  0.418265  1
  Al  Al6  1  0.500000  0.500000  0.500000  1
  Al  Al7  1  0.581735  0.072978  0.581735  1
  Al  Al8  1  0.072978  0.581735  0.581735  1
  Al  Al9  1  0.581735  0.581735  0.072978  1
  Cu  Cu10  1  0.664788  0.664788  0.664788  1
  Cu  Cu11  1  0.335212  0.335212  0.335212  1
