# generated using pymatgen
data_Pr4NdIrOs
_symmetry_space_group_name_H-M   'P 1'
_cell_length_a   8.99718178
_cell_length_b   8.99717996
_cell_length_c   7.42843426
_cell_angle_alpha   83.62227024
_cell_angle_beta   83.62227348
_cell_angle_gamma   43.66655489
_symmetry_Int_Tables_number   1
_chemical_formula_structural   Pr4NdIrOs
_chemical_formula_sum   'Pr8 Nd2 Ir2 Os2'
_cell_volume   412.20841443
_cell_formula_units_Z   2
loop_
 _symmetry_equiv_pos_site_id
 _symmetry_equiv_pos_as_xyz
  1  'x, y, z'
loop_
 _atom_site_type_symbol
 _atom_site_label
 _atom_site_symmetry_multiplicity
 _atom_site_fract_x
 _atom_site_fract_y
 _atom_site_fract_z
 _atom_site_occupancy
  Pr  Pr0  1  0.021125  0.796199  0.915884  1
  Pr  Pr1  1  0.203801  0.978875  0.584116  1
  Pr  Pr2  1  0.983087  0.201515  0.081149  1
  Pr  Pr3  1  0.798485  0.016913  0.418851  1
  Pr  Pr4  1  0.351292  0.212366  0.816334  1
  Pr  Pr5  1  0.787634  0.648708  0.683666  1
  Pr  Pr6  1  0.645286  0.787629  0.182363  1
  Pr  Pr7  1  0.212371  0.354714  0.317637  1
  Nd  Nd8  1  0.567129  0.432871  0.750000  1
  Nd  Nd9  1  0.431899  0.568101  0.250000  1
  Ir  Ir10  1  0.822074  0.401070  0.425371  1
  Ir  Ir11  1  0.598930  0.177926  0.074629  1
  Os  Os12  1  0.177882  0.600994  0.572286  1
  Os  Os13  1  0.399006  0.822118  0.927714  1
