# generated using pymatgen
data_Tb4Cu(AuO4)3
_symmetry_space_group_name_H-M   'P 1'
_cell_length_a   3.82192100
_cell_length_b   12.77235068
_cell_length_c   5.52459700
_cell_angle_alpha   90.00000000
_cell_angle_beta   90.00000000
_cell_angle_gamma   89.18640121
_symmetry_Int_Tables_number   1
_chemical_formula_structural   Tb4Cu(AuO4)3
_chemical_formula_sum   'Tb4 Cu1 Au3 O12'
_cell_volume   269.65554572
_cell_formula_units_Z   1
loop_
 _symmetry_equiv_pos_site_id
 _symmetry_equiv_pos_as_xyz
  1  'x, y, z'
loop_
 _atom_site_type_symbol
 _atom_site_label
 _atom_site_symmetry_multiplicity
 _atom_site_fract_x
 _atom_site_fract_y
 _atom_site_fract_z
 _atom_site_occupancy
  Tb  Tb0  1  0.753304  0.081149  0.249999  1
  Tb  Tb1  1  0.247768  0.569244  0.249999  1
  Tb  Tb2  1  0.773654  0.416764  0.750000  1
  Tb  Tb3  1  0.239613  0.925081  0.750000  1
  Cu  Cu4  1  0.436237  0.330110  0.249999  1
  Au  Au5  1  0.561043  0.831896  0.249999  1
  Au  Au6  1  0.427603  0.176414  0.750000  1
  Au  Au7  1  0.563986  0.667328  0.750000  1
  O  O8  1  0.684325  0.254985  0.013953  1
  O  O9  1  0.294345  0.751028  0.998677  1
  O  O10  1  0.236515  0.079666  0.999970  1
  O  O11  1  0.765056  0.569914  0.000055  1
  O  O12  1  0.236515  0.079666  0.500031  1
  O  O13  1  0.765056  0.569914  0.499946  1
  O  O14  1  0.684325  0.254985  0.486047  1
  O  O15  1  0.294345  0.751028  0.501323  1
  O  O16  1  0.260813  0.417305  0.489577  1
  O  O17  1  0.757339  0.928109  0.500945  1
  O  O18  1  0.260813  0.417305  0.010422  1
  O  O19  1  0.757339  0.928109  0.999054  1
