# generated using pymatgen
data_Dy4Er7LuCo5Bi
_symmetry_space_group_name_H-M   'P 1'
_cell_length_a   8.25740345
_cell_length_b   8.26561829
_cell_length_c   8.26561857
_cell_angle_alpha   110.95588746
_cell_angle_beta   110.65073383
_cell_angle_gamma   106.87709294
_symmetry_Int_Tables_number   1
_chemical_formula_structural   Dy4Er7LuCo5Bi
_chemical_formula_sum   'Dy4 Er7 Lu1 Co5 Bi1'
_cell_volume   433.40046804
_cell_formula_units_Z   1
loop_
 _symmetry_equiv_pos_site_id
 _symmetry_equiv_pos_as_xyz
  1  'x, y, z'
loop_
 _atom_site_type_symbol
 _atom_site_label
 _atom_site_symmetry_multiplicity
 _atom_site_fract_x
 _atom_site_fract_y
 _atom_site_fract_z
 _atom_site_occupancy
  Dy  Dy0  1  0.288455  0.184484  0.471556  1
  Dy  Dy1  1  0.711753  0.814795  0.527596  1
  Dy  Dy2  1  0.288455  0.816899  0.103973  1
  Dy  Dy3  1  0.711753  0.184157  0.896956  1
  Er  Er4  1  0.377925  0.687976  0.689949  1
  Er  Er5  1  0.001591  0.311697  0.689892  1
  Er  Er6  1  0.997563  0.687877  0.309688  1
  Er  Er7  1  0.208509  0.401989  0.194443  1
  Er  Er8  1  0.791632  0.597184  0.804804  1
  Er  Er9  1  0.208509  0.014065  0.806520  1
  Er  Er10  1  0.791632  0.986829  0.194447  1
  Lu  Lu11  1  0.624064  0.312403  0.311661  1
  Co  Co12  1  0.998850  0.375098  0.374827  1
  Co  Co13  1  0.998850  0.624024  0.623752  1
  Co  Co14  1  0.388792  0.888550  0.500242  1
  Co  Co15  1  0.612001  0.112338  0.499663  1
  Co  Co16  1  0.999547  0.999893  0.999654  1
  Bi  Bi17  1  0.500119  0.499742  0.000376  1
