# generated using pymatgen
data_Pu4Al18ZnIr5
_symmetry_space_group_name_H-M   'P 1'
_cell_length_a   7.57975517
_cell_length_b   7.59251480
_cell_length_c   9.49267278
_cell_angle_alpha   90.01795731
_cell_angle_beta   89.70584592
_cell_angle_gamma   119.07860230
_symmetry_Int_Tables_number   1
_chemical_formula_structural   Pu4Al18ZnIr5
_chemical_formula_sum   'Pu4 Al18 Zn1 Ir5'
_cell_volume   477.43112533
_cell_formula_units_Z   1
loop_
 _symmetry_equiv_pos_site_id
 _symmetry_equiv_pos_as_xyz
  1  'x, y, z'
loop_
 _atom_site_type_symbol
 _atom_site_label
 _atom_site_symmetry_multiplicity
 _atom_site_fract_x
 _atom_site_fract_y
 _atom_site_fract_z
 _atom_site_occupancy
  Pu  Pu0  1  0.995964  0.680507  0.249424  1
  Pu  Pu1  1  0.004036  0.319493  0.750576  1
  Pu  Pu2  1  0.680988  0.996153  0.249235  1
  Pu  Pu3  1  0.319012  0.003847  0.750765  1
  Al  Al4  1  0.136814  0.136412  0.255931  1
  Al  Al5  1  0.863186  0.863588  0.744069  1
  Al  Al6  1  0.003194  0.348062  0.079551  1
  Al  Al7  1  0.996806  0.651938  0.920449  1
  Al  Al8  1  0.998981  0.660150  0.573491  1
  Al  Al9  1  0.338848  0.000483  0.426365  1
  Al  Al10  1  0.001019  0.339850  0.426509  1
  Al  Al11  1  0.661152  0.999517  0.573635  1
  Al  Al12  1  0.653165  0.997683  0.920255  1
  Al  Al13  1  0.346835  0.002317  0.079745  1
  Al  Al14  1  0.332567  0.333117  0.549330  1
  Al  Al15  1  0.667433  0.666883  0.450670  1
  Al  Al16  1  0.658533  0.658232  0.057920  1
  Al  Al17  1  0.341467  0.341768  0.942080  1
  Al  Al18  1  0.340412  0.553802  0.251084  1
  Al  Al19  1  0.659588  0.446198  0.748916  1
  Al  Al20  1  0.553675  0.340721  0.251319  1
  Al  Al21  1  0.446325  0.659279  0.748681  1
  Zn  Zn22  1  0.000000  0.000000  0.000000  1
  Ir  Ir23  1  0.671198  0.329053  0.000251  1
  Ir  Ir24  1  0.328802  0.670947  0.999749  1
  Ir  Ir25  1  0.329168  0.670720  0.499937  1
  Ir  Ir26  1  0.670832  0.329280  0.500063  1
  Ir  Ir27  1  0.000000  0.000000  0.500000  1
