# generated using pymatgen
data_Ho4GaI6
_symmetry_space_group_name_H-M   'P 1'
_cell_length_a   4.19916700
_cell_length_b   14.06154900
_cell_length_c   14.79436800
_cell_angle_alpha   90.00000000
_cell_angle_beta   90.00000000
_cell_angle_gamma   90.00000000
_symmetry_Int_Tables_number   1
_chemical_formula_structural   Ho4GaI6
_chemical_formula_sum   'Ho8 Ga2 I12'
_cell_volume   873.55997790
_cell_formula_units_Z   2
loop_
 _symmetry_equiv_pos_site_id
 _symmetry_equiv_pos_as_xyz
  1  'x, y, z'
loop_
 _atom_site_type_symbol
 _atom_site_label
 _atom_site_symmetry_multiplicity
 _atom_site_fract_x
 _atom_site_fract_y
 _atom_site_fract_z
 _atom_site_occupancy
  Ho  Ho0  1  0.500000  0.114854  0.346368  1
  Ho  Ho1  1  0.500000  0.885146  0.653632  1
  Ho  Ho2  1  0.500000  0.614854  0.153632  1
  Ho  Ho3  1  0.500000  0.385146  0.846368  1
  Ho  Ho4  1  0.000000  0.113136  0.576490  1
  Ho  Ho5  1  0.000000  0.886864  0.423510  1
  Ho  Ho6  1  0.000000  0.613136  0.923510  1
  Ho  Ho7  1  0.000000  0.386864  0.076490  1
  Ga  Ga8  1  0.500000  0.000000  0.500000  1
  Ga  Ga9  1  0.500000  0.500000  0.000000  1
  I  I10  1  0.500000  0.248128  0.166067  1
  I  I11  1  0.500000  0.751872  0.833933  1
  I  I12  1  0.500000  0.748128  0.333933  1
  I  I13  1  0.500000  0.251872  0.666067  1
  I  I14  1  0.000000  0.258544  0.415359  1
  I  I15  1  0.000000  0.741456  0.584641  1
  I  I16  1  0.000000  0.758544  0.084641  1
  I  I17  1  0.000000  0.241456  0.915359  1
  I  I18  1  0.000000  0.999412  0.239841  1
  I  I19  1  0.000000  0.000588  0.760159  1
  I  I20  1  0.000000  0.499412  0.260159  1
  I  I21  1  0.000000  0.500588  0.739841  1
