# generated using pymatgen
data_CeNd3CdRu
_symmetry_space_group_name_H-M   'P 1'
_cell_length_a   9.86160436
_cell_length_b   9.86160408
_cell_length_c   9.86160500
_cell_angle_alpha   60.00000027
_cell_angle_beta   60.00000120
_cell_angle_gamma   59.99999987
_symmetry_Int_Tables_number   1
_chemical_formula_structural   CeNd3CdRu
_chemical_formula_sum   'Ce4 Nd12 Cd4 Ru4'
_cell_volume   678.15309386
_cell_formula_units_Z   4
loop_
 _symmetry_equiv_pos_site_id
 _symmetry_equiv_pos_as_xyz
  1  'x, y, z'
loop_
 _atom_site_type_symbol
 _atom_site_label
 _atom_site_symmetry_multiplicity
 _atom_site_fract_x
 _atom_site_fract_y
 _atom_site_fract_z
 _atom_site_occupancy
  Ce  Ce0  1  0.343292  0.343292  0.970126  1
  Ce  Ce1  1  0.343292  0.970126  0.343292  1
  Ce  Ce2  1  0.970126  0.343292  0.343292  1
  Ce  Ce3  1  0.343292  0.343292  0.343292  1
  Nd  Nd4  1  0.559589  0.559589  0.940411  1
  Nd  Nd5  1  0.940411  0.559589  0.940411  1
  Nd  Nd6  1  0.559589  0.940411  0.940411  1
  Nd  Nd7  1  0.940411  0.940411  0.559589  1
  Nd  Nd8  1  0.559589  0.940411  0.559589  1
  Nd  Nd9  1  0.940411  0.559589  0.559589  1
  Nd  Nd10  1  0.191639  0.191639  0.808361  1
  Nd  Nd11  1  0.808361  0.191639  0.808361  1
  Nd  Nd12  1  0.191638  0.808362  0.808361  1
  Nd  Nd13  1  0.808361  0.808362  0.191639  1
  Nd  Nd14  1  0.191638  0.808361  0.191638  1
  Nd  Nd15  1  0.808361  0.191639  0.191639  1
  Cd  Cd16  1  0.579575  0.579575  0.261275  1
  Cd  Cd17  1  0.579575  0.261275  0.579575  1
  Cd  Cd18  1  0.261275  0.579575  0.579575  1
  Cd  Cd19  1  0.579575  0.579575  0.579575  1
  Ru  Ru20  1  0.146286  0.146286  0.561143  1
  Ru  Ru21  1  0.146286  0.561143  0.146286  1
  Ru  Ru22  1  0.561143  0.146286  0.146286  1
  Ru  Ru23  1  0.146286  0.146286  0.146286  1
