# generated using pymatgen
data_Tb12Nd7SmSn16
_symmetry_space_group_name_H-M   'P 1'
_cell_length_a   8.15235568
_cell_length_b   8.31704373
_cell_length_c   15.69971990
_cell_angle_alpha   89.99750707
_cell_angle_beta   90.05624376
_cell_angle_gamma   90.07398362
_symmetry_Int_Tables_number   1
_chemical_formula_structural   Tb12Nd7SmSn16
_chemical_formula_sum   'Tb12 Nd7 Sm1 Sn16'
_cell_volume   1064.49453690
_cell_formula_units_Z   1
loop_
 _symmetry_equiv_pos_site_id
 _symmetry_equiv_pos_as_xyz
  1  'x, y, z'
loop_
 _atom_site_type_symbol
 _atom_site_label
 _atom_site_symmetry_multiplicity
 _atom_site_fract_x
 _atom_site_fract_y
 _atom_site_fract_z
 _atom_site_occupancy
  Tb  Tb0  1  0.364358  0.836041  0.877877  1
  Tb  Tb1  1  0.864221  0.664078  0.622641  1
  Tb  Tb2  1  0.635854  0.164246  0.377742  1
  Tb  Tb3  1  0.135351  0.335581  0.122104  1
  Tb  Tb4  1  0.635338  0.164155  0.122032  1
  Tb  Tb5  1  0.135802  0.335740  0.377728  1
  Tb  Tb6  1  0.364117  0.835905  0.622463  1
  Tb  Tb7  1  0.864440  0.664262  0.877661  1
  Tb  Tb8  1  0.197532  0.502795  0.750247  1
  Tb  Tb9  1  0.697906  0.997351  0.750358  1
  Tb  Tb10  1  0.802347  0.497033  0.249924  1
  Tb  Tb11  1  0.302189  0.002940  0.249939  1
  Nd  Nd12  1  0.516679  0.320211  0.902541  1
  Nd  Nd13  1  0.016427  0.179259  0.597272  1
  Nd  Nd14  1  0.483404  0.679388  0.402615  1
  Nd  Nd15  1  0.983140  0.821049  0.097252  1
  Nd  Nd16  1  0.483241  0.679334  0.097313  1
  Nd  Nd17  1  0.983384  0.820629  0.402598  1
  Nd  Nd18  1  0.516671  0.320443  0.597812  1
  Sm  Sm19  1  0.017560  0.179158  0.902034  1
  Sn  Sn20  1  0.297712  0.040361  0.041334  1
  Sn  Sn21  1  0.799616  0.460779  0.457943  1
  Sn  Sn22  1  0.700307  0.960426  0.542219  1
  Sn  Sn23  1  0.199945  0.538103  0.957533  1
  Sn  Sn24  1  0.702635  0.962294  0.957340  1
  Sn  Sn25  1  0.200391  0.539303  0.542251  1
  Sn  Sn26  1  0.299573  0.039302  0.457885  1
  Sn  Sn27  1  0.799737  0.460480  0.041968  1
  Sn  Sn28  1  0.563779  0.622161  0.750052  1
  Sn  Sn29  1  0.063708  0.878519  0.750201  1
  Sn  Sn30  1  0.436155  0.377668  0.249950  1
  Sn  Sn31  1  0.936145  0.122021  0.249959  1
  Sn  Sn32  1  0.324313  0.142281  0.750386  1
  Sn  Sn33  1  0.826674  0.356633  0.750870  1
  Sn  Sn34  1  0.674695  0.857897  0.249990  1
  Sn  Sn35  1  0.174653  0.642175  0.249963  1
