# generated using pymatgen
data_HoErFeB6
_symmetry_space_group_name_H-M   'P 1'
_cell_length_a   3.52601300
_cell_length_b   9.04448800
_cell_length_c   11.40396000
_cell_angle_alpha   90.00000000
_cell_angle_beta   90.00000000
_cell_angle_gamma   90.00000000
_symmetry_Int_Tables_number   1
_chemical_formula_structural   HoErFeB6
_chemical_formula_sum   'Ho4 Er4 Fe4 B24'
_cell_volume   363.68348613
_cell_formula_units_Z   4
loop_
 _symmetry_equiv_pos_site_id
 _symmetry_equiv_pos_as_xyz
  1  'x, y, z'
loop_
 _atom_site_type_symbol
 _atom_site_label
 _atom_site_symmetry_multiplicity
 _atom_site_fract_x
 _atom_site_fract_y
 _atom_site_fract_z
 _atom_site_occupancy
  Ho  Ho0  1  0.000000  0.824169  0.085651  1
  Ho  Ho1  1  0.000000  0.175831  0.914349  1
  Ho  Ho2  1  0.000000  0.324169  0.414349  1
  Ho  Ho3  1  0.000000  0.675831  0.585651  1
  Er  Er4  1  0.000000  0.443275  0.129288  1
  Er  Er5  1  0.000000  0.556725  0.870712  1
  Er  Er6  1  0.000000  0.943275  0.370712  1
  Er  Er7  1  0.000000  0.056725  0.629288  1
  Fe  Fe8  1  0.000000  0.138863  0.179915  1
  Fe  Fe9  1  0.000000  0.861137  0.820085  1
  Fe  Fe10  1  0.000000  0.638863  0.320085  1
  Fe  Fe11  1  0.000000  0.361137  0.679915  1
  B  B12  1  0.500000  0.054363  0.068212  1
  B  B13  1  0.500000  0.945637  0.931788  1
  B  B14  1  0.500000  0.554363  0.431788  1
  B  B15  1  0.500000  0.445637  0.568212  1
  B  B16  1  0.500000  0.246675  0.081634  1
  B  B17  1  0.500000  0.753325  0.918366  1
  B  B18  1  0.500000  0.746675  0.418366  1
  B  B19  1  0.500000  0.253325  0.581634  1
  B  B20  1  0.500000  0.289632  0.233675  1
  B  B21  1  0.500000  0.710368  0.766325  1
  B  B22  1  0.500000  0.789632  0.266325  1
  B  B23  1  0.500000  0.210368  0.733675  1
  B  B24  1  0.500000  0.132228  0.314372  1
  B  B25  1  0.500000  0.867772  0.685628  1
  B  B26  1  0.500000  0.632228  0.185628  1
  B  B27  1  0.500000  0.367772  0.814372  1
  B  B28  1  0.500000  0.485970  0.288069  1
  B  B29  1  0.500000  0.514030  0.711931  1
  B  B30  1  0.500000  0.985970  0.211931  1
  B  B31  1  0.500000  0.014030  0.788069  1
  B  B32  1  0.500000  0.108954  0.470255  1
  B  B33  1  0.500000  0.891046  0.529745  1
  B  B34  1  0.500000  0.608954  0.029745  1
  B  B35  1  0.500000  0.391046  0.970255  1
