# generated using pymatgen
data_Tb3DyGa18Co5Pt
_symmetry_space_group_name_H-M   'P 1'
_cell_length_a   7.43378192
_cell_length_b   7.43339505
_cell_length_c   9.43576000
_cell_angle_alpha   90.11712033
_cell_angle_beta   90.11863821
_cell_angle_gamma   119.69118210
_symmetry_Int_Tables_number   1
_chemical_formula_structural   Tb3DyGa18Co5Pt
_chemical_formula_sum   'Tb3 Dy1 Ga18 Co5 Pt1'
_cell_volume   452.94343904
_cell_formula_units_Z   1
loop_
 _symmetry_equiv_pos_site_id
 _symmetry_equiv_pos_as_xyz
  1  'x, y, z'
loop_
 _atom_site_type_symbol
 _atom_site_label
 _atom_site_symmetry_multiplicity
 _atom_site_fract_x
 _atom_site_fract_y
 _atom_site_fract_z
 _atom_site_occupancy
  Tb  Tb0  1  0.326964  0.003047  0.251103  1
  Tb  Tb1  1  0.996967  0.673015  0.748902  1
  Tb  Tb2  1  0.673023  0.996978  0.748896  1
  Dy  Dy3  1  0.003031  0.326969  0.251122  1
  Ga  Ga4  1  0.344887  0.999679  0.923475  1
  Ga  Ga5  1  0.000321  0.654941  0.076603  1
  Ga  Ga6  1  0.335700  0.998009  0.571781  1
  Ga  Ga7  1  0.001990  0.664148  0.428151  1
  Ga  Ga8  1  0.655270  0.000468  0.076592  1
  Ga  Ga9  1  0.999664  0.344875  0.923577  1
  Ga  Ga10  1  0.664461  0.002145  0.428147  1
  Ga  Ga11  1  0.998003  0.335696  0.571649  1
  Ga  Ga12  1  0.655951  0.655952  0.936660  1
  Ga  Ga13  1  0.343921  0.344043  0.063417  1
  Ga  Ga14  1  0.666583  0.666586  0.557274  1
  Ga  Ga15  1  0.333272  0.333413  0.442641  1
  Ga  Ga16  1  0.131595  0.131598  0.740924  1
  Ga  Ga17  1  0.868471  0.868579  0.259075  1
  Ga  Ga18  1  0.446490  0.664382  0.251756  1
  Ga  Ga19  1  0.335492  0.553312  0.748244  1
  Ga  Ga20  1  0.553319  0.335493  0.748245  1
  Ga  Ga21  1  0.664619  0.446622  0.251753  1
  Co  Co22  1  0.000013  0.000043  0.499951  1
  Co  Co23  1  0.329611  0.670352  0.000044  1
  Co  Co24  1  0.329256  0.670701  0.499955  1
  Co  Co25  1  0.670383  0.329622  0.000042  1
  Co  Co26  1  0.670730  0.329272  0.499959  1
  Pt  Pt27  1  0.000013  0.000060  0.000062  1
