# generated using pymatgen
data_TbDyY2(ReB6)2
_symmetry_space_group_name_H-M   'P 1'
_cell_length_a   3.68675800
_cell_length_b   9.18566600
_cell_length_c   11.57471402
_cell_angle_alpha   90.00295633
_cell_angle_beta   90.00000000
_cell_angle_gamma   90.00000000
_symmetry_Int_Tables_number   1
_chemical_formula_structural   TbDyY2(ReB6)2
_chemical_formula_sum   'Tb2 Dy2 Y4 Re4 B24'
_cell_volume   391.98148196
_cell_formula_units_Z   2
loop_
 _symmetry_equiv_pos_site_id
 _symmetry_equiv_pos_as_xyz
  1  'x, y, z'
loop_
 _atom_site_type_symbol
 _atom_site_label
 _atom_site_symmetry_multiplicity
 _atom_site_fract_x
 _atom_site_fract_y
 _atom_site_fract_z
 _atom_site_occupancy
  Tb  Tb0  1  0.000000  0.323626  0.413804  1
  Tb  Tb1  1  0.000000  0.676374  0.586196  1
  Dy  Dy2  1  0.000000  0.442901  0.129823  1
  Dy  Dy3  1  0.000000  0.557099  0.870177  1
  Y  Y4  1  0.000000  0.823611  0.085918  1
  Y  Y5  1  0.000000  0.176389  0.914082  1
  Y  Y6  1  0.000000  0.943101  0.369895  1
  Y  Y7  1  0.000000  0.056899  0.630105  1
  Re  Re8  1  0.000000  0.638460  0.320626  1
  Re  Re9  1  0.000000  0.361540  0.679374  1
  Re  Re10  1  0.000000  0.138576  0.178947  1
  Re  Re11  1  0.000000  0.861424  0.821053  1
  B  B12  1  0.500000  0.553440  0.432578  1
  B  B13  1  0.500000  0.446560  0.567422  1
  B  B14  1  0.500000  0.053324  0.067194  1
  B  B15  1  0.500000  0.946676  0.932806  1
  B  B16  1  0.500000  0.748820  0.418121  1
  B  B17  1  0.500000  0.251180  0.581879  1
  B  B18  1  0.500000  0.248737  0.081600  1
  B  B19  1  0.500000  0.751263  0.918400  1
  B  B20  1  0.500000  0.791794  0.265269  1
  B  B21  1  0.500000  0.208206  0.734731  1
  B  B22  1  0.500000  0.291606  0.234120  1
  B  B23  1  0.500000  0.708394  0.765880  1
  B  B24  1  0.500000  0.630867  0.185620  1
  B  B25  1  0.500000  0.369133  0.814380  1
  B  B26  1  0.500000  0.130813  0.313917  1
  B  B27  1  0.500000  0.869187  0.686083  1
  B  B28  1  0.500000  0.982500  0.211622  1
  B  B29  1  0.500000  0.017500  0.788378  1
  B  B30  1  0.500000  0.482619  0.287819  1
  B  B31  1  0.500000  0.517381  0.712181  1
  B  B32  1  0.500000  0.600215  0.028048  1
  B  B33  1  0.500000  0.399785  0.971952  1
  B  B34  1  0.500000  0.099883  0.472026  1
  B  B35  1  0.500000  0.900117  0.527974  1
