# generated using pymatgen
data_NdDy3(ScIr)4
_symmetry_space_group_name_H-M   'P 1'
_cell_length_a   7.16344061
_cell_length_b   4.26354100
_cell_length_c   8.82016572
_cell_angle_alpha   90.00000000
_cell_angle_beta   89.30303040
_cell_angle_gamma   90.00000000
_symmetry_Int_Tables_number   1
_chemical_formula_structural   NdDy3(ScIr)4
_chemical_formula_sum   'Nd1 Dy3 Sc4 Ir4'
_cell_volume   269.36224362
_cell_formula_units_Z   1
loop_
 _symmetry_equiv_pos_site_id
 _symmetry_equiv_pos_as_xyz
  1  'x, y, z'
loop_
 _atom_site_type_symbol
 _atom_site_label
 _atom_site_symmetry_multiplicity
 _atom_site_fract_x
 _atom_site_fract_y
 _atom_site_fract_z
 _atom_site_occupancy
  Nd  Nd0  1  0.513998  0.750000  0.676652  1
  Dy  Dy1  1  0.979678  0.250000  0.175225  1
  Dy  Dy2  1  0.481366  0.250000  0.323793  1
  Dy  Dy3  1  0.019138  0.750000  0.827436  1
  Sc  Sc4  1  0.860651  0.250000  0.562642  1
  Sc  Sc5  1  0.360013  0.250000  0.941046  1
  Sc  Sc6  1  0.140301  0.750000  0.433088  1
  Sc  Sc7  1  0.642841  0.750000  0.066325  1
  Ir  Ir8  1  0.742000  0.250000  0.896389  1
  Ir  Ir9  1  0.233276  0.250000  0.602383  1
  Ir  Ir10  1  0.262456  0.750000  0.107157  1
  Ir  Ir11  1  0.764282  0.750000  0.387862  1
