# generated using pymatgen
data_SmCd(CuPd)2
_symmetry_space_group_name_H-M   'P 1'
_cell_length_a   5.52781365
_cell_length_b   5.27159389
_cell_length_c   5.27159424
_cell_angle_alpha   58.18747008
_cell_angle_beta   58.37872575
_cell_angle_gamma   58.37873315
_symmetry_Int_Tables_number   1
_chemical_formula_structural   SmCd(CuPd)2
_chemical_formula_sum   'Sm1 Cd1 Cu2 Pd2'
_cell_volume   104.43097042
_cell_formula_units_Z   1
loop_
 _symmetry_equiv_pos_site_id
 _symmetry_equiv_pos_as_xyz
  1  'x, y, z'
loop_
 _atom_site_type_symbol
 _atom_site_label
 _atom_site_symmetry_multiplicity
 _atom_site_fract_x
 _atom_site_fract_y
 _atom_site_fract_z
 _atom_site_occupancy
  Sm  Sm0  1  0.998483  0.001517  0.001517  1
  Cd  Cd1  1  0.740922  0.759078  0.759078  1
  Cu  Cu2  1  0.378880  0.871754  0.370487  1
  Cu  Cu3  1  0.378880  0.370487  0.871754  1
  Pd  Pd4  1  0.377312  0.373582  0.373582  1
  Pd  Pd5  1  0.875524  0.373582  0.373582  1
