# generated using pymatgen
data_Dy3Ho5(MgSn4)2
_symmetry_space_group_name_H-M   'P 1'
_cell_length_a   7.64385104
_cell_length_b   8.21016811
_cell_length_c   15.21504300
_cell_angle_alpha   89.99117900
_cell_angle_beta   89.99430329
_cell_angle_gamma   89.99677499
_symmetry_Int_Tables_number   1
_chemical_formula_structural   Dy3Ho5(MgSn4)2
_chemical_formula_sum   'Dy6 Ho10 Mg4 Sn16'
_cell_volume   954.85503141
_cell_formula_units_Z   2
loop_
 _symmetry_equiv_pos_site_id
 _symmetry_equiv_pos_as_xyz
  1  'x, y, z'
loop_
 _atom_site_type_symbol
 _atom_site_label
 _atom_site_symmetry_multiplicity
 _atom_site_fract_x
 _atom_site_fract_y
 _atom_site_fract_z
 _atom_site_occupancy
  Dy  Dy0  1  0.998880  0.184626  0.090962  1
  Dy  Dy1  1  0.001120  0.815374  0.909038  1
  Dy  Dy2  1  0.501075  0.684591  0.909173  1
  Dy  Dy3  1  0.001111  0.815304  0.590880  1
  Dy  Dy4  1  0.498925  0.315409  0.090827  1
  Dy  Dy5  1  0.998889  0.184696  0.409120  1
  Ho  Ho6  1  0.498794  0.315335  0.409118  1
  Ho  Ho7  1  0.501206  0.684665  0.590882  1
  Ho  Ho8  1  0.335475  0.169227  0.628773  1
  Ho  Ho9  1  0.664525  0.830773  0.371227  1
  Ho  Ho10  1  0.164689  0.669061  0.371235  1
  Ho  Ho11  1  0.664559  0.830803  0.128829  1
  Ho  Ho12  1  0.835311  0.330939  0.628765  1
  Ho  Ho13  1  0.335441  0.169197  0.871171  1
  Ho  Ho14  1  0.835388  0.330832  0.871177  1
  Ho  Ho15  1  0.164612  0.669168  0.128823  1
  Mg  Mg16  1  0.159177  0.504861  0.750042  1
  Mg  Mg17  1  0.840823  0.495139  0.249958  1
  Mg  Mg18  1  0.340617  0.004937  0.249996  1
  Mg  Mg19  1  0.659383  0.995063  0.750004  1
  Sn  Sn20  1  0.022085  0.091531  0.749989  1
  Sn  Sn21  1  0.977915  0.908469  0.250011  1
  Sn  Sn22  1  0.478163  0.591260  0.250100  1
  Sn  Sn23  1  0.521837  0.408740  0.749900  1
  Sn  Sn24  1  0.182309  0.462963  0.538630  1
  Sn  Sn25  1  0.817691  0.537037  0.461370  1
  Sn  Sn26  1  0.318480  0.962808  0.461414  1
  Sn  Sn27  1  0.818337  0.537250  0.038528  1
  Sn  Sn28  1  0.681520  0.037192  0.538586  1
  Sn  Sn29  1  0.181663  0.462750  0.961472  1
  Sn  Sn30  1  0.681704  0.037256  0.961464  1
  Sn  Sn31  1  0.318296  0.962744  0.038536  1
  Sn  Sn32  1  0.302748  0.847398  0.749827  1
  Sn  Sn33  1  0.697252  0.152602  0.250173  1
  Sn  Sn34  1  0.197995  0.347446  0.250061  1
  Sn  Sn35  1  0.802005  0.652554  0.749939  1
