# generated using pymatgen
data_ZrMn2RuF12
_symmetry_space_group_name_H-M   'P 1'
_cell_length_a   8.25177343
_cell_length_b   5.70752358
_cell_length_c   5.76909404
_cell_angle_alpha   90.10557165
_cell_angle_beta   90.41106216
_cell_angle_gamma   89.62080151
_symmetry_Int_Tables_number   1
_chemical_formula_structural   ZrMn2RuF12
_chemical_formula_sum   'Zr1 Mn2 Ru1 F12'
_cell_volume   271.69474543
_cell_formula_units_Z   1
loop_
 _symmetry_equiv_pos_site_id
 _symmetry_equiv_pos_as_xyz
  1  'x, y, z'
loop_
 _atom_site_type_symbol
 _atom_site_label
 _atom_site_symmetry_multiplicity
 _atom_site_fract_x
 _atom_site_fract_y
 _atom_site_fract_z
 _atom_site_occupancy
  Zr  Zr0  1  0.500000  0.000000  0.000000  1
  Mn  Mn1  1  0.000000  0.000000  0.000000  1
  Mn  Mn2  1  0.500000  0.500000  0.500000  1
  Ru  Ru3  1  0.000000  0.500000  0.500000  1
  F  F4  1  0.253692  0.018190  0.997193  1
  F  F5  1  0.507808  0.296925  0.196611  1
  F  F6  1  0.989783  0.302796  0.216940  1
  F  F7  1  0.010311  0.780523  0.306804  1
  F  F8  1  0.493019  0.804303  0.295013  1
  F  F9  1  0.763577  0.515282  0.506798  1
  F  F10  1  0.236423  0.484718  0.493202  1
  F  F11  1  0.506981  0.195697  0.704987  1
  F  F12  1  0.989689  0.219477  0.693196  1
  F  F13  1  0.010217  0.697204  0.783060  1
  F  F14  1  0.492192  0.703075  0.803389  1
  F  F15  1  0.746308  0.981810  0.002807  1
