# generated using pymatgen
data_Ho3Lu2In2Bi
_symmetry_space_group_name_H-M   'P 1'
_cell_length_a   8.96751706
_cell_length_b   8.91928244
_cell_length_c   6.53535500
_cell_angle_alpha   90.00000000
_cell_angle_beta   90.00000000
_cell_angle_gamma   119.82223007
_symmetry_Int_Tables_number   1
_chemical_formula_structural   Ho3Lu2In2Bi
_chemical_formula_sum   'Ho6 Lu4 In4 Bi2'
_cell_volume   453.49982473
_cell_formula_units_Z   2
loop_
 _symmetry_equiv_pos_site_id
 _symmetry_equiv_pos_as_xyz
  1  'x, y, z'
loop_
 _atom_site_type_symbol
 _atom_site_label
 _atom_site_symmetry_multiplicity
 _atom_site_fract_x
 _atom_site_fract_y
 _atom_site_fract_z
 _atom_site_occupancy
  Ho  Ho0  1  0.770437  0.760370  0.750000  1
  Ho  Ho1  1  0.229563  0.989935  0.750000  1
  Ho  Ho2  1  0.000000  0.235908  0.750000  1
  Ho  Ho3  1  0.234656  0.235934  0.250000  1
  Ho  Ho4  1  0.765344  0.001279  0.250000  1
  Ho  Ho5  1  0.000000  0.764031  0.250000  1
  Lu  Lu6  1  0.671546  0.339266  0.008064  1
  Lu  Lu7  1  0.328454  0.667720  0.008064  1
  Lu  Lu8  1  0.328454  0.667720  0.491936  1
  Lu  Lu9  1  0.671546  0.339266  0.491936  1
  In  In10  1  0.000000  0.592565  0.750000  1
  In  In11  1  0.599278  0.603782  0.250000  1
  In  In12  1  0.400722  0.004505  0.250000  1
  In  In13  1  0.000000  0.400557  0.250000  1
  Bi  Bi14  1  0.396964  0.397064  0.750000  1
  Bi  Bi15  1  0.603036  0.000099  0.750000  1
