# generated using pymatgen
data_Tb8Ho4CoTc3
_symmetry_space_group_name_H-M   'P 1'
_cell_length_a   6.28628361
_cell_length_b   7.33598799
_cell_length_c   9.21834576
_cell_angle_alpha   90.00510252
_cell_angle_beta   89.78095977
_cell_angle_gamma   90.12870214
_symmetry_Int_Tables_number   1
_chemical_formula_structural   Tb8Ho4CoTc3
_chemical_formula_sum   'Tb8 Ho4 Co1 Tc3'
_cell_volume   425.10998455
_cell_formula_units_Z   1
loop_
 _symmetry_equiv_pos_site_id
 _symmetry_equiv_pos_as_xyz
  1  'x, y, z'
loop_
 _atom_site_type_symbol
 _atom_site_label
 _atom_site_symmetry_multiplicity
 _atom_site_fract_x
 _atom_site_fract_y
 _atom_site_fract_z
 _atom_site_occupancy
  Tb  Tb0  1  0.663525  0.176988  0.062471  1
  Tb  Tb1  1  0.372962  0.541573  0.249890  1
  Tb  Tb2  1  0.126215  0.041458  0.250253  1
  Tb  Tb3  1  0.830184  0.678022  0.434549  1
  Tb  Tb4  1  0.331662  0.821272  0.935625  1
  Tb  Tb5  1  0.165776  0.326504  0.565197  1
  Tb  Tb6  1  0.873628  0.951847  0.749738  1
  Tb  Tb7  1  0.641637  0.457012  0.750241  1
  Ho  Ho8  1  0.662833  0.175542  0.438178  1
  Ho  Ho9  1  0.164874  0.327558  0.934951  1
  Ho  Ho10  1  0.333196  0.822867  0.563873  1
  Ho  Ho11  1  0.831127  0.676657  0.065277  1
  Co  Co12  1  0.039921  0.615344  0.750932  1
  Tc  Tc13  1  0.958937  0.388295  0.249271  1
  Tc  Tc14  1  0.463984  0.112716  0.749347  1
  Tc  Tc15  1  0.539538  0.886345  0.250207  1
