# generated using pymatgen
data_Er2Sc4GaTcNi
_symmetry_space_group_name_H-M   'P 1'
_cell_length_a   7.99126955
_cell_length_b   7.99127038
_cell_length_c   7.99127113
_cell_angle_alpha   112.70178002
_cell_angle_beta   111.61504993
_cell_angle_gamma   104.22300745
_symmetry_Int_Tables_number   1
_chemical_formula_structural   Er2Sc4GaTcNi
_chemical_formula_sum   'Er4 Sc8 Ga2 Tc2 Ni2'
_cell_volume   390.36831727
_cell_formula_units_Z   2
loop_
 _symmetry_equiv_pos_site_id
 _symmetry_equiv_pos_as_xyz
  1  'x, y, z'
loop_
 _atom_site_type_symbol
 _atom_site_label
 _atom_site_symmetry_multiplicity
 _atom_site_fract_x
 _atom_site_fract_y
 _atom_site_fract_z
 _atom_site_occupancy
  Er  Er0  1  0.185766  0.212209  0.397976  1
  Er  Er1  1  0.814234  0.212209  0.026444  1
  Er  Er2  1  0.185766  0.787791  0.973556  1
  Er  Er3  1  0.814234  0.787791  0.602024  1
  Sc  Sc4  1  0.052323  0.740971  0.311352  1
  Sc  Sc5  1  0.947677  0.259029  0.688648  1
  Sc  Sc6  1  0.570383  0.259029  0.311352  1
  Sc  Sc7  1  0.429617  0.740971  0.688648  1
  Sc  Sc8  1  0.666331  0.849246  0.182914  1
  Sc  Sc9  1  0.333669  0.516584  0.182914  1
  Sc  Sc10  1  0.333669  0.150754  0.817086  1
  Sc  Sc11  1  0.666331  0.483416  0.817086  1
  Ga  Ga12  1  0.000000  0.500000  0.500000  1
  Ga  Ga13  1  0.500000  0.000000  0.500000  1
  Tc  Tc14  1  0.677399  0.500000  0.177399  1
  Tc  Tc15  1  0.322601  0.500000  0.822601  1
  Ni  Ni16  1  0.873156  0.873156  0.000000  1
  Ni  Ni17  1  0.126844  0.126844  0.000000  1
