# generated using pymatgen
data_Tb5Tm11(Ga3Co)2
_symmetry_space_group_name_H-M   'P 1'
_cell_length_a   9.91080500
_cell_length_b   9.91080397
_cell_length_c   6.92987000
_cell_angle_alpha   90.00000000
_cell_angle_beta   90.00000000
_cell_angle_gamma   120.00000010
_symmetry_Int_Tables_number   1
_chemical_formula_structural   Tb5Tm11(Ga3Co)2
_chemical_formula_sum   'Tb5 Tm11 Ga6 Co2'
_cell_volume   589.48605552
_cell_formula_units_Z   1
loop_
 _symmetry_equiv_pos_site_id
 _symmetry_equiv_pos_as_xyz
  1  'x, y, z'
loop_
 _atom_site_type_symbol
 _atom_site_label
 _atom_site_symmetry_multiplicity
 _atom_site_fract_x
 _atom_site_fract_y
 _atom_site_fract_z
 _atom_site_occupancy
  Tb  Tb0  1  0.464516  0.929032  0.291810  1
  Tb  Tb1  1  0.070968  0.535484  0.291810  1
  Tb  Tb2  1  0.464516  0.535484  0.291810  1
  Tb  Tb3  1  0.000000  0.000000  0.769229  1
  Tb  Tb4  1  0.000000  0.000000  0.269477  1
  Tm  Tm5  1  0.825985  0.651970  0.490203  1
  Tm  Tm6  1  0.348030  0.174015  0.490203  1
  Tm  Tm7  1  0.825985  0.174015  0.490203  1
  Tm  Tm8  1  0.173712  0.347423  0.986561  1
  Tm  Tm9  1  0.652577  0.826288  0.986561  1
  Tm  Tm10  1  0.173712  0.826288  0.986561  1
  Tm  Tm11  1  0.666667  0.333333  0.172466  1
  Tm  Tm12  1  0.333333  0.666667  0.674715  1
  Tm  Tm13  1  0.537249  0.074498  0.792423  1
  Tm  Tm14  1  0.925502  0.462751  0.792423  1
  Tm  Tm15  1  0.537249  0.462751  0.792423  1
  Ga  Ga16  1  0.835753  0.671508  0.040291  1
  Ga  Ga17  1  0.328492  0.164247  0.040291  1
  Ga  Ga18  1  0.835753  0.164247  0.040291  1
  Ga  Ga19  1  0.163566  0.327131  0.542316  1
  Ga  Ga20  1  0.672869  0.836434  0.542316  1
  Ga  Ga21  1  0.163566  0.836434  0.542316  1
  Co  Co22  1  0.666667  0.333333  0.555990  1
  Co  Co23  1  0.333333  0.666667  0.053387  1
