# generated using pymatgen
data_Cr6SiP
_symmetry_space_group_name_H-M   'P 1'
_cell_length_a   4.49002800
_cell_length_b   4.49002800
_cell_length_c   4.49002800
_cell_angle_alpha   90.00000000
_cell_angle_beta   90.00000000
_cell_angle_gamma   90.00000000
_symmetry_Int_Tables_number   1
_chemical_formula_structural   Cr6SiP
_chemical_formula_sum   'Cr6 Si1 P1'
_cell_volume   90.52054246
_cell_formula_units_Z   1
loop_
 _symmetry_equiv_pos_site_id
 _symmetry_equiv_pos_as_xyz
  1  'x, y, z'
loop_
 _atom_site_type_symbol
 _atom_site_label
 _atom_site_symmetry_multiplicity
 _atom_site_fract_x
 _atom_site_fract_y
 _atom_site_fract_z
 _atom_site_occupancy
  Cr  Cr0  1  0.000000  0.500000  0.748341  1
  Cr  Cr1  1  0.500000  0.251659  0.000000  1
  Cr  Cr2  1  0.748341  0.000000  0.500000  1
  Cr  Cr3  1  0.000000  0.500000  0.251659  1
  Cr  Cr4  1  0.500000  0.748341  0.000000  1
  Cr  Cr5  1  0.251659  0.000000  0.500000  1
  Si  Si6  1  0.000000  0.000000  0.000000  1
  P  P7  1  0.500000  0.500000  0.500000  1
