# generated using pymatgen
data_Tb15Nd(HgIr)4
_symmetry_space_group_name_H-M   'P 1'
_cell_length_a   9.66423518
_cell_length_b   9.66423619
_cell_length_c   9.65821600
_cell_angle_alpha   60.02060437
_cell_angle_beta   60.02060092
_cell_angle_gamma   59.93397557
_symmetry_Int_Tables_number   1
_chemical_formula_structural   Tb15Nd(HgIr)4
_chemical_formula_sum   'Tb15 Nd1 Hg4 Ir4'
_cell_volume   637.72700352
_cell_formula_units_Z   1
loop_
 _symmetry_equiv_pos_site_id
 _symmetry_equiv_pos_as_xyz
  1  'x, y, z'
loop_
 _atom_site_type_symbol
 _atom_site_label
 _atom_site_symmetry_multiplicity
 _atom_site_fract_x
 _atom_site_fract_y
 _atom_site_fract_z
 _atom_site_occupancy
  Tb  Tb0  1  0.600859  0.600859  0.599219  1
  Tb  Tb1  1  0.600859  0.600859  0.199064  1
  Tb  Tb2  1  0.602393  0.197199  0.600205  1
  Tb  Tb3  1  0.197199  0.602393  0.600205  1
  Tb  Tb4  1  0.059179  0.440336  0.440170  1
  Tb  Tb5  1  0.440336  0.059179  0.060315  1
  Tb  Tb6  1  0.440336  0.059179  0.440170  1
  Tb  Tb7  1  0.059179  0.440336  0.060315  1
  Tb  Tb8  1  0.440623  0.440623  0.059377  1
  Tb  Tb9  1  0.059452  0.059452  0.440548  1
  Tb  Tb10  1  0.189472  0.808783  0.811479  1
  Tb  Tb11  1  0.808783  0.189472  0.190266  1
  Tb  Tb12  1  0.808783  0.189472  0.811479  1
  Tb  Tb13  1  0.189472  0.808783  0.190266  1
  Tb  Tb14  1  0.811659  0.811659  0.188341  1
  Nd  Nd15  1  0.187938  0.187938  0.812062  1
  Hg  Hg16  1  0.835416  0.835416  0.835293  1
  Hg  Hg17  1  0.835416  0.835416  0.493873  1
  Hg  Hg18  1  0.832233  0.496393  0.835686  1
  Hg  Hg19  1  0.496393  0.832233  0.835686  1
  Ir  Ir20  1  0.393173  0.393173  0.388698  1
  Ir  Ir21  1  0.393173  0.393173  0.824955  1
  Ir  Ir22  1  0.392814  0.824858  0.391163  1
  Ir  Ir23  1  0.824858  0.392814  0.391163  1
