# generated using pymatgen
data_Ta5Mn2Nb(BRu2)4
_symmetry_space_group_name_H-M   'P 1'
_cell_length_a   9.30457042
_cell_length_b   9.30457042
_cell_length_c   3.03765800
_cell_angle_alpha   90.00000000
_cell_angle_beta   90.00000000
_cell_angle_gamma   89.90168439
_symmetry_Int_Tables_number   1
_chemical_formula_structural   Ta5Mn2Nb(BRu2)4
_chemical_formula_sum   'Ta5 Mn2 Nb1 B4 Ru8'
_cell_volume   262.98494770
_cell_formula_units_Z   1
loop_
 _symmetry_equiv_pos_site_id
 _symmetry_equiv_pos_as_xyz
  1  'x, y, z'
loop_
 _atom_site_type_symbol
 _atom_site_label
 _atom_site_symmetry_multiplicity
 _atom_site_fract_x
 _atom_site_fract_y
 _atom_site_fract_z
 _atom_site_occupancy
  Ta  Ta0  1  0.830707  0.669367  0.000000  1
  Ta  Ta1  1  0.169367  0.330707  0.000000  1
  Ta  Ta2  1  0.330833  0.830833  0.000000  1
  Ta  Ta3  1  0.500013  0.499832  0.000000  1
  Ta  Ta4  1  0.999832  0.000013  0.000000  1
  Mn  Mn5  1  0.499798  0.999798  0.500000  1
  Mn  Mn6  1  0.000287  0.500287  0.500000  1
  Nb  Nb7  1  0.669368  0.169368  0.000000  1
  B  B8  1  0.613089  0.886598  0.000000  1
  B  B9  1  0.386598  0.113089  0.000000  1
  B  B10  1  0.112940  0.612940  0.000000  1
  B  B11  1  0.887014  0.387014  0.000000  1
  Ru  Ru12  1  0.571042  0.719982  0.500000  1
  Ru  Ru13  1  0.427759  0.279804  0.500000  1
  Ru  Ru14  1  0.071256  0.779779  0.500000  1
  Ru  Ru15  1  0.929810  0.220723  0.500000  1
  Ru  Ru16  1  0.279779  0.571256  0.500000  1
  Ru  Ru17  1  0.720723  0.429810  0.500000  1
  Ru  Ru18  1  0.219982  0.071042  0.500000  1
  Ru  Ru19  1  0.779804  0.927759  0.500000  1
