# generated using pymatgen
data_SrVFeP2O9
_symmetry_space_group_name_H-M   'P 1'
_cell_length_a   6.64858900
_cell_length_b   7.71009800
_cell_length_c   14.42626700
_cell_angle_alpha   90.00000000
_cell_angle_beta   90.00000000
_cell_angle_gamma   90.00000000
_symmetry_Int_Tables_number   1
_chemical_formula_structural   SrVFeP2O9
_chemical_formula_sum   'Sr4 V4 Fe4 P8 O36'
_cell_volume   739.50880748
_cell_formula_units_Z   4
loop_
 _symmetry_equiv_pos_site_id
 _symmetry_equiv_pos_as_xyz
  1  'x, y, z'
loop_
 _atom_site_type_symbol
 _atom_site_label
 _atom_site_symmetry_multiplicity
 _atom_site_fract_x
 _atom_site_fract_y
 _atom_site_fract_z
 _atom_site_occupancy
  Sr  Sr0  1  0.750000  0.875889  0.779775  1
  Sr  Sr1  1  0.750000  0.624111  0.279775  1
  Sr  Sr2  1  0.250000  0.124111  0.220225  1
  Sr  Sr3  1  0.250000  0.375889  0.720225  1
  V  V4  1  0.750000  0.344870  0.884350  1
  V  V5  1  0.250000  0.655130  0.115650  1
  V  V6  1  0.250000  0.844870  0.615650  1
  V  V7  1  0.750000  0.155130  0.384350  1
  Fe  Fe8  1  0.500000  0.000000  0.000000  1
  Fe  Fe9  1  0.500000  0.500000  0.500000  1
  Fe  Fe10  1  0.000000  0.500000  0.500000  1
  Fe  Fe11  1  0.000000  0.000000  0.000000  1
  P  P12  1  0.250000  0.350289  0.942316  1
  P  P13  1  0.750000  0.649711  0.057684  1
  P  P14  1  0.750000  0.850289  0.557684  1
  P  P15  1  0.250000  0.149711  0.442316  1
  P  P16  1  0.750000  0.388918  0.693211  1
  P  P17  1  0.250000  0.611082  0.306789  1
  P  P18  1  0.250000  0.888918  0.806789  1
  P  P19  1  0.750000  0.111082  0.193211  1
  O  O20  1  0.061090  0.599719  0.368044  1
  O  O21  1  0.561090  0.400281  0.631956  1
  O  O22  1  0.938910  0.099719  0.131956  1
  O  O23  1  0.438910  0.900281  0.868044  1
  O  O24  1  0.938910  0.400281  0.631956  1
  O  O25  1  0.438910  0.599719  0.368044  1
  O  O26  1  0.061090  0.900281  0.868044  1
  O  O27  1  0.561090  0.099719  0.131956  1
  O  O28  1  0.250000  0.327705  0.491956  1
  O  O29  1  0.750000  0.672295  0.508044  1
  O  O30  1  0.750000  0.827705  0.008044  1
  O  O31  1  0.250000  0.172295  0.991956  1
  O  O32  1  0.750000  0.144315  0.935823  1
  O  O33  1  0.250000  0.855685  0.064177  1
  O  O34  1  0.250000  0.644315  0.564177  1
  O  O35  1  0.750000  0.355685  0.435823  1
  O  O36  1  0.750000  0.220039  0.753771  1
  O  O37  1  0.250000  0.779961  0.246229  1
  O  O38  1  0.250000  0.720039  0.746229  1
  O  O39  1  0.750000  0.279961  0.253771  1
  O  O40  1  0.436415  0.135218  0.376732  1
  O  O41  1  0.936415  0.864782  0.623268  1
  O  O42  1  0.563585  0.635218  0.123268  1
  O  O43  1  0.063585  0.364782  0.876732  1
  O  O44  1  0.563585  0.864782  0.623268  1
  O  O45  1  0.063585  0.135218  0.376732  1
  O  O46  1  0.436415  0.364782  0.876732  1
  O  O47  1  0.936415  0.635218  0.123268  1
  O  O48  1  0.750000  0.970273  0.272267  1
  O  O49  1  0.250000  0.029727  0.727733  1
  O  O50  1  0.250000  0.470273  0.227733  1
  O  O51  1  0.750000  0.529727  0.772267  1
  O  O52  1  0.750000  0.993230  0.484109  1
  O  O53  1  0.250000  0.006770  0.515891  1
  O  O54  1  0.250000  0.493230  0.015891  1
  O  O55  1  0.750000  0.506770  0.984109  1
