# generated using pymatgen
data_DyY2Er(Al3Ir)6
_symmetry_space_group_name_H-M   'P 1'
_cell_length_a   7.55456611
_cell_length_b   7.55582308
_cell_length_c   9.47572200
_cell_angle_alpha   90.00000000
_cell_angle_beta   90.00000000
_cell_angle_gamma   119.48078050
_symmetry_Int_Tables_number   1
_chemical_formula_structural   DyY2Er(Al3Ir)6
_chemical_formula_sum   'Dy1 Y2 Er1 Al18 Ir6'
_cell_volume   470.85022658
_cell_formula_units_Z   1
loop_
 _symmetry_equiv_pos_site_id
 _symmetry_equiv_pos_as_xyz
  1  'x, y, z'
loop_
 _atom_site_type_symbol
 _atom_site_label
 _atom_site_symmetry_multiplicity
 _atom_site_fract_x
 _atom_site_fract_y
 _atom_site_fract_z
 _atom_site_occupancy
  Dy  Dy0  1  0.328602  0.005351  0.250000  1
  Y  Y1  1  0.994581  0.671430  0.750000  1
  Y  Y2  1  0.005329  0.328597  0.250000  1
  Er  Er3  1  0.671570  0.994691  0.750000  1
  Al  Al4  1  0.128825  0.129360  0.750000  1
  Al  Al5  1  0.870605  0.870565  0.250000  1
  Al  Al6  1  0.000683  0.334895  0.574718  1
  Al  Al7  1  0.998920  0.664800  0.425740  1
  Al  Al8  1  0.998920  0.664800  0.074260  1
  Al  Al9  1  0.335681  0.001120  0.925242  1
  Al  Al10  1  0.000683  0.334895  0.925282  1
  Al  Al11  1  0.664703  0.998811  0.073830  1
  Al  Al12  1  0.664703  0.998811  0.426170  1
  Al  Al13  1  0.335681  0.001120  0.574758  1
  Al  Al14  1  0.333412  0.333357  0.051214  1
  Al  Al15  1  0.666600  0.666935  0.947845  1
  Al  Al16  1  0.666600  0.666935  0.552155  1
  Al  Al17  1  0.333412  0.333357  0.448786  1
  Al  Al18  1  0.339878  0.548759  0.750000  1
  Al  Al19  1  0.660519  0.451806  0.250000  1
  Al  Al20  1  0.548330  0.339158  0.750000  1
  Al  Al21  1  0.451904  0.660626  0.250000  1
  Ir  Ir22  1  0.671782  0.327873  0.500196  1
  Ir  Ir23  1  0.328349  0.672145  0.500179  1
  Ir  Ir24  1  0.328349  0.672145  0.999821  1
  Ir  Ir25  1  0.671782  0.327873  0.999804  1
  Ir  Ir26  1  0.999800  0.999892  0.500255  1
  Ir  Ir27  1  0.999800  0.999892  0.999745  1
