# generated using pymatgen
data_YbY7(Si3Pt)4
_symmetry_space_group_name_H-M   'P 1'
_cell_length_a   8.20350000
_cell_length_b   8.18176325
_cell_length_c   8.01638000
_cell_angle_alpha   90.00000000
_cell_angle_beta   90.00000000
_cell_angle_gamma   120.08790677
_symmetry_Int_Tables_number   1
_chemical_formula_structural   YbY7(Si3Pt)4
_chemical_formula_sum   'Yb1 Y7 Si12 Pt4'
_cell_volume   465.55354239
_cell_formula_units_Z   1
loop_
 _symmetry_equiv_pos_site_id
 _symmetry_equiv_pos_as_xyz
  1  'x, y, z'
loop_
 _atom_site_type_symbol
 _atom_site_label
 _atom_site_symmetry_multiplicity
 _atom_site_fract_x
 _atom_site_fract_y
 _atom_site_fract_z
 _atom_site_occupancy
  Yb  Yb0  1  0.510918  0.021836  0.250000  1
  Y  Y1  1  0.489098  0.978196  0.750000  1
  Y  Y2  1  0.978194  0.489087  0.250000  1
  Y  Y3  1  0.021480  0.509969  0.750000  1
  Y  Y4  1  0.510893  0.489087  0.250000  1
  Y  Y5  1  0.488489  0.509969  0.750000  1
  Y  Y6  1  0.999863  0.999726  0.250000  1
  Y  Y7  1  0.000524  0.001047  0.750000  1
  Si  Si8  1  0.165550  0.331100  0.000241  1
  Si  Si9  1  0.834629  0.669256  0.997986  1
  Si  Si10  1  0.669116  0.834342  0.001850  1
  Si  Si11  1  0.834629  0.669256  0.502014  1
  Si  Si12  1  0.330357  0.165657  0.997637  1
  Si  Si13  1  0.165550  0.331100  0.499759  1
  Si  Si14  1  0.165226  0.834342  0.001850  1
  Si  Si15  1  0.330357  0.165657  0.502363  1
  Si  Si16  1  0.835300  0.165657  0.997637  1
  Si  Si17  1  0.669116  0.834342  0.498150  1
  Si  Si18  1  0.835300  0.165657  0.502363  1
  Si  Si19  1  0.165226  0.834342  0.498150  1
  Pt  Pt20  1  0.333472  0.666945  0.036914  1
  Pt  Pt21  1  0.666622  0.333243  0.963983  1
  Pt  Pt22  1  0.666622  0.333243  0.536017  1
  Pt  Pt23  1  0.333472  0.666945  0.463086  1
