# generated using pymatgen
data_Zr12Pa8Si15Sb
_symmetry_space_group_name_H-M   'P 1'
_cell_length_a   7.17519738
_cell_length_b   7.33491234
_cell_length_c   14.02432500
_cell_angle_alpha   90.14013628
_cell_angle_beta   89.27062309
_cell_angle_gamma   90.05695901
_symmetry_Int_Tables_number   1
_chemical_formula_structural   Zr12Pa8Si15Sb
_chemical_formula_sum   'Zr12 Pa8 Si15 Sb1'
_cell_volume   738.03006986
_cell_formula_units_Z   1
loop_
 _symmetry_equiv_pos_site_id
 _symmetry_equiv_pos_as_xyz
  1  'x, y, z'
loop_
 _atom_site_type_symbol
 _atom_site_label
 _atom_site_symmetry_multiplicity
 _atom_site_fract_x
 _atom_site_fract_y
 _atom_site_fract_z
 _atom_site_occupancy
  Zr  Zr0  1  0.166535  0.505584  0.754871  1
  Zr  Zr1  1  0.834105  0.492798  0.248770  1
  Zr  Zr2  1  0.333294  0.007045  0.248354  1
  Zr  Zr3  1  0.667129  0.992754  0.752109  1
  Zr  Zr4  1  0.347196  0.158765  0.628068  1
  Zr  Zr5  1  0.659975  0.829733  0.375044  1
  Zr  Zr6  1  0.155540  0.680523  0.371805  1
  Zr  Zr7  1  0.662772  0.824336  0.121532  1
  Zr  Zr8  1  0.831547  0.326716  0.624496  1
  Zr  Zr9  1  0.334472  0.173902  0.878514  1
  Zr  Zr10  1  0.834293  0.325960  0.878353  1
  Zr  Zr11  1  0.165964  0.673672  0.122355  1
  Pa  Pa12  1  0.006189  0.173516  0.095018  1
  Pa  Pa13  1  0.994065  0.827190  0.905549  1
  Pa  Pa14  1  0.493759  0.672657  0.905243  1
  Pa  Pa15  1  0.995268  0.832954  0.598059  1
  Pa  Pa16  1  0.506020  0.326751  0.095826  1
  Pa  Pa17  1  0.997333  0.170670  0.399531  1
  Pa  Pa18  1  0.506940  0.319658  0.398922  1
  Pa  Pa19  1  0.512296  0.684287  0.600639  1
  Si  Si20  1  0.042100  0.119193  0.751130  1
  Si  Si21  1  0.955976  0.883161  0.246925  1
  Si  Si22  1  0.457471  0.617071  0.249456  1
  Si  Si23  1  0.541000  0.383031  0.751650  1
  Si  Si24  1  0.292391  0.869300  0.753346  1
  Si  Si25  1  0.707725  0.126638  0.246221  1
  Si  Si26  1  0.207463  0.372275  0.248515  1
  Si  Si27  1  0.795508  0.628449  0.752896  1
  Si  Si28  1  0.815453  0.539990  0.457788  1
  Si  Si29  1  0.325536  0.962058  0.459481  1
  Si  Si30  1  0.835337  0.534901  0.041440  1
  Si  Si31  1  0.674557  0.040506  0.538090  1
  Si  Si32  1  0.164587  0.464322  0.959619  1
  Si  Si33  1  0.664851  0.035242  0.959377  1
  Si  Si34  1  0.334630  0.964784  0.041324  1
  Sb  Sb35  1  0.180727  0.459608  0.539681  1
