# generated using pymatgen
data_U4Al24Ir5Pt4
_symmetry_space_group_name_H-M   'P 1'
_cell_length_a   7.52439078
_cell_length_b   7.59379321
_cell_length_c   13.09990679
_cell_angle_alpha   83.93077127
_cell_angle_beta   78.73935610
_cell_angle_gamma   59.65235660
_symmetry_Int_Tables_number   1
_chemical_formula_structural   U4Al24Ir5Pt4
_chemical_formula_sum   'U4 Al24 Ir5 Pt4'
_cell_volume   633.48979698
_cell_formula_units_Z   1
loop_
 _symmetry_equiv_pos_site_id
 _symmetry_equiv_pos_as_xyz
  1  'x, y, z'
loop_
 _atom_site_type_symbol
 _atom_site_label
 _atom_site_symmetry_multiplicity
 _atom_site_fract_x
 _atom_site_fract_y
 _atom_site_fract_z
 _atom_site_occupancy
  U  U0  1  0.387799  0.173767  0.804806  1
  U  U1  1  0.612201  0.826233  0.195194  1
  U  U2  1  0.742271  0.497082  0.803872  1
  U  U3  1  0.257729  0.502918  0.196128  1
  Al  Al4  1  0.680752  0.836152  0.947908  1
  Al  Al5  1  0.319248  0.163848  0.052092  1
  Al  Al6  1  0.145886  0.826406  0.560889  1
  Al  Al7  1  0.854114  0.173594  0.439111  1
  Al  Al8  1  0.476782  0.169774  0.558371  1
  Al  Al9  1  0.523218  0.830226  0.441629  1
  Al  Al10  1  0.214649  0.165723  0.328603  1
  Al  Al11  1  0.785351  0.834277  0.671397  1
  Al  Al12  1  0.434185  0.509126  0.671777  1
  Al  Al13  1  0.565815  0.490874  0.328223  1
  Al  Al14  1  0.110247  0.154679  0.667964  1
  Al  Al15  1  0.889753  0.845321  0.332036  1
  Al  Al16  1  0.354464  0.499332  0.948002  1
  Al  Al17  1  0.645536  0.500668  0.051998  1
  Al  Al18  1  0.013386  0.169116  0.958255  1
  Al  Al19  1  0.986614  0.830884  0.041745  1
  Al  Al20  1  0.181240  0.500766  0.444553  1
  Al  Al21  1  0.818760  0.499234  0.555447  1
  Al  Al22  1  0.735374  0.162906  0.179519  1
  Al  Al23  1  0.264626  0.837094  0.820481  1
  Al  Al24  1  0.060181  0.635121  0.819021  1
  Al  Al25  1  0.939819  0.364879  0.180979  1
  Al  Al26  1  0.853257  0.043282  0.820492  1
  Al  Al27  1  0.146743  0.956718  0.179508  1
  Ir  Ir28  1  0.118397  0.487977  0.644209  1
  Ir  Ir29  1  0.881603  0.512023  0.355791  1
  Ir  Ir30  1  0.657884  0.170753  0.000380  1
  Ir  Ir31  1  0.342116  0.829247  0.999620  1
  Ir  Ir32  1  0.000000  0.500000  0.000000  1
  Pt  Pt33  1  0.536339  0.169258  0.360749  1
  Pt  Pt34  1  0.463661  0.830742  0.639251  1
  Pt  Pt35  1  0.777631  0.173931  0.638422  1
  Pt  Pt36  1  0.222369  0.826069  0.361578  1
