# generated using pymatgen
data_TbNdCo2Cl
_symmetry_space_group_name_H-M   'P 1'
_cell_length_a   3.92315800
_cell_length_b   3.92315881
_cell_length_c   16.31688500
_cell_angle_alpha   90.00000000
_cell_angle_beta   90.00000000
_cell_angle_gamma   119.99997633
_symmetry_Int_Tables_number   1
_chemical_formula_structural   TbNdCo2Cl
_chemical_formula_sum   'Tb2 Nd2 Co4 Cl2'
_cell_volume   217.49019141
_cell_formula_units_Z   2
loop_
 _symmetry_equiv_pos_site_id
 _symmetry_equiv_pos_as_xyz
  1  'x, y, z'
loop_
 _atom_site_type_symbol
 _atom_site_label
 _atom_site_symmetry_multiplicity
 _atom_site_fract_x
 _atom_site_fract_y
 _atom_site_fract_z
 _atom_site_occupancy
  Tb  Tb0  1  0.000000  0.000000  0.108797  1
  Tb  Tb1  1  0.000000  0.000000  0.891203  1
  Nd  Nd2  1  0.000000  0.000000  0.615078  1
  Nd  Nd3  1  0.000000  0.000000  0.384922  1
  Co  Co4  1  0.333333  0.666667  0.501284  1
  Co  Co5  1  0.666667  0.333333  0.498716  1
  Co  Co6  1  0.666667  0.333333  0.002688  1
  Co  Co7  1  0.333333  0.666667  0.997312  1
  Cl  Cl8  1  0.333333  0.666667  0.242465  1
  Cl  Cl9  1  0.666667  0.333333  0.757535  1
