# generated using pymatgen
data_Ca2LaPd9
_symmetry_space_group_name_H-M   'P 1'
_cell_length_a   9.51054407
_cell_length_b   9.51054434
_cell_length_c   9.51054446
_cell_angle_alpha   33.16954499
_cell_angle_beta   33.16954401
_cell_angle_gamma   33.16954138
_symmetry_Int_Tables_number   1
_chemical_formula_structural   Ca2LaPd9
_chemical_formula_sum   'Ca2 La1 Pd9'
_cell_volume   229.21663638
_cell_formula_units_Z   1
loop_
 _symmetry_equiv_pos_site_id
 _symmetry_equiv_pos_as_xyz
  1  'x, y, z'
loop_
 _atom_site_type_symbol
 _atom_site_label
 _atom_site_symmetry_multiplicity
 _atom_site_fract_x
 _atom_site_fract_y
 _atom_site_fract_z
 _atom_site_occupancy
  Ca  Ca0  1  0.141380  0.141380  0.141380  1
  Ca  Ca1  1  0.858620  0.858620  0.858620  1
  La  La2  1  0.000000  0.000000  0.000000  1
  Pd  Pd3  1  0.585465  0.585465  0.083155  1
  Pd  Pd4  1  0.332666  0.332666  0.332666  1
  Pd  Pd5  1  0.916845  0.414534  0.414536  1
  Pd  Pd6  1  0.414534  0.916845  0.414536  1
  Pd  Pd7  1  0.500000  0.500000  0.500000  1
  Pd  Pd8  1  0.585466  0.083155  0.585464  1
  Pd  Pd9  1  0.083155  0.585466  0.585464  1
  Pd  Pd10  1  0.667334  0.667334  0.667334  1
  Pd  Pd11  1  0.414535  0.414535  0.916845  1
