# generated using pymatgen
data_La8Y11TmSn16
_symmetry_space_group_name_H-M   'P 1'
_cell_length_a   8.10161400
_cell_length_b   8.30050181
_cell_length_c   15.63154900
_cell_angle_alpha   90.00000000
_cell_angle_beta   90.00000000
_cell_angle_gamma   89.96212494
_symmetry_Int_Tables_number   1
_chemical_formula_structural   La8Y11TmSn16
_chemical_formula_sum   'La8 Y11 Tm1 Sn16'
_cell_volume   1051.18176301
_cell_formula_units_Z   1
loop_
 _symmetry_equiv_pos_site_id
 _symmetry_equiv_pos_as_xyz
  1  'x, y, z'
loop_
 _atom_site_type_symbol
 _atom_site_label
 _atom_site_symmetry_multiplicity
 _atom_site_fract_x
 _atom_site_fract_y
 _atom_site_fract_z
 _atom_site_occupancy
  La  La0  1  0.508636  0.323207  0.904439  1
  La  La1  1  0.008528  0.177037  0.595607  1
  La  La2  1  0.491176  0.677100  0.404070  1
  La  La3  1  0.991590  0.823230  0.095867  1
  La  La4  1  0.491176  0.677100  0.095930  1
  La  La5  1  0.991590  0.823230  0.404133  1
  La  La6  1  0.508636  0.323207  0.595561  1
  La  La7  1  0.008528  0.177037  0.904393  1
  Y  Y8  1  0.351234  0.834668  0.876205  1
  Y  Y9  1  0.850980  0.665392  0.623816  1
  Y  Y10  1  0.648588  0.164984  0.375756  1
  Y  Y11  1  0.149319  0.334581  0.124093  1
  Y  Y12  1  0.648588  0.164984  0.124244  1
  Y  Y13  1  0.149319  0.334581  0.375907  1
  Y  Y14  1  0.351234  0.834668  0.623795  1
  Y  Y15  1  0.850980  0.665392  0.876184  1
  Y  Y16  1  0.184528  0.501199  0.750000  1
  Y  Y17  1  0.684495  0.998943  0.750000  1
  Y  Y18  1  0.815591  0.498969  0.250000  1
  Tm  Tm19  1  0.315450  0.001437  0.250000  1
  Sn  Sn20  1  0.313084  0.040493  0.042568  1
  Sn  Sn21  1  0.812973  0.458800  0.457988  1
  Sn  Sn22  1  0.686824  0.959153  0.541742  1
  Sn  Sn23  1  0.186816  0.540951  0.958177  1
  Sn  Sn24  1  0.686824  0.959153  0.958258  1
  Sn  Sn25  1  0.186816  0.540951  0.541823  1
  Sn  Sn26  1  0.313084  0.040493  0.457432  1
  Sn  Sn27  1  0.812973  0.458800  0.042012  1
  Sn  Sn28  1  0.549725  0.623720  0.750000  1
  Sn  Sn29  1  0.049675  0.876321  0.750000  1
  Sn  Sn30  1  0.450090  0.375503  0.250000  1
  Sn  Sn31  1  0.951780  0.122954  0.250000  1
  Sn  Sn32  1  0.315828  0.141324  0.750000  1
  Sn  Sn33  1  0.815709  0.358699  0.750000  1
  Sn  Sn34  1  0.683306  0.858782  0.250000  1
  Sn  Sn35  1  0.184324  0.642960  0.250000  1
