# generated using pymatgen
data_CsLaTi6CBr18
_symmetry_space_group_name_H-M   'P 1'
_cell_length_a   9.99119200
_cell_length_b   9.99119056
_cell_length_c   18.69926200
_cell_angle_alpha   90.00000000
_cell_angle_beta   90.00000000
_cell_angle_gamma   119.99999815
_symmetry_Int_Tables_number   1
_chemical_formula_structural   CsLaTi6CBr18
_chemical_formula_sum   'Cs2 La2 Ti12 C2 Br36'
_cell_volume   1616.55190447
_cell_formula_units_Z   2
loop_
 _symmetry_equiv_pos_site_id
 _symmetry_equiv_pos_as_xyz
  1  'x, y, z'
loop_
 _atom_site_type_symbol
 _atom_site_label
 _atom_site_symmetry_multiplicity
 _atom_site_fract_x
 _atom_site_fract_y
 _atom_site_fract_z
 _atom_site_occupancy
  Cs  Cs0  1  0.333333  0.666667  0.750000  1
  Cs  Cs1  1  0.666667  0.333333  0.250000  1
  La  La2  1  0.666667  0.333333  0.750000  1
  La  La3  1  0.333333  0.666667  0.250000  1
  Ti  Ti4  1  0.842890  0.033776  0.566256  1
  Ti  Ti5  1  0.157110  0.966224  0.433744  1
  Ti  Ti6  1  0.966224  0.809114  0.566256  1
  Ti  Ti7  1  0.842890  0.809114  0.933744  1
  Ti  Ti8  1  0.033776  0.190886  0.433744  1
  Ti  Ti9  1  0.157110  0.190886  0.066256  1
  Ti  Ti10  1  0.190886  0.157110  0.566256  1
  Ti  Ti11  1  0.966224  0.157110  0.933744  1
  Ti  Ti12  1  0.809114  0.842890  0.433744  1
  Ti  Ti13  1  0.033776  0.842890  0.066256  1
  Ti  Ti14  1  0.190886  0.033776  0.933744  1
  Ti  Ti15  1  0.809114  0.966224  0.066256  1
  C  C16  1  0.000000  0.000000  0.500000  1
  C  C17  1  0.000000  0.000000  0.000000  1
  Br  Br18  1  0.262141  0.405903  0.499982  1
  Br  Br19  1  0.737859  0.594097  0.500018  1
  Br  Br20  1  0.594097  0.856238  0.499982  1
  Br  Br21  1  0.262141  0.856238  0.000018  1
  Br  Br22  1  0.405903  0.143762  0.500018  1
  Br  Br23  1  0.737859  0.143762  0.999982  1
  Br  Br24  1  0.143762  0.737859  0.499982  1
  Br  Br25  1  0.594097  0.737859  0.000018  1
  Br  Br26  1  0.856238  0.262141  0.500018  1
  Br  Br27  1  0.405903  0.262141  0.999982  1
  Br  Br28  1  0.143762  0.405903  0.000018  1
  Br  Br29  1  0.856238  0.594097  0.999982  1
  Br  Br30  1  0.038756  0.221808  0.654894  1
  Br  Br31  1  0.961244  0.778192  0.345106  1
  Br  Br32  1  0.778192  0.816948  0.654894  1
  Br  Br33  1  0.038756  0.816948  0.845106  1
  Br  Br34  1  0.221808  0.183052  0.345106  1
  Br  Br35  1  0.961244  0.183052  0.154894  1
  Br  Br36  1  0.183052  0.961244  0.654894  1
  Br  Br37  1  0.778192  0.961244  0.845106  1
  Br  Br38  1  0.816948  0.038756  0.345106  1
  Br  Br39  1  0.221808  0.038756  0.154894  1
  Br  Br40  1  0.183052  0.221808  0.845106  1
  Br  Br41  1  0.816948  0.778192  0.154894  1
  Br  Br42  1  0.628041  0.071118  0.658798  1
  Br  Br43  1  0.371959  0.928882  0.341202  1
  Br  Br44  1  0.928882  0.556923  0.658798  1
  Br  Br45  1  0.628041  0.556923  0.841202  1
  Br  Br46  1  0.071118  0.443077  0.341202  1
  Br  Br47  1  0.371959  0.443077  0.158798  1
  Br  Br48  1  0.443077  0.371959  0.658798  1
  Br  Br49  1  0.928882  0.371959  0.841202  1
  Br  Br50  1  0.556923  0.628041  0.341202  1
  Br  Br51  1  0.071118  0.628041  0.158798  1
  Br  Br52  1  0.443077  0.071118  0.841202  1
  Br  Br53  1  0.556923  0.928882  0.158798  1
