# generated using pymatgen
data_Nd3ErMg2(Ni7B2)2
_symmetry_space_group_name_H-M   'P 1'
_cell_length_a   5.05469000
_cell_length_b   5.05469004
_cell_length_c   14.34385300
_cell_angle_alpha   90.00000000
_cell_angle_beta   90.00000000
_cell_angle_gamma   119.99999971
_symmetry_Int_Tables_number   1
_chemical_formula_structural   Nd3ErMg2(Ni7B2)2
_chemical_formula_sum   'Nd3 Er1 Mg2 Ni14 B4'
_cell_volume   317.38435444
_cell_formula_units_Z   1
loop_
 _symmetry_equiv_pos_site_id
 _symmetry_equiv_pos_as_xyz
  1  'x, y, z'
loop_
 _atom_site_type_symbol
 _atom_site_label
 _atom_site_symmetry_multiplicity
 _atom_site_fract_x
 _atom_site_fract_y
 _atom_site_fract_z
 _atom_site_occupancy
  Nd  Nd0  1  0.666667  0.333333  0.527740  1
  Nd  Nd1  1  0.333333  0.666667  0.030689  1
  Nd  Nd2  1  0.666667  0.333333  0.755441  1
  Er  Er3  1  0.333333  0.666667  0.256209  1
  Mg  Mg4  1  0.333333  0.666667  0.465309  1
  Mg  Mg5  1  0.666667  0.333333  0.968616  1
  Ni  Ni6  1  0.835402  0.164598  0.349896  1
  Ni  Ni7  1  0.835402  0.670804  0.349896  1
  Ni  Ni8  1  0.000000  0.000000  0.999179  1
  Ni  Ni9  1  0.000000  0.000000  0.498180  1
  Ni  Ni10  1  0.834196  0.668392  0.150843  1
  Ni  Ni11  1  0.166028  0.833972  0.648245  1
  Ni  Ni12  1  0.667944  0.833972  0.648245  1
  Ni  Ni13  1  0.331608  0.165804  0.150843  1
  Ni  Ni14  1  0.834196  0.165804  0.150843  1
  Ni  Ni15  1  0.164361  0.328723  0.851891  1
  Ni  Ni16  1  0.164361  0.835639  0.851891  1
  Ni  Ni17  1  0.166028  0.332056  0.648245  1
  Ni  Ni18  1  0.671277  0.835639  0.851891  1
  Ni  Ni19  1  0.329196  0.164598  0.349896  1
  B  B20  1  0.666667  0.333333  0.250382  1
  B  B21  1  0.333333  0.666667  0.750510  1
  B  B22  1  0.000000  0.000000  0.747330  1
  B  B23  1  0.000000  0.000000  0.247788  1
