# generated using pymatgen
data_Er12RuRh3
_symmetry_space_group_name_H-M   'P 1'
_cell_length_a   6.28608000
_cell_length_b   7.20035700
_cell_length_c   9.20320100
_cell_angle_alpha   90.00000000
_cell_angle_beta   90.00000000
_cell_angle_gamma   89.99882434
_symmetry_Int_Tables_number   1
_chemical_formula_structural   Er12RuRh3
_chemical_formula_sum   'Er12 Ru1 Rh3'
_cell_volume   416.55546888
_cell_formula_units_Z   1
loop_
 _symmetry_equiv_pos_site_id
 _symmetry_equiv_pos_as_xyz
  1  'x, y, z'
loop_
 _atom_site_type_symbol
 _atom_site_label
 _atom_site_symmetry_multiplicity
 _atom_site_fract_x
 _atom_site_fract_y
 _atom_site_fract_z
 _atom_site_occupancy
  Er  Er0  1  0.330549  0.678493  0.061169  1
  Er  Er1  1  0.171749  0.178671  0.436866  1
  Er  Er2  1  0.671668  0.323084  0.564657  1
  Er  Er3  1  0.825839  0.819993  0.935770  1
  Er  Er4  1  0.671668  0.323084  0.935343  1
  Er  Er5  1  0.825839  0.819993  0.564230  1
  Er  Er6  1  0.330549  0.678493  0.438831  1
  Er  Er7  1  0.171749  0.178671  0.063134  1
  Er  Er8  1  0.869433  0.535894  0.250000  1
  Er  Er9  1  0.631742  0.035636  0.250000  1
  Er  Er10  1  0.131889  0.464891  0.750000  1
  Er  Er11  1  0.369424  0.962377  0.750000  1
  Ru  Ru12  1  0.541888  0.615576  0.750000  1
  Rh  Rh13  1  0.046604  0.885395  0.250000  1
  Rh  Rh14  1  0.453817  0.384644  0.250000  1
  Rh  Rh15  1  0.955594  0.115104  0.750000  1
