# generated using pymatgen
data_Cs6K2RbAlBi4
_symmetry_space_group_name_H-M   'P 1'
_cell_length_a   11.43252015
_cell_length_b   11.45465406
_cell_length_c   12.02417700
_cell_angle_alpha   90.00000000
_cell_angle_beta   90.00000000
_cell_angle_gamma   120.06405798
_symmetry_Int_Tables_number   1
_chemical_formula_structural   Cs6K2RbAlBi4
_chemical_formula_sum   'Cs12 K4 Rb2 Al2 Bi8'
_cell_volume   1362.79097919
_cell_formula_units_Z   2
loop_
 _symmetry_equiv_pos_site_id
 _symmetry_equiv_pos_as_xyz
  1  'x, y, z'
loop_
 _atom_site_type_symbol
 _atom_site_label
 _atom_site_symmetry_multiplicity
 _atom_site_fract_x
 _atom_site_fract_y
 _atom_site_fract_z
 _atom_site_occupancy
  Cs  Cs0  1  0.209420  0.790944  0.956708  1
  Cs  Cs1  1  0.208713  0.417578  0.957027  1
  Cs  Cs2  1  0.582072  0.791301  0.957417  1
  Cs  Cs3  1  0.417928  0.209229  0.457417  1
  Cs  Cs4  1  0.790580  0.581524  0.043292  1
  Cs  Cs5  1  0.791287  0.208865  0.457027  1
  Cs  Cs6  1  0.790580  0.581524  0.456708  1
  Cs  Cs7  1  0.209420  0.790944  0.543292  1
  Cs  Cs8  1  0.582072  0.791301  0.542583  1
  Cs  Cs9  1  0.417928  0.209229  0.042583  1
  Cs  Cs10  1  0.791287  0.208865  0.042973  1
  Cs  Cs11  1  0.208713  0.417578  0.542973  1
  K  K12  1  0.239211  0.120064  0.750000  1
  K  K13  1  0.880597  0.120102  0.750000  1
  K  K14  1  0.760789  0.880853  0.250000  1
  K  K15  1  0.119403  0.239505  0.250000  1
  Rb  Rb16  1  0.119051  0.881114  0.250000  1
  Rb  Rb17  1  0.880949  0.762063  0.750000  1
  Al  Al18  1  0.333317  0.666668  0.250000  1
  Al  Al19  1  0.666683  0.333350  0.750000  1
  Bi  Bi20  1  0.000000  0.002514  0.000000  1
  Bi  Bi21  1  0.052811  0.523845  0.250000  1
  Bi  Bi22  1  0.476277  0.946803  0.250000  1
  Bi  Bi23  1  0.526305  0.053233  0.750000  1
  Bi  Bi24  1  0.523723  0.470526  0.750000  1
  Bi  Bi25  1  0.000000  0.002514  0.500000  1
  Bi  Bi26  1  0.473695  0.526928  0.250000  1
  Bi  Bi27  1  0.947189  0.471034  0.750000  1
