# generated using pymatgen
data_Pr4DyIr2
_symmetry_space_group_name_H-M   'P 1'
_cell_length_a   6.70165229
_cell_length_b   7.31378432
_cell_length_c   8.96706657
_cell_angle_alpha   96.30031084
_cell_angle_beta   111.94284254
_cell_angle_gamma   89.99999562
_symmetry_Int_Tables_number   1
_chemical_formula_structural   Pr4DyIr2
_chemical_formula_sum   'Pr8 Dy2 Ir4'
_cell_volume   404.81269662
_cell_formula_units_Z   2
loop_
 _symmetry_equiv_pos_site_id
 _symmetry_equiv_pos_as_xyz
  1  'x, y, z'
loop_
 _atom_site_type_symbol
 _atom_site_label
 _atom_site_symmetry_multiplicity
 _atom_site_fract_x
 _atom_site_fract_y
 _atom_site_fract_z
 _atom_site_occupancy
  Pr  Pr0  1  0.794713  0.077845  0.818502  1
  Pr  Pr1  1  0.976211  0.422155  0.181498  1
  Pr  Pr2  1  0.205287  0.922155  0.181498  1
  Pr  Pr3  1  0.023789  0.577845  0.818502  1
  Pr  Pr4  1  0.214562  0.187674  0.568624  1
  Pr  Pr5  1  0.645938  0.312326  0.431376  1
  Pr  Pr6  1  0.785438  0.812326  0.431376  1
  Pr  Pr7  1  0.354062  0.687674  0.568624  1
  Dy  Dy8  1  0.436638  0.250000  0.000000  1
  Dy  Dy9  1  0.563362  0.750000  0.000000  1
  Ir  Ir10  1  0.597575  0.429971  0.789414  1
  Ir  Ir11  1  0.808161  0.070029  0.210586  1
  Ir  Ir12  1  0.402425  0.570029  0.210586  1
  Ir  Ir13  1  0.191839  0.929971  0.789414  1
