# generated using pymatgen
data_Ho15ErIn4(IrRu)2
_symmetry_space_group_name_H-M   'P 1'
_cell_length_a   9.60863015
_cell_length_b   9.61344658
_cell_length_c   9.61204310
_cell_angle_alpha   60.00444403
_cell_angle_beta   60.00608843
_cell_angle_gamma   60.00158368
_symmetry_Int_Tables_number   1
_chemical_formula_structural   Ho15ErIn4(IrRu)2
_chemical_formula_sum   'Ho15 Er1 In4 Ir2 Ru2'
_cell_volume   627.88638971
_cell_formula_units_Z   1
loop_
 _symmetry_equiv_pos_site_id
 _symmetry_equiv_pos_as_xyz
  1  'x, y, z'
loop_
 _atom_site_type_symbol
 _atom_site_label
 _atom_site_symmetry_multiplicity
 _atom_site_fract_x
 _atom_site_fract_y
 _atom_site_fract_z
 _atom_site_occupancy
  Ho  Ho0  1  0.059127  0.059938  0.441386  1
  Ho  Ho1  1  0.651542  0.044866  0.652147  1
  Ho  Ho2  1  0.193179  0.808574  0.190317  1
  Ho  Ho3  1  0.439565  0.059698  0.441632  1
  Ho  Ho4  1  0.193170  0.190382  0.808664  1
  Ho  Ho5  1  0.650737  0.651453  0.651523  1
  Ho  Ho6  1  0.046226  0.651497  0.651614  1
  Ho  Ho7  1  0.441263  0.058740  0.058528  1
  Ho  Ho8  1  0.651602  0.652099  0.044853  1
  Ho  Ho9  1  0.191124  0.808715  0.808944  1
  Ho  Ho10  1  0.807942  0.190318  0.808571  1
  Ho  Ho11  1  0.807637  0.192522  0.192449  1
  Ho  Ho12  1  0.808048  0.808441  0.190266  1
  Ho  Ho13  1  0.060269  0.439716  0.439506  1
  Ho  Ho14  1  0.439388  0.441609  0.059686  1
  Er  Er15  1  0.058988  0.441724  0.059588  1
  In  In16  1  0.747853  0.417469  0.417220  1
  In  In17  1  0.416765  0.417167  0.749213  1
  In  In18  1  0.416982  0.748851  0.417236  1
  In  In19  1  0.417480  0.417405  0.417427  1
  Ir  Ir20  1  0.859938  0.858615  0.421501  1
  Ir  Ir21  1  0.859990  0.421538  0.858707  1
  Ru  Ru22  1  0.861313  0.859213  0.859547  1
  Ru  Ru23  1  0.419874  0.859451  0.859474  1
