# generated using pymatgen
data_Pr5Sm6In9Ru4
_symmetry_space_group_name_H-M   'P 1'
_cell_length_a   13.21032144
_cell_length_b   13.20898428
_cell_length_c   3.92233500
_cell_angle_alpha   90.00000000
_cell_angle_beta   90.00000000
_cell_angle_gamma   112.10543000
_symmetry_Int_Tables_number   1
_chemical_formula_structural   Pr5Sm6In9Ru4
_chemical_formula_sum   'Pr5 Sm6 In9 Ru4'
_cell_volume   634.11732778
_cell_formula_units_Z   1
loop_
 _symmetry_equiv_pos_site_id
 _symmetry_equiv_pos_as_xyz
  1  'x, y, z'
loop_
 _atom_site_type_symbol
 _atom_site_label
 _atom_site_symmetry_multiplicity
 _atom_site_fract_x
 _atom_site_fract_y
 _atom_site_fract_z
 _atom_site_occupancy
  Pr  Pr0  1  0.500000  0.500000  0.500000  1
  Pr  Pr1  1  0.125507  0.874476  0.500000  1
  Pr  Pr2  1  0.874493  0.125524  0.500000  1
  Pr  Pr3  1  0.337986  0.662080  0.500000  1
  Pr  Pr4  1  0.662014  0.337920  0.500000  1
  Sm  Sm5  1  0.811755  0.811801  0.500000  1
  Sm  Sm6  1  0.188245  0.188199  0.500000  1
  Sm  Sm7  1  0.583385  0.918078  0.500000  1
  Sm  Sm8  1  0.416615  0.081922  0.500000  1
  Sm  Sm9  1  0.918094  0.583382  0.500000  1
  Sm  Sm10  1  0.081906  0.416618  0.500000  1
  In  In11  1  0.340257  0.869275  0.000000  1
  In  In12  1  0.659743  0.130725  0.000000  1
  In  In13  1  0.869181  0.340044  0.000000  1
  In  In14  1  0.130819  0.659956  0.000000  1
  In  In15  1  0.579552  0.721889  0.000000  1
  In  In16  1  0.420448  0.278111  0.000000  1
  In  In17  1  0.721867  0.579450  0.000000  1
  In  In18  1  0.278133  0.420550  0.000000  1
  In  In19  1  0.000000  0.000000  0.000000  1
  Ru  Ru20  1  0.749269  0.944198  0.000000  1
  Ru  Ru21  1  0.250731  0.055802  0.000000  1
  Ru  Ru22  1  0.944078  0.749233  0.000000  1
  Ru  Ru23  1  0.055922  0.250767  0.000000  1
