# generated using pymatgen
data_Nd8Dy4CuSi8Ni3
_symmetry_space_group_name_H-M   'P 1'
_cell_length_a   4.19765200
_cell_length_b   11.92035844
_cell_length_c   11.41949609
_cell_angle_alpha   90.04064769
_cell_angle_beta   90.00000000
_cell_angle_gamma   90.00000000
_symmetry_Int_Tables_number   1
_chemical_formula_structural   Nd8Dy4CuSi8Ni3
_chemical_formula_sum   'Nd8 Dy4 Cu1 Si8 Ni3'
_cell_volume   571.40307973
_cell_formula_units_Z   1
loop_
 _symmetry_equiv_pos_site_id
 _symmetry_equiv_pos_as_xyz
  1  'x, y, z'
loop_
 _atom_site_type_symbol
 _atom_site_label
 _atom_site_symmetry_multiplicity
 _atom_site_fract_x
 _atom_site_fract_y
 _atom_site_fract_z
 _atom_site_occupancy
  Nd  Nd0  1  0.250000  0.059395  0.885805  1
  Nd  Nd1  1  0.250000  0.441268  0.381874  1
  Nd  Nd2  1  0.750000  0.941326  0.113552  1
  Nd  Nd3  1  0.750000  0.561945  0.613893  1
  Nd  Nd4  1  0.250000  0.118586  0.563320  1
  Nd  Nd5  1  0.250000  0.377899  0.063910  1
  Nd  Nd6  1  0.750000  0.876010  0.436830  1
  Nd  Nd7  1  0.750000  0.623345  0.935848  1
  Dy  Dy8  1  0.250000  0.808045  0.709198  1
  Dy  Dy9  1  0.250000  0.694323  0.208297  1
  Dy  Dy10  1  0.750000  0.191008  0.292025  1
  Dy  Dy11  1  0.750000  0.306994  0.795963  1
  Cu  Cu12  1  0.250000  0.359201  0.633346  1
  Si  Si13  1  0.250000  0.811184  0.967894  1
  Si  Si14  1  0.250000  0.687384  0.468451  1
  Si  Si15  1  0.750000  0.190698  0.032666  1
  Si  Si16  1  0.750000  0.308947  0.529434  1
  Si  Si17  1  0.250000  0.482505  0.805084  1
  Si  Si18  1  0.250000  0.017363  0.302914  1
  Si  Si19  1  0.750000  0.520453  0.196237  1
  Si  Si20  1  0.750000  0.981271  0.697610  1
  Ni  Ni21  1  0.250000  0.139602  0.134292  1
  Ni  Ni22  1  0.750000  0.639067  0.364775  1
  Ni  Ni23  1  0.750000  0.862179  0.866780  1
