# generated using pymatgen
data_Dy4Sn2Sb4Rh7
_symmetry_space_group_name_H-M   'P 1'
_cell_length_a   7.61312208
_cell_length_b   7.61312241
_cell_length_c   7.61659109
_cell_angle_alpha   109.50393521
_cell_angle_beta   109.50393393
_cell_angle_gamma   109.38733007
_symmetry_Int_Tables_number   1
_chemical_formula_structural   Dy4Sn2Sb4Rh7
_chemical_formula_sum   'Dy4 Sn2 Sb4 Rh7'
_cell_volume   339.90912461
_cell_formula_units_Z   1
loop_
 _symmetry_equiv_pos_site_id
 _symmetry_equiv_pos_as_xyz
  1  'x, y, z'
loop_
 _atom_site_type_symbol
 _atom_site_label
 _atom_site_symmetry_multiplicity
 _atom_site_fract_x
 _atom_site_fract_y
 _atom_site_fract_z
 _atom_site_occupancy
  Dy  Dy0  1  0.507467  0.999410  0.000000  1
  Dy  Dy1  1  0.000590  0.492533  0.000000  1
  Dy  Dy2  1  0.001064  0.998936  0.500000  1
  Dy  Dy3  1  0.501064  0.498936  0.500000  1
  Sn  Sn4  1  0.311551  0.996756  0.308307  1
  Sn  Sn5  1  0.003244  0.688449  0.691693  1
  Sb  Sb6  1  0.686737  0.681211  0.000000  1
  Sb  Sb7  1  0.675716  0.996940  0.672657  1
  Sb  Sb8  1  0.003060  0.324284  0.327343  1
  Sb  Sb9  1  0.318789  0.313263  0.000000  1
  Rh  Rh10  1  0.253424  0.501707  0.755132  1
  Rh  Rh11  1  0.498424  0.249117  0.747541  1
  Rh  Rh12  1  0.748579  0.251421  0.500000  1
  Rh  Rh13  1  0.498293  0.746576  0.244868  1
  Rh  Rh14  1  0.992537  0.007463  0.000000  1
  Rh  Rh15  1  0.248579  0.751421  0.500000  1
  Rh  Rh16  1  0.750883  0.501576  0.252459  1
