# generated using pymatgen
data_Dy5Mn3(Fe4P3)4
_symmetry_space_group_name_H-M   'P 1'
_cell_length_a   12.03486700
_cell_length_b   12.03486714
_cell_length_c   3.70486500
_cell_angle_alpha   90.00000000
_cell_angle_beta   90.00000000
_cell_angle_gamma   119.99999687
_symmetry_Int_Tables_number   1
_chemical_formula_structural   Dy5Mn3(Fe4P3)4
_chemical_formula_sum   'Dy5 Mn3 Fe16 P12'
_cell_volume   464.71386292
_cell_formula_units_Z   1
loop_
 _symmetry_equiv_pos_site_id
 _symmetry_equiv_pos_as_xyz
  1  'x, y, z'
loop_
 _atom_site_type_symbol
 _atom_site_label
 _atom_site_symmetry_multiplicity
 _atom_site_fract_x
 _atom_site_fract_y
 _atom_site_fract_z
 _atom_site_occupancy
  Dy  Dy0  1  0.333333  0.666667  0.500000  1
  Dy  Dy1  1  0.666667  0.333333  0.500000  1
  Dy  Dy2  1  0.000000  0.815700  0.000000  1
  Dy  Dy3  1  0.184300  0.184300  0.000000  1
  Dy  Dy4  1  0.815700  0.000000  0.000000  1
  Mn  Mn5  1  0.000000  0.440139  0.500000  1
  Mn  Mn6  1  0.559861  0.559861  0.500000  1
  Mn  Mn7  1  0.440139  0.000000  0.500000  1
  Fe  Fe8  1  0.517502  0.879639  0.000000  1
  Fe  Fe9  1  0.120361  0.637864  0.000000  1
  Fe  Fe10  1  0.362136  0.482498  0.000000  1
  Fe  Fe11  1  0.482498  0.362136  0.000000  1
  Fe  Fe12  1  0.879639  0.517502  0.000000  1
  Fe  Fe13  1  0.637864  0.120361  0.000000  1
  Fe  Fe14  1  0.000000  0.285870  0.000000  1
  Fe  Fe15  1  0.714130  0.714130  0.000000  1
  Fe  Fe16  1  0.285870  0.000000  0.000000  1
  Fe  Fe17  1  0.619709  0.800722  0.500000  1
  Fe  Fe18  1  0.199278  0.818987  0.500000  1
  Fe  Fe19  1  0.181013  0.380291  0.500000  1
  Fe  Fe20  1  0.380291  0.181013  0.500000  1
  Fe  Fe21  1  0.800722  0.619709  0.500000  1
  Fe  Fe22  1  0.818987  0.199278  0.500000  1
  Fe  Fe23  1  0.000000  0.000000  0.500000  1
  P  P24  1  0.000000  0.634659  0.500000  1
  P  P25  1  0.365341  0.365341  0.500000  1
  P  P26  1  0.634659  0.000000  0.500000  1
  P  P27  1  0.521004  0.690364  0.000000  1
  P  P28  1  0.309636  0.830640  0.000000  1
  P  P29  1  0.169360  0.478996  0.000000  1
  P  P30  1  0.478996  0.169360  0.000000  1
  P  P31  1  0.690364  0.521004  0.000000  1
  P  P32  1  0.830640  0.309636  0.000000  1
  P  P33  1  0.000000  0.186040  0.500000  1
  P  P34  1  0.813960  0.813960  0.500000  1
  P  P35  1  0.186040  0.000000  0.500000  1
