# generated using pymatgen
data_Tm20Bi11Sb
_symmetry_space_group_name_H-M   'P 1'
_cell_length_a   8.14493235
_cell_length_b   9.43134100
_cell_length_c   11.86823752
_cell_angle_alpha   90.00000000
_cell_angle_beta   89.96625591
_cell_angle_gamma   90.00000000
_symmetry_Int_Tables_number   1
_chemical_formula_structural   Tm20Bi11Sb
_chemical_formula_sum   'Tm20 Bi11 Sb1'
_cell_volume   911.68977278
_cell_formula_units_Z   1
loop_
 _symmetry_equiv_pos_site_id
 _symmetry_equiv_pos_as_xyz
  1  'x, y, z'
loop_
 _atom_site_type_symbol
 _atom_site_label
 _atom_site_symmetry_multiplicity
 _atom_site_fract_x
 _atom_site_fract_y
 _atom_site_fract_z
 _atom_site_occupancy
  Tm  Tm0  1  0.028488  0.250000  0.511309  1
  Tm  Tm1  1  0.976034  0.750000  0.489176  1
  Tm  Tm2  1  0.475120  0.750000  0.011209  1
  Tm  Tm3  1  0.525220  0.250000  0.988695  1
  Tm  Tm4  1  0.356208  0.250000  0.286073  1
  Tm  Tm5  1  0.644825  0.750000  0.717088  1
  Tm  Tm6  1  0.144776  0.750000  0.782455  1
  Tm  Tm7  1  0.855391  0.250000  0.217378  1
  Tm  Tm8  1  0.189331  0.250000  0.780173  1
  Tm  Tm9  1  0.812160  0.750000  0.217891  1
  Tm  Tm10  1  0.312499  0.750000  0.282059  1
  Tm  Tm11  1  0.683031  0.250000  0.715103  1
  Tm  Tm12  1  0.193421  0.065759  0.060027  1
  Tm  Tm13  1  0.806608  0.934606  0.940208  1
  Tm  Tm14  1  0.307936  0.938346  0.559563  1
  Tm  Tm15  1  0.806608  0.565394  0.940208  1
  Tm  Tm16  1  0.690560  0.067836  0.441680  1
  Tm  Tm17  1  0.193421  0.434241  0.060027  1
  Tm  Tm18  1  0.690560  0.432164  0.441680  1
  Tm  Tm19  1  0.307936  0.561654  0.559563  1
  Bi  Bi20  1  0.594075  0.750000  0.457196  1
  Bi  Bi21  1  0.093770  0.750000  0.042685  1
  Bi  Bi22  1  0.906858  0.250000  0.956616  1
  Bi  Bi23  1  0.066529  0.003578  0.325814  1
  Bi  Bi24  1  0.932949  0.996718  0.674264  1
  Bi  Bi25  1  0.433275  0.996185  0.825712  1
  Bi  Bi26  1  0.932949  0.503282  0.674264  1
  Bi  Bi27  1  0.566692  0.003921  0.174421  1
  Bi  Bi28  1  0.066529  0.496422  0.325814  1
  Bi  Bi29  1  0.566692  0.496079  0.174421  1
  Bi  Bi30  1  0.433275  0.503815  0.825712  1
  Sb  Sb31  1  0.406278  0.250000  0.541516  1
