# generated using pymatgen
data_Tb3ScZn2Pt3
_symmetry_space_group_name_H-M   'P 1'
_cell_length_a   7.24437300
_cell_length_b   7.34483583
_cell_length_c   4.06470400
_cell_angle_alpha   90.00000000
_cell_angle_beta   90.00000000
_cell_angle_gamma   119.54856126
_symmetry_Int_Tables_number   1
_chemical_formula_structural   Tb3ScZn2Pt3
_chemical_formula_sum   'Tb3 Sc1 Zn2 Pt3'
_cell_volume   188.14823000
_cell_formula_units_Z   1
loop_
 _symmetry_equiv_pos_site_id
 _symmetry_equiv_pos_as_xyz
  1  'x, y, z'
loop_
 _atom_site_type_symbol
 _atom_site_label
 _atom_site_symmetry_multiplicity
 _atom_site_fract_x
 _atom_site_fract_y
 _atom_site_fract_z
 _atom_site_occupancy
  Tb  Tb0  1  0.615346  0.000000  0.000000  1
  Tb  Tb1  1  0.416061  0.430806  0.000000  1
  Tb  Tb2  1  0.985256  0.569194  0.000000  1
  Sc  Sc3  1  0.234178  0.000000  0.499999  1
  Zn  Zn4  1  0.003228  0.252598  0.499999  1
  Zn  Zn5  1  0.750630  0.747402  0.499999  1
  Pt  Pt6  1  0.004906  0.000000  0.000000  1
  Pt  Pt7  1  0.656475  0.322556  0.499999  1
  Pt  Pt8  1  0.333919  0.677444  0.499999  1
