# generated using pymatgen
data_NpAsO6
_symmetry_space_group_name_H-M   'P 1'
_cell_length_a   5.60536000
_cell_length_b   6.78303614
_cell_length_c   13.14814300
_cell_angle_alpha   75.75009310
_cell_angle_beta   90.00000000
_cell_angle_gamma   90.00000000
_symmetry_Int_Tables_number   1
_chemical_formula_structural   NpAsO6
_chemical_formula_sum   'Np4 As4 O24'
_cell_volume   484.52868677
_cell_formula_units_Z   4
loop_
 _symmetry_equiv_pos_site_id
 _symmetry_equiv_pos_as_xyz
  1  'x, y, z'
loop_
 _atom_site_type_symbol
 _atom_site_label
 _atom_site_symmetry_multiplicity
 _atom_site_fract_x
 _atom_site_fract_y
 _atom_site_fract_z
 _atom_site_occupancy
  Np  Np0  1  0.215212  0.325989  0.857600  1
  Np  Np1  1  0.715212  0.674011  0.642400  1
  Np  Np2  1  0.784788  0.674011  0.142400  1
  Np  Np3  1  0.284788  0.325989  0.357600  1
  As  As4  1  0.055341  0.790779  0.384783  1
  As  As5  1  0.444659  0.790779  0.884783  1
  As  As6  1  0.944659  0.209221  0.615217  1
  As  As7  1  0.555341  0.209221  0.115217  1
  O  O8  1  0.487627  0.419549  0.788810  1
  O  O9  1  0.303730  0.645866  0.380385  1
  O  O10  1  0.071151  0.739728  0.086189  1
  O  O11  1  0.428849  0.739728  0.586189  1
  O  O12  1  0.571151  0.260272  0.413811  1
  O  O13  1  0.613097  0.815275  0.774255  1
  O  O14  1  0.512373  0.580451  0.211190  1
  O  O15  1  0.354955  0.023012  0.900171  1
  O  O16  1  0.113097  0.184725  0.725745  1
  O  O17  1  0.803730  0.354134  0.119615  1
  O  O18  1  0.928849  0.260272  0.913811  1
  O  O19  1  0.854955  0.976988  0.599829  1
  O  O20  1  0.987627  0.580451  0.711190  1
  O  O21  1  0.645045  0.976988  0.099829  1
  O  O22  1  0.386903  0.184725  0.225745  1
  O  O23  1  0.874499  0.690660  0.489912  1
  O  O24  1  0.145045  0.023012  0.400171  1
  O  O25  1  0.125501  0.309340  0.510088  1
  O  O26  1  0.196270  0.645866  0.880385  1
  O  O27  1  0.625501  0.690660  0.989912  1
  O  O28  1  0.886903  0.815275  0.274255  1
  O  O29  1  0.374499  0.309340  0.010088  1
  O  O30  1  0.012373  0.419549  0.288810  1
  O  O31  1  0.696270  0.354134  0.619615  1
