# generated using pymatgen
data_CaPa(Al3Ir)3
_symmetry_space_group_name_H-M   'P 1'
_cell_length_a   7.59565593
_cell_length_b   7.60206718
_cell_length_c   9.42052300
_cell_angle_alpha   90.00000000
_cell_angle_beta   90.00000000
_cell_angle_gamma   119.58586364
_symmetry_Int_Tables_number   1
_chemical_formula_structural   CaPa(Al3Ir)3
_chemical_formula_sum   'Ca2 Pa2 Al18 Ir6'
_cell_volume   473.04222429
_cell_formula_units_Z   2
loop_
 _symmetry_equiv_pos_site_id
 _symmetry_equiv_pos_as_xyz
  1  'x, y, z'
loop_
 _atom_site_type_symbol
 _atom_site_label
 _atom_site_symmetry_multiplicity
 _atom_site_fract_x
 _atom_site_fract_y
 _atom_site_fract_z
 _atom_site_occupancy
  Ca  Ca0  1  0.670060  0.993934  0.250000  1
  Ca  Ca1  1  0.329940  0.006066  0.750000  1
  Pa  Pa2  1  0.998420  0.671592  0.250000  1
  Pa  Pa3  1  0.001580  0.328408  0.750000  1
  Al  Al4  1  0.131543  0.126554  0.250000  1
  Al  Al5  1  0.868457  0.873446  0.750000  1
  Al  Al6  1  0.000575  0.331200  0.078788  1
  Al  Al7  1  0.999425  0.668800  0.921212  1
  Al  Al8  1  0.999425  0.668800  0.578788  1
  Al  Al9  1  0.339149  0.003669  0.425819  1
  Al  Al10  1  0.000575  0.331200  0.421212  1
  Al  Al11  1  0.660851  0.996331  0.574181  1
  Al  Al12  1  0.660851  0.996331  0.925819  1
  Al  Al13  1  0.339149  0.003669  0.074181  1
  Al  Al14  1  0.335184  0.333199  0.553119  1
  Al  Al15  1  0.664816  0.666801  0.446881  1
  Al  Al16  1  0.664816  0.666801  0.053119  1
  Al  Al17  1  0.335184  0.333199  0.946881  1
  Al  Al18  1  0.339202  0.547086  0.250000  1
  Al  Al19  1  0.660798  0.452914  0.750000  1
  Al  Al20  1  0.549364  0.342469  0.250000  1
  Al  Al21  1  0.450636  0.657531  0.750000  1
  Ir  Ir22  1  0.677260  0.332528  0.999308  1
  Ir  Ir23  1  0.322740  0.667472  0.000692  1
  Ir  Ir24  1  0.322740  0.667472  0.499308  1
  Ir  Ir25  1  0.677260  0.332528  0.500692  1
  Ir  Ir26  1  0.000000  0.000000  0.000000  1
  Ir  Ir27  1  0.000000  0.000000  0.500000  1
