# generated using pymatgen
data_Ca(ZrS2)4
_symmetry_space_group_name_H-M   'P 1'
_cell_length_a   8.01836896
_cell_length_b   8.01836877
_cell_length_c   8.01836823
_cell_angle_alpha   54.05624987
_cell_angle_beta   54.05625185
_cell_angle_gamma   54.05624316
_symmetry_Int_Tables_number   1
_chemical_formula_structural   Ca(ZrS2)4
_chemical_formula_sum   'Ca1 Zr4 S8'
_cell_volume   313.93935779
_cell_formula_units_Z   1
loop_
 _symmetry_equiv_pos_site_id
 _symmetry_equiv_pos_as_xyz
  1  'x, y, z'
loop_
 _atom_site_type_symbol
 _atom_site_label
 _atom_site_symmetry_multiplicity
 _atom_site_fract_x
 _atom_site_fract_y
 _atom_site_fract_z
 _atom_site_occupancy
  Ca  Ca0  1  0.500000  0.500000  0.500000  1
  Zr  Zr1  1  0.000000  0.500000  0.500000  1
  Zr  Zr2  1  0.500000  0.000000  0.500000  1
  Zr  Zr3  1  0.500000  0.500000  0.000000  1
  Zr  Zr4  1  0.000000  0.000000  0.000000  1
  S  S5  1  0.256354  0.759178  0.759178  1
  S  S6  1  0.240822  0.240822  0.743646  1
  S  S7  1  0.743646  0.240822  0.240822  1
  S  S8  1  0.240822  0.743646  0.240822  1
  S  S9  1  0.260868  0.260868  0.260868  1
  S  S10  1  0.739132  0.739132  0.739132  1
  S  S11  1  0.759178  0.256354  0.759178  1
  S  S12  1  0.759178  0.759178  0.256354  1
