# generated using pymatgen
data_TbNd3In2Ir2Rh
_symmetry_space_group_name_H-M   'P 1'
_cell_length_a   7.61100600
_cell_length_b   7.73921323
_cell_length_c   4.18093400
_cell_angle_alpha   90.00000000
_cell_angle_beta   90.00000000
_cell_angle_gamma   119.45350004
_symmetry_Int_Tables_number   1
_chemical_formula_structural   TbNd3In2Ir2Rh
_chemical_formula_sum   'Tb1 Nd3 In2 Ir2 Rh1'
_cell_volume   214.44118096
_cell_formula_units_Z   1
loop_
 _symmetry_equiv_pos_site_id
 _symmetry_equiv_pos_as_xyz
  1  'x, y, z'
loop_
 _atom_site_type_symbol
 _atom_site_label
 _atom_site_symmetry_multiplicity
 _atom_site_fract_x
 _atom_site_fract_y
 _atom_site_fract_z
 _atom_site_occupancy
  Tb  Tb0  1  0.244490  0.000000  0.000000  1
  Nd  Nd1  1  0.614149  0.000000  0.500000  1
  Nd  Nd2  1  0.416280  0.438485  0.500000  1
  Nd  Nd3  1  0.977796  0.561515  0.500000  1
  In  In4  1  0.752289  0.745740  0.000000  1
  In  In5  1  0.006549  0.254260  0.000000  1
  Ir  Ir6  1  0.331617  0.671049  0.000000  1
  Ir  Ir7  1  0.660569  0.328951  0.000000  1
  Rh  Rh8  1  0.996261  0.000000  0.500000  1
