# generated using pymatgen
data_VH8
_symmetry_space_group_name_H-M   'P 1'
_cell_length_a   2.61522430
_cell_length_b   2.69628896
_cell_length_c   12.94047203
_cell_angle_alpha   86.78959411
_cell_angle_beta   94.12840927
_cell_angle_gamma   119.55376868
_symmetry_Int_Tables_number   1
_chemical_formula_structural   VH8
_chemical_formula_sum   'V1 H8'
_cell_volume   79.14835318
_cell_formula_units_Z   1
loop_
 _symmetry_equiv_pos_site_id
 _symmetry_equiv_pos_as_xyz
  1  'x, y, z'
loop_
 _atom_site_type_symbol
 _atom_site_label
 _atom_site_symmetry_multiplicity
 _atom_site_fract_x
 _atom_site_fract_y
 _atom_site_fract_z
 _atom_site_occupancy
  V  V0  1  0.244643  0.742589  0.150945  1
  H  H1  1  0.019470  0.886247  0.488156  1
  H  H2  1  0.167347  0.426166  0.690807  1
  H  H3  1  0.941241  0.073678  0.231970  1
  H  H4  1  0.548772  0.412031  0.070398  1
  H  H5  1  0.860012  0.831674  0.436230  1
  H  H6  1  0.184471  0.776952  0.844772  1
  H  H7  1  0.251796  0.341155  0.643698  1
  H  H8  1  0.291846  0.953195  0.892260  1
