# generated using pymatgen
data_Yb7Tm(Si4Mo3)4
_symmetry_space_group_name_H-M   'P 1'
_cell_length_a   6.72824000
_cell_length_b   6.92692722
_cell_length_c   13.04575345
_cell_angle_alpha   89.90911343
_cell_angle_beta   90.00492601
_cell_angle_gamma   89.91337578
_symmetry_Int_Tables_number   1
_chemical_formula_structural   Yb7Tm(Si4Mo3)4
_chemical_formula_sum   'Yb7 Tm1 Si16 Mo12'
_cell_volume   608.00929840
_cell_formula_units_Z   1
loop_
 _symmetry_equiv_pos_site_id
 _symmetry_equiv_pos_as_xyz
  1  'x, y, z'
loop_
 _atom_site_type_symbol
 _atom_site_label
 _atom_site_symmetry_multiplicity
 _atom_site_fract_x
 _atom_site_fract_y
 _atom_site_fract_z
 _atom_site_occupancy
  Yb  Yb0  1  0.498257  0.334346  0.090197  1
  Yb  Yb1  1  0.998275  0.166007  0.409274  1
  Yb  Yb2  1  0.501617  0.665897  0.590921  1
  Yb  Yb3  1  0.001153  0.831232  0.907974  1
  Yb  Yb4  1  0.500963  0.666937  0.909177  1
  Yb  Yb5  1  0.001584  0.833063  0.590865  1
  Yb  Yb6  1  0.498451  0.334470  0.409438  1
  Tm  Tm7  1  0.999153  0.170443  0.093886  1
  Si  Si8  1  0.657849  0.043126  0.545616  1
  Si  Si9  1  0.158349  0.456811  0.954908  1
  Si  Si10  1  0.340134  0.958082  0.045386  1
  Si  Si11  1  0.842138  0.543548  0.454329  1
  Si  Si12  1  0.342510  0.956481  0.454381  1
  Si  Si13  1  0.841406  0.542991  0.045129  1
  Si  Si14  1  0.660035  0.042079  0.955072  1
  Si  Si15  1  0.157986  0.456571  0.545643  1
  Si  Si16  1  0.535155  0.373329  0.750561  1
  Si  Si17  1  0.035163  0.125074  0.749837  1
  Si  Si18  1  0.464883  0.628649  0.248950  1
  Si  Si19  1  0.964866  0.872959  0.249666  1
  Si  Si20  1  0.800345  0.630882  0.750069  1
  Si  Si21  1  0.301068  0.867494  0.750051  1
  Si  Si22  1  0.199737  0.368788  0.250621  1
  Si  Si23  1  0.697234  0.133012  0.250356  1
  Mo  Mo24  1  0.834962  0.330749  0.628123  1
  Mo  Mo25  1  0.333926  0.168045  0.872987  1
  Mo  Mo26  1  0.165238  0.668432  0.126621  1
  Mo  Mo27  1  0.665731  0.831351  0.371580  1
  Mo  Mo28  1  0.165344  0.669066  0.371391  1
  Mo  Mo29  1  0.667765  0.833786  0.126684  1
  Mo  Mo30  1  0.835959  0.329274  0.873453  1
  Mo  Mo31  1  0.335145  0.168295  0.628051  1
  Mo  Mo32  1  0.661209  0.008278  0.750508  1
  Mo  Mo33  1  0.161205  0.490361  0.750462  1
  Mo  Mo34  1  0.337095  0.993238  0.249091  1
  Mo  Mo35  1  0.838106  0.506854  0.248740  1
