# generated using pymatgen
data_ErZrSi7Rh12
_symmetry_space_group_name_H-M   'P 1'
_cell_length_a   9.70762700
_cell_length_b   9.70762687
_cell_length_c   3.82028500
_cell_angle_alpha   90.00000000
_cell_angle_beta   90.00000000
_cell_angle_gamma   120.00001158
_symmetry_Int_Tables_number   1
_chemical_formula_structural   ErZrSi7Rh12
_chemical_formula_sum   'Er1 Zr1 Si7 Rh12'
_cell_volume   311.78304939
_cell_formula_units_Z   1
loop_
 _symmetry_equiv_pos_site_id
 _symmetry_equiv_pos_as_xyz
  1  'x, y, z'
loop_
 _atom_site_type_symbol
 _atom_site_label
 _atom_site_symmetry_multiplicity
 _atom_site_fract_x
 _atom_site_fract_y
 _atom_site_fract_z
 _atom_site_occupancy
  Er  Er0  1  0.333333  0.666667  0.752693  1
  Zr  Zr1  1  0.666667  0.333333  0.248754  1
  Si  Si2  1  0.000000  0.000000  0.447761  1
  Si  Si3  1  0.404640  0.292247  0.754037  1
  Si  Si4  1  0.707753  0.112392  0.754037  1
  Si  Si5  1  0.887608  0.595360  0.754037  1
  Si  Si6  1  0.598448  0.711706  0.251474  1
  Si  Si7  1  0.288294  0.886742  0.251474  1
  Si  Si8  1  0.113258  0.401552  0.251474  1
  Rh  Rh9  1  0.446138  0.067909  0.754378  1
  Rh  Rh10  1  0.932091  0.378228  0.754378  1
  Rh  Rh11  1  0.621772  0.553862  0.754378  1
  Rh  Rh12  1  0.554840  0.936959  0.251805  1
  Rh  Rh13  1  0.063041  0.617882  0.251805  1
  Rh  Rh14  1  0.382118  0.445160  0.251805  1
  Rh  Rh15  1  0.141605  0.259365  0.748708  1
  Rh  Rh16  1  0.740635  0.882242  0.748708  1
  Rh  Rh17  1  0.117758  0.858395  0.748708  1
  Rh  Rh18  1  0.854056  0.732644  0.256528  1
  Rh  Rh19  1  0.267356  0.121411  0.256528  1
  Rh  Rh20  1  0.878589  0.145944  0.256528  1
