# generated using pymatgen
data_CeMn2RuF12
_symmetry_space_group_name_H-M   'P 1'
_cell_length_a   8.43220023
_cell_length_b   5.79439037
_cell_length_c   5.79090046
_cell_angle_alpha   90.00970599
_cell_angle_beta   90.56597975
_cell_angle_gamma   90.20771407
_symmetry_Int_Tables_number   1
_chemical_formula_structural   CeMn2RuF12
_chemical_formula_sum   'Ce1 Mn2 Ru1 F12'
_cell_volume   282.92459893
_cell_formula_units_Z   1
loop_
 _symmetry_equiv_pos_site_id
 _symmetry_equiv_pos_as_xyz
  1  'x, y, z'
loop_
 _atom_site_type_symbol
 _atom_site_label
 _atom_site_symmetry_multiplicity
 _atom_site_fract_x
 _atom_site_fract_y
 _atom_site_fract_z
 _atom_site_occupancy
  Ce  Ce0  1  0.500000  0.000000  0.000000  1
  Mn  Mn1  1  0.000000  0.000000  0.000000  1
  Mn  Mn2  1  0.500000  0.500000  0.500000  1
  Ru  Ru3  1  0.000000  0.500000  0.500000  1
  F  F4  1  0.241972  0.018719  0.999086  1
  F  F5  1  0.510361  0.324897  0.192644  1
  F  F6  1  0.990532  0.299320  0.224161  1
  F  F7  1  0.008181  0.775990  0.299140  1
  F  F8  1  0.492422  0.807366  0.324964  1
  F  F9  1  0.771658  0.515982  0.503728  1
  F  F10  1  0.228342  0.484018  0.496272  1
  F  F11  1  0.507578  0.192634  0.675036  1
  F  F12  1  0.991819  0.224010  0.700860  1
  F  F13  1  0.009468  0.700680  0.775839  1
  F  F14  1  0.489639  0.675103  0.807356  1
  F  F15  1  0.758028  0.981281  0.000914  1
