# generated using pymatgen
data_Ta3Nb9Al8(AuC)4
_symmetry_space_group_name_H-M   'P 1'
_cell_length_a   8.44977595
_cell_length_b   8.45377966
_cell_length_c   8.45817351
_cell_angle_alpha   59.96418602
_cell_angle_beta   59.99395257
_cell_angle_gamma   59.94619242
_symmetry_Int_Tables_number   1
_chemical_formula_structural   Ta3Nb9Al8(AuC)4
_chemical_formula_sum   'Ta3 Nb9 Al8 Au4 C4'
_cell_volume   426.91692840
_cell_formula_units_Z   1
loop_
 _symmetry_equiv_pos_site_id
 _symmetry_equiv_pos_as_xyz
  1  'x, y, z'
loop_
 _atom_site_type_symbol
 _atom_site_label
 _atom_site_symmetry_multiplicity
 _atom_site_fract_x
 _atom_site_fract_y
 _atom_site_fract_z
 _atom_site_occupancy
  Ta  Ta0  1  0.928448  0.928484  0.572060  1
  Ta  Ta1  1  0.678495  0.321724  0.678202  1
  Ta  Ta2  1  0.928332  0.571923  0.928411  1
  Nb  Nb3  1  0.570452  0.930024  0.569431  1
  Nb  Nb4  1  0.319656  0.679989  0.680851  1
  Nb  Nb5  1  0.681152  0.319529  0.319559  1
  Nb  Nb6  1  0.320128  0.680152  0.319969  1
  Nb  Nb7  1  0.680939  0.679943  0.319581  1
  Nb  Nb8  1  0.320070  0.319903  0.680639  1
  Nb  Nb9  1  0.570236  0.568845  0.930499  1
  Nb  Nb10  1  0.930426  0.569427  0.569807  1
  Nb  Nb11  1  0.570554  0.930481  0.930525  1
  Al  Al12  1  0.913773  0.914047  0.914582  1
  Al  Al13  1  0.991914  0.336493  0.335627  1
  Al  Al14  1  0.336739  0.990988  0.336229  1
  Al  Al15  1  0.335803  0.336060  0.991742  1
  Al  Al16  1  0.914113  0.258298  0.913628  1
  Al  Al17  1  0.913687  0.913524  0.258511  1
  Al  Al18  1  0.259228  0.913851  0.913570  1
  Al  Al19  1  0.336296  0.336211  0.336643  1
  Au  Au20  1  0.123678  0.125806  0.125747  1
  Au  Au21  1  0.625116  0.125656  0.123586  1
  Au  Au22  1  0.124297  0.624902  0.124335  1
  Au  Au23  1  0.122879  0.124984  0.625027  1
  C  C24  1  0.625800  0.623273  0.625445  1
  C  C25  1  0.123395  0.626085  0.626496  1
  C  C26  1  0.627268  0.124801  0.625220  1
  C  C27  1  0.627127  0.624598  0.124078  1
