# generated using pymatgen
data_Er(Mn2P)2
_symmetry_space_group_name_H-M   'P 1'
_cell_length_a   6.96434000
_cell_length_b   6.96434000
_cell_length_c   3.69832200
_cell_angle_alpha   90.00000000
_cell_angle_beta   90.00000000
_cell_angle_gamma   90.00000000
_symmetry_Int_Tables_number   1
_chemical_formula_structural   Er(Mn2P)2
_chemical_formula_sum   'Er2 Mn8 P4'
_cell_volume   179.37613064
_cell_formula_units_Z   2
loop_
 _symmetry_equiv_pos_site_id
 _symmetry_equiv_pos_as_xyz
  1  'x, y, z'
loop_
 _atom_site_type_symbol
 _atom_site_label
 _atom_site_symmetry_multiplicity
 _atom_site_fract_x
 _atom_site_fract_y
 _atom_site_fract_z
 _atom_site_occupancy
  Er  Er0  1  0.000000  0.000000  0.500000  1
  Er  Er1  1  0.500000  0.500000  0.000000  1
  Mn  Mn2  1  0.084451  0.346917  0.000000  1
  Mn  Mn3  1  0.846917  0.415549  0.500000  1
  Mn  Mn4  1  0.153083  0.584451  0.500000  1
  Mn  Mn5  1  0.915549  0.653083  0.000000  1
  Mn  Mn6  1  0.415549  0.846917  0.500000  1
  Mn  Mn7  1  0.584451  0.153083  0.500000  1
  Mn  Mn8  1  0.346917  0.084451  0.000000  1
  Mn  Mn9  1  0.653083  0.915549  0.000000  1
  P  P10  1  0.785161  0.214839  0.000000  1
  P  P11  1  0.714839  0.714839  0.500000  1
  P  P12  1  0.285161  0.285161  0.500000  1
  P  P13  1  0.214839  0.785161  0.000000  1
