# generated using pymatgen
data_Ta6CdFeS12
_symmetry_space_group_name_H-M   'P 1'
_cell_length_a   5.77889400
_cell_length_b   5.77889536
_cell_length_c   12.64338100
_cell_angle_alpha   90.00000000
_cell_angle_beta   90.00000000
_cell_angle_gamma   120.00000368
_symmetry_Int_Tables_number   1
_chemical_formula_structural   Ta6CdFeS12
_chemical_formula_sum   'Ta6 Cd1 Fe1 S12'
_cell_volume   365.66500543
_cell_formula_units_Z   1
loop_
 _symmetry_equiv_pos_site_id
 _symmetry_equiv_pos_as_xyz
  1  'x, y, z'
loop_
 _atom_site_type_symbol
 _atom_site_label
 _atom_site_symmetry_multiplicity
 _atom_site_fract_x
 _atom_site_fract_y
 _atom_site_fract_z
 _atom_site_occupancy
  Ta  Ta0  1  0.000000  0.000000  0.523507  1
  Ta  Ta1  1  0.000000  0.000000  0.976493  1
  Ta  Ta2  1  0.333333  0.666667  0.975824  1
  Ta  Ta3  1  0.666667  0.333333  0.981449  1
  Ta  Ta4  1  0.666667  0.333333  0.518551  1
  Ta  Ta5  1  0.333333  0.666667  0.524176  1
  Cd  Cd6  1  0.333333  0.666667  0.250000  1
  Fe  Fe7  1  0.666667  0.333333  0.750000  1
  S  S8  1  0.329495  0.327602  0.396652  1
  S  S9  1  0.672398  0.001894  0.396652  1
  S  S10  1  0.998106  0.670505  0.396652  1
  S  S11  1  0.337568  0.333604  0.644551  1
  S  S12  1  0.996036  0.662432  0.644551  1
  S  S13  1  0.666396  0.003964  0.644551  1
  S  S14  1  0.666396  0.662432  0.855449  1
  S  S15  1  0.337568  0.003964  0.855449  1
  S  S16  1  0.996036  0.333604  0.855449  1
  S  S17  1  0.672398  0.670505  0.103348  1
  S  S18  1  0.998106  0.327602  0.103348  1
  S  S19  1  0.329495  0.001894  0.103348  1
