# generated using pymatgen
data_HoZr2U5Ir8
_symmetry_space_group_name_H-M   'P 1'
_cell_length_a   10.43555627
_cell_length_b   5.60037807
_cell_length_c   5.58972217
_cell_angle_alpha   80.76529548
_cell_angle_beta   89.75233861
_cell_angle_gamma   89.88780570
_symmetry_Int_Tables_number   1
_chemical_formula_structural   HoZr2U5Ir8
_chemical_formula_sum   'Ho1 Zr2 U5 Ir8'
_cell_volume   322.44316713
_cell_formula_units_Z   1
loop_
 _symmetry_equiv_pos_site_id
 _symmetry_equiv_pos_as_xyz
  1  'x, y, z'
loop_
 _atom_site_type_symbol
 _atom_site_label
 _atom_site_symmetry_multiplicity
 _atom_site_fract_x
 _atom_site_fract_y
 _atom_site_fract_z
 _atom_site_occupancy
  Ho  Ho0  1  0.859659  0.349116  0.849321  1
  Zr  Zr1  1  0.357431  0.149353  0.152507  1
  Zr  Zr2  1  0.860182  0.912321  0.397950  1
  U  U3  1  0.370149  0.581290  0.593045  1
  U  U4  1  0.137597  0.637048  0.120284  1
  U  U5  1  0.644444  0.859049  0.881256  1
  U  U6  1  0.138729  0.102793  0.636824  1
  U  U7  1  0.643565  0.405150  0.370407  1
  Ir  Ir8  1  0.586388  0.360463  0.878739  1
  Ir  Ir9  1  0.095577  0.133535  0.136761  1
  Ir  Ir10  1  0.598036  0.902793  0.372974  1
  Ir  Ir11  1  0.102181  0.606274  0.619922  1
  Ir  Ir12  1  0.399277  0.660914  0.088013  1
  Ir  Ir13  1  0.906791  0.840703  0.906469  1
  Ir  Ir14  1  0.398133  0.073703  0.660610  1
  Ir  Ir15  1  0.901860  0.425494  0.334917  1
