# generated using pymatgen
data_TaNb(Cl4F)2
_symmetry_space_group_name_H-M   'P 1'
_cell_length_a   10.26626486
_cell_length_b   10.26172211
_cell_length_c   10.26811147
_cell_angle_alpha   100.16979224
_cell_angle_beta   100.16453188
_cell_angle_gamma   130.30008656
_symmetry_Int_Tables_number   1
_chemical_formula_structural   TaNb(Cl4F)2
_chemical_formula_sum   'Ta2 Nb2 Cl16 F4'
_cell_volume   748.69841733
_cell_formula_units_Z   2
loop_
 _symmetry_equiv_pos_site_id
 _symmetry_equiv_pos_as_xyz
  1  'x, y, z'
loop_
 _atom_site_type_symbol
 _atom_site_label
 _atom_site_symmetry_multiplicity
 _atom_site_fract_x
 _atom_site_fract_y
 _atom_site_fract_z
 _atom_site_occupancy
  Ta  Ta0  1  0.207211  0.938478  0.172099  1
  Ta  Ta1  1  0.060674  0.233872  0.268031  1
  Nb  Nb2  1  0.964441  0.790788  0.728331  1
  Nb  Nb3  1  0.763583  0.034323  0.824912  1
  Cl  Cl4  1  0.702710  0.534264  0.747479  1
  Cl  Cl5  1  0.787012  0.955319  0.253365  1
  Cl  Cl6  1  0.466416  0.213341  0.168767  1
  Cl  Cl7  1  0.044875  0.297667  0.831996  1
  Cl  Cl8  1  0.222263  0.325621  0.502427  1
  Cl  Cl9  1  0.280454  0.777507  0.103506  1
  Cl  Cl10  1  0.673693  0.177960  0.897214  1
  Cl  Cl11  1  0.821878  0.718947  0.495159  1
  Cl  Cl12  1  0.609663  0.916617  0.583636  1
  Cl  Cl13  1  0.974717  0.389072  0.306622  1
  Cl  Cl14  1  0.083280  0.667357  0.693379  1
  Cl  Cl15  1  0.331595  0.025292  0.413966  1
  Cl  Cl16  1  0.318228  0.461590  0.226322  1
  Cl  Cl17  1  0.908180  0.682153  0.143804  1
  Cl  Cl18  1  0.539218  0.764957  0.856955  1
  Cl  Cl19  1  0.235384  0.091917  0.774530  1
  F  F20  1  0.122793  0.078553  0.205227  1
  F  F21  1  0.873698  0.917814  0.795411  1
  F  F22  1  0.923841  0.127997  0.047616  1
  F  F23  1  0.084195  0.878595  0.959246  1
