# generated using pymatgen
data_Ce3ZnPt3Au2
_symmetry_space_group_name_H-M   'P 1'
_cell_length_a   7.47747100
_cell_length_b   7.61736420
_cell_length_c   3.89122200
_cell_angle_alpha   90.00000000
_cell_angle_beta   90.00000000
_cell_angle_gamma   119.39431337
_symmetry_Int_Tables_number   1
_chemical_formula_structural   Ce3ZnPt3Au2
_chemical_formula_sum   'Ce3 Zn1 Pt3 Au2'
_cell_volume   193.10543761
_cell_formula_units_Z   1
loop_
 _symmetry_equiv_pos_site_id
 _symmetry_equiv_pos_as_xyz
  1  'x, y, z'
loop_
 _atom_site_type_symbol
 _atom_site_label
 _atom_site_symmetry_multiplicity
 _atom_site_fract_x
 _atom_site_fract_y
 _atom_site_fract_z
 _atom_site_occupancy
  Ce  Ce0  1  0.005164  0.399539  0.000000  1
  Ce  Ce1  1  0.605626  0.600461  0.000000  1
  Ce  Ce2  1  0.390864  0.000000  0.000000  1
  Zn  Zn3  1  0.740384  0.000000  0.500000  1
  Pt  Pt4  1  0.967466  0.000000  0.000000  1
  Pt  Pt5  1  0.673786  0.318134  0.500000  1
  Pt  Pt6  1  0.355651  0.681866  0.500000  1
  Au  Au7  1  0.999939  0.738819  0.500000  1
  Au  Au8  1  0.261120  0.261181  0.500000  1
