# generated using pymatgen
data_Os5PdCl30
_symmetry_space_group_name_H-M   'P 1'
_cell_length_a   13.27018273
_cell_length_b   13.29728376
_cell_length_c   6.31198403
_cell_angle_alpha   89.59060051
_cell_angle_beta   89.49117276
_cell_angle_gamma   85.94958772
_symmetry_Int_Tables_number   1
_chemical_formula_structural   Os5PdCl30
_chemical_formula_sum   'Os5 Pd1 Cl30'
_cell_volume   1110.94672547
_cell_formula_units_Z   1
loop_
 _symmetry_equiv_pos_site_id
 _symmetry_equiv_pos_as_xyz
  1  'x, y, z'
loop_
 _atom_site_type_symbol
 _atom_site_label
 _atom_site_symmetry_multiplicity
 _atom_site_fract_x
 _atom_site_fract_y
 _atom_site_fract_z
 _atom_site_occupancy
  Os  Os0  1  0.435320  0.231185  0.474297  1
  Os  Os1  1  0.769738  0.564200  0.526212  1
  Os  Os2  1  0.563635  0.769022  0.525675  1
  Os  Os3  1  0.102716  0.897194  0.000370  1
  Os  Os4  1  0.897529  0.102868  0.999830  1
  Pd  Pd5  1  0.234963  0.431570  0.474787  1
  Cl  Cl6  1  0.525170  0.330536  0.257913  1
  Cl  Cl7  1  0.667804  0.476179  0.742354  1
  Cl  Cl8  1  0.475109  0.669027  0.742730  1
  Cl  Cl9  1  0.330861  0.528626  0.254447  1
  Cl  Cl10  1  0.569877  0.199031  0.688021  1
  Cl  Cl11  1  0.799863  0.431176  0.311025  1
  Cl  Cl12  1  0.867022  0.235359  0.781310  1
  Cl  Cl13  1  0.763962  0.132893  0.218316  1
  Cl  Cl14  1  0.132833  0.764998  0.218234  1
  Cl  Cl15  1  0.235715  0.867403  0.781234  1
  Cl  Cl16  1  0.998110  0.191688  0.209676  1
  Cl  Cl17  1  0.808227  0.001523  0.789877  1
  Cl  Cl18  1  0.001818  0.808562  0.789885  1
  Cl  Cl19  1  0.191512  0.999001  0.209608  1
  Cl  Cl20  1  0.048717  0.049070  0.792233  1
  Cl  Cl21  1  0.950897  0.951439  0.207669  1
  Cl  Cl22  1  0.287014  0.281878  0.270154  1
  Cl  Cl23  1  0.715767  0.715998  0.729972  1
  Cl  Cl24  1  0.097220  0.469602  0.267577  1
  Cl  Cl25  1  0.534332  0.902558  0.740701  1
  Cl  Cl26  1  0.902526  0.534472  0.739794  1
  Cl  Cl27  1  0.466683  0.096944  0.259427  1
  Cl  Cl28  1  0.137601  0.335832  0.694668  1
  Cl  Cl29  1  0.665215  0.857347  0.308590  1
  Cl  Cl30  1  0.857794  0.664749  0.308728  1
  Cl  Cl31  1  0.335416  0.142043  0.690839  1
  Cl  Cl32  1  0.384865  0.379516  0.678734  1
  Cl  Cl33  1  0.617180  0.617691  0.321927  1
  Cl  Cl34  1  0.196310  0.569187  0.682158  1
  Cl  Cl35  1  0.430674  0.799632  0.311027  1
