# generated using pymatgen
data_Ce3CuPt2Au3
_symmetry_space_group_name_H-M   'P 1'
_cell_length_a   7.61463900
_cell_length_b   7.61463891
_cell_length_c   3.80263800
_cell_angle_alpha   90.00000000
_cell_angle_beta   90.00000000
_cell_angle_gamma   119.99999604
_symmetry_Int_Tables_number   1
_chemical_formula_structural   Ce3CuPt2Au3
_chemical_formula_sum   'Ce3 Cu1 Pt2 Au3'
_cell_volume   190.94762693
_cell_formula_units_Z   1
loop_
 _symmetry_equiv_pos_site_id
 _symmetry_equiv_pos_as_xyz
  1  'x, y, z'
loop_
 _atom_site_type_symbol
 _atom_site_label
 _atom_site_symmetry_multiplicity
 _atom_site_fract_x
 _atom_site_fract_y
 _atom_site_fract_z
 _atom_site_occupancy
  Ce  Ce0  1  0.405617  0.405617  0.000000  1
  Ce  Ce1  1  0.594383  0.000000  0.000000  1
  Ce  Ce2  1  0.000000  0.594383  0.000000  1
  Cu  Cu3  1  0.000000  0.000000  0.000000  1
  Pt  Pt4  1  0.333333  0.666667  0.500000  1
  Pt  Pt5  1  0.666667  0.333333  0.500000  1
  Au  Au6  1  0.000000  0.245403  0.500000  1
  Au  Au7  1  0.754597  0.754597  0.500000  1
  Au  Au8  1  0.245403  0.000000  0.500000  1
