# generated using pymatgen
data_Li4Ho(ErSi2)3
_symmetry_space_group_name_H-M   'P 1'
_cell_length_a   9.22073051
_cell_length_b   9.22073079
_cell_length_c   6.64633200
_cell_angle_alpha   90.00000000
_cell_angle_beta   90.00000000
_cell_angle_gamma   153.48424472
_symmetry_Int_Tables_number   1
_chemical_formula_structural   Li4Ho(ErSi2)3
_chemical_formula_sum   'Li4 Ho1 Er3 Si6'
_cell_volume   252.27811889
_cell_formula_units_Z   1
loop_
 _symmetry_equiv_pos_site_id
 _symmetry_equiv_pos_as_xyz
  1  'x, y, z'
loop_
 _atom_site_type_symbol
 _atom_site_label
 _atom_site_symmetry_multiplicity
 _atom_site_fract_x
 _atom_site_fract_y
 _atom_site_fract_z
 _atom_site_occupancy
  Li  Li0  1  0.810028  0.189972  0.559195  1
  Li  Li1  1  0.190005  0.809995  0.440850  1
  Li  Li2  1  0.190005  0.809995  0.059150  1
  Li  Li3  1  0.810028  0.189972  0.940805  1
  Ho  Ho4  1  0.552080  0.447920  0.250000  1
  Er  Er5  1  0.447841  0.552159  0.750000  1
  Er  Er6  1  0.344561  0.655439  0.250000  1
  Er  Er7  1  0.655450  0.344550  0.750000  1
  Si  Si8  1  0.940179  0.059821  0.071576  1
  Si  Si9  1  0.059752  0.940248  0.928004  1
  Si  Si10  1  0.059752  0.940248  0.571996  1
  Si  Si11  1  0.940179  0.059821  0.428424  1
  Si  Si12  1  0.719977  0.280023  0.250000  1
  Si  Si13  1  0.280165  0.719835  0.750000  1
