# generated using pymatgen
data_Nd8Be4Si11Ag
_symmetry_space_group_name_H-M   'P 1'
_cell_length_a   8.02143550
_cell_length_b   8.02143486
_cell_length_c   8.54464004
_cell_angle_alpha   90.00984306
_cell_angle_beta   89.99015891
_cell_angle_gamma   119.71694578
_symmetry_Int_Tables_number   1
_chemical_formula_structural   Nd8Be4Si11Ag
_chemical_formula_sum   'Nd8 Be4 Si11 Ag1'
_cell_volume   477.48552668
_cell_formula_units_Z   1
loop_
 _symmetry_equiv_pos_site_id
 _symmetry_equiv_pos_as_xyz
  1  'x, y, z'
loop_
 _atom_site_type_symbol
 _atom_site_label
 _atom_site_symmetry_multiplicity
 _atom_site_fract_x
 _atom_site_fract_y
 _atom_site_fract_z
 _atom_site_occupancy
  Nd  Nd0  1  0.001552  0.998448  0.747388  1
  Nd  Nd1  1  0.001501  0.998499  0.252584  1
  Nd  Nd2  1  0.499512  0.500488  0.751191  1
  Nd  Nd3  1  0.495493  0.996983  0.747562  1
  Nd  Nd4  1  0.003017  0.504507  0.747562  1
  Nd  Nd5  1  0.500265  0.499735  0.248760  1
  Nd  Nd6  1  0.001596  0.503668  0.252497  1
  Nd  Nd7  1  0.496332  0.998404  0.252497  1
  Be  Be8  1  0.662586  0.337414  0.997349  1
  Be  Be9  1  0.666488  0.333512  0.502546  1
  Be  Be10  1  0.334082  0.665918  0.497452  1
  Be  Be11  1  0.335541  0.664459  0.002523  1
  Si  Si12  1  0.824134  0.652793  0.999508  1
  Si  Si13  1  0.347207  0.175866  0.999508  1
  Si  Si14  1  0.828174  0.171826  0.500559  1
  Si  Si15  1  0.827016  0.655028  0.500522  1
  Si  Si16  1  0.344972  0.172984  0.500522  1
  Si  Si17  1  0.171920  0.828080  0.499455  1
  Si  Si18  1  0.655164  0.827641  0.499477  1
  Si  Si19  1  0.172359  0.344836  0.499477  1
  Si  Si20  1  0.171547  0.828453  0.000520  1
  Si  Si21  1  0.654491  0.823835  0.000594  1
  Si  Si22  1  0.176165  0.345509  0.000594  1
  Ag  Ag23  1  0.828886  0.171114  0.999354  1
