# generated using pymatgen
data_Ag2SeO5
_symmetry_space_group_name_H-M   'P 1'
_cell_length_a   6.36165335
_cell_length_b   6.36165297
_cell_length_c   8.39856454
_cell_angle_alpha   63.73064487
_cell_angle_beta   63.73064474
_cell_angle_gamma   68.15426016
_symmetry_Int_Tables_number   1
_chemical_formula_structural   Ag2SeO5
_chemical_formula_sum   'Ag4 Se2 O10'
_cell_volume   266.67006727
_cell_formula_units_Z   2
loop_
 _symmetry_equiv_pos_site_id
 _symmetry_equiv_pos_as_xyz
  1  'x, y, z'
loop_
 _atom_site_type_symbol
 _atom_site_label
 _atom_site_symmetry_multiplicity
 _atom_site_fract_x
 _atom_site_fract_y
 _atom_site_fract_z
 _atom_site_occupancy
  Ag  Ag0  1  0.085896  0.085896  0.764883  1
  Ag  Ag1  1  0.914104  0.914104  0.235117  1
  Ag  Ag2  1  0.000000  0.500000  0.000000  1
  Ag  Ag3  1  0.500000  0.000000  0.000000  1
  Se  Se4  1  0.586591  0.586591  0.696243  1
  Se  Se5  1  0.413409  0.413409  0.303757  1
  O  O6  1  0.722503  0.326452  0.232814  1
  O  O7  1  0.673548  0.277497  0.767186  1
  O  O8  1  0.277497  0.673548  0.767186  1
  O  O9  1  0.326452  0.722503  0.232814  1
  O  O10  1  0.148547  0.148547  0.003296  1
  O  O11  1  0.851453  0.851453  0.996704  1
  O  O12  1  0.305124  0.305124  0.216763  1
  O  O13  1  0.694876  0.694876  0.783237  1
  O  O14  1  0.679635  0.679635  0.460836  1
  O  O15  1  0.320365  0.320365  0.539164  1
