# generated using pymatgen
data_TbY2CoSn3Rh2
_symmetry_space_group_name_H-M   'P 1'
_cell_length_a   7.51744700
_cell_length_b   7.49460995
_cell_length_c   3.86621400
_cell_angle_alpha   90.00000000
_cell_angle_beta   90.00000000
_cell_angle_gamma   120.10084514
_symmetry_Int_Tables_number   1
_chemical_formula_structural   TbY2CoSn3Rh2
_chemical_formula_sum   'Tb1 Y2 Co1 Sn3 Rh2'
_cell_volume   188.44894517
_cell_formula_units_Z   1
loop_
 _symmetry_equiv_pos_site_id
 _symmetry_equiv_pos_as_xyz
  1  'x, y, z'
loop_
 _atom_site_type_symbol
 _atom_site_label
 _atom_site_symmetry_multiplicity
 _atom_site_fract_x
 _atom_site_fract_y
 _atom_site_fract_z
 _atom_site_occupancy
  Tb  Tb0  1  0.406232  0.000000  0.500000  1
  Y  Y1  1  0.000004  0.404850  0.500000  1
  Y  Y2  1  0.595154  0.595150  0.500000  1
  Co  Co3  1  0.000421  0.000000  0.500000  1
  Sn  Sn4  1  0.749589  0.000000  0.000000  1
  Sn  Sn5  1  0.999373  0.748598  0.000000  1
  Sn  Sn6  1  0.250776  0.251402  0.000000  1
  Rh  Rh7  1  0.333248  0.668045  0.000000  1
  Rh  Rh8  1  0.665203  0.331955  0.000000  1
