# generated using pymatgen
data_K8CaFe7P8(O7F2)4
_symmetry_space_group_name_H-M   'P 1'
_cell_length_a   6.94419900
_cell_length_b   10.57902200
_cell_length_c   11.41415900
_cell_angle_alpha   90.00000000
_cell_angle_beta   90.00000000
_cell_angle_gamma   90.00000000
_symmetry_Int_Tables_number   1
_chemical_formula_structural   K8CaFe7P8(O7F2)4
_chemical_formula_sum   'K8 Ca1 Fe7 P8 O28 F8'
_cell_volume   838.51646779
_cell_formula_units_Z   1
loop_
 _symmetry_equiv_pos_site_id
 _symmetry_equiv_pos_as_xyz
  1  'x, y, z'
loop_
 _atom_site_type_symbol
 _atom_site_label
 _atom_site_symmetry_multiplicity
 _atom_site_fract_x
 _atom_site_fract_y
 _atom_site_fract_z
 _atom_site_occupancy
  K  K0  1  0.503532  0.067042  0.823954  1
  K  K1  1  0.998124  0.564531  0.673695  1
  K  K2  1  0.002590  0.934949  0.670258  1
  K  K3  1  0.499251  0.434789  0.823632  1
  K  K4  1  0.496468  0.932958  0.176046  1
  K  K5  1  0.001876  0.435469  0.326305  1
  K  K6  1  0.997410  0.065051  0.329742  1
  K  K7  1  0.500749  0.565211  0.176368  1
  Ca  Ca8  1  0.000000  0.000000  0.000000  1
  Fe  Fe9  1  0.002282  0.254185  0.833067  1
  Fe  Fe10  1  0.498894  0.749243  0.665161  1
  Fe  Fe11  1  0.997718  0.745815  0.166933  1
  Fe  Fe12  1  0.501106  0.250757  0.334839  1
  Fe  Fe13  1  0.500000  0.500000  0.500000  1
  Fe  Fe14  1  0.500000  0.000000  0.500000  1
  Fe  Fe15  1  0.000000  0.500000  0.000000  1
  P  P16  1  0.218340  0.248992  0.577846  1
  P  P17  1  0.282305  0.740416  0.921948  1
  P  P18  1  0.712819  0.744959  0.917877  1
  P  P19  1  0.782509  0.251623  0.578335  1
  P  P20  1  0.781660  0.751008  0.422154  1
  P  P21  1  0.717695  0.259584  0.078052  1
  P  P22  1  0.287181  0.255041  0.082123  1
  P  P23  1  0.217491  0.748377  0.421665  1
  O  O24  1  0.000276  0.250220  0.520276  1
  O  O25  1  0.498903  0.736388  0.979244  1
  O  O26  1  0.999724  0.749780  0.479724  1
  O  O27  1  0.501097  0.263612  0.020756  1
  O  O28  1  0.169594  0.328556  0.990200  1
  O  O29  1  0.325896  0.828723  0.513217  1
  O  O30  1  0.672965  0.671432  0.513927  1
  O  O31  1  0.822035  0.182526  0.983127  1
  O  O32  1  0.830406  0.671444  0.009800  1
  O  O33  1  0.674104  0.171277  0.486783  1
  O  O34  1  0.327035  0.328568  0.486073  1
  O  O35  1  0.177965  0.817474  0.016873  1
  O  O36  1  0.279867  0.109967  0.582219  1
  O  O37  1  0.217038  0.602652  0.912543  1
  O  O38  1  0.761640  0.885173  0.909722  1
  O  O39  1  0.720225  0.390394  0.582755  1
  O  O40  1  0.720133  0.890033  0.417781  1
  O  O41  1  0.782962  0.397348  0.087457  1
  O  O42  1  0.238360  0.114827  0.090278  1
  O  O43  1  0.279775  0.609606  0.417245  1
  O  O44  1  0.206033  0.311048  0.698620  1
  O  O45  1  0.293991  0.807208  0.803072  1
  O  O46  1  0.700278  0.681282  0.797683  1
  O  O47  1  0.795921  0.190509  0.699514  1
  O  O48  1  0.793967  0.688952  0.301380  1
  O  O49  1  0.706009  0.192792  0.196928  1
  O  O50  1  0.299722  0.318718  0.202317  1
  O  O51  1  0.204079  0.809491  0.300486  1
  F  F52  1  0.123890  0.081556  0.836627  1
  F  F53  1  0.380489  0.575986  0.653996  1
  F  F54  1  0.616067  0.923098  0.654962  1
  F  F55  1  0.881200  0.425102  0.844103  1
  F  F56  1  0.876110  0.918444  0.163373  1
  F  F57  1  0.619511  0.424014  0.346004  1
  F  F58  1  0.383933  0.076902  0.345038  1
  F  F59  1  0.118800  0.574898  0.155897  1
