# generated using pymatgen
data_Ca3Y2Sc3(Ni4As3)4
_symmetry_space_group_name_H-M   'P 1'
_cell_length_a   12.78083131
_cell_length_b   12.78083073
_cell_length_c   3.93735400
_cell_angle_alpha   90.00000000
_cell_angle_beta   90.00000000
_cell_angle_gamma   120.05184043
_symmetry_Int_Tables_number   1
_chemical_formula_structural   Ca3Y2Sc3(Ni4As3)4
_chemical_formula_sum   'Ca3 Y2 Sc3 Ni16 As12'
_cell_volume   556.70635289
_cell_formula_units_Z   1
loop_
 _symmetry_equiv_pos_site_id
 _symmetry_equiv_pos_as_xyz
  1  'x, y, z'
loop_
 _atom_site_type_symbol
 _atom_site_label
 _atom_site_symmetry_multiplicity
 _atom_site_fract_x
 _atom_site_fract_y
 _atom_site_fract_z
 _atom_site_occupancy
  Ca  Ca0  1  0.183548  0.183548  0.500000  1
  Ca  Ca1  1  0.333533  0.666873  0.000000  1
  Ca  Ca2  1  0.666873  0.333533  0.000000  1
  Y  Y3  1  0.815321  0.999912  0.500000  1
  Y  Y4  1  0.999912  0.815321  0.500000  1
  Sc  Sc5  1  0.565302  0.565302  0.000000  1
  Sc  Sc6  1  0.434661  0.999721  0.000000  1
  Sc  Sc7  1  0.999721  0.434661  0.000000  1
  Ni  Ni8  1  0.722272  0.722272  0.500000  1
  Ni  Ni9  1  0.277868  0.998757  0.500000  1
  Ni  Ni10  1  0.998757  0.277868  0.500000  1
  Ni  Ni11  1  0.185635  0.379479  0.000000  1
  Ni  Ni12  1  0.622349  0.807500  0.000000  1
  Ni  Ni13  1  0.193201  0.816045  0.000000  1
  Ni  Ni14  1  0.807500  0.622349  0.000000  1
  Ni  Ni15  1  0.816045  0.193201  0.000000  1
  Ni  Ni16  1  0.379479  0.185635  0.000000  1
  Ni  Ni17  1  0.361149  0.480714  0.500000  1
  Ni  Ni18  1  0.519655  0.880950  0.500000  1
  Ni  Ni19  1  0.119041  0.638751  0.500000  1
  Ni  Ni20  1  0.880950  0.519655  0.500000  1
  Ni  Ni21  1  0.638751  0.119041  0.500000  1
  Ni  Ni22  1  0.480714  0.361149  0.500000  1
  Ni  Ni23  1  0.998495  0.998495  0.000000  1
  As  As24  1  0.820857  0.820857  0.000000  1
  As  As25  1  0.177821  0.999562  0.000000  1
  As  As26  1  0.999562  0.177821  0.000000  1
  As  As27  1  0.170822  0.477987  0.500000  1
  As  As28  1  0.522592  0.693452  0.500000  1
  As  As29  1  0.306943  0.828631  0.500000  1
  As  As30  1  0.693452  0.522592  0.500000  1
  As  As31  1  0.828631  0.306943  0.500000  1
  As  As32  1  0.477987  0.170822  0.500000  1
  As  As33  1  0.356873  0.356873  0.000000  1
  As  As34  1  0.643441  0.000285  0.000000  1
  As  As35  1  0.000285  0.643441  0.000000  1
