# generated using pymatgen
data_Dy2(ReB2)3
_symmetry_space_group_name_H-M   'P 1'
_cell_length_a   6.22050461
_cell_length_b   6.22050542
_cell_length_c   7.50694846
_cell_angle_alpha   89.40253578
_cell_angle_beta   89.40253032
_cell_angle_gamma   113.73408720
_symmetry_Int_Tables_number   1
_chemical_formula_structural   Dy2(ReB2)3
_chemical_formula_sum   'Dy4 Re6 B12'
_cell_volume   265.86283856
_cell_formula_units_Z   2
loop_
 _symmetry_equiv_pos_site_id
 _symmetry_equiv_pos_as_xyz
  1  'x, y, z'
loop_
 _atom_site_type_symbol
 _atom_site_label
 _atom_site_symmetry_multiplicity
 _atom_site_fract_x
 _atom_site_fract_y
 _atom_site_fract_z
 _atom_site_occupancy
  Dy  Dy0  1  0.899060  0.556744  0.322199  1
  Dy  Dy1  1  0.443256  0.100940  0.177801  1
  Dy  Dy2  1  0.100940  0.443256  0.677801  1
  Dy  Dy3  1  0.556744  0.899060  0.822199  1
  Re  Re4  1  0.411458  0.588542  0.250000  1
  Re  Re5  1  0.588542  0.411458  0.750000  1
  Re  Re6  1  0.009371  0.192815  0.088663  1
  Re  Re7  1  0.807185  0.990629  0.411337  1
  Re  Re8  1  0.990629  0.807185  0.911337  1
  Re  Re9  1  0.192815  0.009371  0.588663  1
  B  B10  1  0.750138  0.848794  0.130025  1
  B  B11  1  0.151206  0.249862  0.369975  1
  B  B12  1  0.249862  0.151206  0.869975  1
  B  B13  1  0.848794  0.750138  0.630025  1
  B  B14  1  0.413059  0.840402  0.479741  1
  B  B15  1  0.159598  0.586941  0.020259  1
  B  B16  1  0.586941  0.159598  0.520259  1
  B  B17  1  0.840402  0.413059  0.979741  1
  B  B18  1  0.557142  0.649763  0.535587  1
  B  B19  1  0.350237  0.442858  0.964413  1
  B  B20  1  0.442858  0.350237  0.464413  1
  B  B21  1  0.649763  0.557142  0.035587  1
