# generated using pymatgen
data_Lu4VPt3F28
_symmetry_space_group_name_H-M   'P 1'
_cell_length_a   5.44731836
_cell_length_b   8.73701128
_cell_length_c   11.76116907
_cell_angle_alpha   62.67799606
_cell_angle_beta   90.14359947
_cell_angle_gamma   90.03079895
_symmetry_Int_Tables_number   1
_chemical_formula_structural   Lu4VPt3F28
_chemical_formula_sum   'Lu4 V1 Pt3 F28'
_cell_volume   497.30552601
_cell_formula_units_Z   1
loop_
 _symmetry_equiv_pos_site_id
 _symmetry_equiv_pos_as_xyz
  1  'x, y, z'
loop_
 _atom_site_type_symbol
 _atom_site_label
 _atom_site_symmetry_multiplicity
 _atom_site_fract_x
 _atom_site_fract_y
 _atom_site_fract_z
 _atom_site_occupancy
  Lu  Lu0  1  0.259225  0.812913  0.262765  1
  Lu  Lu1  1  0.738916  0.184003  0.735495  1
  Lu  Lu2  1  0.761273  0.181164  0.236759  1
  Lu  Lu3  1  0.239339  0.813959  0.768467  1
  V  V4  1  0.756315  0.724765  0.044637  1
  Pt  Pt5  1  0.242228  0.271771  0.958175  1
  Pt  Pt6  1  0.259239  0.272721  0.455899  1
  Pt  Pt7  1  0.740167  0.726568  0.544239  1
  F  F8  1  0.935479  0.701654  0.413271  1
  F  F9  1  0.060986  0.298897  0.585113  1
  F  F10  1  0.442143  0.299446  0.086750  1
  F  F11  1  0.546687  0.712046  0.920867  1
  F  F12  1  0.482282  0.731364  0.140962  1
  F  F13  1  0.541939  0.267545  0.867107  1
  F  F14  1  0.961447  0.276952  0.359216  1
  F  F15  1  0.038676  0.724698  0.639323  1
  F  F16  1  0.961613  0.746365  0.168656  1
  F  F17  1  0.047450  0.250787  0.824699  1
  F  F18  1  0.453524  0.256752  0.320465  1
  F  F19  1  0.550482  0.744809  0.680262  1
  F  F20  1  0.771064  0.488618  0.136076  1
  F  F21  1  0.231444  0.523649  0.857938  1
  F  F22  1  0.272338  0.524897  0.354361  1
  F  F23  1  0.724864  0.473904  0.645127  1
  F  F24  1  0.936653  0.282704  0.044415  1
  F  F25  1  0.042959  0.721391  0.951370  1
  F  F26  1  0.434405  0.720313  0.456064  1
  F  F27  1  0.565485  0.278909  0.543271  1
  F  F28  1  0.744515  0.979235  0.448750  1
  F  F29  1  0.257893  0.020438  0.551551  1
  F  F30  1  0.242556  0.019313  0.051381  1
  F  F31  1  0.758856  0.961325  0.950411  1
  F  F32  1  0.582368  0.971442  0.231861  1
  F  F33  1  0.415054  0.032149  0.767955  1
  F  F34  1  0.082885  0.028379  0.266627  1
  F  F35  1  0.917249  0.974154  0.729711  1
