# generated using pymatgen
data_Dy4Tm8TcOs3
_symmetry_space_group_name_H-M   'P 1'
_cell_length_a   7.39440241
_cell_length_b   8.93225000
_cell_length_c   6.26886142
_cell_angle_alpha   90.00000000
_cell_angle_beta   89.95841046
_cell_angle_gamma   90.00000000
_symmetry_Int_Tables_number   1
_chemical_formula_structural   Dy4Tm8TcOs3
_chemical_formula_sum   'Dy4 Tm8 Tc1 Os3'
_cell_volume   414.04973077
_cell_formula_units_Z   1
loop_
 _symmetry_equiv_pos_site_id
 _symmetry_equiv_pos_as_xyz
  1  'x, y, z'
loop_
 _atom_site_type_symbol
 _atom_site_label
 _atom_site_symmetry_multiplicity
 _atom_site_fract_x
 _atom_site_fract_y
 _atom_site_fract_z
 _atom_site_occupancy
  Dy  Dy0  1  0.040136  0.250000  0.626175  1
  Dy  Dy1  1  0.959837  0.750000  0.371880  1
  Dy  Dy2  1  0.460770  0.750000  0.128445  1
  Dy  Dy3  1  0.539224  0.250000  0.875387  1
  Tm  Tm4  1  0.174281  0.062577  0.163385  1
  Tm  Tm5  1  0.825192  0.937612  0.834201  1
  Tm  Tm6  1  0.325680  0.936825  0.664288  1
  Tm  Tm7  1  0.825192  0.562388  0.834201  1
  Tm  Tm8  1  0.674968  0.062916  0.335465  1
  Tm  Tm9  1  0.174281  0.437423  0.163385  1
  Tm  Tm10  1  0.674968  0.437084  0.335465  1
  Tm  Tm11  1  0.325680  0.563175  0.664288  1
  Tc  Tc12  1  0.381998  0.250000  0.462012  1
  Os  Os13  1  0.618492  0.750000  0.542000  1
  Os  Os14  1  0.117285  0.750000  0.958853  1
  Os  Os15  1  0.882015  0.250000  0.040567  1
