# generated using pymatgen
data_YEr3Be8(B5O11)4
_symmetry_space_group_name_H-M   'P 1'
_cell_length_a   4.35902448
_cell_length_b   6.70888745
_cell_length_c   25.74669935
_cell_angle_alpha   89.99023218
_cell_angle_beta   89.96425557
_cell_angle_gamma   90.04059333
_symmetry_Int_Tables_number   1
_chemical_formula_structural   YEr3Be8(B5O11)4
_chemical_formula_sum   'Y1 Er3 Be8 B20 O44'
_cell_volume   752.94139814
_cell_formula_units_Z   1
loop_
 _symmetry_equiv_pos_site_id
 _symmetry_equiv_pos_as_xyz
  1  'x, y, z'
loop_
 _atom_site_type_symbol
 _atom_site_label
 _atom_site_symmetry_multiplicity
 _atom_site_fract_x
 _atom_site_fract_y
 _atom_site_fract_z
 _atom_site_occupancy
  Y  Y0  1  0.635157  0.368360  0.419554  1
  Er  Er1  1  0.868064  0.367136  0.919764  1
  Er  Er2  1  0.131943  0.867228  0.080232  1
  Er  Er3  1  0.367993  0.867207  0.580317  1
  Be  Be4  1  0.168622  0.451534  0.790981  1
  Be  Be5  1  0.831425  0.951510  0.208984  1
  Be  Be6  1  0.668765  0.951536  0.709007  1
  Be  Be7  1  0.330852  0.451635  0.290792  1
  Be  Be8  1  0.666436  0.227749  0.793339  1
  Be  Be9  1  0.333607  0.727806  0.206611  1
  Be  Be10  1  0.166566  0.727789  0.706635  1
  Be  Be11  1  0.833600  0.227574  0.293173  1
  B  B12  1  0.374258  0.040768  0.870064  1
  B  B13  1  0.625729  0.540709  0.129921  1
  B  B14  1  0.874346  0.540845  0.630008  1
  B  B15  1  0.125568  0.039913  0.369915  1
  B  B16  1  0.145657  0.709210  0.871041  1
  B  B17  1  0.854284  0.209222  0.128955  1
  B  B18  1  0.645668  0.209126  0.629009  1
  B  B19  1  0.353623  0.709654  0.370787  1
  B  B20  1  0.024768  0.939026  0.943688  1
  B  B21  1  0.975235  0.439068  0.056291  1
  B  B22  1  0.524925  0.439269  0.556599  1
  B  B23  1  0.474537  0.938614  0.443693  1
  B  B24  1  0.536941  0.959275  0.998478  1
  B  B25  1  0.463079  0.459299  0.001512  1
  B  B26  1  0.037357  0.459763  0.502009  1
  B  B27  1  0.962804  0.958838  0.498536  1
  B  B28  1  0.180747  0.086842  0.751685  1
  B  B29  1  0.819121  0.586817  0.248247  1
  B  B30  1  0.680742  0.586839  0.748298  1
  B  B31  1  0.319323  0.086801  0.251665  1
  O  O32  1  0.351114  0.846744  0.850129  1
  O  O33  1  0.648930  0.346657  0.149862  1
  O  O34  1  0.851154  0.346654  0.649854  1
  O  O35  1  0.147763  0.846323  0.349912  1
  O  O36  1  0.627638  0.926894  0.048046  1
  O  O37  1  0.372365  0.426885  0.951948  1
  O  O38  1  0.128714  0.427907  0.452492  1
  O  O39  1  0.872143  0.926871  0.548148  1
  O  O40  1  0.992332  0.745246  0.917574  1
  O  O41  1  0.007584  0.245336  0.082419  1
  O  O42  1  0.491972  0.245260  0.582555  1
  O  O43  1  0.506924  0.745457  0.417335  1
  O  O44  1  0.220136  0.926999  0.991094  1
  O  O45  1  0.779807  0.427002  0.008902  1
  O  O46  1  0.721187  0.427283  0.509484  1
  O  O47  1  0.279727  0.926682  0.491186  1
  O  O48  1  0.154800  0.088913  0.907830  1
  O  O49  1  0.845278  0.588913  0.092143  1
  O  O50  1  0.654658  0.589203  0.592393  1
  O  O51  1  0.343150  0.087487  0.407892  1
  O  O52  1  0.084571  0.526687  0.849988  1
  O  O53  1  0.915375  0.026712  0.149999  1
  O  O54  1  0.584717  0.026549  0.650044  1
  O  O55  1  0.413848  0.527927  0.349434  1
  O  O56  1  0.581468  0.179441  0.854408  1
  O  O57  1  0.418716  0.679330  0.145566  1
  O  O58  1  0.081581  0.679490  0.645621  1
  O  O59  1  0.920031  0.178656  0.353980  1
  O  O60  1  0.722505  0.019863  0.957546  1
  O  O61  1  0.277614  0.519928  0.042431  1
  O  O62  1  0.223016  0.520499  0.542805  1
  O  O63  1  0.777503  0.018603  0.457570  1
  O  O64  1  0.031316  0.222355  0.783356  1
  O  O65  1  0.968826  0.722472  0.216611  1
  O  O66  1  0.531422  0.722351  0.716629  1
  O  O67  1  0.468610  0.222380  0.283349  1
  O  O68  1  0.495845  0.085662  0.752039  1
  O  O69  1  0.504105  0.585624  0.247831  1
  O  O70  1  0.995839  0.585677  0.747952  1
  O  O71  1  0.004269  0.085666  0.251941  1
  O  O72  1  0.030203  0.953262  0.720387  1
  O  O73  1  0.969420  0.453193  0.279521  1
  O  O74  1  0.530082  0.453211  0.779602  1
  O  O75  1  0.470001  0.953223  0.220398  1
