# generated using pymatgen
data_Ta12AlSi7(IrC)4
_symmetry_space_group_name_H-M   'P 1'
_cell_length_a   8.20757441
_cell_length_b   8.20757488
_cell_length_c   8.20757355
_cell_angle_alpha   60.09847578
_cell_angle_beta   60.09847342
_cell_angle_gamma   60.09847115
_symmetry_Int_Tables_number   1
_chemical_formula_structural   Ta12AlSi7(IrC)4
_chemical_formula_sum   'Ta12 Al1 Si7 Ir4 C4'
_cell_volume   391.82975052
_cell_formula_units_Z   1
loop_
 _symmetry_equiv_pos_site_id
 _symmetry_equiv_pos_as_xyz
  1  'x, y, z'
loop_
 _atom_site_type_symbol
 _atom_site_label
 _atom_site_symmetry_multiplicity
 _atom_site_fract_x
 _atom_site_fract_y
 _atom_site_fract_z
 _atom_site_occupancy
  Ta  Ta0  1  0.564441  0.935831  0.564441  1
  Ta  Ta1  1  0.313831  0.685545  0.685545  1
  Ta  Ta2  1  0.690110  0.313550  0.313550  1
  Ta  Ta3  1  0.313550  0.690110  0.313550  1
  Ta  Ta4  1  0.685545  0.685545  0.313831  1
  Ta  Ta5  1  0.313550  0.313550  0.690110  1
  Ta  Ta6  1  0.564441  0.564441  0.935831  1
  Ta  Ta7  1  0.935831  0.564441  0.564441  1
  Ta  Ta8  1  0.561967  0.936533  0.936533  1
  Ta  Ta9  1  0.936533  0.936533  0.561967  1
  Ta  Ta10  1  0.685545  0.313831  0.685545  1
  Ta  Ta11  1  0.936533  0.561967  0.936533  1
  Al  Al12  1  0.333844  0.333844  0.333844  1
  Si  Si13  1  0.911911  0.911911  0.911911  1
  Si  Si14  1  0.991340  0.337714  0.337714  1
  Si  Si15  1  0.337714  0.991340  0.337714  1
  Si  Si16  1  0.337714  0.337714  0.991340  1
  Si  Si17  1  0.913071  0.260978  0.913071  1
  Si  Si18  1  0.913071  0.913071  0.260978  1
  Si  Si19  1  0.260978  0.913071  0.913071  1
  Ir  Ir20  1  0.125351  0.125351  0.125351  1
  Ir  Ir21  1  0.631857  0.120899  0.120899  1
  Ir  Ir22  1  0.120899  0.631857  0.120899  1
  Ir  Ir23  1  0.120899  0.120899  0.631857  1
  C  C24  1  0.624758  0.624758  0.624758  1
  C  C25  1  0.125085  0.624816  0.624816  1
  C  C26  1  0.624816  0.125085  0.624816  1
  C  C27  1  0.624816  0.624816  0.125085  1
