# generated using pymatgen
data_Ta4SiNi4MoP3
_symmetry_space_group_name_H-M   'P 1'
_cell_length_a   7.23232227
_cell_length_b   7.23232245
_cell_length_c   7.23983572
_cell_angle_alpha   93.35536623
_cell_angle_beta   93.53207191
_cell_angle_gamma   151.61092732
_symmetry_Int_Tables_number   1
_chemical_formula_structural   Ta4SiNi4MoP3
_chemical_formula_sum   'Ta4 Si1 Ni4 Mo1 P3'
_cell_volume   174.56494204
_cell_formula_units_Z   1
loop_
 _symmetry_equiv_pos_site_id
 _symmetry_equiv_pos_as_xyz
  1  'x, y, z'
loop_
 _atom_site_type_symbol
 _atom_site_label
 _atom_site_symmetry_multiplicity
 _atom_site_fract_x
 _atom_site_fract_y
 _atom_site_fract_z
 _atom_site_occupancy
  Ta  Ta0  1  0.870175  0.194360  0.064535  1
  Ta  Ta1  1  0.127449  0.803503  0.930952  1
  Ta  Ta2  1  0.194788  0.130722  0.325512  1
  Ta  Ta3  1  0.804358  0.870701  0.675057  1
  Si  Si4  1  0.757599  0.443453  0.201052  1
  Ni  Ni5  1  0.610484  0.086677  0.697162  1
  Ni  Ni6  1  0.393149  0.911809  0.304957  1
  Ni  Ni7  1  0.087179  0.390294  0.477472  1
  Ni  Ni8  1  0.913790  0.612852  0.526643  1
  Mo  Mo9  1  0.498555  0.499933  0.998488  1
  P  P10  1  0.242900  0.556242  0.799142  1
  P  P11  1  0.443576  0.243600  0.687177  1
  P  P12  1  0.555999  0.755853  0.311852  1
