# generated using pymatgen
data_Tb4Sm(MnB3)2
_symmetry_space_group_name_H-M   'P 1'
_cell_length_a   8.34243473
_cell_length_b   8.34243521
_cell_length_c   8.34243397
_cell_angle_alpha   38.09726587
_cell_angle_beta   38.09727227
_cell_angle_gamma   38.09725623
_symmetry_Int_Tables_number   1
_chemical_formula_structural   Tb4Sm(MnB3)2
_chemical_formula_sum   'Tb4 Sm1 Mn2 B6'
_cell_volume   198.43978187
_cell_formula_units_Z   1
loop_
 _symmetry_equiv_pos_site_id
 _symmetry_equiv_pos_as_xyz
  1  'x, y, z'
loop_
 _atom_site_type_symbol
 _atom_site_label
 _atom_site_symmetry_multiplicity
 _atom_site_fract_x
 _atom_site_fract_y
 _atom_site_fract_z
 _atom_site_occupancy
  Tb  Tb0  1  0.582956  0.582956  0.582956  1
  Tb  Tb1  1  0.417044  0.417044  0.417044  1
  Tb  Tb2  1  0.749642  0.749642  0.749642  1
  Tb  Tb3  1  0.250358  0.250358  0.250358  1
  Sm  Sm4  1  0.000000  0.000000  0.000000  1
  Mn  Mn5  1  0.884734  0.884734  0.884734  1
  Mn  Mn6  1  0.115266  0.115266  0.115266  1
  B  B7  1  0.500000  0.833949  0.166051  1
  B  B8  1  0.166051  0.500000  0.833949  1
  B  B9  1  0.833949  0.166051  0.500000  1
  B  B10  1  0.500000  0.166051  0.833949  1
  B  B11  1  0.833949  0.500000  0.166051  1
  B  B12  1  0.166051  0.833949  0.500000  1
