# generated using pymatgen
data_TmHf3(GeRh5)2
_symmetry_space_group_name_H-M   'P 1'
_cell_length_a   4.10596900
_cell_length_b   5.57100752
_cell_length_c   10.97849593
_cell_angle_alpha   89.91581262
_cell_angle_beta   90.00000000
_cell_angle_gamma   90.00000000
_symmetry_Int_Tables_number   1
_chemical_formula_structural   TmHf3(GeRh5)2
_chemical_formula_sum   'Tm1 Hf3 Ge2 Rh10'
_cell_volume   251.12606250
_cell_formula_units_Z   1
loop_
 _symmetry_equiv_pos_site_id
 _symmetry_equiv_pos_as_xyz
  1  'x, y, z'
loop_
 _atom_site_type_symbol
 _atom_site_label
 _atom_site_symmetry_multiplicity
 _atom_site_fract_x
 _atom_site_fract_y
 _atom_site_fract_z
 _atom_site_occupancy
  Tm  Tm0  1  0.500000  0.180180  0.639417  1
  Hf  Hf1  1  0.500000  0.821330  0.359009  1
  Hf  Hf2  1  0.500000  0.678990  0.858531  1
  Hf  Hf3  1  0.500000  0.323121  0.140503  1
  Ge  Ge4  1  0.000000  0.500086  0.498723  1
  Ge  Ge5  1  0.000000  0.999124  0.001270  1
  Rh  Rh6  1  0.500000  0.187071  0.898878  1
  Rh  Rh7  1  0.500000  0.813285  0.106634  1
  Rh  Rh8  1  0.500000  0.683310  0.606210  1
  Rh  Rh9  1  0.500000  0.313985  0.388123  1
  Rh  Rh10  1  0.000000  0.438679  0.749450  1
  Rh  Rh11  1  0.000000  0.569410  0.254800  1
  Rh  Rh12  1  0.000000  0.990338  0.494744  1
  Rh  Rh13  1  0.000000  0.501378  0.001356  1
  Rh  Rh14  1  0.000000  0.068311  0.242335  1
  Rh  Rh15  1  0.000000  0.931402  0.760018  1
