# generated using pymatgen
data_CaYb3(Si3Ni5)4
_symmetry_space_group_name_H-M   'P 1'
_cell_length_a   18.67426345
_cell_length_b   3.76498900
_cell_length_c   6.64698452
_cell_angle_alpha   90.00000000
_cell_angle_beta   90.04531290
_cell_angle_gamma   90.00000000
_symmetry_Int_Tables_number   1
_chemical_formula_structural   CaYb3(Si3Ni5)4
_chemical_formula_sum   'Ca1 Yb3 Si12 Ni20'
_cell_volume   467.33867706
_cell_formula_units_Z   1
loop_
 _symmetry_equiv_pos_site_id
 _symmetry_equiv_pos_as_xyz
  1  'x, y, z'
loop_
 _atom_site_type_symbol
 _atom_site_label
 _atom_site_symmetry_multiplicity
 _atom_site_fract_x
 _atom_site_fract_y
 _atom_site_fract_z
 _atom_site_occupancy
  Ca  Ca0  1  0.643031  0.250000  0.623038  1
  Yb  Yb1  1  0.143379  0.250000  0.877203  1
  Yb  Yb2  1  0.356529  0.750000  0.377211  1
  Yb  Yb3  1  0.856835  0.750000  0.122679  1
  Si  Si4  1  0.914436  0.250000  0.417294  1
  Si  Si5  1  0.413886  0.250000  0.082862  1
  Si  Si6  1  0.085797  0.750000  0.582449  1
  Si  Si7  1  0.585634  0.750000  0.918899  1
  Si  Si8  1  0.738249  0.250000  0.121804  1
  Si  Si9  1  0.237855  0.250000  0.378215  1
  Si  Si10  1  0.262147  0.750000  0.878262  1
  Si  Si11  1  0.762451  0.750000  0.621698  1
  Si  Si12  1  0.925194  0.250000  0.845412  1
  Si  Si13  1  0.424857  0.250000  0.654368  1
  Si  Si14  1  0.074919  0.750000  0.154538  1
  Si  Si15  1  0.574812  0.750000  0.344522  1
  Ni  Ni16  1  0.800789  0.250000  0.815362  1
  Ni  Ni17  1  0.300311  0.250000  0.685021  1
  Ni  Ni18  1  0.199687  0.750000  0.185025  1
  Ni  Ni19  1  0.700355  0.750000  0.312586  1
  Ni  Ni20  1  0.995494  0.250000  0.132151  1
  Ni  Ni21  1  0.495027  0.250000  0.367193  1
  Ni  Ni22  1  0.004506  0.750000  0.867745  1
  Ni  Ni23  1  0.503526  0.750000  0.631942  1
  Ni  Ni24  1  0.514090  0.250000  0.884414  1
  Ni  Ni25  1  0.014894  0.250000  0.617175  1
  Ni  Ni26  1  0.484823  0.750000  0.117494  1
  Ni  Ni27  1  0.985241  0.750000  0.382806  1
  Ni  Ni28  1  0.615225  0.250000  0.140831  1
  Ni  Ni29  1  0.115132  0.250000  0.358564  1
  Ni  Ni30  1  0.384805  0.750000  0.858559  1
  Ni  Ni31  1  0.885012  0.750000  0.641356  1
  Ni  Ni32  1  0.793918  0.250000  0.430802  1
  Ni  Ni33  1  0.293196  0.250000  0.068943  1
  Ni  Ni34  1  0.206645  0.750000  0.568863  1
  Ni  Ni35  1  0.707310  0.750000  0.932713  1
