# generated using pymatgen
data_Ta6Co6C
_symmetry_space_group_name_H-M   'P 1'
_cell_length_a   7.89649005
_cell_length_b   7.89648984
_cell_length_c   7.89649000
_cell_angle_alpha   59.99999933
_cell_angle_beta   60.00000022
_cell_angle_gamma   60.00000167
_symmetry_Int_Tables_number   1
_chemical_formula_structural   Ta6Co6C
_chemical_formula_sum   'Ta12 Co12 C2'
_cell_volume   348.16673055
_cell_formula_units_Z   2
loop_
 _symmetry_equiv_pos_site_id
 _symmetry_equiv_pos_as_xyz
  1  'x, y, z'
loop_
 _atom_site_type_symbol
 _atom_site_label
 _atom_site_symmetry_multiplicity
 _atom_site_fract_x
 _atom_site_fract_y
 _atom_site_fract_z
 _atom_site_occupancy
  Ta  Ta0  1  0.051599  0.051599  0.448401  1
  Ta  Ta1  1  0.448401  0.051599  0.448401  1
  Ta  Ta2  1  0.051599  0.448401  0.448401  1
  Ta  Ta3  1  0.448401  0.448401  0.051599  1
  Ta  Ta4  1  0.051599  0.448401  0.051599  1
  Ta  Ta5  1  0.448401  0.051599  0.051599  1
  Ta  Ta6  1  0.198401  0.198401  0.801599  1
  Ta  Ta7  1  0.801599  0.198401  0.801599  1
  Ta  Ta8  1  0.198401  0.801599  0.801599  1
  Ta  Ta9  1  0.801599  0.801599  0.198401  1
  Ta  Ta10  1  0.198401  0.801599  0.198401  1
  Ta  Ta11  1  0.801599  0.198401  0.198401  1
  Co  Co12  1  0.419879  0.419879  0.740365  1
  Co  Co13  1  0.419879  0.740365  0.419879  1
  Co  Co14  1  0.740365  0.419879  0.419879  1
  Co  Co15  1  0.419879  0.419879  0.419879  1
  Co  Co16  1  0.830121  0.830121  0.509635  1
  Co  Co17  1  0.830121  0.509635  0.830121  1
  Co  Co18  1  0.509635  0.830121  0.830121  1
  Co  Co19  1  0.830121  0.830121  0.830121  1
  Co  Co20  1  0.625000  0.625000  0.125000  1
  Co  Co21  1  0.625000  0.125000  0.625000  1
  Co  Co22  1  0.125000  0.625000  0.625000  1
  Co  Co23  1  0.625000  0.625000  0.625000  1
  C  C24  1  0.250000  0.250000  0.250000  1
  C  C25  1  0.000000  0.000000  0.000000  1
