# generated using pymatgen
data_LaNd4YTa2O14
_symmetry_space_group_name_H-M   'P 1'
_cell_length_a   6.67086043
_cell_length_b   6.65609047
_cell_length_c   7.71093636
_cell_angle_alpha   89.99206900
_cell_angle_beta   90.03485928
_cell_angle_gamma   108.76539640
_symmetry_Int_Tables_number   1
_chemical_formula_structural   LaNd4YTa2O14
_chemical_formula_sum   'La1 Nd4 Y1 Ta2 O14'
_cell_volume   324.18014399
_cell_formula_units_Z   1
loop_
 _symmetry_equiv_pos_site_id
 _symmetry_equiv_pos_as_xyz
  1  'x, y, z'
loop_
 _atom_site_type_symbol
 _atom_site_label
 _atom_site_symmetry_multiplicity
 _atom_site_fract_x
 _atom_site_fract_y
 _atom_site_fract_z
 _atom_site_occupancy
  La  La0  1  0.521557  0.517272  0.498797  1
  Nd  Nd1  1  0.538078  0.532255  0.000876  1
  Nd  Nd2  1  0.006419  0.462075  0.751005  1
  Nd  Nd3  1  0.532534  0.003544  0.749988  1
  Nd  Nd4  1  0.461552  0.003701  0.248758  1
  Y  Y5  1  0.003521  0.529931  0.250227  1
  Ta  Ta6  1  0.999060  0.999330  0.498128  1
  Ta  Ta7  1  0.001187  0.001661  0.001908  1
  O  O8  1  0.944049  0.055939  0.749941  1
  O  O9  1  0.057833  0.937113  0.249950  1
  O  O10  1  0.354628  0.636037  0.246449  1
  O  O11  1  0.642635  0.368275  0.752232  1
  O  O12  1  0.372391  0.632066  0.753196  1
  O  O13  1  0.643694  0.376578  0.248036  1
  O  O14  1  0.307412  0.066725  0.968800  1
  O  O15  1  0.680488  0.922916  0.471562  1
  O  O16  1  0.309546  0.069534  0.530122  1
  O  O17  1  0.678938  0.919335  0.027261  1
  O  O18  1  0.043458  0.303178  0.460769  1
  O  O19  1  0.930232  0.680570  0.976185  1
  O  O20  1  0.934572  0.682306  0.525041  1
  O  O21  1  0.036216  0.299662  0.040767  1
