# generated using pymatgen
data_NdDy2Y2(FeB3)2
_symmetry_space_group_name_H-M   'P 1'
_cell_length_a   8.34584092
_cell_length_b   8.34584111
_cell_length_c   8.34584043
_cell_angle_alpha   37.99686413
_cell_angle_beta   37.99686028
_cell_angle_gamma   37.99686506
_symmetry_Int_Tables_number   1
_chemical_formula_structural   NdDy2Y2(FeB3)2
_chemical_formula_sum   'Nd1 Dy2 Y2 Fe2 B6'
_cell_volume   197.75865100
_cell_formula_units_Z   1
loop_
 _symmetry_equiv_pos_site_id
 _symmetry_equiv_pos_as_xyz
  1  'x, y, z'
loop_
 _atom_site_type_symbol
 _atom_site_label
 _atom_site_symmetry_multiplicity
 _atom_site_fract_x
 _atom_site_fract_y
 _atom_site_fract_z
 _atom_site_occupancy
  Nd  Nd0  1  0.000000  0.000000  0.000000  1
  Dy  Dy1  1  0.750031  0.750031  0.750031  1
  Dy  Dy2  1  0.249969  0.249969  0.249969  1
  Y  Y3  1  0.582439  0.582439  0.582439  1
  Y  Y4  1  0.417561  0.417561  0.417561  1
  Fe  Fe5  1  0.882592  0.882592  0.882592  1
  Fe  Fe6  1  0.117408  0.117408  0.117408  1
  B  B7  1  0.500000  0.832823  0.167177  1
  B  B8  1  0.167177  0.500000  0.832823  1
  B  B9  1  0.832823  0.167177  0.500000  1
  B  B10  1  0.500000  0.167177  0.832823  1
  B  B11  1  0.832823  0.500000  0.167177  1
  B  B12  1  0.167177  0.832823  0.500000  1
