# generated using pymatgen
data_TmLuCoB6
_symmetry_space_group_name_H-M   'P 1'
_cell_length_a   3.51108900
_cell_length_b   9.01301700
_cell_length_c   11.37258100
_cell_angle_alpha   90.00000000
_cell_angle_beta   90.00000000
_cell_angle_gamma   90.00000000
_symmetry_Int_Tables_number   1
_chemical_formula_structural   TmLuCoB6
_chemical_formula_sum   'Tm4 Lu4 Co4 B24'
_cell_volume   359.89106714
_cell_formula_units_Z   4
loop_
 _symmetry_equiv_pos_site_id
 _symmetry_equiv_pos_as_xyz
  1  'x, y, z'
loop_
 _atom_site_type_symbol
 _atom_site_label
 _atom_site_symmetry_multiplicity
 _atom_site_fract_x
 _atom_site_fract_y
 _atom_site_fract_z
 _atom_site_occupancy
  Tm  Tm0  1  0.000000  0.823713  0.085747  1
  Tm  Tm1  1  0.000000  0.176287  0.914253  1
  Tm  Tm2  1  0.000000  0.323713  0.414253  1
  Tm  Tm3  1  0.000000  0.676287  0.585747  1
  Lu  Lu4  1  0.000000  0.443338  0.129107  1
  Lu  Lu5  1  0.000000  0.556662  0.870893  1
  Lu  Lu6  1  0.000000  0.943338  0.370893  1
  Lu  Lu7  1  0.000000  0.056662  0.629107  1
  Co  Co8  1  0.000000  0.139425  0.179767  1
  Co  Co9  1  0.000000  0.860575  0.820233  1
  Co  Co10  1  0.000000  0.639425  0.320233  1
  Co  Co11  1  0.000000  0.360575  0.679767  1
  B  B12  1  0.500000  0.053373  0.067132  1
  B  B13  1  0.500000  0.946627  0.932868  1
  B  B14  1  0.500000  0.553373  0.432868  1
  B  B15  1  0.500000  0.446627  0.567132  1
  B  B16  1  0.500000  0.247674  0.081250  1
  B  B17  1  0.500000  0.752326  0.918750  1
  B  B18  1  0.500000  0.747674  0.418750  1
  B  B19  1  0.500000  0.252326  0.581250  1
  B  B20  1  0.500000  0.291569  0.235192  1
  B  B21  1  0.500000  0.708431  0.764808  1
  B  B22  1  0.500000  0.791569  0.264808  1
  B  B23  1  0.500000  0.208431  0.735192  1
  B  B24  1  0.500000  0.132679  0.315461  1
  B  B25  1  0.500000  0.867321  0.684539  1
  B  B26  1  0.500000  0.632679  0.184539  1
  B  B27  1  0.500000  0.367321  0.815461  1
  B  B28  1  0.500000  0.484467  0.288464  1
  B  B29  1  0.500000  0.515533  0.711536  1
  B  B30  1  0.500000  0.984467  0.211536  1
  B  B31  1  0.500000  0.015533  0.788464  1
  B  B32  1  0.500000  0.106503  0.470922  1
  B  B33  1  0.500000  0.893497  0.529078  1
  B  B34  1  0.500000  0.606503  0.029078  1
  B  B35  1  0.500000  0.393497  0.970922  1
