# generated using pymatgen
data_Th4InSiRh11
_symmetry_space_group_name_H-M   'P 1'
_cell_length_a   7.37362921
_cell_length_b   7.37131448
_cell_length_c   7.37363046
_cell_angle_alpha   107.97001081
_cell_angle_beta   108.00240246
_cell_angle_gamma   112.49736151
_symmetry_Int_Tables_number   1
_chemical_formula_structural   Th4InSiRh11
_chemical_formula_sum   'Th4 In1 Si1 Rh11'
_cell_volume   307.82418734
_cell_formula_units_Z   1
loop_
 _symmetry_equiv_pos_site_id
 _symmetry_equiv_pos_as_xyz
  1  'x, y, z'
loop_
 _atom_site_type_symbol
 _atom_site_label
 _atom_site_symmetry_multiplicity
 _atom_site_fract_x
 _atom_site_fract_y
 _atom_site_fract_z
 _atom_site_occupancy
  Th  Th0  1  0.014801  0.985102  0.499977  1
  Th  Th1  1  0.014876  0.514880  0.029691  1
  Th  Th2  1  0.485125  0.985102  0.970301  1
  Th  Th3  1  0.485189  0.514880  0.500004  1
  In  In4  1  0.749949  0.249948  0.499999  1
  Si  Si5  1  0.999999  0.999997  0.999998  1
  Rh  Rh6  1  0.745560  0.492261  0.253214  1
  Rh  Rh7  1  0.507687  0.254368  0.746681  1
  Rh  Rh8  1  0.239046  0.492261  0.746701  1
  Rh  Rh9  1  0.250051  0.750071  0.500020  1
  Rh  Rh10  1  0.507748  0.761006  0.253257  1
  Rh  Rh11  1  0.720594  0.720611  0.000017  1
  Rh  Rh12  1  0.280752  0.010587  0.270218  1
  Rh  Rh13  1  0.989413  0.259612  0.270199  1
  Rh  Rh14  1  0.279378  0.279375  0.999998  1
  Rh  Rh15  1  0.740369  0.010587  0.729836  1
  Rh  Rh16  1  0.989461  0.719352  0.729891  1
