# generated using pymatgen
data_Pr2Th2SiI6
_symmetry_space_group_name_H-M   'P 1'
_cell_length_a   4.36347900
_cell_length_b   14.43295500
_cell_length_c   15.27453500
_cell_angle_alpha   90.00000000
_cell_angle_beta   90.00000000
_cell_angle_gamma   90.00000000
_symmetry_Int_Tables_number   1
_chemical_formula_structural   Pr2Th2SiI6
_chemical_formula_sum   'Pr4 Th4 Si2 I12'
_cell_volume   961.95807745
_cell_formula_units_Z   2
loop_
 _symmetry_equiv_pos_site_id
 _symmetry_equiv_pos_as_xyz
  1  'x, y, z'
loop_
 _atom_site_type_symbol
 _atom_site_label
 _atom_site_symmetry_multiplicity
 _atom_site_fract_x
 _atom_site_fract_y
 _atom_site_fract_z
 _atom_site_occupancy
  Pr  Pr0  1  0.500000  0.113388  0.348283  1
  Pr  Pr1  1  0.500000  0.886612  0.651717  1
  Pr  Pr2  1  0.500000  0.613388  0.151717  1
  Pr  Pr3  1  0.500000  0.386612  0.848283  1
  Th  Th4  1  0.000000  0.107944  0.571780  1
  Th  Th5  1  0.000000  0.892056  0.428220  1
  Th  Th6  1  0.000000  0.607944  0.928220  1
  Th  Th7  1  0.000000  0.392056  0.071780  1
  Si  Si8  1  0.500000  0.000000  0.500000  1
  Si  Si9  1  0.500000  0.500000  0.000000  1
  I  I10  1  0.500000  0.246952  0.160555  1
  I  I11  1  0.500000  0.753048  0.839445  1
  I  I12  1  0.500000  0.746952  0.339445  1
  I  I13  1  0.500000  0.253048  0.660555  1
  I  I14  1  0.000000  0.260414  0.416553  1
  I  I15  1  0.000000  0.739586  0.583447  1
  I  I16  1  0.000000  0.760414  0.083447  1
  I  I17  1  0.000000  0.239586  0.916553  1
  I  I18  1  0.000000  0.995951  0.239878  1
  I  I19  1  0.000000  0.004049  0.760122  1
  I  I20  1  0.000000  0.495951  0.260122  1
  I  I21  1  0.000000  0.504049  0.739878  1
