# generated using pymatgen
data_Rb2Te3IrO12
_symmetry_space_group_name_H-M   'P 1'
_cell_length_a   7.20176186
_cell_length_b   7.35166062
_cell_length_c   7.20283068
_cell_angle_alpha   90.00000251
_cell_angle_beta   61.39042925
_cell_angle_gamma   120.69094506
_symmetry_Int_Tables_number   1
_chemical_formula_structural   Rb2Te3IrO12
_chemical_formula_sum   'Rb2 Te3 Ir1 O12'
_cell_volume   272.39363025
_cell_formula_units_Z   1
loop_
 _symmetry_equiv_pos_site_id
 _symmetry_equiv_pos_as_xyz
  1  'x, y, z'
loop_
 _atom_site_type_symbol
 _atom_site_label
 _atom_site_symmetry_multiplicity
 _atom_site_fract_x
 _atom_site_fract_y
 _atom_site_fract_z
 _atom_site_occupancy
  Rb  Rb0  1  0.257033  0.125874  0.628273  1
  Rb  Rb1  1  0.742967  0.868841  0.371727  1
  Te  Te2  1  0.499920  0.497272  0.000021  1
  Te  Te3  1  0.500080  0.997352  0.999979  1
  Te  Te4  1  0.000000  0.497263  0.500000  1
  Ir  Ir5  1  0.000000  0.497257  0.000000  1
  O  O6  1  0.645209  0.819930  0.928412  1
  O  O7  1  0.846216  0.420495  0.328573  1
  O  O8  1  0.251841  0.420885  0.922746  1
  O  O9  1  0.250829  0.819868  0.322415  1
  O  O10  1  0.251848  0.825679  0.922731  1
  O  O11  1  0.250779  0.425577  0.322417  1
  O  O12  1  0.354791  0.174720  0.071588  1
  O  O13  1  0.153784  0.574279  0.671427  1
  O  O14  1  0.748152  0.573830  0.077269  1
  O  O15  1  0.749221  0.174798  0.677583  1
  O  O16  1  0.748159  0.169044  0.077254  1
  O  O17  1  0.749171  0.569039  0.677585  1
