# generated using pymatgen
data_AcCr2AgO8
_symmetry_space_group_name_H-M   'P 1'
_cell_length_a   7.12573917
_cell_length_b   7.12573883
_cell_length_c   7.12573885
_cell_angle_alpha   136.31150746
_cell_angle_beta   136.31150243
_cell_angle_gamma   63.49910924
_symmetry_Int_Tables_number   1
_chemical_formula_structural   AcCr2AgO8
_chemical_formula_sum   'Ac1 Cr2 Ag1 O8'
_cell_volume   170.38620331
_cell_formula_units_Z   1
loop_
 _symmetry_equiv_pos_site_id
 _symmetry_equiv_pos_as_xyz
  1  'x, y, z'
loop_
 _atom_site_type_symbol
 _atom_site_label
 _atom_site_symmetry_multiplicity
 _atom_site_fract_x
 _atom_site_fract_y
 _atom_site_fract_z
 _atom_site_occupancy
  Ac  Ac0  1  0.500000  0.500000  0.000000  1
  Cr  Cr1  1  0.250000  0.750000  0.500000  1
  Cr  Cr2  1  0.000000  0.000000  0.000000  1
  Ag  Ag3  1  0.750000  0.250000  0.500000  1
  O  O4  1  0.445750  0.596473  0.385513  1
  O  O5  1  0.810283  0.164482  0.124660  1
  O  O6  1  0.939764  0.554250  0.150723  1
  O  O7  1  0.403527  0.789042  0.849277  1
  O  O8  1  0.835518  0.960179  0.645802  1
  O  O9  1  0.210958  0.060236  0.614487  1
  O  O10  1  0.314377  0.189717  0.354198  1
  O  O11  1  0.039821  0.685623  0.875340  1
