# generated using pymatgen
data_Tb3Tm(Si2Tc)2
_symmetry_space_group_name_H-M   'P 1'
_cell_length_a   5.80862889
_cell_length_b   5.80862873
_cell_length_c   10.09197983
_cell_angle_alpha   63.61152179
_cell_angle_beta   63.61152200
_cell_angle_gamma   42.26863179
_symmetry_Int_Tables_number   1
_chemical_formula_structural   Tb3Tm(Si2Tc)2
_chemical_formula_sum   'Tb3 Tm1 Si4 Tc2'
_cell_volume   201.35332425
_cell_formula_units_Z   1
loop_
 _symmetry_equiv_pos_site_id
 _symmetry_equiv_pos_as_xyz
  1  'x, y, z'
loop_
 _atom_site_type_symbol
 _atom_site_label
 _atom_site_symmetry_multiplicity
 _atom_site_fract_x
 _atom_site_fract_y
 _atom_site_fract_z
 _atom_site_occupancy
  Tb  Tb0  1  0.994406  0.994406  0.677236  1
  Tb  Tb1  1  0.811301  0.811301  0.110044  1
  Tb  Tb2  1  0.188554  0.188554  0.891112  1
  Tm  Tm3  1  0.003568  0.003568  0.324149  1
  Si  Si4  1  0.642315  0.642315  0.439217  1
  Si  Si5  1  0.357856  0.357856  0.559193  1
  Si  Si6  1  0.501034  0.501034  0.123859  1
  Si  Si7  1  0.500295  0.500295  0.877901  1
  Tc  Tc8  1  0.728302  0.728302  0.627490  1
  Tc  Tc9  1  0.272371  0.272371  0.369800  1
