# generated using pymatgen
data_Pr10Pb6Cl
_symmetry_space_group_name_H-M   'P 1'
_cell_length_a   9.58564500
_cell_length_b   9.58564518
_cell_length_c   6.97233100
_cell_angle_alpha   90.00000000
_cell_angle_beta   90.00000000
_cell_angle_gamma   120.00000283
_symmetry_Int_Tables_number   1
_chemical_formula_structural   Pr10Pb6Cl
_chemical_formula_sum   'Pr10 Pb6 Cl1'
_cell_volume   554.81897526
_cell_formula_units_Z   1
loop_
 _symmetry_equiv_pos_site_id
 _symmetry_equiv_pos_as_xyz
  1  'x, y, z'
loop_
 _atom_site_type_symbol
 _atom_site_label
 _atom_site_symmetry_multiplicity
 _atom_site_fract_x
 _atom_site_fract_y
 _atom_site_fract_z
 _atom_site_occupancy
  Pr  Pr0  1  0.333333  0.666667  0.500000  1
  Pr  Pr1  1  0.666667  0.333333  0.500000  1
  Pr  Pr2  1  0.666667  0.333333  0.000000  1
  Pr  Pr3  1  0.333333  0.666667  0.000000  1
  Pr  Pr4  1  0.000000  0.751087  0.239539  1
  Pr  Pr5  1  0.248913  0.248913  0.239539  1
  Pr  Pr6  1  0.751087  0.000000  0.239539  1
  Pr  Pr7  1  0.000000  0.248913  0.760461  1
  Pr  Pr8  1  0.751087  0.751087  0.760461  1
  Pr  Pr9  1  0.248913  0.000000  0.760461  1
  Pb  Pb10  1  0.000000  0.391418  0.248861  1
  Pb  Pb11  1  0.608582  0.608582  0.248861  1
  Pb  Pb12  1  0.391418  0.000000  0.248861  1
  Pb  Pb13  1  0.000000  0.608582  0.751139  1
  Pb  Pb14  1  0.391418  0.391418  0.751139  1
  Pb  Pb15  1  0.608582  0.000000  0.751139  1
  Cl  Cl16  1  0.000000  0.000000  0.500000  1
