# generated using pymatgen
data_YHo3Lu4(B6Os)4
_symmetry_space_group_name_H-M   'P 1'
_cell_length_a   3.61547200
_cell_length_b   9.06845200
_cell_length_c   11.45499200
_cell_angle_alpha   89.99710762
_cell_angle_beta   90.00000000
_cell_angle_gamma   90.00000000
_symmetry_Int_Tables_number   1
_chemical_formula_structural   YHo3Lu4(B6Os)4
_chemical_formula_sum   'Y1 Ho3 Lu4 B24 Os4'
_cell_volume   375.57177875
_cell_formula_units_Z   1
loop_
 _symmetry_equiv_pos_site_id
 _symmetry_equiv_pos_as_xyz
  1  'x, y, z'
loop_
 _atom_site_type_symbol
 _atom_site_label
 _atom_site_symmetry_multiplicity
 _atom_site_fract_x
 _atom_site_fract_y
 _atom_site_fract_z
 _atom_site_occupancy
  Y  Y0  1  0.000000  0.321167  0.414045  1
  Ho  Ho1  1  0.000000  0.678747  0.585956  1
  Ho  Ho2  1  0.000000  0.821289  0.085895  1
  Ho  Ho3  1  0.000000  0.178718  0.914078  1
  Lu  Lu4  1  0.000000  0.944132  0.373165  1
  Lu  Lu5  1  0.000000  0.055666  0.626925  1
  Lu  Lu6  1  0.000000  0.444267  0.126715  1
  Lu  Lu7  1  0.000000  0.555788  0.873243  1
  B  B8  1  0.500000  0.554654  0.433059  1
  B  B9  1  0.500000  0.445931  0.567266  1
  B  B10  1  0.500000  0.054224  0.066863  1
  B  B11  1  0.500000  0.945712  0.933049  1
  B  B12  1  0.500000  0.749762  0.419707  1
  B  B13  1  0.500000  0.250237  0.580709  1
  B  B14  1  0.500000  0.249648  0.080187  1
  B  B15  1  0.500000  0.750364  0.919693  1
  B  B16  1  0.500000  0.792115  0.265985  1
  B  B17  1  0.500000  0.207894  0.734099  1
  B  B18  1  0.500000  0.291941  0.233613  1
  B  B19  1  0.500000  0.707965  0.766075  1
  B  B20  1  0.500000  0.631043  0.184312  1
  B  B21  1  0.500000  0.369082  0.815661  1
  B  B22  1  0.500000  0.130601  0.315348  1
  B  B23  1  0.500000  0.869033  0.684436  1
  B  B24  1  0.500000  0.982388  0.213527  1
  B  B25  1  0.500000  0.017460  0.786429  1
  B  B26  1  0.500000  0.482847  0.286153  1
  B  B27  1  0.500000  0.517571  0.713719  1
  B  B28  1  0.500000  0.604531  0.028741  1
  B  B29  1  0.500000  0.395513  0.971226  1
  B  B30  1  0.500000  0.103997  0.471371  1
  B  B31  1  0.500000  0.895546  0.528768  1
  Os  Os32  1  0.000000  0.638625  0.320351  1
  Os  Os33  1  0.000000  0.361725  0.679825  1
  Os  Os34  1  0.000000  0.138102  0.179349  1
  Os  Os35  1  0.000000  0.861714  0.820458  1
