# generated using pymatgen
data_PrTl2Hg(Ir2O7)2
_symmetry_space_group_name_H-M   'P 1'
_cell_length_a   7.38503713
_cell_length_b   7.27616554
_cell_length_c   7.27616443
_cell_angle_alpha   60.59364383
_cell_angle_beta   60.87839176
_cell_angle_gamma   60.87839396
_symmetry_Int_Tables_number   1
_chemical_formula_structural   PrTl2Hg(Ir2O7)2
_chemical_formula_sum   'Pr1 Tl2 Hg1 Ir4 O14'
_cell_volume   281.34824485
_cell_formula_units_Z   1
loop_
 _symmetry_equiv_pos_site_id
 _symmetry_equiv_pos_as_xyz
  1  'x, y, z'
loop_
 _atom_site_type_symbol
 _atom_site_label
 _atom_site_symmetry_multiplicity
 _atom_site_fract_x
 _atom_site_fract_y
 _atom_site_fract_z
 _atom_site_occupancy
  Pr  Pr0  1  0.625000  0.125000  0.125000  1
  Tl  Tl1  1  0.125000  0.125000  0.625000  1
  Tl  Tl2  1  0.125000  0.625000  0.125000  1
  Hg  Hg3  1  0.125000  0.125000  0.125000  1
  Ir  Ir4  1  0.625000  0.625000  0.625000  1
  Ir  Ir5  1  0.125000  0.625000  0.625000  1
  Ir  Ir6  1  0.625000  0.125000  0.625000  1
  Ir  Ir7  1  0.625000  0.625000  0.125000  1
  O  O8  1  0.951446  0.546318  0.546318  1
  O  O9  1  0.303707  0.304515  0.685101  1
  O  O10  1  0.946293  0.564899  0.945485  1
  O  O11  1  0.693116  0.301540  0.301540  1
  O  O12  1  0.544514  0.549551  0.951398  1
  O  O13  1  0.544514  0.951398  0.549551  1
  O  O14  1  0.556884  0.948460  0.948460  1
  O  O15  1  0.239836  0.244210  0.244210  1
  O  O16  1  0.298554  0.703682  0.703682  1
  O  O17  1  0.705486  0.298602  0.700449  1
  O  O18  1  0.010164  0.005790  0.005790  1
  O  O19  1  0.946293  0.945485  0.564899  1
  O  O20  1  0.303707  0.685101  0.304515  1
  O  O21  1  0.705486  0.700449  0.298602  1
