# generated using pymatgen
data_Y4Al18Pd2RuRh3
_symmetry_space_group_name_H-M   'P 1'
_cell_length_a   7.57974001
_cell_length_b   7.57974086
_cell_length_c   9.48832096
_cell_angle_alpha   89.89803954
_cell_angle_beta   89.89804081
_cell_angle_gamma   119.49290559
_symmetry_Int_Tables_number   1
_chemical_formula_structural   Y4Al18Pd2RuRh3
_chemical_formula_sum   'Y4 Al18 Pd2 Ru1 Rh3'
_cell_volume   474.48503657
_cell_formula_units_Z   1
loop_
 _symmetry_equiv_pos_site_id
 _symmetry_equiv_pos_as_xyz
  1  'x, y, z'
loop_
 _atom_site_type_symbol
 _atom_site_label
 _atom_site_symmetry_multiplicity
 _atom_site_fract_x
 _atom_site_fract_y
 _atom_site_fract_z
 _atom_site_occupancy
  Y  Y0  1  0.994797  0.670540  0.250020  1
  Y  Y1  1  0.005203  0.329460  0.749980  1
  Y  Y2  1  0.670540  0.994797  0.250020  1
  Y  Y3  1  0.329460  0.005203  0.749980  1
  Al  Al4  1  0.126066  0.126066  0.249957  1
  Al  Al5  1  0.873934  0.873934  0.750043  1
  Al  Al6  1  0.001798  0.329901  0.076940  1
  Al  Al7  1  0.998202  0.670099  0.923060  1
  Al  Al8  1  0.000506  0.665071  0.574363  1
  Al  Al9  1  0.334929  0.999494  0.425637  1
  Al  Al10  1  0.999494  0.334929  0.425637  1
  Al  Al11  1  0.665071  0.000506  0.574363  1
  Al  Al12  1  0.670099  0.998202  0.923060  1
  Al  Al13  1  0.329901  0.001798  0.076940  1
  Al  Al14  1  0.332219  0.332219  0.548376  1
  Al  Al15  1  0.667781  0.667781  0.451624  1
  Al  Al16  1  0.670551  0.670551  0.055353  1
  Al  Al17  1  0.329449  0.329449  0.944647  1
  Al  Al18  1  0.341042  0.548044  0.253841  1
  Al  Al19  1  0.658958  0.451956  0.746159  1
  Al  Al20  1  0.548044  0.341042  0.253841  1
  Al  Al21  1  0.451956  0.658958  0.746159  1
  Pd  Pd22  1  0.672214  0.327786  0.000000  1
  Pd  Pd23  1  0.327786  0.672214  0.000000  1
  Ru  Ru24  1  0.000000  0.000000  0.000000  1
  Rh  Rh25  1  0.328196  0.671804  0.500000  1
  Rh  Rh26  1  0.671804  0.328196  0.500000  1
  Rh  Rh27  1  0.000000  0.000000  0.500000  1
