# generated using pymatgen
data_Ba3NdMoO6
_symmetry_space_group_name_H-M   'P 1'
_cell_length_a   7.33420156
_cell_length_b   7.33420066
_cell_length_c   7.33420100
_cell_angle_alpha   92.34455312
_cell_angle_beta   92.34455284
_cell_angle_gamma   92.34454820
_symmetry_Int_Tables_number   1
_chemical_formula_structural   Ba3NdMoO6
_chemical_formula_sum   'Ba6 Nd2 Mo2 O12'
_cell_volume   393.49172473
_cell_formula_units_Z   2
loop_
 _symmetry_equiv_pos_site_id
 _symmetry_equiv_pos_as_xyz
  1  'x, y, z'
loop_
 _atom_site_type_symbol
 _atom_site_label
 _atom_site_symmetry_multiplicity
 _atom_site_fract_x
 _atom_site_fract_y
 _atom_site_fract_z
 _atom_site_occupancy
  Ba  Ba0  1  0.250000  0.887287  0.612713  1
  Ba  Ba1  1  0.887287  0.612713  0.250000  1
  Ba  Ba2  1  0.750000  0.112713  0.387287  1
  Ba  Ba3  1  0.387287  0.750000  0.112713  1
  Ba  Ba4  1  0.112713  0.387287  0.750000  1
  Ba  Ba5  1  0.612713  0.250000  0.887287  1
  Nd  Nd6  1  0.750000  0.750000  0.750000  1
  Nd  Nd7  1  0.250000  0.250000  0.250000  1
  Mo  Mo8  1  0.500000  0.500000  0.500000  1
  Mo  Mo9  1  0.000000  0.000000  0.000000  1
  O  O10  1  0.593355  0.784175  0.459732  1
  O  O11  1  0.459732  0.593355  0.784175  1
  O  O12  1  0.784175  0.459732  0.593355  1
  O  O13  1  0.906645  0.040268  0.715825  1
  O  O14  1  0.715825  0.906645  0.040268  1
  O  O15  1  0.040268  0.715825  0.906645  1
  O  O16  1  0.406645  0.215825  0.540268  1
  O  O17  1  0.540268  0.406645  0.215825  1
  O  O18  1  0.215825  0.540268  0.406645  1
  O  O19  1  0.093355  0.959732  0.284175  1
  O  O20  1  0.959732  0.284175  0.093355  1
  O  O21  1  0.284175  0.093355  0.959732  1
