# generated using pymatgen
data_Tb5HgIr2
_symmetry_space_group_name_H-M   'P 1'
_cell_length_a   7.91867297
_cell_length_b   7.91867274
_cell_length_c   8.76488400
_cell_angle_alpha   116.85455451
_cell_angle_beta   116.85456180
_cell_angle_gamma   90.00000152
_symmetry_Int_Tables_number   1
_chemical_formula_structural   Tb5HgIr2
_chemical_formula_sum   'Tb10 Hg2 Ir4'
_cell_volume   422.83372226
_cell_formula_units_Z   2
loop_
 _symmetry_equiv_pos_site_id
 _symmetry_equiv_pos_as_xyz
  1  'x, y, z'
loop_
 _atom_site_type_symbol
 _atom_site_label
 _atom_site_symmetry_multiplicity
 _atom_site_fract_x
 _atom_site_fract_y
 _atom_site_fract_z
 _atom_site_occupancy
  Tb  Tb0  1  0.500000  0.500000  0.000000  1
  Tb  Tb1  1  0.000000  0.000000  0.000000  1
  Tb  Tb2  1  0.972148  0.792664  0.264812  1
  Tb  Tb3  1  0.292664  0.472148  0.264812  1
  Tb  Tb4  1  0.792664  0.292664  0.264812  1
  Tb  Tb5  1  0.472148  0.972148  0.264812  1
  Tb  Tb6  1  0.027852  0.207336  0.735188  1
  Tb  Tb7  1  0.707336  0.527852  0.735188  1
  Tb  Tb8  1  0.207336  0.707336  0.735188  1
  Tb  Tb9  1  0.527852  0.027852  0.735188  1
  Hg  Hg10  1  0.750000  0.750000  0.500000  1
  Hg  Hg11  1  0.250000  0.250000  0.500000  1
  Ir  Ir12  1  0.640206  0.859794  0.000000  1
  Ir  Ir13  1  0.359794  0.140206  0.000000  1
  Ir  Ir14  1  0.859794  0.359794  0.000000  1
  Ir  Ir15  1  0.140206  0.640206  0.000000  1
