# generated using pymatgen
data_ErAl4VMo
_symmetry_space_group_name_H-M   'P 1'
_cell_length_a   5.43729737
_cell_length_b   5.43729748
_cell_length_c   5.43729762
_cell_angle_alpha   103.47753658
_cell_angle_beta   103.47754111
_cell_angle_gamma   122.26741847
_symmetry_Int_Tables_number   1
_chemical_formula_structural   ErAl4VMo
_chemical_formula_sum   'Er1 Al4 V1 Mo1'
_cell_volume   119.03539041
_cell_formula_units_Z   1
loop_
 _symmetry_equiv_pos_site_id
 _symmetry_equiv_pos_as_xyz
  1  'x, y, z'
loop_
 _atom_site_type_symbol
 _atom_site_label
 _atom_site_symmetry_multiplicity
 _atom_site_fract_x
 _atom_site_fract_y
 _atom_site_fract_z
 _atom_site_occupancy
  Er  Er0  1  0.000000  0.000000  0.000000  1
  Al  Al1  1  0.305437  0.305437  0.610876  1
  Al  Al2  1  0.694563  0.694563  0.389124  1
  Al  Al3  1  0.694563  0.305437  0.000000  1
  Al  Al4  1  0.305437  0.694563  0.000000  1
  V  V5  1  0.250000  0.750000  0.500000  1
  Mo  Mo6  1  0.750000  0.250000  0.500000  1
