# generated using pymatgen
data_PrDy2HoMo3WO14
_symmetry_space_group_name_H-M   'P 1'
_cell_length_a   7.42273563
_cell_length_b   7.49585355
_cell_length_c   7.49585300
_cell_angle_alpha   59.00009794
_cell_angle_beta   58.91851739
_cell_angle_gamma   58.91851385
_symmetry_Int_Tables_number   1
_chemical_formula_structural   PrDy2HoMo3WO14
_chemical_formula_sum   'Pr1 Dy2 Ho1 Mo3 W1 O14'
_cell_volume   287.81619958
_cell_formula_units_Z   1
loop_
 _symmetry_equiv_pos_site_id
 _symmetry_equiv_pos_as_xyz
  1  'x, y, z'
loop_
 _atom_site_type_symbol
 _atom_site_label
 _atom_site_symmetry_multiplicity
 _atom_site_fract_x
 _atom_site_fract_y
 _atom_site_fract_z
 _atom_site_occupancy
  Pr  Pr0  1  0.125000  0.125000  0.125000  1
  Dy  Dy1  1  0.125000  0.625000  0.125000  1
  Dy  Dy2  1  0.125000  0.125000  0.625000  1
  Ho  Ho3  1  0.625000  0.125000  0.125000  1
  Mo  Mo4  1  0.125000  0.625000  0.625000  1
  Mo  Mo5  1  0.625000  0.125000  0.625000  1
  Mo  Mo6  1  0.625000  0.625000  0.125000  1
  W  W7  1  0.625000  0.625000  0.625000  1
  O  O8  1  0.701409  0.712844  0.298529  1
  O  O9  1  0.287159  0.272956  0.708928  1
  O  O10  1  0.701409  0.298529  0.712844  1
  O  O11  1  0.287159  0.708928  0.272956  1
  O  O12  1  0.293825  0.714529  0.714529  1
  O  O13  1  0.693657  0.287588  0.287588  1
  O  O14  1  0.548591  0.537156  0.951471  1
  O  O15  1  0.962841  0.977044  0.541072  1
  O  O16  1  0.548591  0.951471  0.537156  1
  O  O17  1  0.962841  0.541072  0.977044  1
  O  O18  1  0.956175  0.535471  0.535471  1
  O  O19  1  0.556343  0.962412  0.962412  1
  O  O20  1  0.256848  0.253534  0.253534  1
  O  O21  1  0.993152  0.996466  0.996466  1
