# generated using pymatgen
data_Ho4Zn2ReOs5
_symmetry_space_group_name_H-M   'P 1'
_cell_length_a   5.32275896
_cell_length_b   5.25742342
_cell_length_c   8.85967100
_cell_angle_alpha   90.00000000
_cell_angle_beta   90.00000000
_cell_angle_gamma   118.04301414
_symmetry_Int_Tables_number   1
_chemical_formula_structural   Ho4Zn2ReOs5
_chemical_formula_sum   'Ho4 Zn2 Re1 Os5'
_cell_volume   218.82087993
_cell_formula_units_Z   1
loop_
 _symmetry_equiv_pos_site_id
 _symmetry_equiv_pos_as_xyz
  1  'x, y, z'
loop_
 _atom_site_type_symbol
 _atom_site_label
 _atom_site_symmetry_multiplicity
 _atom_site_fract_x
 _atom_site_fract_y
 _atom_site_fract_z
 _atom_site_occupancy
  Ho  Ho0  1  0.323185  0.665389  0.434314  1
  Ho  Ho1  1  0.656017  0.328044  0.557867  1
  Ho  Ho2  1  0.656017  0.328044  0.942133  1
  Ho  Ho3  1  0.323185  0.665389  0.065686  1
  Zn  Zn4  1  0.195985  0.841732  0.750000  1
  Zn  Zn5  1  0.188739  0.349806  0.750000  1
  Re  Re6  1  0.835591  0.162544  0.250000  1
  Os  Os7  1  0.972689  0.996338  0.502162  1
  Os  Os8  1  0.972689  0.996338  0.997838  1
  Os  Os9  1  0.829573  0.654726  0.250000  1
  Os  Os10  1  0.351958  0.170487  0.250000  1
  Os  Os11  1  0.694375  0.841162  0.750000  1
