# generated using pymatgen
data_Ta5Nb5(B2As)2
_symmetry_space_group_name_H-M   'P 1'
_cell_length_a   7.34732117
_cell_length_b   7.34487572
_cell_length_c   7.34557547
_cell_angle_alpha   129.41250514
_cell_angle_beta   129.42095402
_cell_angle_gamma   74.34646249
_symmetry_Int_Tables_number   1
_chemical_formula_structural   Ta5Nb5(B2As)2
_chemical_formula_sum   'Ta5 Nb5 B4 As2'
_cell_volume   230.60589112
_cell_formula_units_Z   1
loop_
 _symmetry_equiv_pos_site_id
 _symmetry_equiv_pos_as_xyz
  1  'x, y, z'
loop_
 _atom_site_type_symbol
 _atom_site_label
 _atom_site_symmetry_multiplicity
 _atom_site_fract_x
 _atom_site_fract_y
 _atom_site_fract_z
 _atom_site_occupancy
  Ta  Ta0  1  0.802976  0.971734  0.500001  1
  Ta  Ta1  1  0.972044  0.472249  0.168859  1
  Ta  Ta2  1  0.303182  0.803395  0.831138  1
  Ta  Ta3  1  0.499146  0.498728  0.999327  1
  Ta  Ta4  1  0.999815  0.999408  0.000680  1
  Nb  Nb5  1  0.527167  0.696184  0.500001  1
  Nb  Nb6  1  0.196527  0.026893  0.499999  1
  Nb  Nb7  1  0.027964  0.527747  0.831602  1
  Nb  Nb8  1  0.696366  0.196143  0.168397  1
  Nb  Nb9  1  0.471718  0.303965  0.499999  1
  B  B10  1  0.882370  0.620774  0.499998  1
  B  B11  1  0.118464  0.383631  0.500000  1
  B  B12  1  0.382478  0.880902  0.261186  1
  B  B13  1  0.621294  0.119716  0.738815  1
  As  As14  1  0.248987  0.249007  0.999482  1
  As  As15  1  0.749505  0.749525  0.000517  1
