# generated using pymatgen
data_Re3Te4I
_symmetry_space_group_name_H-M   'P 1'
_cell_length_a   12.85445600
_cell_length_b   7.07130206
_cell_length_c   12.15294114
_cell_angle_alpha   65.81823738
_cell_angle_beta   90.00000000
_cell_angle_gamma   90.00000000
_symmetry_Int_Tables_number   1
_chemical_formula_structural   Re3Te4I
_chemical_formula_sum   'Re12 Te16 I4'
_cell_volume   1007.74028361
_cell_formula_units_Z   4
loop_
 _symmetry_equiv_pos_site_id
 _symmetry_equiv_pos_as_xyz
  1  'x, y, z'
loop_
 _atom_site_type_symbol
 _atom_site_label
 _atom_site_symmetry_multiplicity
 _atom_site_fract_x
 _atom_site_fract_y
 _atom_site_fract_z
 _atom_site_occupancy
  Re  Re0  1  0.018284  0.710764  0.060235  1
  Re  Re1  1  0.065955  0.027662  0.852348  1
  Re  Re2  1  0.865919  0.969926  0.938770  1
  Re  Re3  1  0.565955  0.972338  0.647652  1
  Re  Re4  1  0.981716  0.289236  0.939765  1
  Re  Re5  1  0.634081  0.969926  0.438770  1
  Re  Re6  1  0.134081  0.030074  0.061230  1
  Re  Re7  1  0.518284  0.289236  0.439765  1
  Re  Re8  1  0.481716  0.710764  0.560235  1
  Re  Re9  1  0.434045  0.027662  0.352348  1
  Re  Re10  1  0.365919  0.030074  0.561230  1
  Re  Re11  1  0.934045  0.972338  0.147652  1
  Te  Te12  1  0.413140  0.706930  0.773121  1
  Te  Te13  1  0.445292  0.277117  0.663998  1
  Te  Te14  1  0.913140  0.293070  0.726879  1
  Te  Te15  1  0.822846  0.644891  0.151946  1
  Te  Te16  1  0.177154  0.355109  0.848054  1
  Te  Te17  1  0.322846  0.355109  0.348054  1
  Te  Te18  1  0.283007  0.760545  0.479052  1
  Te  Te19  1  0.086860  0.706930  0.273121  1
  Te  Te20  1  0.783007  0.239455  0.020948  1
  Te  Te21  1  0.554708  0.722883  0.336002  1
  Te  Te22  1  0.945292  0.722883  0.836002  1
  Te  Te23  1  0.216993  0.760545  0.979052  1
  Te  Te24  1  0.677154  0.644891  0.651946  1
  Te  Te25  1  0.716993  0.239455  0.520948  1
  Te  Te26  1  0.586860  0.293070  0.226879  1
  Te  Te27  1  0.054708  0.277117  0.163998  1
  I  I28  1  0.654196  0.910407  0.877539  1
  I  I29  1  0.154196  0.089593  0.622461  1
  I  I30  1  0.845804  0.910407  0.377539  1
  I  I31  1  0.345804  0.089593  0.122461  1
