# generated using pymatgen
data_CePa5(Al3Os)8
_symmetry_space_group_name_H-M   'P 1'
_cell_length_a   8.90031800
_cell_length_b   8.88762517
_cell_length_c   9.44455700
_cell_angle_alpha   90.00000000
_cell_angle_beta   90.00000000
_cell_angle_gamma   120.04726142
_symmetry_Int_Tables_number   1
_chemical_formula_structural   CePa5(Al3Os)8
_chemical_formula_sum   'Ce1 Pa5 Al24 Os8'
_cell_volume   646.69045858
_cell_formula_units_Z   1
loop_
 _symmetry_equiv_pos_site_id
 _symmetry_equiv_pos_as_xyz
  1  'x, y, z'
loop_
 _atom_site_type_symbol
 _atom_site_label
 _atom_site_symmetry_multiplicity
 _atom_site_fract_x
 _atom_site_fract_y
 _atom_site_fract_z
 _atom_site_occupancy
  Ce  Ce0  1  0.195440  0.390880  0.250000  1
  Pa  Pa1  1  0.802121  0.604242  0.750000  1
  Pa  Pa2  1  0.604891  0.803776  0.250000  1
  Pa  Pa3  1  0.395267  0.198579  0.750000  1
  Pa  Pa4  1  0.198885  0.803776  0.250000  1
  Pa  Pa5  1  0.803312  0.198579  0.750000  1
  Al  Al6  1  0.332131  0.664264  0.019344  1
  Al  Al7  1  0.666098  0.332195  0.983380  1
  Al  Al8  1  0.666098  0.332195  0.516620  1
  Al  Al9  1  0.332131  0.664264  0.480656  1
  Al  Al10  1  0.162180  0.324360  0.579086  1
  Al  Al11  1  0.838064  0.676128  0.420506  1
  Al  Al12  1  0.675893  0.838194  0.579312  1
  Al  Al13  1  0.838064  0.676128  0.079494  1
  Al  Al14  1  0.324665  0.162465  0.421757  1
  Al  Al15  1  0.162180  0.324360  0.920914  1
  Al  Al16  1  0.162302  0.838194  0.579312  1
  Al  Al17  1  0.324665  0.162465  0.078243  1
  Al  Al18  1  0.837799  0.162465  0.421757  1
  Al  Al19  1  0.675893  0.838194  0.920688  1
  Al  Al20  1  0.837799  0.162465  0.078243  1
  Al  Al21  1  0.162302  0.838194  0.920688  1
  Al  Al22  1  0.563009  0.126018  0.250000  1
  Al  Al23  1  0.437608  0.875215  0.750000  1
  Al  Al24  1  0.876986  0.438219  0.250000  1
  Al  Al25  1  0.126600  0.563337  0.750000  1
  Al  Al26  1  0.561233  0.438219  0.250000  1
  Al  Al27  1  0.436737  0.563337  0.750000  1
  Al  Al28  1  0.998261  0.996523  0.250000  1
  Al  Al29  1  0.000476  0.000952  0.750000  1
  Os  Os30  1  0.499992  0.999985  0.999597  1
  Os  Os31  1  0.996549  0.500294  0.995720  1
  Os  Os32  1  0.499992  0.999985  0.500403  1
  Os  Os33  1  0.503744  0.500294  0.995720  1
  Os  Os34  1  0.996549  0.500294  0.504280  1
  Os  Os35  1  0.503744  0.500294  0.504280  1
  Os  Os36  1  0.000169  0.000337  0.999962  1
  Os  Os37  1  0.000169  0.000337  0.500038  1
