# generated using pymatgen
data_YTm7GaPd24
_symmetry_space_group_name_H-M   'P 1'
_cell_length_a   8.30249401
_cell_length_b   8.30249402
_cell_length_c   8.30249400
_cell_angle_alpha   89.99714297
_cell_angle_beta   90.00285703
_cell_angle_gamma   90.00285717
_symmetry_Int_Tables_number   1
_chemical_formula_structural   YTm7GaPd24
_chemical_formula_sum   'Y1 Tm7 Ga1 Pd24'
_cell_volume   572.30258987
_cell_formula_units_Z   1
loop_
 _symmetry_equiv_pos_site_id
 _symmetry_equiv_pos_as_xyz
  1  'x, y, z'
loop_
 _atom_site_type_symbol
 _atom_site_label
 _atom_site_symmetry_multiplicity
 _atom_site_fract_x
 _atom_site_fract_y
 _atom_site_fract_z
 _atom_site_occupancy
  Y  Y0  1  0.748221  0.251779  0.251779  1
  Tm  Tm1  1  0.251653  0.251568  0.251568  1
  Tm  Tm2  1  0.748408  0.748500  0.748500  1
  Tm  Tm3  1  0.748432  0.748347  0.251568  1
  Tm  Tm4  1  0.748432  0.251568  0.748347  1
  Tm  Tm5  1  0.251500  0.251592  0.748500  1
  Tm  Tm6  1  0.251500  0.748500  0.251592  1
  Tm  Tm7  1  0.251754  0.748246  0.748246  1
  Ga  Ga8  1  0.999948  0.000052  0.000052  1
  Pd  Pd9  1  0.260306  0.500089  0.000043  1
  Pd  Pd10  1  0.739951  0.501054  0.998741  1
  Pd  Pd11  1  0.001259  0.260049  0.501054  1
  Pd  Pd12  1  0.498946  0.260049  0.998741  1
  Pd  Pd13  1  0.999957  0.739694  0.500089  1
  Pd  Pd14  1  0.499911  0.739694  0.000043  1
  Pd  Pd15  1  0.498946  0.998741  0.260049  1
  Pd  Pd16  1  0.260306  0.000043  0.500089  1
  Pd  Pd17  1  0.499911  0.000043  0.739694  1
  Pd  Pd18  1  0.739951  0.998741  0.501054  1
  Pd  Pd19  1  0.001259  0.501054  0.260049  1
  Pd  Pd20  1  0.999957  0.500089  0.739694  1
  Pd  Pd21  1  0.252965  0.500013  0.500013  1
  Pd  Pd22  1  0.747033  0.501303  0.501303  1
  Pd  Pd23  1  0.498697  0.252967  0.501303  1
  Pd  Pd24  1  0.499987  0.747035  0.500013  1
  Pd  Pd25  1  0.498697  0.501303  0.252967  1
  Pd  Pd26  1  0.499987  0.500013  0.747035  1
  Pd  Pd27  1  0.291192  0.999928  0.999928  1
  Pd  Pd28  1  0.708601  0.998905  0.998905  1
  Pd  Pd29  1  0.001095  0.291399  0.998905  1
  Pd  Pd30  1  0.000072  0.708808  0.999928  1
  Pd  Pd31  1  0.001095  0.998905  0.291399  1
  Pd  Pd32  1  0.000072  0.999928  0.708808  1
