# generated using pymatgen
data_Dy3Er9(RuRh)2
_symmetry_space_group_name_H-M   'P 1'
_cell_length_a   6.29932521
_cell_length_b   7.21133903
_cell_length_c   9.20182200
_cell_angle_alpha   90.00000000
_cell_angle_beta   90.00000000
_cell_angle_gamma   90.01008379
_symmetry_Int_Tables_number   1
_chemical_formula_structural   Dy3Er9(RuRh)2
_chemical_formula_sum   'Dy3 Er9 Ru2 Rh2'
_cell_volume   418.00720253
_cell_formula_units_Z   1
loop_
 _symmetry_equiv_pos_site_id
 _symmetry_equiv_pos_as_xyz
  1  'x, y, z'
loop_
 _atom_site_type_symbol
 _atom_site_label
 _atom_site_symmetry_multiplicity
 _atom_site_fract_x
 _atom_site_fract_y
 _atom_site_fract_z
 _atom_site_occupancy
  Dy  Dy0  1  0.869224  0.962740  0.750000  1
  Dy  Dy1  1  0.369298  0.537323  0.250000  1
  Dy  Dy2  1  0.632988  0.465289  0.750000  1
  Er  Er3  1  0.672083  0.175329  0.065071  1
  Er  Er4  1  0.171229  0.323947  0.935256  1
  Er  Er5  1  0.828775  0.679102  0.437184  1
  Er  Er6  1  0.328041  0.821631  0.562188  1
  Er  Er7  1  0.328041  0.821631  0.937812  1
  Er  Er8  1  0.828775  0.679102  0.062816  1
  Er  Er9  1  0.171229  0.323947  0.564744  1
  Er  Er10  1  0.672083  0.175329  0.434929  1
  Er  Er11  1  0.133292  0.035173  0.250000  1
  Ru  Ru12  1  0.046546  0.615617  0.750000  1
  Ru  Ru13  1  0.545068  0.885009  0.250000  1
  Rh  Rh14  1  0.451021  0.115345  0.750000  1
  Rh  Rh15  1  0.952308  0.383485  0.250000  1
