# generated using pymatgen
data_Tm3Sc2Sn2Sb
_symmetry_space_group_name_H-M   'P 1'
_cell_length_a   6.16603200
_cell_length_b   8.71029724
_cell_length_c   8.71618117
_cell_angle_alpha   120.04238156
_cell_angle_beta   89.99992364
_cell_angle_gamma   89.99784427
_symmetry_Int_Tables_number   1
_chemical_formula_structural   Tm3Sc2Sn2Sb
_chemical_formula_sum   'Tm6 Sc4 Sn4 Sb2'
_cell_volume   405.23784733
_cell_formula_units_Z   2
loop_
 _symmetry_equiv_pos_site_id
 _symmetry_equiv_pos_as_xyz
  1  'x, y, z'
loop_
 _atom_site_type_symbol
 _atom_site_label
 _atom_site_symmetry_multiplicity
 _atom_site_fract_x
 _atom_site_fract_y
 _atom_site_fract_z
 _atom_site_occupancy
  Tm  Tm0  1  0.750008  0.238656  0.997491  1
  Tm  Tm1  1  0.749986  0.761198  0.758735  1
  Tm  Tm2  1  0.750005  0.999981  0.239308  1
  Tm  Tm3  1  0.249995  0.760342  0.001210  1
  Tm  Tm4  1  0.249986  0.239710  0.240949  1
  Tm  Tm5  1  0.249999  0.000089  0.761383  1
  Sc  Sc6  1  0.500161  0.333014  0.666812  1
  Sc  Sc7  1  0.500063  0.667084  0.333816  1
  Sc  Sc8  1  0.999817  0.667030  0.333778  1
  Sc  Sc9  1  0.999949  0.333002  0.666827  1
  Sn  Sn10  1  0.750038  0.000065  0.600462  1
  Sn  Sn11  1  0.250006  0.397415  0.001091  1
  Sn  Sn12  1  0.250000  0.602608  0.603653  1
  Sn  Sn13  1  0.250037  0.999932  0.398404  1
  Sb  Sb14  1  0.749987  0.603489  0.999826  1
  Sb  Sb15  1  0.749957  0.396385  0.396254  1
