# generated using pymatgen
data_Li7La6Pr2CdSn8
_symmetry_space_group_name_H-M   'P 1'
_cell_length_a   9.70673900
_cell_length_b   9.70673952
_cell_length_c   7.83994741
_cell_angle_alpha   89.94401691
_cell_angle_beta   90.05598158
_cell_angle_gamma   119.94276753
_symmetry_Int_Tables_number   1
_chemical_formula_structural   Li7La6Pr2CdSn8
_chemical_formula_sum   'Li7 La6 Pr2 Cd1 Sn8'
_cell_volume   640.08906290
_cell_formula_units_Z   1
loop_
 _symmetry_equiv_pos_site_id
 _symmetry_equiv_pos_as_xyz
  1  'x, y, z'
loop_
 _atom_site_type_symbol
 _atom_site_label
 _atom_site_symmetry_multiplicity
 _atom_site_fract_x
 _atom_site_fract_y
 _atom_site_fract_z
 _atom_site_occupancy
  Li  Li0  1  0.835582  0.668434  0.711695  1
  Li  Li1  1  0.331566  0.164418  0.711695  1
  Li  Li2  1  0.166287  0.833713  0.209485  1
  Li  Li3  1  0.166715  0.332722  0.211746  1
  Li  Li4  1  0.667278  0.833285  0.211746  1
  Li  Li5  1  0.666448  0.333552  0.327228  1
  Li  Li6  1  0.331702  0.668298  0.829578  1
  La  La7  1  0.488782  0.511218  0.501886  1
  La  La8  1  0.484062  0.975144  0.503137  1
  La  La9  1  0.024856  0.515938  0.503137  1
  La  La10  1  0.510725  0.489275  0.009191  1
  La  La11  1  0.510510  0.022330  0.005649  1
  La  La12  1  0.977670  0.489490  0.005649  1
  Pr  Pr13  1  0.003502  0.996498  0.497618  1
  Pr  Pr14  1  0.999713  0.000287  0.000966  1
  Cd  Cd15  1  0.834144  0.165856  0.705732  1
  Sn  Sn16  1  0.834827  0.165173  0.274058  1
  Sn  Sn17  1  0.834926  0.668624  0.272845  1
  Sn  Sn18  1  0.331376  0.165074  0.272845  1
  Sn  Sn19  1  0.165317  0.834683  0.773308  1
  Sn  Sn20  1  0.173267  0.335015  0.776411  1
  Sn  Sn21  1  0.664985  0.826733  0.776411  1
  Sn  Sn22  1  0.662483  0.337517  0.734727  1
  Sn  Sn23  1  0.333276  0.666724  0.231266  1
