# generated using pymatgen
data_Cu2SCl
_symmetry_space_group_name_H-M   'P 1'
_cell_length_a   3.73261015
_cell_length_b   3.72147198
_cell_length_c   7.64160112
_cell_angle_alpha   118.34873459
_cell_angle_beta   90.80179742
_cell_angle_gamma   120.00968740
_symmetry_Int_Tables_number   1
_chemical_formula_structural   Cu2SCl
_chemical_formula_sum   'Cu2 S1 Cl1'
_cell_volume   76.36320261
_cell_formula_units_Z   1
loop_
 _symmetry_equiv_pos_site_id
 _symmetry_equiv_pos_as_xyz
  1  'x, y, z'
loop_
 _atom_site_type_symbol
 _atom_site_label
 _atom_site_symmetry_multiplicity
 _atom_site_fract_x
 _atom_site_fract_y
 _atom_site_fract_z
 _atom_site_occupancy
  Cu  Cu0  1  0.261142  0.717263  0.692785  1
  Cu  Cu1  1  0.254919  0.592815  0.124519  1
  S  S2  1  0.527279  0.144236  0.035647  1
  Cl  Cl3  1  0.496849  0.153653  0.527652  1
