# generated using pymatgen
data_Ho8Hg2RuRh
_symmetry_space_group_name_H-M   'P 1'
_cell_length_a   9.55935078
_cell_length_b   9.59611412
_cell_length_c   9.55934974
_cell_angle_alpha   59.87270826
_cell_angle_beta   59.86319704
_cell_angle_gamma   59.87270994
_symmetry_Int_Tables_number   1
_chemical_formula_structural   Ho8Hg2RuRh
_chemical_formula_sum   'Ho16 Hg4 Ru2 Rh2'
_cell_volume   618.22931558
_cell_formula_units_Z   2
loop_
 _symmetry_equiv_pos_site_id
 _symmetry_equiv_pos_as_xyz
  1  'x, y, z'
loop_
 _atom_site_type_symbol
 _atom_site_label
 _atom_site_symmetry_multiplicity
 _atom_site_fract_x
 _atom_site_fract_y
 _atom_site_fract_z
 _atom_site_occupancy
  Ho  Ho0  1  0.187692  0.188438  0.809538  1
  Ho  Ho1  1  0.598607  0.598813  0.203766  1
  Ho  Ho2  1  0.438751  0.061249  0.438751  1
  Ho  Ho3  1  0.438384  0.440801  0.061784  1
  Ho  Ho4  1  0.813204  0.186796  0.813204  1
  Ho  Ho5  1  0.188589  0.811411  0.188589  1
  Ho  Ho6  1  0.438384  0.059030  0.061784  1
  Ho  Ho7  1  0.187692  0.814333  0.809538  1
  Ho  Ho8  1  0.059023  0.440977  0.059023  1
  Ho  Ho9  1  0.809538  0.814333  0.187692  1
  Ho  Ho10  1  0.203766  0.598813  0.598607  1
  Ho  Ho11  1  0.061784  0.440801  0.438384  1
  Ho  Ho12  1  0.061784  0.059030  0.438384  1
  Ho  Ho13  1  0.809538  0.188438  0.187692  1
  Ho  Ho14  1  0.600195  0.199647  0.600195  1
  Ho  Ho15  1  0.600195  0.599964  0.600195  1
  Hg  Hg16  1  0.833849  0.834424  0.833849  1
  Hg  Hg17  1  0.834135  0.834627  0.496613  1
  Hg  Hg18  1  0.496613  0.834627  0.834135  1
  Hg  Hg19  1  0.833849  0.497877  0.833849  1
  Ru  Ru20  1  0.392763  0.826586  0.392763  1
  Ru  Ru21  1  0.392763  0.387887  0.392763  1
  Rh  Rh22  1  0.825420  0.390547  0.393485  1
  Rh  Rh23  1  0.393485  0.390547  0.825420  1
