# generated using pymatgen
data_Ti8In4Co3Au5
_symmetry_space_group_name_H-M   'P 1'
_cell_length_a   7.30373500
_cell_length_b   7.30373466
_cell_length_c   6.49576276
_cell_angle_alpha   89.91454976
_cell_angle_beta   89.91455107
_cell_angle_gamma   91.34497014
_symmetry_Int_Tables_number   1
_chemical_formula_structural   Ti8In4Co3Au5
_chemical_formula_sum   'Ti8 In4 Co3 Au5'
_cell_volume   346.41723669
_cell_formula_units_Z   1
loop_
 _symmetry_equiv_pos_site_id
 _symmetry_equiv_pos_as_xyz
  1  'x, y, z'
loop_
 _atom_site_type_symbol
 _atom_site_label
 _atom_site_symmetry_multiplicity
 _atom_site_fract_x
 _atom_site_fract_y
 _atom_site_fract_z
 _atom_site_occupancy
  Ti  Ti0  1  0.160440  0.160440  0.014301  1
  Ti  Ti1  1  0.817708  0.817708  0.998990  1
  Ti  Ti2  1  0.641550  0.372732  0.484236  1
  Ti  Ti3  1  0.372732  0.641550  0.484236  1
  Ti  Ti4  1  0.674849  0.355879  0.012361  1
  Ti  Ti5  1  0.355879  0.674849  0.012361  1
  Ti  Ti6  1  0.784927  0.784927  0.499522  1
  Ti  Ti7  1  0.205486  0.205486  0.476713  1
  In  In8  1  0.500223  0.006726  0.247775  1
  In  In9  1  0.499542  0.989882  0.746127  1
  In  In10  1  0.006726  0.500223  0.247775  1
  In  In11  1  0.989882  0.499542  0.746127  1
  Co  Co12  1  0.372236  0.372236  0.219329  1
  Co  Co13  1  0.629970  0.629970  0.785184  1
  Co  Co14  1  0.627504  0.627504  0.216850  1
  Au  Au15  1  0.864355  0.130186  0.729320  1
  Au  Au16  1  0.865366  0.129001  0.278951  1
  Au  Au17  1  0.371441  0.371441  0.791571  1
  Au  Au18  1  0.129001  0.865366  0.278951  1
  Au  Au19  1  0.130186  0.864355  0.729320  1
