# generated using pymatgen
data_PrNdRuO6
_symmetry_space_group_name_H-M   'P 1'
_cell_length_a   10.21380301
_cell_length_b   10.21380254
_cell_length_c   5.62400242
_cell_angle_alpha   75.01424667
_cell_angle_beta   75.01423720
_cell_angle_gamma   69.34603904
_symmetry_Int_Tables_number   1
_chemical_formula_structural   PrNdRuO6
_chemical_formula_sum   'Pr4 Nd4 Ru4 O24'
_cell_volume   521.15487506
_cell_formula_units_Z   4
loop_
 _symmetry_equiv_pos_site_id
 _symmetry_equiv_pos_as_xyz
  1  'x, y, z'
loop_
 _atom_site_type_symbol
 _atom_site_label
 _atom_site_symmetry_multiplicity
 _atom_site_fract_x
 _atom_site_fract_y
 _atom_site_fract_z
 _atom_site_occupancy
  Pr  Pr0  1  0.711616  0.934532  0.876082  1
  Pr  Pr1  1  0.288384  0.065468  0.123918  1
  Pr  Pr2  1  0.065468  0.288384  0.623918  1
  Pr  Pr3  1  0.934532  0.711616  0.376082  1
  Nd  Nd4  1  0.631834  0.368166  0.750000  1
  Nd  Nd5  1  0.368166  0.631834  0.250000  1
  Nd  Nd6  1  0.108293  0.891707  0.750000  1
  Nd  Nd7  1  0.891707  0.108293  0.250000  1
  Ru  Ru8  1  0.501297  0.797095  0.552347  1
  Ru  Ru9  1  0.498703  0.202905  0.447653  1
  Ru  Ru10  1  0.202905  0.498703  0.947653  1
  Ru  Ru11  1  0.797095  0.501297  0.052347  1
  O  O12  1  0.688873  0.164461  0.585154  1
  O  O13  1  0.311127  0.835539  0.414846  1
  O  O14  1  0.835539  0.311127  0.914846  1
  O  O15  1  0.164461  0.688873  0.085154  1
  O  O16  1  0.386836  0.828891  0.853852  1
  O  O17  1  0.613164  0.171109  0.146148  1
  O  O18  1  0.171109  0.613164  0.646148  1
  O  O19  1  0.828891  0.386836  0.353852  1
  O  O20  1  0.673934  0.783965  0.631425  1
  O  O21  1  0.326066  0.216035  0.368575  1
  O  O22  1  0.216035  0.326066  0.868575  1
  O  O23  1  0.783965  0.673934  0.131425  1
  O  O24  1  0.472857  0.072695  0.733074  1
  O  O25  1  0.527143  0.927305  0.266926  1
  O  O26  1  0.927305  0.527143  0.766926  1
  O  O27  1  0.072695  0.472857  0.233074  1
  O  O28  1  0.541002  0.614411  0.520442  1
  O  O29  1  0.458998  0.385589  0.479558  1
  O  O30  1  0.385589  0.458998  0.979558  1
  O  O31  1  0.614411  0.541002  0.020442  1
  O  O32  1  0.890605  0.924054  0.072479  1
  O  O33  1  0.109395  0.075946  0.927521  1
  O  O34  1  0.075946  0.109395  0.427521  1
  O  O35  1  0.924054  0.890605  0.572479  1
