# generated using pymatgen
data_Y3Ho2Co11(P3Ru2)4
_symmetry_space_group_name_H-M   'P 1'
_cell_length_a   12.24010039
_cell_length_b   12.26314203
_cell_length_c   3.73718600
_cell_angle_alpha   90.00000000
_cell_angle_beta   90.00000000
_cell_angle_gamma   119.97293147
_symmetry_Int_Tables_number   1
_chemical_formula_structural   Y3Ho2Co11(P3Ru2)4
_chemical_formula_sum   'Y3 Ho2 Co11 P12 Ru8'
_cell_volume   485.93756883
_cell_formula_units_Z   1
loop_
 _symmetry_equiv_pos_site_id
 _symmetry_equiv_pos_as_xyz
  1  'x, y, z'
loop_
 _atom_site_type_symbol
 _atom_site_label
 _atom_site_symmetry_multiplicity
 _atom_site_fract_x
 _atom_site_fract_y
 _atom_site_fract_z
 _atom_site_occupancy
  Y  Y0  1  0.667186  0.333225  0.000000  1
  Y  Y1  1  0.328705  0.663102  0.000000  1
  Y  Y2  1  0.819180  0.818822  0.500000  1
  Ho  Ho3  1  0.180380  0.000450  0.500000  1
  Ho  Ho4  1  0.000019  0.181316  0.500000  1
  Co  Co5  1  0.128240  0.481120  0.500000  1
  Co  Co6  1  0.803809  0.172520  0.000000  1
  Co  Co7  1  0.829651  0.629900  0.000000  1
  Co  Co8  1  0.367744  0.197270  0.000000  1
  Co  Co9  1  0.172333  0.802998  0.000000  1
  Co  Co10  1  0.630665  0.827830  0.000000  1
  Co  Co11  1  0.194457  0.372000  0.000000  1
  Co  Co12  1  0.279292  0.281863  0.500000  1
  Co  Co13  1  0.719102  0.000200  0.500000  1
  Co  Co14  1  0.001233  0.718260  0.500000  1
  Co  Co15  1  0.000555  0.999969  0.000000  1
  P  P16  1  0.686303  0.161582  0.500000  1
  P  P17  1  0.841185  0.524273  0.500000  1
  P  P18  1  0.474801  0.316281  0.500000  1
  P  P19  1  0.159371  0.680396  0.500000  1
  P  P20  1  0.523727  0.839752  0.500000  1
  P  P21  1  0.309722  0.475433  0.500000  1
  P  P22  1  0.177129  0.178949  0.000000  1
  P  P23  1  0.822269  0.000294  0.000000  1
  P  P24  1  0.000806  0.821693  0.000000  1
  P  P25  1  0.636438  0.637198  0.000000  1
  P  P26  1  0.361538  0.999710  0.000000  1
  P  P27  1  0.004139  0.363096  0.000000  1
  Ru  Ru28  1  0.877746  0.354451  0.500000  1
  Ru  Ru29  1  0.648013  0.519797  0.500000  1
  Ru  Ru30  1  0.480766  0.128895  0.500000  1
  Ru  Ru31  1  0.351345  0.870294  0.500000  1
  Ru  Ru32  1  0.515811  0.646366  0.500000  1
  Ru  Ru33  1  0.444131  0.445084  0.000000  1
  Ru  Ru34  1  0.554807  0.000093  0.000000  1
  Ru  Ru35  1  0.007403  0.555521  0.000000  1
