# generated using pymatgen
data_Pr6Ho2Sc12Si15Pb
_symmetry_space_group_name_H-M   'P 1'
_cell_length_a   7.26230437
_cell_length_b   7.53391636
_cell_length_c   14.27740312
_cell_angle_alpha   89.80689475
_cell_angle_beta   89.58275492
_cell_angle_gamma   90.31544431
_symmetry_Int_Tables_number   1
_chemical_formula_structural   Pr6Ho2Sc12Si15Pb
_chemical_formula_sum   'Pr6 Ho2 Sc12 Si15 Pb1'
_cell_volume   781.13093836
_cell_formula_units_Z   1
loop_
 _symmetry_equiv_pos_site_id
 _symmetry_equiv_pos_as_xyz
  1  'x, y, z'
loop_
 _atom_site_type_symbol
 _atom_site_label
 _atom_site_symmetry_multiplicity
 _atom_site_fract_x
 _atom_site_fract_y
 _atom_site_fract_z
 _atom_site_occupancy
  Pr  Pr0  1  0.010910  0.173014  0.098803  1
  Pr  Pr1  1  0.988486  0.828155  0.901512  1
  Pr  Pr2  1  0.490407  0.671311  0.904257  1
  Pr  Pr3  1  0.988509  0.832988  0.597975  1
  Pr  Pr4  1  0.510175  0.327920  0.097214  1
  Pr  Pr5  1  0.006013  0.166984  0.400049  1
  Ho  Ho6  1  0.512079  0.320342  0.397272  1
  Ho  Ho7  1  0.506468  0.686591  0.601624  1
  Sc  Sc8  1  0.162928  0.500892  0.755889  1
  Sc  Sc9  1  0.836297  0.499935  0.250454  1
  Sc  Sc10  1  0.338005  0.998198  0.250830  1
  Sc  Sc11  1  0.664376  0.002001  0.750548  1
  Sc  Sc12  1  0.346206  0.160981  0.631508  1
  Sc  Sc13  1  0.661423  0.822383  0.372679  1
  Sc  Sc14  1  0.163927  0.680847  0.370240  1
  Sc  Sc15  1  0.667633  0.824162  0.125676  1
  Sc  Sc16  1  0.818743  0.327624  0.624107  1
  Sc  Sc17  1  0.330154  0.173850  0.873592  1
  Sc  Sc18  1  0.830503  0.325009  0.874955  1
  Sc  Sc19  1  0.168450  0.675502  0.125839  1
  Si  Si20  1  0.034126  0.131154  0.749172  1
  Si  Si21  1  0.961557  0.874957  0.248489  1
  Si  Si22  1  0.462721  0.620448  0.250341  1
  Si  Si23  1  0.534324  0.379856  0.750452  1
  Si  Si24  1  0.293642  0.873742  0.750173  1
  Si  Si25  1  0.706218  0.119345  0.250047  1
  Si  Si26  1  0.211961  0.380882  0.251976  1
  Si  Si27  1  0.790043  0.620720  0.748638  1
  Si  Si28  1  0.824073  0.538600  0.456714  1
  Si  Si29  1  0.347709  0.963096  0.460437  1
  Si  Si30  1  0.848556  0.537461  0.040316  1
  Si  Si31  1  0.652946  0.039107  0.536569  1
  Si  Si32  1  0.150809  0.462679  0.961015  1
  Si  Si33  1  0.651026  0.037633  0.960880  1
  Si  Si34  1  0.347148  0.963186  0.039417  1
  Pb  Pb35  1  0.181449  0.458446  0.540340  1
