# generated using pymatgen
data_Lu11Hf(Si3Ir)4
_symmetry_space_group_name_H-M   'P 1'
_cell_length_a   4.15198600
_cell_length_b   10.45802335
_cell_length_c   12.02488000
_cell_angle_alpha   89.98522410
_cell_angle_beta   90.00000000
_cell_angle_gamma   90.00000000
_symmetry_Int_Tables_number   1
_chemical_formula_structural   Lu11Hf(Si3Ir)4
_chemical_formula_sum   'Lu11 Hf1 Si12 Ir4'
_cell_volume   522.13910954
_cell_formula_units_Z   1
loop_
 _symmetry_equiv_pos_site_id
 _symmetry_equiv_pos_as_xyz
  1  'x, y, z'
loop_
 _atom_site_type_symbol
 _atom_site_label
 _atom_site_symmetry_multiplicity
 _atom_site_fract_x
 _atom_site_fract_y
 _atom_site_fract_z
 _atom_site_occupancy
  Lu  Lu0  1  0.250000  0.621480  0.519792  1
  Lu  Lu1  1  0.750000  0.120676  0.980497  1
  Lu  Lu2  1  0.750000  0.379111  0.479786  1
  Lu  Lu3  1  0.250000  0.919881  0.603359  1
  Lu  Lu4  1  0.250000  0.581442  0.101182  1
  Lu  Lu5  1  0.750000  0.079769  0.396592  1
  Lu  Lu6  1  0.750000  0.420524  0.897763  1
  Lu  Lu7  1  0.250000  0.659069  0.801569  1
  Lu  Lu8  1  0.250000  0.840813  0.299828  1
  Lu  Lu9  1  0.750000  0.340381  0.199081  1
  Lu  Lu10  1  0.750000  0.158312  0.699948  1
  Hf  Hf11  1  0.250000  0.876667  0.020133  1
  Si  Si12  1  0.250000  0.010410  0.826636  1
  Si  Si13  1  0.250000  0.487753  0.321370  1
  Si  Si14  1  0.750000  0.984845  0.175338  1
  Si  Si15  1  0.750000  0.512712  0.678669  1
  Si  Si16  1  0.250000  0.247775  0.841144  1
  Si  Si17  1  0.250000  0.252173  0.340122  1
  Si  Si18  1  0.750000  0.754934  0.157710  1
  Si  Si19  1  0.750000  0.747736  0.659307  1
  Si  Si20  1  0.250000  0.196542  0.543713  1
  Si  Si21  1  0.250000  0.304375  0.043975  1
  Si  Si22  1  0.750000  0.803589  0.455992  1
  Si  Si23  1  0.750000  0.702265  0.957335  1
  Ir  Ir24  1  0.250000  0.389250  0.678267  1
  Ir  Ir25  1  0.250000  0.107396  0.178661  1
  Ir  Ir26  1  0.750000  0.611312  0.319161  1
  Ir  Ir27  1  0.750000  0.888807  0.823071  1
