# generated using pymatgen
data_Ac12Ni3RhI12
_symmetry_space_group_name_H-M   'P 1'
_cell_length_a   11.37295633
_cell_length_b   11.33835970
_cell_length_c   11.33836100
_cell_angle_alpha   109.40932550
_cell_angle_beta   109.53303294
_cell_angle_gamma   109.53304004
_symmetry_Int_Tables_number   1
_chemical_formula_structural   Ac12Ni3RhI12
_chemical_formula_sum   'Ac12 Ni3 Rh1 I12'
_cell_volume   1124.65715290
_cell_formula_units_Z   1
loop_
 _symmetry_equiv_pos_site_id
 _symmetry_equiv_pos_as_xyz
  1  'x, y, z'
loop_
 _atom_site_type_symbol
 _atom_site_label
 _atom_site_symmetry_multiplicity
 _atom_site_fract_x
 _atom_site_fract_y
 _atom_site_fract_z
 _atom_site_occupancy
  Ac  Ac0  1  0.458685  0.479949  0.229826  1
  Ac  Ac1  1  0.750000  0.228595  0.271405  1
  Ac  Ac2  1  0.750000  0.022483  0.477517  1
  Ac  Ac3  1  0.227517  0.455035  0.477517  1
  Ac  Ac4  1  0.271143  0.749878  0.229826  1
  Ac  Ac5  1  0.041315  0.270174  0.020051  1
  Ac  Ac6  1  0.021405  0.042808  0.271405  1
  Ac  Ac7  1  0.478735  0.749878  0.020051  1
  Ac  Ac8  1  0.478595  0.228595  0.457192  1
  Ac  Ac9  1  0.021265  0.479949  0.750122  1
  Ac  Ac10  1  0.272483  0.022483  0.044965  1
  Ac  Ac11  1  0.228857  0.270174  0.750122  1
  Ni  Ni12  1  0.250000  0.250173  0.249827  1
  Ni  Ni13  1  0.499827  0.999655  0.249827  1
  Ni  Ni14  1  0.000173  0.250173  0.500345  1
  Rh  Rh15  1  0.250000  0.500000  0.000000  1
  I  I16  1  0.250000  0.761783  0.738217  1
  I  I17  1  0.523210  0.510969  0.760717  1
  I  I18  1  0.976790  0.739283  0.989031  1
  I  I19  1  0.737507  0.249750  0.760717  1
  I  I20  1  0.988217  0.976436  0.738217  1
  I  I21  1  0.250000  0.988587  0.511413  1
  I  I22  1  0.761413  0.522826  0.511413  1
  I  I23  1  0.512243  0.249750  0.989031  1
  I  I24  1  0.762493  0.739283  0.250250  1
  I  I25  1  0.738587  0.988587  0.977174  1
  I  I26  1  0.987757  0.510969  0.250250  1
  I  I27  1  0.511783  0.761783  0.523564  1
