# generated using pymatgen
data_Tm6Lu10MgCd3Ir4
_symmetry_space_group_name_H-M   'P 1'
_cell_length_a   9.53271727
_cell_length_b   9.53271683
_cell_length_c   9.53271659
_cell_angle_alpha   59.34308994
_cell_angle_beta   59.34308878
_cell_angle_gamma   59.34308179
_symmetry_Int_Tables_number   1
_chemical_formula_structural   Tm6Lu10MgCd3Ir4
_chemical_formula_sum   'Tm6 Lu10 Mg1 Cd3 Ir4'
_cell_volume   603.38088979
_cell_formula_units_Z   1
loop_
 _symmetry_equiv_pos_site_id
 _symmetry_equiv_pos_as_xyz
  1  'x, y, z'
loop_
 _atom_site_type_symbol
 _atom_site_label
 _atom_site_symmetry_multiplicity
 _atom_site_fract_x
 _atom_site_fract_y
 _atom_site_fract_z
 _atom_site_occupancy
  Tm  Tm0  1  0.189345  0.812514  0.812514  1
  Tm  Tm1  1  0.812185  0.187991  0.187991  1
  Tm  Tm2  1  0.812514  0.189345  0.812514  1
  Tm  Tm3  1  0.187991  0.812185  0.187991  1
  Tm  Tm4  1  0.812514  0.812514  0.189345  1
  Tm  Tm5  1  0.187991  0.187991  0.812185  1
  Lu  Lu6  1  0.599739  0.599739  0.599739  1
  Lu  Lu7  1  0.598261  0.598261  0.206450  1
  Lu  Lu8  1  0.598261  0.206450  0.598261  1
  Lu  Lu9  1  0.206450  0.598261  0.598261  1
  Lu  Lu10  1  0.059326  0.439862  0.439862  1
  Lu  Lu11  1  0.437100  0.061722  0.061722  1
  Lu  Lu12  1  0.439862  0.059326  0.439862  1
  Lu  Lu13  1  0.061722  0.437100  0.061722  1
  Lu  Lu14  1  0.439862  0.439862  0.059326  1
  Lu  Lu15  1  0.061722  0.061722  0.437100  1
  Mg  Mg16  1  0.824946  0.824946  0.824946  1
  Cd  Cd17  1  0.831288  0.831288  0.504816  1
  Cd  Cd18  1  0.831288  0.504816  0.831288  1
  Cd  Cd19  1  0.504816  0.831288  0.831288  1
  Ir  Ir20  1  0.391547  0.391547  0.391547  1
  Ir  Ir21  1  0.392844  0.392844  0.825584  1
  Ir  Ir22  1  0.392844  0.825584  0.392844  1
  Ir  Ir23  1  0.825584  0.392844  0.392844  1
