# generated using pymatgen
data_LaSc5Pa2(ReB6)4
_symmetry_space_group_name_H-M   'P 1'
_cell_length_a   3.62799400
_cell_length_b   9.01154470
_cell_length_c   11.39727539
_cell_angle_alpha   90.17332114
_cell_angle_beta   90.00000000
_cell_angle_gamma   90.00000000
_symmetry_Int_Tables_number   1
_chemical_formula_structural   LaSc5Pa2(ReB6)4
_chemical_formula_sum   'La1 Sc5 Pa2 Re4 B24'
_cell_volume   372.61888024
_cell_formula_units_Z   1
loop_
 _symmetry_equiv_pos_site_id
 _symmetry_equiv_pos_as_xyz
  1  'x, y, z'
loop_
 _atom_site_type_symbol
 _atom_site_label
 _atom_site_symmetry_multiplicity
 _atom_site_fract_x
 _atom_site_fract_y
 _atom_site_fract_z
 _atom_site_occupancy
  La  La0  1  0.000000  0.821911  0.084871  1
  Sc  Sc1  1  0.000000  0.179005  0.913918  1
  Sc  Sc2  1  0.000000  0.946677  0.373443  1
  Sc  Sc3  1  0.000000  0.054979  0.627547  1
  Sc  Sc4  1  0.000000  0.442855  0.125194  1
  Sc  Sc5  1  0.000000  0.553719  0.873062  1
  Pa  Pa6  1  0.000000  0.319691  0.414502  1
  Pa  Pa7  1  0.000000  0.680088  0.586701  1
  Re  Re8  1  0.000000  0.636354  0.323307  1
  Re  Re9  1  0.000000  0.361185  0.680057  1
  Re  Re10  1  0.000000  0.145029  0.182647  1
  Re  Re11  1  0.000000  0.859351  0.814853  1
  B  B12  1  0.500000  0.554075  0.433727  1
  B  B13  1  0.500000  0.444477  0.568436  1
  B  B14  1  0.500000  0.058379  0.065694  1
  B  B15  1  0.500000  0.948914  0.929663  1
  B  B16  1  0.500000  0.753081  0.419741  1
  B  B17  1  0.500000  0.246478  0.582509  1
  B  B18  1  0.500000  0.253286  0.078337  1
  B  B19  1  0.500000  0.747212  0.915191  1
  B  B20  1  0.500000  0.792805  0.267154  1
  B  B21  1  0.500000  0.205424  0.737165  1
  B  B22  1  0.500000  0.294651  0.233926  1
  B  B23  1  0.500000  0.706070  0.763928  1
  B  B24  1  0.500000  0.626440  0.185125  1
  B  B25  1  0.500000  0.368364  0.818422  1
  B  B26  1  0.500000  0.130876  0.316803  1
  B  B27  1  0.500000  0.871707  0.682934  1
  B  B28  1  0.500000  0.984521  0.214796  1
  B  B29  1  0.500000  0.021108  0.786328  1
  B  B30  1  0.500000  0.480807  0.286330  1
  B  B31  1  0.500000  0.516956  0.715528  1
  B  B32  1  0.500000  0.593245  0.025290  1
  B  B33  1  0.500000  0.399356  0.972204  1
  B  B34  1  0.500000  0.100865  0.473142  1
  B  B35  1  0.500000  0.900056  0.527524  1
