# generated using pymatgen
data_K6SiMoS8
_symmetry_space_group_name_H-M   'P 1'
_cell_length_a   9.16869200
_cell_length_b   9.24971500
_cell_length_c   10.86855900
_cell_angle_alpha   90.00000000
_cell_angle_beta   90.00000000
_cell_angle_gamma   90.00000000
_symmetry_Int_Tables_number   1
_chemical_formula_structural   K6SiMoS8
_chemical_formula_sum   'K12 Si2 Mo2 S16'
_cell_volume   921.73844670
_cell_formula_units_Z   2
loop_
 _symmetry_equiv_pos_site_id
 _symmetry_equiv_pos_as_xyz
  1  'x, y, z'
loop_
 _atom_site_type_symbol
 _atom_site_label
 _atom_site_symmetry_multiplicity
 _atom_site_fract_x
 _atom_site_fract_y
 _atom_site_fract_z
 _atom_site_occupancy
  K  K0  1  0.027589  0.799458  0.450030  1
  K  K1  1  0.472411  0.299458  0.549970  1
  K  K2  1  0.570812  0.710602  0.040293  1
  K  K3  1  0.929188  0.210602  0.959707  1
  K  K4  1  0.929188  0.210602  0.540293  1
  K  K5  1  0.570812  0.710602  0.459707  1
  K  K6  1  0.472411  0.299458  0.950030  1
  K  K7  1  0.027589  0.799458  0.049970  1
  K  K8  1  0.131194  0.583987  0.750000  1
  K  K9  1  0.368806  0.083987  0.250000  1
  K  K10  1  0.646269  0.910402  0.750000  1
  K  K11  1  0.853731  0.410402  0.250000  1
  Si  Si12  1  0.776173  0.982776  0.250000  1
  Si  Si13  1  0.723827  0.482776  0.750000  1
  Mo  Mo14  1  0.281696  0.515155  0.250000  1
  Mo  Mo15  1  0.218304  0.015155  0.750000  1
  S  S16  1  0.795960  0.750389  0.250000  1
  S  S17  1  0.704040  0.250389  0.750000  1
  S  S18  1  0.300793  0.752655  0.250000  1
  S  S19  1  0.199207  0.252655  0.750000  1
  S  S20  1  0.997316  0.921144  0.750000  1
  S  S21  1  0.502684  0.421144  0.250000  1
  S  S22  1  0.507949  0.577271  0.750000  1
  S  S23  1  0.992051  0.077271  0.250000  1
  S  S24  1  0.333086  0.946137  0.582209  1
  S  S25  1  0.166914  0.446137  0.417791  1
  S  S26  1  0.837261  0.546913  0.913962  1
  S  S27  1  0.662739  0.046913  0.086038  1
  S  S28  1  0.662739  0.046913  0.413962  1
  S  S29  1  0.837261  0.546913  0.586038  1
  S  S30  1  0.166914  0.446137  0.082209  1
  S  S31  1  0.333086  0.946137  0.917791  1
