# generated using pymatgen
data_Cs2NaErBi2
_symmetry_space_group_name_H-M   'P 1'
_cell_length_a   10.56562984
_cell_length_b   10.56562980
_cell_length_c   10.56562912
_cell_angle_alpha   136.59288335
_cell_angle_beta   62.43339743
_cell_angle_gamma   137.41634542
_symmetry_Int_Tables_number   1
_chemical_formula_structural   Cs2NaErBi2
_chemical_formula_sum   'Cs4 Na2 Er2 Bi4'
_cell_volume   541.80233130
_cell_formula_units_Z   2
loop_
 _symmetry_equiv_pos_site_id
 _symmetry_equiv_pos_as_xyz
  1  'x, y, z'
loop_
 _atom_site_type_symbol
 _atom_site_label
 _atom_site_symmetry_multiplicity
 _atom_site_fract_x
 _atom_site_fract_y
 _atom_site_fract_z
 _atom_site_occupancy
  Cs  Cs0  1  0.825083  0.272367  0.097450  1
  Cs  Cs1  1  0.674916  0.772367  0.447284  1
  Cs  Cs2  1  0.325083  0.227633  0.552716  1
  Cs  Cs3  1  0.174917  0.727632  0.902549  1
  Na  Na4  1  0.750000  0.250000  0.500000  1
  Na  Na5  1  0.250000  0.750000  0.500000  1
  Er  Er6  1  0.250000  0.250000  0.000000  1
  Er  Er7  1  0.750001  0.750001  0.000000  1
  Bi  Bi8  1  0.404960  0.724367  0.129329  1
  Bi  Bi9  1  0.095039  0.224368  0.319407  1
  Bi  Bi10  1  0.904960  0.775632  0.680593  1
  Bi  Bi11  1  0.595039  0.275632  0.870671  1
