# generated using pymatgen
data_Lu8Al(ReB8)3
_symmetry_space_group_name_H-M   'P 1'
_cell_length_a   3.61520800
_cell_length_b   9.07375265
_cell_length_c   11.41035338
_cell_angle_alpha   89.79496082
_cell_angle_beta   90.00000000
_cell_angle_gamma   90.00000000
_symmetry_Int_Tables_number   1
_chemical_formula_structural   Lu8Al(ReB8)3
_chemical_formula_sum   'Lu8 Al1 Re3 B24'
_cell_volume   374.29716680
_cell_formula_units_Z   1
loop_
 _symmetry_equiv_pos_site_id
 _symmetry_equiv_pos_as_xyz
  1  'x, y, z'
loop_
 _atom_site_type_symbol
 _atom_site_label
 _atom_site_symmetry_multiplicity
 _atom_site_fract_x
 _atom_site_fract_y
 _atom_site_fract_z
 _atom_site_occupancy
  Lu  Lu0  1  0.500000  0.328299  0.418475  1
  Lu  Lu1  1  0.500000  0.677780  0.587877  1
  Lu  Lu2  1  0.500000  0.177806  0.907926  1
  Lu  Lu3  1  0.500000  0.817164  0.083915  1
  Lu  Lu4  1  0.500000  0.445907  0.130322  1
  Lu  Lu5  1  0.500000  0.555998  0.870725  1
  Lu  Lu6  1  0.500000  0.055839  0.628781  1
  Lu  Lu7  1  0.500000  0.939743  0.372066  1
  Al  Al8  1  0.500000  0.138494  0.177684  1
  Re  Re9  1  0.500000  0.860455  0.820705  1
  Re  Re10  1  0.500000  0.360878  0.679330  1
  Re  Re11  1  0.500000  0.639537  0.320611  1
  B  B12  1  0.000000  0.102567  0.470111  1
  B  B13  1  0.000000  0.899874  0.527429  1
  B  B14  1  0.000000  0.396042  0.972789  1
  B  B15  1  0.000000  0.599086  0.028113  1
  B  B16  1  0.000000  0.131924  0.318297  1
  B  B17  1  0.000000  0.869601  0.684689  1
  B  B18  1  0.000000  0.368420  0.815848  1
  B  B19  1  0.000000  0.630523  0.184341  1
  B  B20  1  0.000000  0.053444  0.064857  1
  B  B21  1  0.000000  0.947438  0.935093  1
  B  B22  1  0.000000  0.447123  0.566916  1
  B  B23  1  0.000000  0.553350  0.433734  1
  B  B24  1  0.000000  0.480594  0.288177  1
  B  B25  1  0.000000  0.518525  0.712817  1
  B  B26  1  0.000000  0.018651  0.787753  1
  B  B27  1  0.000000  0.981127  0.211825  1
  B  B28  1  0.000000  0.250900  0.078544  1
  B  B29  1  0.000000  0.749678  0.920384  1
  B  B30  1  0.000000  0.250072  0.580196  1
  B  B31  1  0.000000  0.750858  0.419210  1
  B  B32  1  0.000000  0.294547  0.237301  1
  B  B33  1  0.000000  0.707145  0.765347  1
  B  B34  1  0.000000  0.206294  0.734556  1
  B  B35  1  0.000000  0.794315  0.263256  1
