# generated using pymatgen
data_Tb2Dy4Al21Si3Os8
_symmetry_space_group_name_H-M   'P 1'
_cell_length_a   8.72002900
_cell_length_b   8.72002924
_cell_length_c   9.64930200
_cell_angle_alpha   89.99885241
_cell_angle_beta   90.00114760
_cell_angle_gamma   119.99758654
_symmetry_Int_Tables_number   1
_chemical_formula_structural   Tb2Dy4Al21Si3Os8
_chemical_formula_sum   'Tb2 Dy4 Al21 Si3 Os8'
_cell_volume   635.43767817
_cell_formula_units_Z   1
loop_
 _symmetry_equiv_pos_site_id
 _symmetry_equiv_pos_as_xyz
  1  'x, y, z'
loop_
 _atom_site_type_symbol
 _atom_site_label
 _atom_site_symmetry_multiplicity
 _atom_site_fract_x
 _atom_site_fract_y
 _atom_site_fract_z
 _atom_site_occupancy
  Tb  Tb0  1  0.194612  0.805388  0.247423  1
  Tb  Tb1  1  0.804944  0.195056  0.752938  1
  Dy  Dy2  1  0.194743  0.389404  0.247393  1
  Dy  Dy3  1  0.804788  0.609669  0.752942  1
  Dy  Dy4  1  0.610596  0.805257  0.247393  1
  Dy  Dy5  1  0.390331  0.195212  0.752942  1
  Al  Al6  1  0.333374  0.666626  0.476930  1
  Al  Al7  1  0.164226  0.328376  0.573734  1
  Al  Al8  1  0.834924  0.669923  0.424115  1
  Al  Al9  1  0.671624  0.835774  0.573734  1
  Al  Al10  1  0.834813  0.669709  0.076417  1
  Al  Al11  1  0.330077  0.165076  0.424115  1
  Al  Al12  1  0.165491  0.330896  0.923141  1
  Al  Al13  1  0.164177  0.835823  0.573783  1
  Al  Al14  1  0.330291  0.165187  0.076417  1
  Al  Al15  1  0.834976  0.165024  0.424067  1
  Al  Al16  1  0.669104  0.834509  0.923141  1
  Al  Al17  1  0.834867  0.165133  0.076477  1
  Al  Al18  1  0.165436  0.834564  0.923085  1
  Al  Al19  1  0.563670  0.127235  0.248777  1
  Al  Al20  1  0.436677  0.873459  0.748776  1
  Al  Al21  1  0.872765  0.436330  0.248777  1
  Al  Al22  1  0.126541  0.563323  0.748776  1
  Al  Al23  1  0.563563  0.436437  0.248777  1
  Al  Al24  1  0.436786  0.563214  0.748773  1
  Al  Al25  1  0.999967  0.000033  0.248933  1
  Al  Al26  1  0.000033  0.999967  0.749638  1
  Si  Si27  1  0.333403  0.666597  0.038656  1
  Si  Si28  1  0.666598  0.333402  0.962459  1
  Si  Si29  1  0.666602  0.333398  0.538766  1
  Os  Os30  1  0.499931  0.999875  0.998829  1
  Os  Os31  1  0.000125  0.500069  0.998829  1
  Os  Os32  1  0.504265  0.008532  0.501281  1
  Os  Os33  1  0.499941  0.500059  0.998825  1
  Os  Os34  1  0.991468  0.495735  0.501281  1
  Os  Os35  1  0.504271  0.495729  0.501288  1
  Os  Os36  1  0.000003  0.999997  0.998997  1
  Os  Os37  1  0.999999  0.000001  0.499369  1
