# generated using pymatgen
data_YLu2NiIr8
_symmetry_space_group_name_H-M   'P 1'
_cell_length_a   5.23645200
_cell_length_b   5.23645334
_cell_length_c   17.24607700
_cell_angle_alpha   90.00000000
_cell_angle_beta   90.00000000
_cell_angle_gamma   119.99999156
_symmetry_Int_Tables_number   1
_chemical_formula_structural   YLu2NiIr8
_chemical_formula_sum   'Y2 Lu4 Ni2 Ir16'
_cell_volume   409.53908349
_cell_formula_units_Z   2
loop_
 _symmetry_equiv_pos_site_id
 _symmetry_equiv_pos_as_xyz
  1  'x, y, z'
loop_
 _atom_site_type_symbol
 _atom_site_label
 _atom_site_symmetry_multiplicity
 _atom_site_fract_x
 _atom_site_fract_y
 _atom_site_fract_z
 _atom_site_occupancy
  Y  Y0  1  0.333330  0.666668  0.750000  1
  Y  Y1  1  0.666670  0.333332  0.250000  1
  Lu  Lu2  1  0.333334  0.666665  0.958879  1
  Lu  Lu3  1  0.666666  0.333335  0.041121  1
  Lu  Lu4  1  0.666666  0.333335  0.458879  1
  Lu  Lu5  1  0.333334  0.666665  0.541121  1
  Ni  Ni6  1  0.333289  0.666655  0.250000  1
  Ni  Ni7  1  0.666711  0.333345  0.750000  1
  Ir  Ir8  1  0.169054  0.830951  0.373824  1
  Ir  Ir9  1  0.169055  0.338104  0.373823  1
  Ir  Ir10  1  0.661898  0.830949  0.373823  1
  Ir  Ir11  1  0.830946  0.169049  0.626176  1
  Ir  Ir12  1  0.830945  0.661896  0.626177  1
  Ir  Ir13  1  0.338102  0.169051  0.626177  1
  Ir  Ir14  1  0.830946  0.169049  0.873824  1
  Ir  Ir15  1  0.830945  0.661896  0.873823  1
  Ir  Ir16  1  0.338102  0.169051  0.873823  1
  Ir  Ir17  1  0.169054  0.830951  0.126176  1
  Ir  Ir18  1  0.169055  0.338104  0.126177  1
  Ir  Ir19  1  0.661898  0.830949  0.126177  1
  Ir  Ir20  1  0.999986  0.999995  0.250000  1
  Ir  Ir21  1  0.000014  0.000005  0.750000  1
  Ir  Ir22  1  0.000000  0.000000  0.500000  1
  Ir  Ir23  1  0.000000  0.000000  0.000000  1
