# generated using pymatgen
data_Ce2Pu2CoNi3P4
_symmetry_space_group_name_H-M   'P 1'
_cell_length_a   3.93529900
_cell_length_b   3.93529847
_cell_length_c   15.55134200
_cell_angle_alpha   90.00000000
_cell_angle_beta   90.00000000
_cell_angle_gamma   120.00001290
_symmetry_Int_Tables_number   1
_chemical_formula_structural   Ce2Pu2CoNi3P4
_chemical_formula_sum   'Ce2 Pu2 Co1 Ni3 P4'
_cell_volume   208.57096910
_cell_formula_units_Z   1
loop_
 _symmetry_equiv_pos_site_id
 _symmetry_equiv_pos_as_xyz
  1  'x, y, z'
loop_
 _atom_site_type_symbol
 _atom_site_label
 _atom_site_symmetry_multiplicity
 _atom_site_fract_x
 _atom_site_fract_y
 _atom_site_fract_z
 _atom_site_occupancy
  Ce  Ce0  1  0.000000  0.000000  0.254376  1
  Ce  Ce1  1  0.000000  0.000000  0.749282  1
  Pu  Pu2  1  0.000000  0.000000  0.496470  1
  Pu  Pu3  1  0.000000  0.000000  0.000342  1
  Co  Co4  1  0.333333  0.666667  0.376875  1
  Ni  Ni5  1  0.666667  0.333333  0.622777  1
  Ni  Ni6  1  0.666667  0.333333  0.876238  1
  Ni  Ni7  1  0.333333  0.666667  0.123092  1
  P  P8  1  0.333333  0.666667  0.876018  1
  P  P9  1  0.666667  0.333333  0.123689  1
  P  P10  1  0.666667  0.333333  0.376948  1
  P  P11  1  0.333333  0.666667  0.623894  1
