# generated using pymatgen
data_Na2GaPIr2
_symmetry_space_group_name_H-M   'P 1'
_cell_length_a   4.09672100
_cell_length_b   4.09672100
_cell_length_c   6.95485600
_cell_angle_alpha   90.00000000
_cell_angle_beta   90.00000000
_cell_angle_gamma   90.00000000
_symmetry_Int_Tables_number   1
_chemical_formula_structural   Na2GaPIr2
_chemical_formula_sum   'Na2 Ga1 P1 Ir2'
_cell_volume   116.72420336
_cell_formula_units_Z   1
loop_
 _symmetry_equiv_pos_site_id
 _symmetry_equiv_pos_as_xyz
  1  'x, y, z'
loop_
 _atom_site_type_symbol
 _atom_site_label
 _atom_site_symmetry_multiplicity
 _atom_site_fract_x
 _atom_site_fract_y
 _atom_site_fract_z
 _atom_site_occupancy
  Na  Na0  1  0.499999  0.000000  0.352238  1
  Na  Na1  1  0.000000  0.499999  0.652616  1
  Ga  Ga2  1  0.000000  0.499999  0.202716  1
  P  P3  1  0.499999  0.000000  0.823077  1
  Ir  Ir4  1  0.000000  0.000000  0.984677  1
  Ir  Ir5  1  0.499999  0.499999  0.984677  1
