# generated using pymatgen
data_Pa2Al2CuTc
_symmetry_space_group_name_H-M   'P 1'
_cell_length_a   5.10995961
_cell_length_b   5.53507838
_cell_length_c   5.10995915
_cell_angle_alpha   62.46145353
_cell_angle_beta   63.00996699
_cell_angle_gamma   62.46146864
_symmetry_Int_Tables_number   1
_chemical_formula_structural   Pa2Al2CuTc
_chemical_formula_sum   'Pa2 Al2 Cu1 Tc1'
_cell_volume   108.20804942
_cell_formula_units_Z   1
loop_
 _symmetry_equiv_pos_site_id
 _symmetry_equiv_pos_as_xyz
  1  'x, y, z'
loop_
 _atom_site_type_symbol
 _atom_site_label
 _atom_site_symmetry_multiplicity
 _atom_site_fract_x
 _atom_site_fract_y
 _atom_site_fract_z
 _atom_site_occupancy
  Pa  Pa0  1  0.639716  0.584664  0.639716  1
  Pa  Pa1  1  0.360284  0.415336  0.360284  1
  Al  Al2  1  0.500000  0.000000  0.000000  1
  Al  Al3  1  0.000000  0.000000  0.500000  1
  Cu  Cu4  1  0.000000  0.000000  0.000000  1
  Tc  Tc5  1  0.000000  0.500000  0.000000  1
