# generated using pymatgen
data_DyMg3Ge6Ir7
_symmetry_space_group_name_H-M   'P 1'
_cell_length_a   7.16633016
_cell_length_b   7.16633068
_cell_length_c   7.16633133
_cell_angle_alpha   109.92958373
_cell_angle_beta   109.92958185
_cell_angle_gamma   109.92959334
_symmetry_Int_Tables_number   1
_chemical_formula_structural   DyMg3Ge6Ir7
_chemical_formula_sum   'Dy1 Mg3 Ge6 Ir7'
_cell_volume   278.40266939
_cell_formula_units_Z   1
loop_
 _symmetry_equiv_pos_site_id
 _symmetry_equiv_pos_as_xyz
  1  'x, y, z'
loop_
 _atom_site_type_symbol
 _atom_site_label
 _atom_site_symmetry_multiplicity
 _atom_site_fract_x
 _atom_site_fract_y
 _atom_site_fract_z
 _atom_site_occupancy
  Dy  Dy0  1  0.500000  0.500000  0.500000  1
  Mg  Mg1  1  0.000000  0.000000  0.500000  1
  Mg  Mg2  1  0.000000  0.500000  0.000000  1
  Mg  Mg3  1  0.500000  0.000000  0.000000  1
  Ge  Ge4  1  0.692901  0.692901  0.007639  1
  Ge  Ge5  1  0.307099  0.992361  0.307099  1
  Ge  Ge6  1  0.992361  0.307099  0.307099  1
  Ge  Ge7  1  0.307099  0.307099  0.992361  1
  Ge  Ge8  1  0.692901  0.007639  0.692901  1
  Ge  Ge9  1  0.007639  0.692901  0.692901  1
  Ir  Ir10  1  0.753974  0.246026  0.500000  1
  Ir  Ir11  1  0.753974  0.500000  0.246026  1
  Ir  Ir12  1  0.500000  0.246026  0.753974  1
  Ir  Ir13  1  0.246026  0.500000  0.753974  1
  Ir  Ir14  1  0.246026  0.753974  0.500000  1
  Ir  Ir15  1  0.500000  0.753974  0.246026  1
  Ir  Ir16  1  0.000000  0.000000  0.000000  1
