# generated using pymatgen
data_Li2Zr4Zn23Sn
_symmetry_space_group_name_H-M   'P 1'
_cell_length_a   8.55335167
_cell_length_b   8.98687361
_cell_length_c   8.98687376
_cell_angle_alpha   56.83249528
_cell_angle_beta   61.58433248
_cell_angle_gamma   61.58433672
_symmetry_Int_Tables_number   1
_chemical_formula_structural   Li2Zr4Zn23Sn
_chemical_formula_sum   'Li2 Zr4 Zn23 Sn1'
_cell_volume   486.30354933
_cell_formula_units_Z   1
loop_
 _symmetry_equiv_pos_site_id
 _symmetry_equiv_pos_as_xyz
  1  'x, y, z'
loop_
 _atom_site_type_symbol
 _atom_site_label
 _atom_site_symmetry_multiplicity
 _atom_site_fract_x
 _atom_site_fract_y
 _atom_site_fract_z
 _atom_site_occupancy
  Li  Li0  1  0.718946  0.281054  0.281054  1
  Li  Li1  1  0.281054  0.718946  0.718946  1
  Zr  Zr2  1  0.255917  0.744077  0.255915  1
  Zr  Zr3  1  0.744083  0.255923  0.744085  1
  Zr  Zr4  1  0.255917  0.255915  0.744077  1
  Zr  Zr5  1  0.744083  0.744085  0.255923  1
  Zn  Zn6  1  0.106320  0.138802  0.138802  1
  Zn  Zn7  1  0.893680  0.861198  0.861198  1
  Zn  Zn8  1  0.138797  0.106326  0.616066  1
  Zn  Zn9  1  0.138797  0.616066  0.106326  1
  Zn  Zn10  1  0.861203  0.893674  0.383934  1
  Zn  Zn11  1  0.861203  0.383934  0.893674  1
  Zn  Zn12  1  0.616063  0.138809  0.138809  1
  Zn  Zn13  1  0.383937  0.861191  0.861191  1
  Zn  Zn14  1  0.500000  0.000000  0.000000  1
  Zn  Zn15  1  0.000000  0.500000  0.500000  1
  Zn  Zn16  1  0.000000  0.500000  0.000000  1
  Zn  Zn17  1  0.500000  0.000000  0.500000  1
  Zn  Zn18  1  0.000000  0.000000  0.500000  1
  Zn  Zn19  1  0.500000  0.500000  0.000000  1
  Zn  Zn20  1  0.349899  0.350578  0.350578  1
  Zn  Zn21  1  0.650101  0.649422  0.649422  1
  Zn  Zn22  1  0.350575  0.349891  0.948942  1
  Zn  Zn23  1  0.350575  0.948942  0.349891  1
  Zn  Zn24  1  0.649425  0.650109  0.051058  1
  Zn  Zn25  1  0.649425  0.051058  0.650109  1
  Zn  Zn26  1  0.948949  0.350581  0.350581  1
  Zn  Zn27  1  0.051051  0.649419  0.649419  1
  Zn  Zn28  1  0.000000  0.000000  0.000000  1
  Sn  Sn29  1  0.500000  0.500000  0.500000  1
