# generated using pymatgen
data_Nd3Ho(TcB4)4
_symmetry_space_group_name_H-M   'P 1'
_cell_length_a   3.65587400
_cell_length_b   6.03876066
_cell_length_c   11.69165600
_cell_angle_alpha   90.13857305
_cell_angle_beta   90.00000000
_cell_angle_gamma   90.00000000
_symmetry_Int_Tables_number   1
_chemical_formula_structural   Nd3Ho(TcB4)4
_chemical_formula_sum   'Nd3 Ho1 Tc4 B16'
_cell_volume   258.11532753
_cell_formula_units_Z   1
loop_
 _symmetry_equiv_pos_site_id
 _symmetry_equiv_pos_as_xyz
  1  'x, y, z'
loop_
 _atom_site_type_symbol
 _atom_site_label
 _atom_site_symmetry_multiplicity
 _atom_site_fract_x
 _atom_site_fract_y
 _atom_site_fract_z
 _atom_site_occupancy
  Nd  Nd0  1  0.000000  0.125631  0.150522  1
  Nd  Nd1  1  0.000000  0.874278  0.848612  1
  Nd  Nd2  1  0.000000  0.625570  0.350159  1
  Ho  Ho3  1  0.000000  0.374491  0.649881  1
  Tc  Tc4  1  0.000000  0.132220  0.415611  1
  Tc  Tc5  1  0.000000  0.868625  0.587598  1
  Tc  Tc6  1  0.000000  0.630182  0.085581  1
  Tc  Tc7  1  0.000000  0.369309  0.911253  1
  B  B8  1  0.500000  0.476332  0.189719  1
  B  B9  1  0.500000  0.521861  0.806987  1
  B  B10  1  0.500000  0.976614  0.311174  1
  B  B11  1  0.500000  0.026362  0.690485  1
  B  B12  1  0.500000  0.282371  0.317538  1
  B  B13  1  0.500000  0.713328  0.683543  1
  B  B14  1  0.500000  0.782387  0.183533  1
  B  B15  1  0.500000  0.217603  0.813778  1
  B  B16  1  0.500000  0.362069  0.470504  1
  B  B17  1  0.500000  0.637686  0.533749  1
  B  B18  1  0.500000  0.860191  0.031441  1
  B  B19  1  0.500000  0.139797  0.966594  1
  B  B20  1  0.500000  0.387833  0.045057  1
  B  B21  1  0.500000  0.610961  0.952660  1
  B  B22  1  0.500000  0.889078  0.455776  1
  B  B23  1  0.500000  0.115225  0.548250  1
