# generated using pymatgen
data_HoScFe8Co4P7
_symmetry_space_group_name_H-M   'P 1'
_cell_length_a   8.93929412
_cell_length_b   8.90006225
_cell_length_c   3.57842100
_cell_angle_alpha   90.00000000
_cell_angle_beta   90.00000000
_cell_angle_gamma   119.94917423
_symmetry_Int_Tables_number   1
_chemical_formula_structural   HoScFe8Co4P7
_chemical_formula_sum   'Ho1 Sc1 Fe8 Co4 P7'
_cell_volume   246.68374586
_cell_formula_units_Z   1
loop_
 _symmetry_equiv_pos_site_id
 _symmetry_equiv_pos_as_xyz
  1  'x, y, z'
loop_
 _atom_site_type_symbol
 _atom_site_label
 _atom_site_symmetry_multiplicity
 _atom_site_fract_x
 _atom_site_fract_y
 _atom_site_fract_z
 _atom_site_occupancy
  Ho  Ho0  1  0.332230  0.666366  0.500000  1
  Sc  Sc1  1  0.002373  0.001001  0.000000  1
  Fe  Fe2  1  0.787519  0.177369  0.000000  1
  Fe  Fe3  1  0.393968  0.213425  0.000000  1
  Fe  Fe4  1  0.819095  0.607195  0.000000  1
  Fe  Fe5  1  0.229332  0.281096  0.500000  1
  Fe  Fe6  1  0.051597  0.771921  0.500000  1
  Fe  Fe7  1  0.537515  0.102068  0.500000  1
  Fe  Fe8  1  0.565716  0.461799  0.500000  1
  Fe  Fe9  1  0.894256  0.432798  0.500000  1
  Co  Co10  1  0.293774  0.901469  0.000000  1
  Co  Co11  1  0.607198  0.707319  0.000000  1
  Co  Co12  1  0.098361  0.393306  0.000000  1
  Co  Co13  1  0.720413  0.947849  0.500000  1
  P  P14  1  0.554078  0.927364  0.000000  1
  P  P15  1  0.370642  0.444082  0.000000  1
  P  P16  1  0.072068  0.629505  0.000000  1
  P  P17  1  0.956931  0.215854  0.500000  1
  P  P18  1  0.258986  0.045739  0.500000  1
  P  P19  1  0.786917  0.740130  0.500000  1
  P  P20  1  0.667030  0.332344  0.000000  1
