# generated using pymatgen
data_Na2GePd3
_symmetry_space_group_name_H-M   'P 1'
_cell_length_a   5.10746215
_cell_length_b   5.10746154
_cell_length_c   5.10746168
_cell_angle_alpha   67.31543902
_cell_angle_beta   67.31544116
_cell_angle_gamma   67.31544588
_symmetry_Int_Tables_number   1
_chemical_formula_structural   Na2GePd3
_chemical_formula_sum   'Na2 Ge1 Pd3'
_cell_volume   108.93661840
_cell_formula_units_Z   1
loop_
 _symmetry_equiv_pos_site_id
 _symmetry_equiv_pos_as_xyz
  1  'x, y, z'
loop_
 _atom_site_type_symbol
 _atom_site_label
 _atom_site_symmetry_multiplicity
 _atom_site_fract_x
 _atom_site_fract_y
 _atom_site_fract_z
 _atom_site_occupancy
  Na  Na0  1  0.878191  0.878191  0.878191  1
  Na  Na1  1  0.121809  0.121809  0.121809  1
  Ge  Ge2  1  0.500000  0.500000  0.500000  1
  Pd  Pd3  1  0.500000  0.500000  0.000000  1
  Pd  Pd4  1  0.000000  0.500000  0.500000  1
  Pd  Pd5  1  0.500000  0.000000  0.500000  1
