# generated using pymatgen
data_Pr17Y3Si15Hg
_symmetry_space_group_name_H-M   'P 1'
_cell_length_a   7.94368722
_cell_length_b   7.91234210
_cell_length_c   15.22742938
_cell_angle_alpha   90.05424074
_cell_angle_beta   89.61601774
_cell_angle_gamma   89.96190432
_symmetry_Int_Tables_number   1
_chemical_formula_structural   Pr17Y3Si15Hg
_chemical_formula_sum   'Pr17 Y3 Si15 Hg1'
_cell_volume   957.07008171
_cell_formula_units_Z   1
loop_
 _symmetry_equiv_pos_site_id
 _symmetry_equiv_pos_as_xyz
  1  'x, y, z'
loop_
 _atom_site_type_symbol
 _atom_site_label
 _atom_site_symmetry_multiplicity
 _atom_site_fract_x
 _atom_site_fract_y
 _atom_site_fract_z
 _atom_site_occupancy
  Pr  Pr0  1  0.693397  0.690641  0.498168  1
  Pr  Pr1  1  0.373494  0.012632  0.448565  1
  Pr  Pr2  1  0.491850  0.869751  0.699790  1
  Pr  Pr3  1  0.510816  0.123813  0.197633  1
  Pr  Pr4  1  0.877991  0.488476  0.300337  1
  Pr  Pr5  1  0.119303  0.517886  0.803546  1
  Pr  Pr6  1  0.626696  0.987632  0.951108  1
  Pr  Pr7  1  0.001478  0.382172  0.547431  1
  Pr  Pr8  1  0.990323  0.625977  0.053007  1
  Pr  Pr9  1  0.130086  0.980268  0.879311  1
  Pr  Pr10  1  0.520660  0.629991  0.126613  1
  Pr  Pr11  1  0.484267  0.376693  0.626947  1
  Pr  Pr12  1  0.628756  0.521231  0.876297  1
  Pr  Pr13  1  0.374079  0.481321  0.371214  1
  Pr  Pr14  1  0.872499  0.020629  0.375826  1
  Pr  Pr15  1  0.981816  0.127952  0.123595  1
  Pr  Pr16  1  0.010668  0.860763  0.620616  1
  Y  Y17  1  0.309629  0.310107  0.999882  1
  Y  Y18  1  0.191144  0.810755  0.249689  1
  Y  Y19  1  0.799862  0.186823  0.753001  1
  Si  Si20  1  0.329658  0.691405  0.954451  1
  Si  Si21  1  0.663567  0.302519  0.451106  1
  Si  Si22  1  0.695068  0.331246  0.047813  1
  Si  Si23  1  0.306350  0.669788  0.545337  1
  Si  Si24  1  0.809565  0.830625  0.203398  1
  Si  Si25  1  0.170913  0.192260  0.296893  1
  Si  Si26  1  0.832244  0.808499  0.798292  1
  Si  Si27  1  0.286606  0.923637  0.063220  1
  Si  Si28  1  0.576109  0.788632  0.309217  1
  Si  Si29  1  0.436800  0.210115  0.817839  1
  Si  Si30  1  0.786364  0.574271  0.692255  1
  Si  Si31  1  0.214495  0.422985  0.187308  1
  Si  Si32  1  0.710258  0.080677  0.562312  1
  Si  Si33  1  0.924680  0.288113  0.938630  1
  Si  Si34  1  0.082385  0.714511  0.435151  1
  Hg  Hg35  1  0.186119  0.165206  0.694202  1
