# generated using pymatgen
data_Dy6Er3TmPb6
_symmetry_space_group_name_H-M   'P 1'
_cell_length_a   6.58071700
_cell_length_b   9.04442775
_cell_length_c   9.04577301
_cell_angle_alpha   119.99563638
_cell_angle_beta   89.99978783
_cell_angle_gamma   90.00043985
_symmetry_Int_Tables_number   1
_chemical_formula_structural   Dy6Er3TmPb6
_chemical_formula_sum   'Dy6 Er3 Tm1 Pb6'
_cell_volume   466.28314836
_cell_formula_units_Z   1
loop_
 _symmetry_equiv_pos_site_id
 _symmetry_equiv_pos_as_xyz
  1  'x, y, z'
loop_
 _atom_site_type_symbol
 _atom_site_label
 _atom_site_symmetry_multiplicity
 _atom_site_fract_x
 _atom_site_fract_y
 _atom_site_fract_z
 _atom_site_occupancy
  Dy  Dy0  1  0.750024  0.238610  0.999981  1
  Dy  Dy1  1  0.750018  0.761306  0.761378  1
  Dy  Dy2  1  0.750016  0.999963  0.238638  1
  Dy  Dy3  1  0.249981  0.761370  0.999981  1
  Dy  Dy4  1  0.249975  0.238676  0.238638  1
  Dy  Dy5  1  0.249978  0.000074  0.761381  1
  Er  Er6  1  0.500007  0.333341  0.666736  1
  Er  Er7  1  0.499999  0.666615  0.333272  1
  Er  Er8  1  0.999999  0.666656  0.333265  1
  Tm  Tm9  1  0.999995  0.333388  0.666731  1
  Pb  Pb10  1  0.750052  0.605213  0.999936  1
  Pb  Pb11  1  0.750060  0.394674  0.394690  1
  Pb  Pb12  1  0.750061  0.000115  0.605375  1
  Pb  Pb13  1  0.249940  0.394725  0.999938  1
  Pb  Pb14  1  0.249951  0.605260  0.605373  1
  Pb  Pb15  1  0.249947  0.000015  0.394687  1
