# generated using pymatgen
data_SrLa2Tc4(P2O)2
_symmetry_space_group_name_H-M   'P 1'
_cell_length_a   4.12743198
_cell_length_b   4.12753596
_cell_length_c   14.08007323
_cell_angle_alpha   98.42226208
_cell_angle_beta   98.42268372
_cell_angle_gamma   89.89377263
_symmetry_Int_Tables_number   1
_chemical_formula_structural   SrLa2Tc4(P2O)2
_chemical_formula_sum   'Sr1 La2 Tc4 P4 O2'
_cell_volume   234.67667243
_cell_formula_units_Z   1
loop_
 _symmetry_equiv_pos_site_id
 _symmetry_equiv_pos_as_xyz
  1  'x, y, z'
loop_
 _atom_site_type_symbol
 _atom_site_label
 _atom_site_symmetry_multiplicity
 _atom_site_fract_x
 _atom_site_fract_y
 _atom_site_fract_z
 _atom_site_occupancy
  Sr  Sr0  1  0.999980  0.999986  0.999959  1
  La  La1  1  0.706668  0.706669  0.412603  1
  La  La2  1  0.293345  0.293342  0.587404  1
  Tc  Tc3  1  0.594953  0.094975  0.190008  1
  Tc  Tc4  1  0.094969  0.594949  0.190003  1
  Tc  Tc5  1  0.905028  0.405063  0.810003  1
  Tc  Tc6  1  0.405066  0.905022  0.809996  1
  P  P7  1  0.553176  0.553180  0.105747  1
  P  P8  1  0.136521  0.136523  0.273715  1
  P  P9  1  0.863484  0.863480  0.726318  1
  P  P10  1  0.446794  0.446796  0.894217  1
  O  O11  1  0.750198  0.249822  0.500010  1
  O  O12  1  0.249825  0.750201  0.500013  1
