# generated using pymatgen
data_La2DyNiSn3Pt2
_symmetry_space_group_name_H-M   'P 1'
_cell_length_a   7.65572757
_cell_length_b   7.65058925
_cell_length_c   4.05853900
_cell_angle_alpha   90.00000000
_cell_angle_beta   90.00000000
_cell_angle_gamma   119.97778946
_symmetry_Int_Tables_number   1
_chemical_formula_structural   La2DyNiSn3Pt2
_chemical_formula_sum   'La2 Dy1 Ni1 Sn3 Pt2'
_cell_volume   205.91067723
_cell_formula_units_Z   1
loop_
 _symmetry_equiv_pos_site_id
 _symmetry_equiv_pos_as_xyz
  1  'x, y, z'
loop_
 _atom_site_type_symbol
 _atom_site_label
 _atom_site_symmetry_multiplicity
 _atom_site_fract_x
 _atom_site_fract_y
 _atom_site_fract_z
 _atom_site_occupancy
  La  La0  1  0.411973  0.411750  0.500000  1
  La  La1  1  0.588027  0.999777  0.500000  1
  Dy  Dy2  1  0.000000  0.593603  0.500000  1
  Ni  Ni3  1  0.000000  0.994181  0.500000  1
  Sn  Sn4  1  0.762046  0.756918  0.000000  1
  Sn  Sn5  1  0.237954  0.994872  0.000000  1
  Sn  Sn6  1  0.000000  0.243475  0.000000  1
  Pt  Pt7  1  0.679088  0.342256  0.000000  1
  Pt  Pt8  1  0.320912  0.663168  0.000000  1
