# generated using pymatgen
data_Sc2Tc3B4
_symmetry_space_group_name_H-M   'P 1'
_cell_length_a   6.08201300
_cell_length_b   6.08201300
_cell_length_c   11.22672500
_cell_angle_alpha   90.00000000
_cell_angle_beta   90.00000000
_cell_angle_gamma   90.00000000
_symmetry_Int_Tables_number   1
_chemical_formula_structural   Sc2Tc3B4
_chemical_formula_sum   'Sc8 Tc12 B16'
_cell_volume   415.28646121
_cell_formula_units_Z   4
loop_
 _symmetry_equiv_pos_site_id
 _symmetry_equiv_pos_as_xyz
  1  'x, y, z'
loop_
 _atom_site_type_symbol
 _atom_site_label
 _atom_site_symmetry_multiplicity
 _atom_site_fract_x
 _atom_site_fract_y
 _atom_site_fract_z
 _atom_site_occupancy
  Sc  Sc0  1  0.995466  0.653319  0.039814  1
  Sc  Sc1  1  0.004534  0.346681  0.539814  1
  Sc  Sc2  1  0.346681  0.004534  0.460186  1
  Sc  Sc3  1  0.153319  0.504534  0.789814  1
  Sc  Sc4  1  0.846681  0.495466  0.289814  1
  Sc  Sc5  1  0.504534  0.153319  0.210186  1
  Sc  Sc6  1  0.495466  0.846681  0.710186  1
  Sc  Sc7  1  0.653319  0.995466  0.960186  1
  Tc  Tc8  1  0.674569  0.674569  0.500000  1
  Tc  Tc9  1  0.174569  0.825431  0.250000  1
  Tc  Tc10  1  0.325431  0.325431  0.000000  1
  Tc  Tc11  1  0.004917  0.851306  0.625423  1
  Tc  Tc12  1  0.995083  0.148694  0.125423  1
  Tc  Tc13  1  0.851306  0.004917  0.374577  1
  Tc  Tc14  1  0.351306  0.495083  0.375423  1
  Tc  Tc15  1  0.648694  0.504917  0.875423  1
  Tc  Tc16  1  0.495083  0.351306  0.624577  1
  Tc  Tc17  1  0.504917  0.648694  0.124577  1
  Tc  Tc18  1  0.148694  0.995083  0.874577  1
  Tc  Tc19  1  0.825431  0.174569  0.750000  1
  B  B20  1  0.063602  0.710029  0.443130  1
  B  B21  1  0.641964  0.288666  0.442144  1
  B  B22  1  0.358036  0.711334  0.942144  1
  B  B23  1  0.211334  0.141964  0.692144  1
  B  B24  1  0.288666  0.641964  0.557856  1
  B  B25  1  0.711334  0.358036  0.057856  1
  B  B26  1  0.788666  0.858036  0.192144  1
  B  B27  1  0.141964  0.211334  0.307856  1
  B  B28  1  0.936398  0.289971  0.943130  1
  B  B29  1  0.710029  0.063602  0.556870  1
  B  B30  1  0.210029  0.436398  0.193130  1
  B  B31  1  0.789971  0.563602  0.693130  1
  B  B32  1  0.436398  0.210029  0.806870  1
  B  B33  1  0.563602  0.789971  0.306870  1
  B  B34  1  0.289971  0.936398  0.056870  1
  B  B35  1  0.858036  0.788666  0.807856  1
