# generated using pymatgen
data_Eu8Sb5I
_symmetry_space_group_name_H-M   'P 1'
_cell_length_a   8.48180284
_cell_length_b   8.48180293
_cell_length_c   8.48180238
_cell_angle_alpha   109.42702264
_cell_angle_beta   109.55963468
_cell_angle_gamma   109.42704458
_symmetry_Int_Tables_number   1
_chemical_formula_structural   Eu8Sb5I
_chemical_formula_sum   'Eu8 Sb5 I1'
_cell_volume   469.72298634
_cell_formula_units_Z   1
loop_
 _symmetry_equiv_pos_site_id
 _symmetry_equiv_pos_as_xyz
  1  'x, y, z'
loop_
 _atom_site_type_symbol
 _atom_site_label
 _atom_site_symmetry_multiplicity
 _atom_site_fract_x
 _atom_site_fract_y
 _atom_site_fract_z
 _atom_site_occupancy
  Eu  Eu0  1  0.635104  0.508640  0.994422  1
  Eu  Eu1  1  0.485782  0.991360  0.626463  1
  Eu  Eu2  1  0.002870  0.657757  0.509887  1
  Eu  Eu3  1  0.852131  0.842243  0.845114  1
  Eu  Eu4  1  0.490113  0.992983  0.147869  1
  Eu  Eu5  1  0.154886  0.507017  0.997130  1
  Eu  Eu6  1  0.005578  0.140681  0.514218  1
  Eu  Eu7  1  0.373537  0.359319  0.364896  1
  Sb  Sb8  1  0.625000  0.750000  0.375000  1
  Sb  Sb9  1  0.254697  0.128929  0.884711  1
  Sb  Sb10  1  0.755782  0.371071  0.625769  1
  Sb  Sb11  1  0.115289  0.869987  0.244218  1
  Sb  Sb12  1  0.374231  0.630013  0.745303  1
  I  I13  1  0.875000  0.250000  0.125000  1
