# generated using pymatgen
data_LiNd7ThRh6
_symmetry_space_group_name_H-M   'P 1'
_cell_length_a   7.65394356
_cell_length_b   7.65394448
_cell_length_c   7.65394420
_cell_angle_alpha   69.57555024
_cell_angle_beta   69.57554495
_cell_angle_gamma   69.57554498
_symmetry_Int_Tables_number   1
_chemical_formula_structural   LiNd7ThRh6
_chemical_formula_sum   'Li1 Nd7 Th1 Rh6'
_cell_volume   380.37957384
_cell_formula_units_Z   1
loop_
 _symmetry_equiv_pos_site_id
 _symmetry_equiv_pos_as_xyz
  1  'x, y, z'
loop_
 _atom_site_type_symbol
 _atom_site_label
 _atom_site_symmetry_multiplicity
 _atom_site_fract_x
 _atom_site_fract_y
 _atom_site_fract_z
 _atom_site_occupancy
  Li  Li0  1  0.000465  0.000465  0.000465  1
  Nd  Nd1  1  0.188567  0.188567  0.188567  1
  Nd  Nd2  1  0.147970  0.378849  0.678059  1
  Nd  Nd3  1  0.678059  0.147970  0.378849  1
  Nd  Nd4  1  0.378849  0.678059  0.147970  1
  Nd  Nd5  1  0.853591  0.615096  0.326674  1
  Nd  Nd6  1  0.326674  0.853591  0.615096  1
  Nd  Nd7  1  0.615096  0.326674  0.853591  1
  Th  Th8  1  0.814110  0.814110  0.814110  1
  Rh  Rh9  1  0.947326  0.169556  0.582137  1
  Rh  Rh10  1  0.582137  0.947326  0.169556  1
  Rh  Rh11  1  0.169556  0.582137  0.947326  1
  Rh  Rh12  1  0.043079  0.812896  0.441625  1
  Rh  Rh13  1  0.441625  0.043079  0.812896  1
  Rh  Rh14  1  0.812896  0.441625  0.043079  1
