# generated using pymatgen
data_Ac3SiCl3
_symmetry_space_group_name_H-M   'P 1'
_cell_length_a   10.85412998
_cell_length_b   10.85413070
_cell_length_c   10.85413000
_cell_angle_alpha   109.47121746
_cell_angle_beta   109.47121880
_cell_angle_gamma   109.47122112
_symmetry_Int_Tables_number   1
_chemical_formula_structural   Ac3SiCl3
_chemical_formula_sum   'Ac12 Si4 Cl12'
_cell_volume   984.38098777
_cell_formula_units_Z   4
loop_
 _symmetry_equiv_pos_site_id
 _symmetry_equiv_pos_as_xyz
  1  'x, y, z'
loop_
 _atom_site_type_symbol
 _atom_site_label
 _atom_site_symmetry_multiplicity
 _atom_site_fract_x
 _atom_site_fract_y
 _atom_site_fract_z
 _atom_site_occupancy
  Ac  Ac0  1  0.484148  0.492074  0.242074  1
  Ac  Ac1  1  0.750000  0.242074  0.257926  1
  Ac  Ac2  1  0.750000  0.007926  0.492074  1
  Ac  Ac3  1  0.242074  0.484148  0.492074  1
  Ac  Ac4  1  0.257926  0.750000  0.242074  1
  Ac  Ac5  1  0.015852  0.257926  0.007926  1
  Ac  Ac6  1  0.007926  0.015852  0.257926  1
  Ac  Ac7  1  0.492074  0.750000  0.007926  1
  Ac  Ac8  1  0.492074  0.242074  0.484148  1
  Ac  Ac9  1  0.007926  0.492074  0.750000  1
  Ac  Ac10  1  0.257926  0.007926  0.015852  1
  Ac  Ac11  1  0.242074  0.257926  0.750000  1
  Si  Si12  1  0.250000  0.250000  0.250000  1
  Si  Si13  1  0.500000  0.000000  0.250000  1
  Si  Si14  1  0.000000  0.250000  0.500000  1
  Si  Si15  1  0.250000  0.500000  0.000000  1
  Cl  Cl16  1  0.250000  0.746792  0.753208  1
  Cl  Cl17  1  0.493584  0.496792  0.746792  1
  Cl  Cl18  1  0.006416  0.753208  0.003208  1
  Cl  Cl19  1  0.753208  0.250000  0.746792  1
  Cl  Cl20  1  0.003208  0.006416  0.753208  1
  Cl  Cl21  1  0.250000  0.003208  0.496792  1
  Cl  Cl22  1  0.746792  0.493584  0.496792  1
  Cl  Cl23  1  0.496792  0.250000  0.003208  1
  Cl  Cl24  1  0.746792  0.753208  0.250000  1
  Cl  Cl25  1  0.753208  0.003208  0.006416  1
  Cl  Cl26  1  0.003208  0.496792  0.250000  1
  Cl  Cl27  1  0.496792  0.746792  0.493584  1
