# generated using pymatgen
data_SmNiHgPt3
_symmetry_space_group_name_H-M   'P 1'
_cell_length_a   5.23452191
_cell_length_b   5.23452139
_cell_length_c   5.23452203
_cell_angle_alpha   62.55045361
_cell_angle_beta   62.55043775
_cell_angle_gamma   62.55045998
_symmetry_Int_Tables_number   1
_chemical_formula_structural   SmNiHgPt3
_chemical_formula_sum   'Sm1 Ni1 Hg1 Pt3'
_cell_volume   107.18040411
_cell_formula_units_Z   1
loop_
 _symmetry_equiv_pos_site_id
 _symmetry_equiv_pos_as_xyz
  1  'x, y, z'
loop_
 _atom_site_type_symbol
 _atom_site_label
 _atom_site_symmetry_multiplicity
 _atom_site_fract_x
 _atom_site_fract_y
 _atom_site_fract_z
 _atom_site_occupancy
  Sm  Sm0  1  0.249461  0.249461  0.249461  1
  Ni  Ni1  1  0.626490  0.626490  0.626490  1
  Hg  Hg2  1  0.997357  0.997357  0.997357  1
  Pt  Pt3  1  0.626208  0.626208  0.124276  1
  Pt  Pt4  1  0.626208  0.124276  0.626208  1
  Pt  Pt5  1  0.124276  0.626208  0.626208  1
