# generated using pymatgen
data_SrNdTh(As2Pd3)3
_symmetry_space_group_name_H-M   'P 1'
_cell_length_a   4.14344600
_cell_length_b   8.70196720
_cell_length_c   10.16198561
_cell_angle_alpha   107.04410028
_cell_angle_beta   90.00000000
_cell_angle_gamma   103.77296097
_symmetry_Int_Tables_number   1
_chemical_formula_structural   SrNdTh(As2Pd3)3
_chemical_formula_sum   'Sr1 Nd1 Th1 As6 Pd9'
_cell_volume   339.27471652
_cell_formula_units_Z   1
loop_
 _symmetry_equiv_pos_site_id
 _symmetry_equiv_pos_as_xyz
  1  'x, y, z'
loop_
 _atom_site_type_symbol
 _atom_site_label
 _atom_site_symmetry_multiplicity
 _atom_site_fract_x
 _atom_site_fract_y
 _atom_site_fract_z
 _atom_site_occupancy
  Sr  Sr0  1  0.846076  0.692152  0.295970  1
  Nd  Nd1  1  0.153277  0.306554  0.701803  1
  Th  Th2  1  0.000543  0.001085  0.998851  1
  As  As3  1  0.800141  0.600283  0.868984  1
  As  As4  1  0.197851  0.395701  0.130228  1
  As  As5  1  0.538407  0.076814  0.791028  1
  As  As6  1  0.463803  0.927606  0.203436  1
  As  As7  1  0.636170  0.272341  0.453881  1
  As  As8  1  0.364285  0.728570  0.546875  1
  Pd  Pd9  1  0.955263  0.910526  0.671284  1
  Pd  Pd10  1  0.045018  0.090036  0.331391  1
  Pd  Pd11  1  0.777295  0.554588  0.609963  1
  Pd  Pd12  1  0.221257  0.442514  0.395750  1
  Pd  Pd13  1  0.374372  0.748745  0.795602  1
  Pd  Pd14  1  0.624939  0.249878  0.202407  1
  Pd  Pd15  1  0.503770  0.007541  0.508465  1
  Pd  Pd16  1  0.678775  0.357550  0.966752  1
  Pd  Pd17  1  0.318758  0.637516  0.027329  1
