# generated using pymatgen
data_Yb6TmPu(Si3Pd)4
_symmetry_space_group_name_H-M   'P 1'
_cell_length_a   8.25850600
_cell_length_b   8.25850464
_cell_length_c   8.14901300
_cell_angle_alpha   90.00000000
_cell_angle_beta   90.00000000
_cell_angle_gamma   119.99999744
_symmetry_Int_Tables_number   1
_chemical_formula_structural   Yb6TmPu(Si3Pd)4
_chemical_formula_sum   'Yb6 Tm1 Pu1 Si12 Pd4'
_cell_volume   481.32515494
_cell_formula_units_Z   1
loop_
 _symmetry_equiv_pos_site_id
 _symmetry_equiv_pos_as_xyz
  1  'x, y, z'
loop_
 _atom_site_type_symbol
 _atom_site_label
 _atom_site_symmetry_multiplicity
 _atom_site_fract_x
 _atom_site_fract_y
 _atom_site_fract_z
 _atom_site_occupancy
  Yb  Yb0  1  0.501335  0.002670  0.250000  1
  Yb  Yb1  1  0.498646  0.997292  0.750000  1
  Yb  Yb2  1  0.997330  0.498665  0.250000  1
  Yb  Yb3  1  0.002708  0.501354  0.750000  1
  Yb  Yb4  1  0.501335  0.498665  0.250000  1
  Yb  Yb5  1  0.498646  0.501354  0.750000  1
  Tm  Tm6  1  0.000000  0.000000  0.250000  1
  Pu  Pu7  1  0.000000  0.000000  0.750000  1
  Si  Si8  1  0.163713  0.327425  0.001298  1
  Si  Si9  1  0.836285  0.672571  0.999009  1
  Si  Si10  1  0.672575  0.836287  0.001298  1
  Si  Si11  1  0.836285  0.672571  0.500991  1
  Si  Si12  1  0.327429  0.163715  0.999009  1
  Si  Si13  1  0.163713  0.327425  0.498702  1
  Si  Si14  1  0.163713  0.836287  0.001298  1
  Si  Si15  1  0.327429  0.163715  0.500991  1
  Si  Si16  1  0.836285  0.163715  0.999009  1
  Si  Si17  1  0.672575  0.836287  0.498702  1
  Si  Si18  1  0.836285  0.163715  0.500991  1
  Si  Si19  1  0.163713  0.836287  0.498702  1
  Pd  Pd20  1  0.333333  0.666667  0.003426  1
  Pd  Pd21  1  0.666667  0.333333  0.998228  1
  Pd  Pd22  1  0.666667  0.333333  0.501772  1
  Pd  Pd23  1  0.333333  0.666667  0.496574  1
