# generated using pymatgen
data_Mg4Zn3SbRh8
_symmetry_space_group_name_H-M   'P 1'
_cell_length_a   6.16441700
_cell_length_b   6.16443900
_cell_length_c   6.22762200
_cell_angle_alpha   90.00126685
_cell_angle_beta   90.00056404
_cell_angle_gamma   90.00072497
_symmetry_Int_Tables_number   1
_chemical_formula_structural   Mg4Zn3SbRh8
_chemical_formula_sum   'Mg4 Zn3 Sb1 Rh8'
_cell_volume   236.65071064
_cell_formula_units_Z   1
loop_
 _symmetry_equiv_pos_site_id
 _symmetry_equiv_pos_as_xyz
  1  'x, y, z'
loop_
 _atom_site_type_symbol
 _atom_site_label
 _atom_site_symmetry_multiplicity
 _atom_site_fract_x
 _atom_site_fract_y
 _atom_site_fract_z
 _atom_site_occupancy
  Mg  Mg0  1  0.750042  0.249977  0.999943  1
  Mg  Mg1  1  0.249965  0.750007  0.999935  1
  Mg  Mg2  1  0.250232  0.749984  0.500006  1
  Mg  Mg3  1  0.749888  0.250008  0.500020  1
  Zn  Zn4  1  0.249801  0.249992  0.000000  1
  Zn  Zn5  1  0.750147  0.750000  0.999986  1
  Zn  Zn6  1  0.749806  0.750005  0.500011  1
  Sb  Sb7  1  0.250152  0.250015  0.500008  1
  Rh  Rh8  1  0.501553  0.998454  0.248953  1
  Rh  Rh9  1  0.501552  0.501542  0.248952  1
  Rh  Rh10  1  0.998431  0.998411  0.249231  1
  Rh  Rh11  1  0.998435  0.501577  0.249233  1
  Rh  Rh12  1  0.998468  0.998454  0.750798  1
  Rh  Rh13  1  0.998449  0.501561  0.750788  1
  Rh  Rh14  1  0.501534  0.998474  0.751071  1
  Rh  Rh15  1  0.501546  0.501532  0.751062  1
