# generated using pymatgen
data_Sr4CdBi2PbO12
_symmetry_space_group_name_H-M   'P 1'
_cell_length_a   5.94740498
_cell_length_b   6.09989565
_cell_length_c   8.47266531
_cell_angle_alpha   89.85616380
_cell_angle_beta   89.68809773
_cell_angle_gamma   90.10952805
_symmetry_Int_Tables_number   1
_chemical_formula_structural   Sr4CdBi2PbO12
_chemical_formula_sum   'Sr4 Cd1 Bi2 Pb1 O12'
_cell_volume   307.36991767
_cell_formula_units_Z   1
loop_
 _symmetry_equiv_pos_site_id
 _symmetry_equiv_pos_as_xyz
  1  'x, y, z'
loop_
 _atom_site_type_symbol
 _atom_site_label
 _atom_site_symmetry_multiplicity
 _atom_site_fract_x
 _atom_site_fract_y
 _atom_site_fract_z
 _atom_site_occupancy
  Sr  Sr0  1  0.983952  0.446860  0.237577  1
  Sr  Sr1  1  0.513937  0.952822  0.240689  1
  Sr  Sr2  1  0.486063  0.047178  0.759311  1
  Sr  Sr3  1  0.016048  0.553140  0.762423  1
  Cd  Cd4  1  0.000000  0.000000  0.000000  1
  Bi  Bi5  1  0.500000  0.500000  0.000000  1
  Bi  Bi6  1  0.000000  0.000000  0.500000  1
  Pb  Pb7  1  0.500000  0.500000  0.500000  1
  O  O8  1  0.897844  0.959547  0.735514  1
  O  O9  1  0.794415  0.715644  0.432722  1
  O  O10  1  0.790224  0.692009  0.042494  1
  O  O11  1  0.710358  0.209385  0.439290  1
  O  O12  1  0.689531  0.213594  0.048072  1
  O  O13  1  0.603227  0.459680  0.748111  1
  O  O14  1  0.396773  0.540320  0.251889  1
  O  O15  1  0.310469  0.786406  0.951928  1
  O  O16  1  0.289642  0.790615  0.560710  1
  O  O17  1  0.209776  0.307991  0.957506  1
  O  O18  1  0.205585  0.284356  0.567278  1
  O  O19  1  0.102156  0.040453  0.264486  1
