# generated using pymatgen
data_Ho2Zr3Sc3(P3Ir4)4
_symmetry_space_group_name_H-M   'P 1'
_cell_length_a   12.83644700
_cell_length_b   12.83644571
_cell_length_c   3.93796900
_cell_angle_alpha   90.00000000
_cell_angle_beta   90.00000000
_cell_angle_gamma   120.00000074
_symmetry_Int_Tables_number   1
_chemical_formula_structural   Ho2Zr3Sc3(P3Ir4)4
_chemical_formula_sum   'Ho2 Zr3 Sc3 P12 Ir16'
_cell_volume   561.94335752
_cell_formula_units_Z   1
loop_
 _symmetry_equiv_pos_site_id
 _symmetry_equiv_pos_as_xyz
  1  'x, y, z'
loop_
 _atom_site_type_symbol
 _atom_site_label
 _atom_site_symmetry_multiplicity
 _atom_site_fract_x
 _atom_site_fract_y
 _atom_site_fract_z
 _atom_site_occupancy
  Ho  Ho0  1  0.333333  0.666667  0.000000  1
  Ho  Ho1  1  0.666667  0.333333  0.000000  1
  Zr  Zr2  1  0.449630  0.000000  0.000000  1
  Zr  Zr3  1  0.000000  0.449630  0.000000  1
  Zr  Zr4  1  0.550370  0.550370  0.000000  1
  Sc  Sc5  1  0.816241  0.000000  0.500000  1
  Sc  Sc6  1  0.000000  0.816241  0.500000  1
  Sc  Sc7  1  0.183759  0.183759  0.500000  1
  P  P8  1  0.173433  0.000000  0.000000  1
  P  P9  1  0.000000  0.173433  0.000000  1
  P  P10  1  0.826567  0.826567  0.000000  1
  P  P11  1  0.169604  0.481978  0.500000  1
  P  P12  1  0.518022  0.687625  0.500000  1
  P  P13  1  0.312375  0.830396  0.500000  1
  P  P14  1  0.687625  0.518022  0.500000  1
  P  P15  1  0.830396  0.312375  0.500000  1
  P  P16  1  0.481978  0.169604  0.500000  1
  P  P17  1  0.652846  0.000000  0.000000  1
  P  P18  1  0.000000  0.652846  0.000000  1
  P  P19  1  0.347154  0.347154  0.000000  1
  Ir  Ir20  1  0.357152  0.493094  0.500000  1
  Ir  Ir21  1  0.506906  0.864058  0.500000  1
  Ir  Ir22  1  0.135942  0.642848  0.500000  1
  Ir  Ir23  1  0.864058  0.506906  0.500000  1
  Ir  Ir24  1  0.642848  0.135942  0.500000  1
  Ir  Ir25  1  0.493094  0.357152  0.500000  1
  Ir  Ir26  1  0.177807  0.367468  0.000000  1
  Ir  Ir27  1  0.632532  0.810340  0.000000  1
  Ir  Ir28  1  0.189660  0.822193  0.000000  1
  Ir  Ir29  1  0.810340  0.632532  0.000000  1
  Ir  Ir30  1  0.822193  0.189660  0.000000  1
  Ir  Ir31  1  0.367468  0.177807  0.000000  1
  Ir  Ir32  1  0.275809  0.000000  0.500000  1
  Ir  Ir33  1  0.000000  0.275809  0.500000  1
  Ir  Ir34  1  0.724191  0.724191  0.500000  1
  Ir  Ir35  1  0.000000  0.000000  0.000000  1
