# generated using pymatgen
data_NdSmGa5Ni3
_symmetry_space_group_name_H-M   'P 1'
_cell_length_a   8.41589389
_cell_length_b   8.41484675
_cell_length_c   8.41484655
_cell_angle_alpha   140.80555129
_cell_angle_beta   107.42689271
_cell_angle_gamma   85.72621649
_symmetry_Int_Tables_number   1
_chemical_formula_structural   NdSmGa5Ni3
_chemical_formula_sum   'Nd2 Sm2 Ga10 Ni6'
_cell_volume   346.82367195
_cell_formula_units_Z   2
loop_
 _symmetry_equiv_pos_site_id
 _symmetry_equiv_pos_as_xyz
  1  'x, y, z'
loop_
 _atom_site_type_symbol
 _atom_site_label
 _atom_site_symmetry_multiplicity
 _atom_site_fract_x
 _atom_site_fract_y
 _atom_site_fract_z
 _atom_site_occupancy
  Nd  Nd0  1  0.863547  0.638578  0.224969  1
  Nd  Nd1  1  0.136453  0.361422  0.775031  1
  Sm  Sm2  1  0.414402  0.138941  0.275461  1
  Sm  Sm3  1  0.585598  0.861059  0.724539  1
  Ga  Ga4  1  0.500000  0.750750  0.250750  1
  Ga  Ga5  1  0.500000  0.249250  0.749250  1
  Ga  Ga6  1  0.215879  0.965147  0.751729  1
  Ga  Ga7  1  0.784121  0.535850  0.749268  1
  Ga  Ga8  1  0.784121  0.034853  0.248271  1
  Ga  Ga9  1  0.215879  0.464150  0.250732  1
  Ga  Ga10  1  0.072960  0.908145  0.164815  1
  Ga  Ga11  1  0.927040  0.091855  0.835185  1
  Ga  Ga12  1  0.741899  0.407014  0.334885  1
  Ga  Ga13  1  0.258101  0.592986  0.665115  1
  Ni  Ni14  1  0.000000  0.749567  0.749567  1
  Ni  Ni15  1  0.000000  0.250433  0.250433  1
  Ni  Ni16  1  0.260700  0.857818  0.402882  1
  Ni  Ni17  1  0.739300  0.142182  0.597118  1
  Ni  Ni18  1  0.456684  0.358209  0.098473  1
  Ni  Ni19  1  0.543316  0.641791  0.901527  1
