# generated using pymatgen
data_Y3Lu17(Cd3Tc)2
_symmetry_space_group_name_H-M   'P 1'
_cell_length_a   9.37487100
_cell_length_b   9.37487037
_cell_length_c   9.78263000
_cell_angle_alpha   90.00000000
_cell_angle_beta   90.00000000
_cell_angle_gamma   119.99999871
_symmetry_Int_Tables_number   1
_chemical_formula_structural   Y3Lu17(Cd3Tc)2
_chemical_formula_sum   'Y3 Lu17 Cd6 Tc2'
_cell_volume   744.58937860
_cell_formula_units_Z   1
loop_
 _symmetry_equiv_pos_site_id
 _symmetry_equiv_pos_as_xyz
  1  'x, y, z'
loop_
 _atom_site_type_symbol
 _atom_site_label
 _atom_site_symmetry_multiplicity
 _atom_site_fract_x
 _atom_site_fract_y
 _atom_site_fract_z
 _atom_site_occupancy
  Y  Y0  1  0.462369  0.537631  0.750000  1
  Y  Y1  1  0.462369  0.924738  0.750000  1
  Y  Y2  1  0.075262  0.537631  0.750000  1
  Lu  Lu3  1  0.000000  0.000000  0.499636  1
  Lu  Lu4  1  0.000000  0.000000  0.000364  1
  Lu  Lu5  1  0.210018  0.789982  0.441412  1
  Lu  Lu6  1  0.210018  0.420036  0.441412  1
  Lu  Lu7  1  0.579964  0.789982  0.441412  1
  Lu  Lu8  1  0.789167  0.210833  0.555109  1
  Lu  Lu9  1  0.789167  0.578334  0.555109  1
  Lu  Lu10  1  0.421666  0.210833  0.555109  1
  Lu  Lu11  1  0.789167  0.210833  0.944891  1
  Lu  Lu12  1  0.789167  0.578334  0.944891  1
  Lu  Lu13  1  0.421666  0.210833  0.944891  1
  Lu  Lu14  1  0.210018  0.789982  0.058588  1
  Lu  Lu15  1  0.210018  0.420036  0.058588  1
  Lu  Lu16  1  0.579964  0.789982  0.058588  1
  Lu  Lu17  1  0.538914  0.461086  0.250000  1
  Lu  Lu18  1  0.538914  0.077829  0.250000  1
  Lu  Lu19  1  0.922171  0.461086  0.250000  1
  Cd  Cd20  1  0.885143  0.114857  0.250000  1
  Cd  Cd21  1  0.885143  0.770287  0.250000  1
  Cd  Cd22  1  0.229713  0.114857  0.250000  1
  Cd  Cd23  1  0.112626  0.887374  0.750000  1
  Cd  Cd24  1  0.112626  0.225251  0.750000  1
  Cd  Cd25  1  0.774749  0.887374  0.750000  1
  Tc  Tc26  1  0.333333  0.666667  0.250000  1
  Tc  Tc27  1  0.666667  0.333333  0.750000  1
