# generated using pymatgen
data_Nd2Y4Co17TcP12
_symmetry_space_group_name_H-M   'P 1'
_cell_length_a   3.73367400
_cell_length_b   10.58974300
_cell_length_c   12.28796300
_cell_angle_alpha   90.00000000
_cell_angle_beta   90.00000000
_cell_angle_gamma   90.00000000
_symmetry_Int_Tables_number   1
_chemical_formula_structural   Nd2Y4Co17TcP12
_chemical_formula_sum   'Nd2 Y4 Co17 Tc1 P12'
_cell_volume   485.84944499
_cell_formula_units_Z   1
loop_
 _symmetry_equiv_pos_site_id
 _symmetry_equiv_pos_as_xyz
  1  'x, y, z'
loop_
 _atom_site_type_symbol
 _atom_site_label
 _atom_site_symmetry_multiplicity
 _atom_site_fract_x
 _atom_site_fract_y
 _atom_site_fract_z
 _atom_site_occupancy
  Nd  Nd0  1  0.000000  0.500000  0.524759  1
  Nd  Nd1  1  0.500000  0.000000  0.477614  1
  Y  Y2  1  0.500000  0.817176  0.205636  1
  Y  Y3  1  0.500000  0.182824  0.205636  1
  Y  Y4  1  0.000000  0.683353  0.795807  1
  Y  Y5  1  0.000000  0.316647  0.795807  1
  Co  Co6  1  0.000000  0.000000  0.841616  1
  Co  Co7  1  0.500000  0.500000  0.705735  1
  Co  Co8  1  0.000000  0.000000  0.293625  1
  Co  Co9  1  0.000000  0.500000  0.987710  1
  Co  Co10  1  0.500000  0.000000  0.014204  1
  Co  Co11  1  0.500000  0.331911  0.991302  1
  Co  Co12  1  0.500000  0.668089  0.991302  1
  Co  Co13  1  0.000000  0.166476  0.005580  1
  Co  Co14  1  0.000000  0.833524  0.005580  1
  Co  Co15  1  0.500000  0.296281  0.429412  1
  Co  Co16  1  0.500000  0.703719  0.429412  1
  Co  Co17  1  0.000000  0.203928  0.570154  1
  Co  Co18  1  0.000000  0.796072  0.570154  1
  Co  Co19  1  0.500000  0.879769  0.711336  1
  Co  Co20  1  0.500000  0.120231  0.711336  1
  Co  Co21  1  0.000000  0.620172  0.289650  1
  Co  Co22  1  0.000000  0.379828  0.289650  1
  Tc  Tc23  1  0.500000  0.500000  0.155009  1
  P  P24  1  0.500000  0.500000  0.882658  1
  P  P25  1  0.000000  0.000000  0.116100  1
  P  P26  1  0.500000  0.500000  0.345051  1
  P  P27  1  0.000000  0.000000  0.659759  1
  P  P28  1  0.500000  0.307629  0.617684  1
  P  P29  1  0.500000  0.692371  0.617684  1
  P  P30  1  0.000000  0.191707  0.383145  1
  P  P31  1  0.000000  0.808293  0.383145  1
  P  P32  1  0.500000  0.849381  0.893136  1
  P  P33  1  0.500000  0.150619  0.893136  1
  P  P34  1  0.000000  0.655350  0.105237  1
  P  P35  1  0.000000  0.344650  0.105237  1
