# generated using pymatgen
data_YbGdAl3Os
_symmetry_space_group_name_H-M   'P 1'
_cell_length_a   5.47406600
_cell_length_b   5.47406581
_cell_length_c   8.64536300
_cell_angle_alpha   90.00000000
_cell_angle_beta   90.00000000
_cell_angle_gamma   120.00000114
_symmetry_Int_Tables_number   1
_chemical_formula_structural   YbGdAl3Os
_chemical_formula_sum   'Yb2 Gd2 Al6 Os2'
_cell_volume   224.35404468
_cell_formula_units_Z   2
loop_
 _symmetry_equiv_pos_site_id
 _symmetry_equiv_pos_as_xyz
  1  'x, y, z'
loop_
 _atom_site_type_symbol
 _atom_site_label
 _atom_site_symmetry_multiplicity
 _atom_site_fract_x
 _atom_site_fract_y
 _atom_site_fract_z
 _atom_site_occupancy
  Yb  Yb0  1  0.333334  0.666667  0.556077  1
  Yb  Yb1  1  0.333334  0.666667  0.943923  1
  Gd  Gd2  1  0.666666  0.333333  0.051040  1
  Gd  Gd3  1  0.666666  0.333333  0.448960  1
  Al  Al4  1  0.161958  0.323915  0.250000  1
  Al  Al5  1  0.161958  0.838042  0.250000  1
  Al  Al6  1  0.676084  0.838042  0.250000  1
  Al  Al7  1  0.322664  0.161332  0.750000  1
  Al  Al8  1  0.838668  0.161332  0.750000  1
  Al  Al9  1  0.838668  0.677336  0.750000  1
  Os  Os10  1  0.000000  0.000000  0.998596  1
  Os  Os11  1  0.000000  0.000000  0.501404  1
