# generated using pymatgen
data_La3InP6N13
_symmetry_space_group_name_H-M   'P 1'
_cell_length_a   7.38513032
_cell_length_b   7.38513160
_cell_length_c   7.38513200
_cell_angle_alpha   108.97479798
_cell_angle_beta   108.97479320
_cell_angle_gamma   108.97478782
_symmetry_Int_Tables_number   1
_chemical_formula_structural   La3InP6N13
_chemical_formula_sum   'La3 In1 P6 N13'
_cell_volume   315.63529323
_cell_formula_units_Z   1
loop_
 _symmetry_equiv_pos_site_id
 _symmetry_equiv_pos_as_xyz
  1  'x, y, z'
loop_
 _atom_site_type_symbol
 _atom_site_label
 _atom_site_symmetry_multiplicity
 _atom_site_fract_x
 _atom_site_fract_y
 _atom_site_fract_z
 _atom_site_occupancy
  La  La0  1  0.698407  0.015394  0.015394  1
  La  La1  1  0.015394  0.015394  0.698407  1
  La  La2  1  0.015394  0.698407  0.015394  1
  In  In3  1  0.275796  0.275796  0.275796  1
  P  P4  1  0.253260  0.759516  0.508234  1
  P  P5  1  0.759516  0.253260  0.508234  1
  P  P6  1  0.759516  0.508234  0.253260  1
  P  P7  1  0.253260  0.508234  0.759516  1
  P  P8  1  0.508234  0.759516  0.253260  1
  P  P9  1  0.508234  0.253260  0.759516  1
  N  N10  1  0.861176  0.861176  0.861176  1
  N  N11  1  0.749509  0.328449  0.328449  1
  N  N12  1  0.328449  0.749509  0.328449  1
  N  N13  1  0.282305  0.588171  0.588171  1
  N  N14  1  0.588171  0.588171  0.282305  1
  N  N15  1  0.389211  0.721381  0.002788  1
  N  N16  1  0.002788  0.721381  0.389211  1
  N  N17  1  0.588171  0.282305  0.588171  1
  N  N18  1  0.721381  0.002788  0.389211  1
  N  N19  1  0.389211  0.002788  0.721381  1
  N  N20  1  0.721381  0.389211  0.002788  1
  N  N21  1  0.328449  0.328449  0.749509  1
  N  N22  1  0.002788  0.389211  0.721381  1
