# generated using pymatgen
data_Ce10SiNiBi6
_symmetry_space_group_name_H-M   'P 1'
_cell_length_a   6.49327601
_cell_length_b   9.60565645
_cell_length_c   9.60643500
_cell_angle_alpha   119.99733345
_cell_angle_beta   89.99997772
_cell_angle_gamma   90.00006651
_symmetry_Int_Tables_number   1
_chemical_formula_structural   Ce10SiNiBi6
_chemical_formula_sum   'Ce10 Si1 Ni1 Bi6'
_cell_volume   518.91408965
_cell_formula_units_Z   1
loop_
 _symmetry_equiv_pos_site_id
 _symmetry_equiv_pos_as_xyz
  1  'x, y, z'
loop_
 _atom_site_type_symbol
 _atom_site_label
 _atom_site_symmetry_multiplicity
 _atom_site_fract_x
 _atom_site_fract_y
 _atom_site_fract_z
 _atom_site_occupancy
  Ce  Ce0  1  0.499958  0.333421  0.667099  1
  Ce  Ce1  1  0.499958  0.666322  0.332901  1
  Ce  Ce2  1  0.000219  0.666347  0.332983  1
  Ce  Ce3  1  0.000219  0.333364  0.667017  1
  Ce  Ce4  1  0.754062  0.250118  0.000000  1
  Ce  Ce5  1  0.754601  0.750139  0.750523  1
  Ce  Ce6  1  0.754601  0.999616  0.249477  1
  Ce  Ce7  1  0.246282  0.750360  0.000000  1
  Ce  Ce8  1  0.245385  0.249377  0.249197  1
  Ce  Ce9  1  0.245385  0.000180  0.750803  1
  Si  Si10  1  0.500777  0.000007  0.000000  1
  Ni  Ni11  1  0.998114  0.001277  0.000000  1
  Bi  Bi12  1  0.749276  0.613960  0.000000  1
  Bi  Bi13  1  0.748858  0.385821  0.386276  1
  Bi  Bi14  1  0.748858  0.999547  0.613724  1
  Bi  Bi15  1  0.251029  0.386195  0.000000  1
  Bi  Bi16  1  0.251210  0.613958  0.613966  1
  Bi  Bi17  1  0.251210  0.999992  0.386034  1
