# generated using pymatgen
data_Sr4EuPa5O18
_symmetry_space_group_name_H-M   'P 1'
_cell_length_a   6.97242110
_cell_length_b   7.85143013
_cell_length_c   8.80644000
_cell_angle_alpha   101.28880439
_cell_angle_beta   98.12241371
_cell_angle_gamma   107.29992841
_symmetry_Int_Tables_number   1
_chemical_formula_structural   Sr4EuPa5O18
_chemical_formula_sum   'Sr4 Eu1 Pa5 O18'
_cell_volume   441.01487809
_cell_formula_units_Z   1
loop_
 _symmetry_equiv_pos_site_id
 _symmetry_equiv_pos_as_xyz
  1  'x, y, z'
loop_
 _atom_site_type_symbol
 _atom_site_label
 _atom_site_symmetry_multiplicity
 _atom_site_fract_x
 _atom_site_fract_y
 _atom_site_fract_z
 _atom_site_occupancy
  Sr  Sr0  1  0.598169  0.698842  0.196206  1
  Sr  Sr1  1  0.403210  0.302317  0.803584  1
  Sr  Sr2  1  0.203139  0.897937  0.414975  1
  Sr  Sr3  1  0.000281  0.501681  0.000047  1
  Eu  Eu4  1  0.803634  0.111028  0.583429  1
  Pa  Pa5  1  0.996583  0.997365  0.997901  1
  Pa  Pa6  1  0.789664  0.579447  0.585758  1
  Pa  Pa7  1  0.630704  0.199853  0.194074  1
  Pa  Pa8  1  0.372383  0.800337  0.804510  1
  Pa  Pa9  1  0.209508  0.423185  0.414011  1
  O  O10  1  0.820356  0.804710  0.483894  1
  O  O11  1  0.994429  0.238319  0.176120  1
  O  O12  1  0.664867  0.400465  0.071685  1
  O  O13  1  0.474716  0.997294  0.680850  1
  O  O14  1  0.861029  0.346312  0.428072  1
  O  O15  1  0.505633  0.394474  0.353419  1
  O  O16  1  0.251199  0.608225  0.277253  1
  O  O17  1  0.977267  0.826815  0.150486  1
  O  O18  1  0.660492  0.941254  0.996859  1
  O  O19  1  0.335095  0.058231  0.004585  1
  O  O20  1  0.007480  0.163209  0.834779  1
  O  O21  1  0.751240  0.380855  0.715822  1
  O  O22  1  0.495659  0.599830  0.651283  1
  O  O23  1  0.139128  0.655989  0.573041  1
  O  O24  1  0.557725  0.007532  0.327343  1
  O  O25  1  0.334991  0.599432  0.927663  1
  O  O26  1  0.999564  0.755968  0.821701  1
  O  O27  1  0.161858  0.209094  0.530652  1
