# generated using pymatgen
data_Tb11Dy9(Bi2Rh)4
_symmetry_space_group_name_H-M   'P 1'
_cell_length_a   8.05014206
_cell_length_b   9.02786800
_cell_length_c   12.49894009
_cell_angle_alpha   90.00000000
_cell_angle_beta   89.98609692
_cell_angle_gamma   90.00000000
_symmetry_Int_Tables_number   1
_chemical_formula_structural   Tb11Dy9(Bi2Rh)4
_chemical_formula_sum   'Tb11 Dy9 Bi8 Rh4'
_cell_volume   908.36819244
_cell_formula_units_Z   1
loop_
 _symmetry_equiv_pos_site_id
 _symmetry_equiv_pos_as_xyz
  1  'x, y, z'
loop_
 _atom_site_type_symbol
 _atom_site_label
 _atom_site_symmetry_multiplicity
 _atom_site_fract_x
 _atom_site_fract_y
 _atom_site_fract_z
 _atom_site_occupancy
  Tb  Tb0  1  0.841317  0.750000  0.793885  1
  Tb  Tb1  1  0.158635  0.250000  0.206160  1
  Tb  Tb2  1  0.341350  0.250000  0.706160  1
  Tb  Tb3  1  0.658642  0.750000  0.293797  1
  Tb  Tb4  1  0.374981  0.750000  0.693944  1
  Tb  Tb5  1  0.625043  0.250000  0.306057  1
  Tb  Tb6  1  0.874977  0.250000  0.806078  1
  Tb  Tb7  1  0.125017  0.750000  0.193911  1
  Tb  Tb8  1  0.953974  0.750000  0.501268  1
  Tb  Tb9  1  0.046035  0.250000  0.498733  1
  Tb  Tb10  1  0.453974  0.250000  0.998723  1
  Dy  Dy11  1  0.546112  0.750000  0.001281  1
  Dy  Dy12  1  0.677837  0.040776  0.565964  1
  Dy  Dy13  1  0.322179  0.959225  0.434044  1
  Dy  Dy14  1  0.177854  0.959197  0.934051  1
  Dy  Dy15  1  0.322179  0.540775  0.434044  1
  Dy  Dy16  1  0.822144  0.040728  0.065948  1
  Dy  Dy17  1  0.677837  0.459224  0.565964  1
  Dy  Dy18  1  0.822144  0.459272  0.065948  1
  Dy  Dy19  1  0.177854  0.540803  0.934051  1
  Bi  Bi20  1  0.569333  0.491708  0.826395  1
  Bi  Bi21  1  0.430724  0.508449  0.173619  1
  Bi  Bi22  1  0.069344  0.508381  0.673685  1
  Bi  Bi23  1  0.430724  0.991551  0.173619  1
  Bi  Bi24  1  0.930656  0.491623  0.326312  1
  Bi  Bi25  1  0.569333  0.008292  0.826395  1
  Bi  Bi26  1  0.930656  0.008377  0.326312  1
  Bi  Bi27  1  0.069344  0.991619  0.673685  1
  Rh  Rh28  1  0.570174  0.750000  0.510181  1
  Rh  Rh29  1  0.429720  0.250000  0.489795  1
  Rh  Rh30  1  0.070169  0.250000  0.989821  1
  Rh  Rh31  1  0.929738  0.750000  0.010173  1
