# generated using pymatgen
data_SrTb(Si7Ir3)2
_symmetry_space_group_name_H-M   'P 1'
_cell_length_a   8.07267521
_cell_length_b   8.07267608
_cell_length_c   8.07267625
_cell_angle_alpha   56.73570743
_cell_angle_beta   56.73570129
_cell_angle_gamma   56.73570898
_symmetry_Int_Tables_number   1
_chemical_formula_structural   SrTb(Si7Ir3)2
_chemical_formula_sum   'Sr1 Tb1 Si14 Ir6'
_cell_volume   343.96013967
_cell_formula_units_Z   1
loop_
 _symmetry_equiv_pos_site_id
 _symmetry_equiv_pos_as_xyz
  1  'x, y, z'
loop_
 _atom_site_type_symbol
 _atom_site_label
 _atom_site_symmetry_multiplicity
 _atom_site_fract_x
 _atom_site_fract_y
 _atom_site_fract_z
 _atom_site_occupancy
  Sr  Sr0  1  0.500000  0.500000  0.500000  1
  Tb  Tb1  1  0.000000  0.000000  0.000000  1
  Si  Si2  1  0.064242  0.850459  0.673071  1
  Si  Si3  1  0.673071  0.064242  0.850459  1
  Si  Si4  1  0.850459  0.673071  0.064242  1
  Si  Si5  1  0.172518  0.350748  0.565136  1
  Si  Si6  1  0.565136  0.172518  0.350748  1
  Si  Si7  1  0.350748  0.565136  0.172518  1
  Si  Si8  1  0.935758  0.149541  0.326929  1
  Si  Si9  1  0.326929  0.935758  0.149541  1
  Si  Si10  1  0.149541  0.326929  0.935758  1
  Si  Si11  1  0.827482  0.649252  0.434864  1
  Si  Si12  1  0.434864  0.827482  0.649252  1
  Si  Si13  1  0.649252  0.434864  0.827482  1
  Si  Si14  1  0.750091  0.750091  0.750091  1
  Si  Si15  1  0.249909  0.249909  0.249909  1
  Ir  Ir16  1  0.066155  0.753339  0.427751  1
  Ir  Ir17  1  0.427751  0.066155  0.753339  1
  Ir  Ir18  1  0.753339  0.427751  0.066155  1
  Ir  Ir19  1  0.933845  0.246661  0.572249  1
  Ir  Ir20  1  0.572249  0.933845  0.246661  1
  Ir  Ir21  1  0.246661  0.572249  0.933845  1
