# generated using pymatgen
data_Y4ScBi3
_symmetry_space_group_name_H-M   'P 1'
_cell_length_a   8.15593500
_cell_length_b   9.45196200
_cell_length_c   12.02072600
_cell_angle_alpha   90.00000000
_cell_angle_beta   90.00000000
_cell_angle_gamma   90.00000000
_symmetry_Int_Tables_number   1
_chemical_formula_structural   Y4ScBi3
_chemical_formula_sum   'Y16 Sc4 Bi12'
_cell_volume   926.67281113
_cell_formula_units_Z   4
loop_
 _symmetry_equiv_pos_site_id
 _symmetry_equiv_pos_as_xyz
  1  'x, y, z'
loop_
 _atom_site_type_symbol
 _atom_site_label
 _atom_site_symmetry_multiplicity
 _atom_site_fract_x
 _atom_site_fract_y
 _atom_site_fract_z
 _atom_site_occupancy
  Y  Y0  1  0.185641  0.750000  0.720462  1
  Y  Y1  1  0.685641  0.750000  0.779538  1
  Y  Y2  1  0.814359  0.250000  0.279538  1
  Y  Y3  1  0.314359  0.250000  0.220462  1
  Y  Y4  1  0.302693  0.437149  0.941104  1
  Y  Y5  1  0.802693  0.062851  0.558896  1
  Y  Y6  1  0.697307  0.937149  0.058896  1
  Y  Y7  1  0.197307  0.562851  0.441104  1
  Y  Y8  1  0.697307  0.562851  0.058896  1
  Y  Y9  1  0.197307  0.937149  0.441104  1
  Y  Y10  1  0.302693  0.062851  0.941104  1
  Y  Y11  1  0.802693  0.437149  0.558896  1
  Y  Y12  1  0.353967  0.750000  0.214867  1
  Y  Y13  1  0.853967  0.750000  0.285133  1
  Y  Y14  1  0.646033  0.250000  0.785133  1
  Y  Y15  1  0.146033  0.250000  0.714867  1
  Sc  Sc16  1  0.026028  0.750000  0.988412  1
  Sc  Sc17  1  0.526028  0.750000  0.511588  1
  Sc  Sc18  1  0.973972  0.250000  0.011588  1
  Sc  Sc19  1  0.473972  0.250000  0.488412  1
  Bi  Bi20  1  0.434950  0.003526  0.668563  1
  Bi  Bi21  1  0.934950  0.496474  0.831437  1
  Bi  Bi22  1  0.565050  0.503526  0.331437  1
  Bi  Bi23  1  0.065050  0.996474  0.168563  1
  Bi  Bi24  1  0.565050  0.996474  0.331437  1
  Bi  Bi25  1  0.065050  0.503526  0.168563  1
  Bi  Bi26  1  0.434950  0.496474  0.668563  1
  Bi  Bi27  1  0.934950  0.003526  0.831437  1
  Bi  Bi28  1  0.404385  0.750000  0.958149  1
  Bi  Bi29  1  0.904385  0.750000  0.541851  1
  Bi  Bi30  1  0.595615  0.250000  0.041851  1
  Bi  Bi31  1  0.095615  0.250000  0.458149  1
