# generated using pymatgen
data_Pr3Nd(GaRh)4
_symmetry_space_group_name_H-M   'P 1'
_cell_length_a   4.41097000
_cell_length_b   7.09711935
_cell_length_c   7.92138941
_cell_angle_alpha   90.02273664
_cell_angle_beta   90.00000000
_cell_angle_gamma   90.00000000
_symmetry_Int_Tables_number   1
_chemical_formula_structural   Pr3Nd(GaRh)4
_chemical_formula_sum   'Pr3 Nd1 Ga4 Rh4'
_cell_volume   247.98050608
_cell_formula_units_Z   1
loop_
 _symmetry_equiv_pos_site_id
 _symmetry_equiv_pos_as_xyz
  1  'x, y, z'
loop_
 _atom_site_type_symbol
 _atom_site_label
 _atom_site_symmetry_multiplicity
 _atom_site_fract_x
 _atom_site_fract_y
 _atom_site_fract_z
 _atom_site_occupancy
  Pr  Pr0  1  0.250000  0.025535  0.691936  1
  Pr  Pr1  1  0.250000  0.525389  0.808645  1
  Pr  Pr2  1  0.750000  0.974345  0.307827  1
  Nd  Nd3  1  0.750000  0.474169  0.192293  1
  Ga  Ga4  1  0.250000  0.158087  0.074686  1
  Ga  Ga5  1  0.250000  0.656522  0.425034  1
  Ga  Ga6  1  0.750000  0.842036  0.926269  1
  Ga  Ga7  1  0.750000  0.343333  0.573577  1
  Rh  Rh8  1  0.250000  0.280307  0.396874  1
  Rh  Rh9  1  0.250000  0.778666  0.102434  1
  Rh  Rh10  1  0.750000  0.720506  0.601947  1
  Rh  Rh11  1  0.750000  0.221107  0.898478  1
