# generated using pymatgen
data_NdY3(B2Ir5)2
_symmetry_space_group_name_H-M   'P 1'
_cell_length_a   11.05608278
_cell_length_b   11.05608251
_cell_length_c   11.05608300
_cell_angle_alpha   28.79192859
_cell_angle_beta   28.79193231
_cell_angle_gamma   28.79193473
_symmetry_Int_Tables_number   1
_chemical_formula_structural   NdY3(B2Ir5)2
_chemical_formula_sum   'Nd1 Y3 B4 Ir10'
_cell_volume   277.20124668
_cell_formula_units_Z   1
loop_
 _symmetry_equiv_pos_site_id
 _symmetry_equiv_pos_as_xyz
  1  'x, y, z'
loop_
 _atom_site_type_symbol
 _atom_site_label
 _atom_site_symmetry_multiplicity
 _atom_site_fract_x
 _atom_site_fract_y
 _atom_site_fract_z
 _atom_site_occupancy
  Nd  Nd0  1  0.151522  0.151522  0.151522  1
  Y  Y1  1  0.950401  0.950401  0.950401  1
  Y  Y2  1  0.848379  0.848379  0.848379  1
  Y  Y3  1  0.049524  0.049524  0.049524  1
  B  B4  1  0.617932  0.617932  0.617932  1
  B  B5  1  0.716085  0.716085  0.716085  1
  B  B6  1  0.382123  0.382123  0.382123  1
  B  B7  1  0.283758  0.283758  0.283758  1
  Ir  Ir8  1  0.407552  0.898664  0.407552  1
  Ir  Ir9  1  0.898664  0.407552  0.407552  1
  Ir  Ir10  1  0.499943  0.499943  0.000183  1
  Ir  Ir11  1  0.499943  0.000183  0.499943  1
  Ir  Ir12  1  0.000183  0.499943  0.499943  1
  Ir  Ir13  1  0.500109  0.500109  0.500109  1
  Ir  Ir14  1  0.592996  0.100337  0.592996  1
  Ir  Ir15  1  0.592996  0.592996  0.100337  1
  Ir  Ir16  1  0.100337  0.592996  0.592996  1
  Ir  Ir17  1  0.407552  0.407552  0.898664  1
