# generated using pymatgen
data_LiTlSnF6
_symmetry_space_group_name_H-M   'P 1'
_cell_length_a   8.13059000
_cell_length_b   10.89523900
_cell_length_c   13.05262700
_cell_angle_alpha   90.00000000
_cell_angle_beta   90.00000000
_cell_angle_gamma   90.00000000
_symmetry_Int_Tables_number   1
_chemical_formula_structural   LiTlSnF6
_chemical_formula_sum   'Li8 Tl8 Sn8 F48'
_cell_volume   1156.26332452
_cell_formula_units_Z   8
loop_
 _symmetry_equiv_pos_site_id
 _symmetry_equiv_pos_as_xyz
  1  'x, y, z'
loop_
 _atom_site_type_symbol
 _atom_site_label
 _atom_site_symmetry_multiplicity
 _atom_site_fract_x
 _atom_site_fract_y
 _atom_site_fract_z
 _atom_site_occupancy
  Li  Li0  1  0.758923  0.077079  0.368147  1
  Li  Li1  1  0.258923  0.922921  0.131853  1
  Li  Li2  1  0.741077  0.577079  0.131853  1
  Li  Li3  1  0.241077  0.422921  0.368147  1
  Li  Li4  1  0.241077  0.922921  0.631853  1
  Li  Li5  1  0.741077  0.077079  0.868147  1
  Li  Li6  1  0.258923  0.422921  0.868147  1
  Li  Li7  1  0.758923  0.577079  0.631853  1
  Tl  Tl8  1  0.500000  0.750000  0.417675  1
  Tl  Tl9  1  0.000000  0.250000  0.082325  1
  Tl  Tl10  1  0.500000  0.250000  0.582325  1
  Tl  Tl11  1  0.000000  0.750000  0.917675  1
  Tl  Tl12  1  0.000000  0.750000  0.361621  1
  Tl  Tl13  1  0.500000  0.250000  0.138379  1
  Tl  Tl14  1  0.000000  0.250000  0.638379  1
  Tl  Tl15  1  0.500000  0.750000  0.861621  1
  Sn  Sn16  1  0.747234  0.424865  0.859816  1
  Sn  Sn17  1  0.247234  0.575135  0.640184  1
  Sn  Sn18  1  0.752766  0.924865  0.640184  1
  Sn  Sn19  1  0.252766  0.075135  0.859816  1
  Sn  Sn20  1  0.252766  0.575135  0.140184  1
  Sn  Sn21  1  0.752766  0.424865  0.359816  1
  Sn  Sn22  1  0.247234  0.075135  0.359816  1
  Sn  Sn23  1  0.747234  0.924865  0.140184  1
  F  F24  1  0.718001  0.876242  0.288280  1
  F  F25  1  0.218001  0.123758  0.211720  1
  F  F26  1  0.781999  0.376242  0.211720  1
  F  F27  1  0.281999  0.623758  0.288280  1
  F  F28  1  0.281999  0.123758  0.711720  1
  F  F29  1  0.781999  0.876242  0.788280  1
  F  F30  1  0.218001  0.623758  0.788280  1
  F  F31  1  0.718001  0.376242  0.711720  1
  F  F32  1  0.788772  0.987780  0.998000  1
  F  F33  1  0.288772  0.012220  0.502000  1
  F  F34  1  0.711228  0.487780  0.502000  1
  F  F35  1  0.211228  0.512220  0.998000  1
  F  F36  1  0.211228  0.012220  0.002000  1
  F  F37  1  0.711228  0.987780  0.498000  1
  F  F38  1  0.288772  0.512220  0.498000  1
  F  F39  1  0.788772  0.487780  0.002000  1
  F  F40  1  0.989514  0.894129  0.155553  1
  F  F41  1  0.506717  0.957986  0.124493  1
  F  F42  1  0.489514  0.105871  0.344447  1
  F  F43  1  0.010486  0.605871  0.155553  1
  F  F44  1  0.010486  0.105871  0.844447  1
  F  F45  1  0.510486  0.894129  0.655553  1
  F  F46  1  0.489514  0.605871  0.655553  1
  F  F47  1  0.989514  0.394129  0.844447  1
  F  F48  1  0.780099  0.752164  0.588465  1
  F  F49  1  0.280099  0.247836  0.911535  1
  F  F50  1  0.719901  0.252164  0.911535  1
  F  F51  1  0.219901  0.747836  0.588465  1
  F  F52  1  0.219901  0.247836  0.411535  1
  F  F53  1  0.719901  0.752164  0.088465  1
  F  F54  1  0.280099  0.747836  0.088465  1
  F  F55  1  0.780099  0.252164  0.411535  1
  F  F56  1  0.775073  0.596427  0.801801  1
  F  F57  1  0.275073  0.403573  0.698199  1
  F  F58  1  0.724927  0.096427  0.698199  1
  F  F59  1  0.224927  0.903573  0.801801  1
  F  F60  1  0.224927  0.403573  0.198199  1
  F  F61  1  0.724927  0.596427  0.301801  1
  F  F62  1  0.275073  0.903573  0.301801  1
  F  F63  1  0.775073  0.096427  0.198199  1
  F  F64  1  0.506717  0.457986  0.875507  1
  F  F65  1  0.006717  0.542014  0.624493  1
  F  F66  1  0.993283  0.957986  0.624493  1
  F  F67  1  0.493283  0.042014  0.875507  1
  F  F68  1  0.493283  0.542014  0.124493  1
  F  F69  1  0.993283  0.457986  0.375507  1
  F  F70  1  0.006717  0.042014  0.375507  1
  F  F71  1  0.510486  0.394129  0.344447  1
