# generated using pymatgen
data_Ho6Lu4(SnSb)3
_symmetry_space_group_name_H-M   'P 1'
_cell_length_a   8.88446100
_cell_length_b   8.88446218
_cell_length_c   6.32629100
_cell_angle_alpha   90.00000000
_cell_angle_beta   90.00000000
_cell_angle_gamma   119.99999933
_symmetry_Int_Tables_number   1
_chemical_formula_structural   Ho6Lu4(SnSb)3
_chemical_formula_sum   'Ho6 Lu4 Sn3 Sb3'
_cell_volume   432.45610047
_cell_formula_units_Z   1
loop_
 _symmetry_equiv_pos_site_id
 _symmetry_equiv_pos_as_xyz
  1  'x, y, z'
loop_
 _atom_site_type_symbol
 _atom_site_label
 _atom_site_symmetry_multiplicity
 _atom_site_fract_x
 _atom_site_fract_y
 _atom_site_fract_z
 _atom_site_occupancy
  Ho  Ho0  1  0.759757  0.759757  0.750000  1
  Ho  Ho1  1  0.240243  0.000000  0.750000  1
  Ho  Ho2  1  0.000000  0.240243  0.750000  1
  Ho  Ho3  1  0.240057  0.240057  0.250000  1
  Ho  Ho4  1  0.759943  0.000000  0.250000  1
  Ho  Ho5  1  0.000000  0.759943  0.250000  1
  Lu  Lu6  1  0.666667  0.333333  0.002056  1
  Lu  Lu7  1  0.333333  0.666667  0.002056  1
  Lu  Lu8  1  0.333333  0.666667  0.497944  1
  Lu  Lu9  1  0.666667  0.333333  0.497944  1
  Sn  Sn10  1  0.604302  0.604302  0.250000  1
  Sn  Sn11  1  0.395698  0.000000  0.250000  1
  Sn  Sn12  1  0.000000  0.395698  0.250000  1
  Sb  Sb13  1  0.395077  0.395077  0.750000  1
  Sb  Sb14  1  0.604923  0.000000  0.750000  1
  Sb  Sb15  1  0.000000  0.604923  0.750000  1
