# generated using pymatgen
data_Tb3HfGa2Ir3
_symmetry_space_group_name_H-M   'P 1'
_cell_length_a   7.17928765
_cell_length_b   7.17928769
_cell_length_c   4.16161200
_cell_angle_alpha   90.00000000
_cell_angle_beta   90.00000000
_cell_angle_gamma   121.21440740
_symmetry_Int_Tables_number   1
_chemical_formula_structural   Tb3HfGa2Ir3
_chemical_formula_sum   'Tb3 Hf1 Ga2 Ir3'
_cell_volume   183.44642071
_cell_formula_units_Z   1
loop_
 _symmetry_equiv_pos_site_id
 _symmetry_equiv_pos_as_xyz
  1  'x, y, z'
loop_
 _atom_site_type_symbol
 _atom_site_label
 _atom_site_symmetry_multiplicity
 _atom_site_fract_x
 _atom_site_fract_y
 _atom_site_fract_z
 _atom_site_occupancy
  Tb  Tb0  1  0.391644  0.391644  0.500000  1
  Tb  Tb1  1  0.579852  0.012332  0.500000  1
  Tb  Tb2  1  0.012332  0.579852  0.500000  1
  Hf  Hf3  1  0.763314  0.763314  0.000000  1
  Ga  Ga4  1  0.248149  0.998755  0.000000  1
  Ga  Ga5  1  0.998755  0.248149  0.000000  1
  Ir  Ir6  1  0.669195  0.343730  0.000000  1
  Ir  Ir7  1  0.343730  0.669195  0.000000  1
  Ir  Ir8  1  0.993030  0.993030  0.500000  1
