# generated using pymatgen
data_Ta12Al8MoRh3C4
_symmetry_space_group_name_H-M   'P 1'
_cell_length_a   8.33756831
_cell_length_b   8.33756869
_cell_length_c   8.33756779
_cell_angle_alpha   59.79100483
_cell_angle_beta   59.79100236
_cell_angle_gamma   59.79100464
_symmetry_Int_Tables_number   1
_chemical_formula_structural   Ta12Al8MoRh3C4
_chemical_formula_sum   'Ta12 Al8 Mo1 Rh3 C4'
_cell_volume   407.88499500
_cell_formula_units_Z   1
loop_
 _symmetry_equiv_pos_site_id
 _symmetry_equiv_pos_as_xyz
  1  'x, y, z'
loop_
 _atom_site_type_symbol
 _atom_site_label
 _atom_site_symmetry_multiplicity
 _atom_site_fract_x
 _atom_site_fract_y
 _atom_site_fract_z
 _atom_site_occupancy
  Ta  Ta0  1  0.563405  0.936593  0.563405  1
  Ta  Ta1  1  0.313407  0.686595  0.686595  1
  Ta  Ta2  1  0.699279  0.307801  0.307801  1
  Ta  Ta3  1  0.307801  0.699279  0.307801  1
  Ta  Ta4  1  0.686595  0.686595  0.313407  1
  Ta  Ta5  1  0.307801  0.307801  0.699279  1
  Ta  Ta6  1  0.563405  0.563405  0.936593  1
  Ta  Ta7  1  0.936593  0.563405  0.563405  1
  Ta  Ta8  1  0.550721  0.942199  0.942199  1
  Ta  Ta9  1  0.942199  0.942199  0.550721  1
  Ta  Ta10  1  0.686595  0.313407  0.686595  1
  Ta  Ta11  1  0.942199  0.550721  0.942199  1
  Al  Al12  1  0.914662  0.914662  0.914662  1
  Al  Al13  1  0.000178  0.336864  0.336864  1
  Al  Al14  1  0.336864  0.000178  0.336864  1
  Al  Al15  1  0.336864  0.336864  0.000178  1
  Al  Al16  1  0.913136  0.249822  0.913136  1
  Al  Al17  1  0.913136  0.913136  0.249822  1
  Al  Al18  1  0.249822  0.913136  0.913136  1
  Al  Al19  1  0.335338  0.335338  0.335338  1
  Mo  Mo20  1  0.125000  0.125000  0.125000  1
  Rh  Rh21  1  0.625000  0.125000  0.125000  1
  Rh  Rh22  1  0.125000  0.625000  0.125000  1
  Rh  Rh23  1  0.125000  0.125000  0.625000  1
  C  C24  1  0.625000  0.625000  0.625000  1
  C  C25  1  0.125000  0.625000  0.625000  1
  C  C26  1  0.625000  0.125000  0.625000  1
  C  C27  1  0.625000  0.625000  0.125000  1
