# generated using pymatgen
data_Y3Ho3Th2(MgIr)2
_symmetry_space_group_name_H-M   'P 1'
_cell_length_a   9.80751240
_cell_length_b   9.80751366
_cell_length_c   9.80751400
_cell_angle_alpha   60.00000561
_cell_angle_beta   60.00000134
_cell_angle_gamma   60.00000517
_symmetry_Int_Tables_number   1
_chemical_formula_structural   Y3Ho3Th2(MgIr)2
_chemical_formula_sum   'Y6 Ho6 Th4 Mg4 Ir4'
_cell_volume   667.05518832
_cell_formula_units_Z   2
loop_
 _symmetry_equiv_pos_site_id
 _symmetry_equiv_pos_as_xyz
  1  'x, y, z'
loop_
 _atom_site_type_symbol
 _atom_site_label
 _atom_site_symmetry_multiplicity
 _atom_site_fract_x
 _atom_site_fract_y
 _atom_site_fract_z
 _atom_site_occupancy
  Y  Y0  1  0.185248  0.814752  0.814752  1
  Y  Y1  1  0.814752  0.185248  0.185248  1
  Y  Y2  1  0.814752  0.185248  0.814752  1
  Y  Y3  1  0.185248  0.814752  0.185248  1
  Y  Y4  1  0.814752  0.814752  0.185248  1
  Y  Y5  1  0.185248  0.185248  0.814752  1
  Ho  Ho6  1  0.062986  0.437014  0.437014  1
  Ho  Ho7  1  0.437014  0.062986  0.062986  1
  Ho  Ho8  1  0.437014  0.062986  0.437014  1
  Ho  Ho9  1  0.062986  0.437014  0.062986  1
  Ho  Ho10  1  0.437014  0.437014  0.062986  1
  Ho  Ho11  1  0.062986  0.062986  0.437014  1
  Th  Th12  1  0.597936  0.597936  0.597936  1
  Th  Th13  1  0.597936  0.597936  0.206190  1
  Th  Th14  1  0.597936  0.206190  0.597936  1
  Th  Th15  1  0.206190  0.597936  0.597936  1
  Mg  Mg16  1  0.830536  0.830536  0.830536  1
  Mg  Mg17  1  0.830536  0.830536  0.508391  1
  Mg  Mg18  1  0.830536  0.508391  0.830536  1
  Mg  Mg19  1  0.508391  0.830536  0.830536  1
  Ir  Ir20  1  0.392924  0.392924  0.392924  1
  Ir  Ir21  1  0.392924  0.392924  0.821226  1
  Ir  Ir22  1  0.392924  0.821226  0.392924  1
  Ir  Ir23  1  0.821226  0.392924  0.392924  1
