# generated using pymatgen
data_CsKSrCeSe8
_symmetry_space_group_name_H-M   'P 1'
_cell_length_a   6.43644700
_cell_length_b   6.43644700
_cell_length_c   8.94904700
_cell_angle_alpha   90.00000000
_cell_angle_beta   90.00000000
_cell_angle_gamma   90.00000000
_symmetry_Int_Tables_number   1
_chemical_formula_structural   CsKSrCeSe8
_chemical_formula_sum   'Cs1 K1 Sr1 Ce1 Se8'
_cell_volume   370.73977661
_cell_formula_units_Z   1
loop_
 _symmetry_equiv_pos_site_id
 _symmetry_equiv_pos_as_xyz
  1  'x, y, z'
loop_
 _atom_site_type_symbol
 _atom_site_label
 _atom_site_symmetry_multiplicity
 _atom_site_fract_x
 _atom_site_fract_y
 _atom_site_fract_z
 _atom_site_occupancy
  Cs  Cs0  1  0.500000  0.500000  0.500000  1
  K  K1  1  0.000000  0.000000  0.500000  1
  Sr  Sr2  1  0.500000  0.500000  0.000000  1
  Ce  Ce3  1  0.000000  0.000000  0.000000  1
  Se  Se4  1  0.655163  0.891286  0.207915  1
  Se  Se5  1  0.108714  0.655163  0.207915  1
  Se  Se6  1  0.891286  0.344837  0.207915  1
  Se  Se7  1  0.655163  0.108714  0.792085  1
  Se  Se8  1  0.344837  0.891286  0.792085  1
  Se  Se9  1  0.344837  0.108714  0.207915  1
  Se  Se10  1  0.891286  0.655163  0.792085  1
  Se  Se11  1  0.108714  0.344837  0.792085  1
