# generated using pymatgen
data_LaSm5Zn4Pd12Rh
_symmetry_space_group_name_H-M   'P 1'
_cell_length_a   8.34516573
_cell_length_b   8.34522930
_cell_length_c   8.34522860
_cell_angle_alpha   109.74374475
_cell_angle_beta   109.33528384
_cell_angle_gamma   109.33528645
_symmetry_Int_Tables_number   1
_chemical_formula_structural   LaSm5Zn4Pd12Rh
_chemical_formula_sum   'La1 Sm5 Zn4 Pd12 Rh1'
_cell_volume   447.38411775
_cell_formula_units_Z   1
loop_
 _symmetry_equiv_pos_site_id
 _symmetry_equiv_pos_as_xyz
  1  'x, y, z'
loop_
 _atom_site_type_symbol
 _atom_site_label
 _atom_site_symmetry_multiplicity
 _atom_site_fract_x
 _atom_site_fract_y
 _atom_site_fract_z
 _atom_site_occupancy
  La  La0  1  0.000012  0.704990  0.704990  1
  Sm  Sm1  1  0.701241  0.701845  0.000600  1
  Sm  Sm2  1  0.298758  0.000603  0.299360  1
  Sm  Sm3  1  0.999999  0.296426  0.296426  1
  Sm  Sm4  1  0.298758  0.299360  0.000603  1
  Sm  Sm5  1  0.701241  0.000600  0.701845  1
  Zn  Zn6  1  0.999999  0.000726  0.498943  1
  Zn  Zn7  1  0.999999  0.498943  0.000726  1
  Zn  Zn8  1  0.501785  0.000727  0.000727  1
  Zn  Zn9  1  0.498214  0.498942  0.498942  1
  Pd  Pd10  1  0.332220  0.332177  0.664396  1
  Pd  Pd11  1  0.667778  0.999956  0.332177  1
  Pd  Pd12  1  0.000001  0.668108  0.330686  1
  Pd  Pd13  1  0.667778  0.332177  0.999956  1
  Pd  Pd14  1  0.332220  0.664396  0.332177  1
  Pd  Pd15  1  0.000001  0.330686  0.668108  1
  Pd  Pd16  1  0.333316  0.667540  0.000854  1
  Pd  Pd17  1  0.333316  0.000854  0.667540  1
  Pd  Pd18  1  0.662575  0.330683  0.330683  1
  Pd  Pd19  1  0.666683  0.667535  0.334219  1
  Pd  Pd20  1  0.666683  0.334219  0.667535  1
  Pd  Pd21  1  0.337423  0.668109  0.668109  1
  Rh  Rh22  1  0.000000  0.000397  0.000397  1
