# generated using pymatgen
data_Ho3Mn2(BiO6)2
_symmetry_space_group_name_H-M   'P 1'
_cell_length_a   6.85517212
_cell_length_b   6.85517150
_cell_length_c   7.25455419
_cell_angle_alpha   74.81095712
_cell_angle_beta   74.81095884
_cell_angle_gamma   50.41708472
_symmetry_Int_Tables_number   1
_chemical_formula_structural   Ho3Mn2(BiO6)2
_chemical_formula_sum   'Ho3 Mn2 Bi2 O12'
_cell_volume   251.48719429
_cell_formula_units_Z   1
loop_
 _symmetry_equiv_pos_site_id
 _symmetry_equiv_pos_as_xyz
  1  'x, y, z'
loop_
 _atom_site_type_symbol
 _atom_site_label
 _atom_site_symmetry_multiplicity
 _atom_site_fract_x
 _atom_site_fract_y
 _atom_site_fract_z
 _atom_site_occupancy
  Ho  Ho0  1  0.691964  0.691964  0.650885  1
  Ho  Ho1  1  0.303226  0.303226  0.844211  1
  Ho  Ho2  1  0.695714  0.695714  0.155087  1
  Mn  Mn3  1  0.756212  0.245955  0.999146  1
  Mn  Mn4  1  0.245955  0.756212  0.999146  1
  Bi  Bi5  1  0.305840  0.305840  0.355190  1
  Bi  Bi6  1  0.000722  0.000722  0.497516  1
  O  O7  1  0.901286  0.424459  0.918139  1
  O  O8  1  0.424459  0.901286  0.918139  1
  O  O9  1  0.098663  0.578545  0.082557  1
  O  O10  1  0.578545  0.098663  0.082557  1
  O  O11  1  0.095766  0.588710  0.577358  1
  O  O12  1  0.588710  0.095766  0.577358  1
  O  O13  1  0.898216  0.413378  0.421808  1
  O  O14  1  0.413378  0.898216  0.421808  1
  O  O15  1  0.998923  0.998923  0.825318  1
  O  O16  1  0.001538  0.001538  0.174372  1
  O  O17  1  0.499173  0.499173  0.819250  1
  O  O18  1  0.501709  0.501709  0.180152  1
