# generated using pymatgen
data_Hf3Ta(MnAs)4
_symmetry_space_group_name_H-M   'P 1'
_cell_length_a   3.70522500
_cell_length_b   6.52758974
_cell_length_c   7.65126045
_cell_angle_alpha   90.43271797
_cell_angle_beta   90.00000000
_cell_angle_gamma   90.00000000
_symmetry_Int_Tables_number   1
_chemical_formula_structural   Hf3Ta(MnAs)4
_chemical_formula_sum   'Hf3 Ta1 Mn4 As4'
_cell_volume   185.04955125
_cell_formula_units_Z   1
loop_
 _symmetry_equiv_pos_site_id
 _symmetry_equiv_pos_as_xyz
  1  'x, y, z'
loop_
 _atom_site_type_symbol
 _atom_site_label
 _atom_site_symmetry_multiplicity
 _atom_site_fract_x
 _atom_site_fract_y
 _atom_site_fract_z
 _atom_site_occupancy
  Hf  Hf0  1  0.750000  0.466681  0.827207  1
  Hf  Hf1  1  0.750000  0.965081  0.675047  1
  Hf  Hf2  1  0.250000  0.033553  0.322741  1
  Ta  Ta3  1  0.250000  0.534852  0.173514  1
  Mn  Mn4  1  0.250000  0.633003  0.559140  1
  Mn  Mn5  1  0.750000  0.365003  0.438930  1
  Mn  Mn6  1  0.750000  0.863326  0.061385  1
  Mn  Mn7  1  0.250000  0.138055  0.940808  1
  As  As8  1  0.250000  0.763820  0.871667  1
  As  As9  1  0.750000  0.240275  0.131139  1
  As  As10  1  0.750000  0.733585  0.368405  1
  As  As11  1  0.250000  0.262766  0.630017  1
