# generated using pymatgen
data_Ta6Be3Si
_symmetry_space_group_name_H-M   'P 1'
_cell_length_a   6.57248201
_cell_length_b   6.57248201
_cell_length_c   3.38353700
_cell_angle_alpha   90.00000000
_cell_angle_beta   90.00000000
_cell_angle_gamma   89.76337132
_symmetry_Int_Tables_number   1
_chemical_formula_structural   Ta6Be3Si
_chemical_formula_sum   'Ta6 Be3 Si1'
_cell_volume   146.15916010
_cell_formula_units_Z   1
loop_
 _symmetry_equiv_pos_site_id
 _symmetry_equiv_pos_as_xyz
  1  'x, y, z'
loop_
 _atom_site_type_symbol
 _atom_site_label
 _atom_site_symmetry_multiplicity
 _atom_site_fract_x
 _atom_site_fract_y
 _atom_site_fract_z
 _atom_site_occupancy
  Ta  Ta0  1  0.504325  0.497829  0.000000  1
  Ta  Ta1  1  0.997829  0.004325  0.000000  1
  Ta  Ta2  1  0.677623  0.177623  0.500000  1
  Ta  Ta3  1  0.328623  0.828623  0.500000  1
  Ta  Ta4  1  0.179541  0.314596  0.500000  1
  Ta  Ta5  1  0.814596  0.679541  0.500000  1
  Be  Be6  1  0.880041  0.380041  0.000000  1
  Be  Be7  1  0.614954  0.886171  0.000000  1
  Be  Be8  1  0.386171  0.114954  0.000000  1
  Si  Si9  1  0.116298  0.616298  0.000000  1
