# generated using pymatgen
data_Hf4Si4Pt3Rh
_symmetry_space_group_name_H-M   'P 1'
_cell_length_a   3.89383900
_cell_length_b   6.58241510
_cell_length_c   7.57377701
_cell_angle_alpha   89.84399374
_cell_angle_beta   90.00000000
_cell_angle_gamma   90.00000000
_symmetry_Int_Tables_number   1
_chemical_formula_structural   Hf4Si4Pt3Rh
_chemical_formula_sum   'Hf4 Si4 Pt3 Rh1'
_cell_volume   194.12173392
_cell_formula_units_Z   1
loop_
 _symmetry_equiv_pos_site_id
 _symmetry_equiv_pos_as_xyz
  1  'x, y, z'
loop_
 _atom_site_type_symbol
 _atom_site_label
 _atom_site_symmetry_multiplicity
 _atom_site_fract_x
 _atom_site_fract_y
 _atom_site_fract_z
 _atom_site_occupancy
  Hf  Hf0  1  0.250000  0.527448  0.178741  1
  Hf  Hf1  1  0.750000  0.476839  0.820610  1
  Hf  Hf2  1  0.250000  0.023698  0.323834  1
  Hf  Hf3  1  0.750000  0.974242  0.676635  1
  Si  Si4  1  0.250000  0.763639  0.873114  1
  Si  Si5  1  0.750000  0.236129  0.121823  1
  Si  Si6  1  0.250000  0.267793  0.620864  1
  Si  Si7  1  0.750000  0.734312  0.384838  1
  Pt  Pt8  1  0.750000  0.849649  0.067156  1
  Pt  Pt9  1  0.250000  0.150312  0.934380  1
  Pt  Pt10  1  0.750000  0.350945  0.433494  1
  Rh  Rh11  1  0.250000  0.644994  0.564512  1
