# generated using pymatgen
data_TbPuCo6(SiB)2
_symmetry_space_group_name_H-M   'P 1'
_cell_length_a   5.11554900
_cell_length_b   5.11463109
_cell_length_c   6.48380300
_cell_angle_alpha   90.00000000
_cell_angle_beta   90.00000000
_cell_angle_gamma   120.00596926
_symmetry_Int_Tables_number   1
_chemical_formula_structural   TbPuCo6(SiB)2
_chemical_formula_sum   'Tb1 Pu1 Co6 Si2 B2'
_cell_volume   146.90645528
_cell_formula_units_Z   1
loop_
 _symmetry_equiv_pos_site_id
 _symmetry_equiv_pos_as_xyz
  1  'x, y, z'
loop_
 _atom_site_type_symbol
 _atom_site_label
 _atom_site_symmetry_multiplicity
 _atom_site_fract_x
 _atom_site_fract_y
 _atom_site_fract_z
 _atom_site_occupancy
  Tb  Tb0  1  0.999984  0.000000  0.500000  1
  Pu  Pu1  1  0.999984  0.000000  0.000000  1
  Co  Co2  1  0.499983  0.000000  0.283272  1
  Co  Co3  1  0.499984  0.500001  0.283479  1
  Co  Co4  1  0.999982  0.499999  0.283479  1
  Co  Co5  1  0.499983  0.000000  0.716728  1
  Co  Co6  1  0.499984  0.500001  0.716521  1
  Co  Co7  1  0.999982  0.499999  0.716521  1
  Si  Si8  1  0.333183  0.666402  0.000000  1
  Si  Si9  1  0.666783  0.333598  0.000000  1
  B  B10  1  0.333411  0.666857  0.500000  1
  B  B11  1  0.666554  0.333143  0.500000  1
