# generated using pymatgen
data_TbTh3(Si3Ni5)4
_symmetry_space_group_name_H-M   'P 1'
_cell_length_a   3.85575100
_cell_length_b   6.60509773
_cell_length_c   18.91757402
_cell_angle_alpha   90.08497221
_cell_angle_beta   90.00000000
_cell_angle_gamma   90.00000000
_symmetry_Int_Tables_number   1
_chemical_formula_structural   TbTh3(Si3Ni5)4
_chemical_formula_sum   'Tb1 Th3 Si12 Ni20'
_cell_volume   481.78490866
_cell_formula_units_Z   1
loop_
 _symmetry_equiv_pos_site_id
 _symmetry_equiv_pos_as_xyz
  1  'x, y, z'
loop_
 _atom_site_type_symbol
 _atom_site_label
 _atom_site_symmetry_multiplicity
 _atom_site_fract_x
 _atom_site_fract_y
 _atom_site_fract_z
 _atom_site_occupancy
  Tb  Tb0  1  0.250000  0.877789  0.144254  1
  Th  Th1  1  0.250000  0.623810  0.643904  1
  Th  Th2  1  0.750000  0.375445  0.355649  1
  Th  Th3  1  0.750000  0.123868  0.856701  1
  Si  Si4  1  0.250000  0.838788  0.929076  1
  Si  Si5  1  0.750000  0.154408  0.073437  1
  Si  Si6  1  0.750000  0.339252  0.570343  1
  Si  Si7  1  0.250000  0.661617  0.427995  1
  Si  Si8  1  0.750000  0.618679  0.767094  1
  Si  Si9  1  0.250000  0.381134  0.232744  1
  Si  Si10  1  0.250000  0.427369  0.916951  1
  Si  Si11  1  0.750000  0.582084  0.087757  1
  Si  Si12  1  0.750000  0.930015  0.586208  1
  Si  Si13  1  0.250000  0.068053  0.412191  1
  Si  Si14  1  0.250000  0.118937  0.733632  1
  Si  Si15  1  0.750000  0.881463  0.262257  1
  Ni  Ni16  1  0.250000  0.135293  0.994744  1
  Ni  Ni17  1  0.750000  0.390118  0.986569  1
  Ni  Ni18  1  0.750000  0.107656  0.481853  1
  Ni  Ni19  1  0.250000  0.615108  0.018837  1
  Ni  Ni20  1  0.250000  0.350325  0.113068  1
  Ni  Ni21  1  0.750000  0.644932  0.887160  1
  Ni  Ni22  1  0.750000  0.851061  0.383520  1
  Ni  Ni23  1  0.250000  0.149635  0.613549  1
  Ni  Ni24  1  0.250000  0.072617  0.290948  1
  Ni  Ni25  1  0.750000  0.926027  0.707541  1
  Ni  Ni26  1  0.750000  0.572438  0.206819  1
  Ni  Ni27  1  0.250000  0.426022  0.794733  1
  Ni  Ni28  1  0.750000  0.638547  0.505744  1
  Ni  Ni29  1  0.250000  0.361770  0.492839  1
  Ni  Ni30  1  0.250000  0.813452  0.802096  1
  Ni  Ni31  1  0.750000  0.186728  0.197705  1
  Ni  Ni32  1  0.750000  0.313444  0.698391  1
  Ni  Ni33  1  0.250000  0.687429  0.300311  1
  Ni  Ni34  1  0.250000  0.891662  0.516808  1
  Ni  Ni35  1  0.750000  0.863025  0.006572  1
