# generated using pymatgen
data_Ho2ZnSi2(PRh3)4
_symmetry_space_group_name_H-M   'P 1'
_cell_length_a   9.69755376
_cell_length_b   9.67536060
_cell_length_c   3.86117044
_cell_angle_alpha   90.05169192
_cell_angle_beta   89.98911064
_cell_angle_gamma   119.83546518
_symmetry_Int_Tables_number   1
_chemical_formula_structural   Ho2ZnSi2(PRh3)4
_chemical_formula_sum   'Ho2 Zn1 Si2 P4 Rh12'
_cell_volume   314.26529470
_cell_formula_units_Z   1
loop_
 _symmetry_equiv_pos_site_id
 _symmetry_equiv_pos_as_xyz
  1  'x, y, z'
loop_
 _atom_site_type_symbol
 _atom_site_label
 _atom_site_symmetry_multiplicity
 _atom_site_fract_x
 _atom_site_fract_y
 _atom_site_fract_z
 _atom_site_occupancy
  Ho  Ho0  1  0.335355  0.668312  0.738868  1
  Ho  Ho1  1  0.666567  0.332287  0.238670  1
  Zn  Zn2  1  0.001366  0.002618  0.725767  1
  Si  Si3  1  0.398783  0.285910  0.738344  1
  Si  Si4  1  0.713191  0.113114  0.738565  1
  P  P5  1  0.885472  0.599366  0.738694  1
  P  P6  1  0.599166  0.712328  0.239056  1
  P  P7  1  0.288694  0.888903  0.238881  1
  P  P8  1  0.115489  0.402710  0.238832  1
  Rh  Rh9  1  0.445432  0.066246  0.738668  1
  Rh  Rh10  1  0.930203  0.384025  0.738846  1
  Rh  Rh11  1  0.623669  0.550761  0.739042  1
  Rh  Rh12  1  0.550916  0.938334  0.238698  1
  Rh  Rh13  1  0.063055  0.611516  0.239110  1
  Rh  Rh14  1  0.390957  0.449629  0.238496  1
  Rh  Rh15  1  0.158824  0.296000  0.738363  1
  Rh  Rh16  1  0.708782  0.865075  0.739270  1
  Rh  Rh17  1  0.128194  0.836023  0.738904  1
  Rh  Rh18  1  0.855323  0.736277  0.238486  1
  Rh  Rh19  1  0.254005  0.113879  0.238053  1
  Rh  Rh20  1  0.886558  0.146691  0.238390  1
