# generated using pymatgen
data_Y3TmZr4(NiP)12
_symmetry_space_group_name_H-M   'P 1'
_cell_length_a   3.74114500
_cell_length_b   10.17880357
_cell_length_c   12.36651667
_cell_angle_alpha   89.96189387
_cell_angle_beta   90.00000000
_cell_angle_gamma   90.00000000
_symmetry_Int_Tables_number   1
_chemical_formula_structural   Y3TmZr4(NiP)12
_chemical_formula_sum   'Y3 Tm1 Zr4 Ni12 P12'
_cell_volume   470.92155112
_cell_formula_units_Z   1
loop_
 _symmetry_equiv_pos_site_id
 _symmetry_equiv_pos_as_xyz
  1  'x, y, z'
loop_
 _atom_site_type_symbol
 _atom_site_label
 _atom_site_symmetry_multiplicity
 _atom_site_fract_x
 _atom_site_fract_y
 _atom_site_fract_z
 _atom_site_occupancy
  Y  Y0  1  0.750000  0.928333  0.792864  1
  Y  Y1  1  0.750000  0.571705  0.292867  1
  Y  Y2  1  0.250000  0.428316  0.707220  1
  Tm  Tm3  1  0.250000  0.071331  0.207358  1
  Zr  Zr4  1  0.250000  0.158987  0.496897  1
  Zr  Zr5  1  0.750000  0.840986  0.502151  1
  Zr  Zr6  1  0.750000  0.659529  0.002904  1
  Zr  Zr7  1  0.250000  0.340286  0.997778  1
  Ni  Ni8  1  0.250000  0.728218  0.663929  1
  Ni  Ni9  1  0.750000  0.271621  0.335469  1
  Ni  Ni10  1  0.750000  0.227459  0.836349  1
  Ni  Ni11  1  0.250000  0.773015  0.164077  1
  Ni  Ni12  1  0.250000  0.364394  0.219411  1
  Ni  Ni13  1  0.750000  0.634221  0.780614  1
  Ni  Ni14  1  0.750000  0.867361  0.279656  1
  Ni  Ni15  1  0.250000  0.134251  0.719315  1
  Ni  Ni16  1  0.250000  0.598641  0.483367  1
  Ni  Ni17  1  0.750000  0.401418  0.516398  1
  Ni  Ni18  1  0.750000  0.098031  0.018055  1
  Ni  Ni19  1  0.250000  0.902176  0.983879  1
  P  P20  1  0.250000  0.945188  0.623664  1
  P  P21  1  0.750000  0.055132  0.374524  1
  P  P22  1  0.750000  0.444934  0.876378  1
  P  P23  1  0.250000  0.554810  0.124251  1
  P  P24  1  0.250000  0.394221  0.402456  1
  P  P25  1  0.750000  0.605894  0.597491  1
  P  P26  1  0.750000  0.895391  0.098040  1
  P  P27  1  0.250000  0.105879  0.902448  1
  P  P28  1  0.250000  0.771455  0.353643  1
  P  P29  1  0.750000  0.228896  0.645880  1
  P  P30  1  0.750000  0.268807  0.146603  1
  P  P31  1  0.250000  0.729115  0.854066  1
