# generated using pymatgen
data_CsRuCl6
_symmetry_space_group_name_H-M   'P 1'
_cell_length_a   7.04160146
_cell_length_b   7.04160214
_cell_length_c   12.59290829
_cell_angle_alpha   78.86723175
_cell_angle_beta   78.86723073
_cell_angle_gamma   55.48482948
_symmetry_Int_Tables_number   1
_chemical_formula_structural   CsRuCl6
_chemical_formula_sum   'Cs2 Ru2 Cl12'
_cell_volume   502.10511570
_cell_formula_units_Z   2
loop_
 _symmetry_equiv_pos_site_id
 _symmetry_equiv_pos_as_xyz
  1  'x, y, z'
loop_
 _atom_site_type_symbol
 _atom_site_label
 _atom_site_symmetry_multiplicity
 _atom_site_fract_x
 _atom_site_fract_y
 _atom_site_fract_z
 _atom_site_occupancy
  Cs  Cs0  1  0.884066  0.115934  0.750000  1
  Cs  Cs1  1  0.115934  0.884066  0.250000  1
  Ru  Ru2  1  0.500000  0.000000  0.500000  1
  Ru  Ru3  1  0.000000  0.500000  0.000000  1
  Cl  Cl4  1  0.462661  0.706518  0.601401  1
  Cl  Cl5  1  0.537339  0.293482  0.398599  1
  Cl  Cl6  1  0.293482  0.537339  0.898599  1
  Cl  Cl7  1  0.706518  0.462661  0.101401  1
  Cl  Cl8  1  0.373497  0.195660  0.654071  1
  Cl  Cl9  1  0.626503  0.804340  0.345929  1
  Cl  Cl10  1  0.804340  0.626503  0.845929  1
  Cl  Cl11  1  0.195660  0.373497  0.154071  1
  Cl  Cl12  1  0.801226  0.880929  0.039234  1
  Cl  Cl13  1  0.198774  0.119071  0.960766  1
  Cl  Cl14  1  0.119071  0.198774  0.460766  1
  Cl  Cl15  1  0.880929  0.801226  0.539234  1
