# generated using pymatgen
data_AcPrB4(IrOs)2
_symmetry_space_group_name_H-M   'P 1'
_cell_length_a   7.08947769
_cell_length_b   6.17850533
_cell_length_c   5.66818157
_cell_angle_alpha   73.37319179
_cell_angle_beta   56.62260580
_cell_angle_gamma   50.00418357
_symmetry_Int_Tables_number   1
_chemical_formula_structural   AcPrB4(IrOs)2
_chemical_formula_sum   'Ac1 Pr1 B4 Ir2 Os2'
_cell_volume   157.94792636
_cell_formula_units_Z   1
loop_
 _symmetry_equiv_pos_site_id
 _symmetry_equiv_pos_as_xyz
  1  'x, y, z'
loop_
 _atom_site_type_symbol
 _atom_site_label
 _atom_site_symmetry_multiplicity
 _atom_site_fract_x
 _atom_site_fract_y
 _atom_site_fract_z
 _atom_site_occupancy
  Ac  Ac0  1  0.500000  0.500000  0.500000  1
  Pr  Pr1  1  0.750000  0.750000  0.750000  1
  B  B2  1  0.170667  0.829333  0.170667  1
  B  B3  1  0.066317  0.433683  0.066317  1
  B  B4  1  0.829333  0.170667  0.829333  1
  B  B5  1  0.433683  0.066317  0.433683  1
  Ir  Ir6  1  0.381668  0.381668  0.118332  1
  Ir  Ir7  1  0.118332  0.118332  0.381668  1
  Os  Os8  1  0.865521  0.865521  0.134479  1
  Os  Os9  1  0.134479  0.134479  0.865521  1
