# generated using pymatgen
data_Dy3Er(ScSb5)4
_symmetry_space_group_name_H-M   'P 1'
_cell_length_a   4.20470100
_cell_length_b   13.05902188
_cell_length_c   14.23291295
_cell_angle_alpha   78.82374240
_cell_angle_beta   90.00000000
_cell_angle_gamma   90.00000000
_symmetry_Int_Tables_number   1
_chemical_formula_structural   Dy3Er(ScSb5)4
_chemical_formula_sum   'Dy3 Er1 Sc4 Sb20'
_cell_volume   766.69796395
_cell_formula_units_Z   1
loop_
 _symmetry_equiv_pos_site_id
 _symmetry_equiv_pos_as_xyz
  1  'x, y, z'
loop_
 _atom_site_type_symbol
 _atom_site_label
 _atom_site_symmetry_multiplicity
 _atom_site_fract_x
 _atom_site_fract_y
 _atom_site_fract_z
 _atom_site_occupancy
  Dy  Dy0  1  0.750000  0.330783  0.423878  1
  Dy  Dy1  1  0.250000  0.953400  0.354636  1
  Dy  Dy2  1  0.750000  0.046500  0.645322  1
  Er  Er3  1  0.250000  0.669342  0.576313  1
  Sc  Sc4  1  0.250000  0.396898  0.772843  1
  Sc  Sc5  1  0.750000  0.603140  0.227234  1
  Sc  Sc6  1  0.250000  0.657336  0.858573  1
  Sc  Sc7  1  0.750000  0.342706  0.141263  1
  Sb  Sb8  1  0.250000  0.148048  0.780590  1
  Sb  Sb9  1  0.750000  0.851964  0.219344  1
  Sb  Sb10  1  0.250000  0.142820  0.482855  1
  Sb  Sb11  1  0.750000  0.856461  0.517300  1
  Sb  Sb12  1  0.250000  0.162935  0.160710  1
  Sb  Sb13  1  0.750000  0.837058  0.839300  1
  Sb  Sb14  1  0.250000  0.422091  0.975070  1
  Sb  Sb15  1  0.750000  0.577856  0.024946  1
  Sb  Sb16  1  0.750000  0.028475  0.913455  1
  Sb  Sb17  1  0.250000  0.971550  0.086586  1
  Sb  Sb18  1  0.750000  0.142812  0.315441  1
  Sb  Sb19  1  0.250000  0.856762  0.684335  1
  Sb  Sb20  1  0.750000  0.280057  0.936577  1
  Sb  Sb21  1  0.250000  0.719947  0.063453  1
  Sb  Sb22  1  0.750000  0.289401  0.659028  1
  Sb  Sb23  1  0.250000  0.710661  0.341159  1
  Sb  Sb24  1  0.750000  0.573610  0.740807  1
  Sb  Sb25  1  0.250000  0.426741  0.258571  1
  Sb  Sb26  1  0.750000  0.570680  0.444061  1
  Sb  Sb27  1  0.250000  0.429967  0.556349  1
