# generated using pymatgen
data_Rb2In2Te3
_symmetry_space_group_name_H-M   'P 1'
_cell_length_a   8.19141108
_cell_length_b   8.19141032
_cell_length_c   10.55128366
_cell_angle_alpha   82.57863188
_cell_angle_beta   82.57862844
_cell_angle_gamma   119.98155562
_symmetry_Int_Tables_number   1
_chemical_formula_structural   Rb2In2Te3
_chemical_formula_sum   'Rb4 In4 Te6'
_cell_volume   592.44112169
_cell_formula_units_Z   2
loop_
 _symmetry_equiv_pos_site_id
 _symmetry_equiv_pos_as_xyz
  1  'x, y, z'
loop_
 _atom_site_type_symbol
 _atom_site_label
 _atom_site_symmetry_multiplicity
 _atom_site_fract_x
 _atom_site_fract_y
 _atom_site_fract_z
 _atom_site_occupancy
  Rb  Rb0  1  0.661884  0.338116  0.000000  1
  Rb  Rb1  1  0.338116  0.661884  0.000000  1
  Rb  Rb2  1  0.000000  0.000000  0.000000  1
  Rb  Rb3  1  0.500000  0.500000  0.500000  1
  In  In4  1  0.879384  0.213451  0.361095  1
  In  In5  1  0.786549  0.120616  0.638905  1
  In  In6  1  0.213451  0.879384  0.361095  1
  In  In7  1  0.120616  0.786549  0.638905  1
  Te  Te8  1  0.416278  0.068309  0.750766  1
  Te  Te9  1  0.068309  0.416278  0.750766  1
  Te  Te10  1  0.931691  0.583722  0.249234  1
  Te  Te11  1  0.764110  0.764110  0.748933  1
  Te  Te12  1  0.583722  0.931691  0.249234  1
  Te  Te13  1  0.235890  0.235890  0.251067  1
