# generated using pymatgen
data_Ca3MnN4
_symmetry_space_group_name_H-M   'P 1'
_cell_length_a   9.14493500
_cell_length_b   9.72502000
_cell_length_c   10.79423800
_cell_angle_alpha   90.00000000
_cell_angle_beta   90.00000000
_cell_angle_gamma   90.00000000
_symmetry_Int_Tables_number   1
_chemical_formula_structural   Ca3MnN4
_chemical_formula_sum   'Ca24 Mn8 N32'
_cell_volume   959.98205675
_cell_formula_units_Z   8
loop_
 _symmetry_equiv_pos_site_id
 _symmetry_equiv_pos_as_xyz
  1  'x, y, z'
loop_
 _atom_site_type_symbol
 _atom_site_label
 _atom_site_symmetry_multiplicity
 _atom_site_fract_x
 _atom_site_fract_y
 _atom_site_fract_z
 _atom_site_occupancy
  Ca  Ca0  1  0.526395  0.373431  0.395238  1
  Ca  Ca1  1  0.201004  0.713225  0.384471  1
  Ca  Ca2  1  0.798996  0.786775  0.884471  1
  Ca  Ca3  1  0.298996  0.213225  0.615529  1
  Ca  Ca4  1  0.298996  0.713225  0.884471  1
  Ca  Ca5  1  0.798996  0.286775  0.615529  1
  Ca  Ca6  1  0.201004  0.213225  0.115529  1
  Ca  Ca7  1  0.701004  0.786775  0.384471  1
  Ca  Ca8  1  0.701004  0.286775  0.115529  1
  Ca  Ca9  1  0.026395  0.626569  0.104762  1
  Ca  Ca10  1  0.973605  0.873431  0.604762  1
  Ca  Ca11  1  0.473605  0.126569  0.895238  1
  Ca  Ca12  1  0.473605  0.626569  0.604762  1
  Ca  Ca13  1  0.973605  0.373431  0.895238  1
  Ca  Ca14  1  0.026395  0.126569  0.395238  1
  Ca  Ca15  1  0.526395  0.873431  0.104762  1
  Ca  Ca16  1  0.874598  0.471633  0.360517  1
  Ca  Ca17  1  0.374598  0.528367  0.139483  1
  Ca  Ca18  1  0.625402  0.971633  0.639483  1
  Ca  Ca19  1  0.125402  0.028367  0.860517  1
  Ca  Ca20  1  0.125402  0.528367  0.639483  1
  Ca  Ca21  1  0.625402  0.471633  0.860517  1
  Ca  Ca22  1  0.374598  0.028367  0.360517  1
  Ca  Ca23  1  0.874598  0.971633  0.139483  1
  Mn  Mn24  1  0.695351  0.099473  0.387741  1
  Mn  Mn25  1  0.195351  0.900527  0.112259  1
  Mn  Mn26  1  0.804649  0.599473  0.612259  1
  Mn  Mn27  1  0.304649  0.400527  0.887741  1
  Mn  Mn28  1  0.304649  0.900527  0.612259  1
  Mn  Mn29  1  0.804649  0.099473  0.887741  1
  Mn  Mn30  1  0.195351  0.400527  0.387741  1
  Mn  Mn31  1  0.695351  0.599473  0.112259  1
  N  N32  1  0.790556  0.235317  0.321811  1
  N  N33  1  0.290556  0.764683  0.178189  1
  N  N34  1  0.709444  0.735317  0.678189  1
  N  N35  1  0.209444  0.264683  0.821811  1
  N  N36  1  0.209444  0.764683  0.678189  1
  N  N37  1  0.709444  0.235317  0.821811  1
  N  N38  1  0.290556  0.264683  0.321811  1
  N  N39  1  0.790556  0.735317  0.178189  1
  N  N40  1  0.815009  0.493375  0.029052  1
  N  N41  1  0.315009  0.506625  0.470948  1
  N  N42  1  0.684991  0.993375  0.970948  1
  N  N43  1  0.184991  0.006625  0.529052  1
  N  N44  1  0.184991  0.506625  0.970948  1
  N  N45  1  0.684991  0.493375  0.529052  1
  N  N46  1  0.315009  0.006625  0.029052  1
  N  N47  1  0.615864  0.997314  0.275271  1
  N  N48  1  0.563685  0.158419  0.493804  1
  N  N49  1  0.063685  0.841581  0.006196  1
  N  N50  1  0.936315  0.658419  0.506196  1
  N  N51  1  0.436315  0.341581  0.993804  1
  N  N52  1  0.436315  0.841581  0.506196  1
  N  N53  1  0.936315  0.158419  0.993804  1
  N  N54  1  0.063685  0.341581  0.493804  1
  N  N55  1  0.563685  0.658419  0.006196  1
  N  N56  1  0.615864  0.497314  0.224729  1
  N  N57  1  0.115864  0.502686  0.275271  1
  N  N58  1  0.884136  0.997314  0.775271  1
  N  N59  1  0.384136  0.002686  0.724729  1
  N  N60  1  0.384136  0.502686  0.775271  1
  N  N61  1  0.884136  0.497314  0.724729  1
  N  N62  1  0.115864  0.002686  0.224729  1
  N  N63  1  0.815009  0.993375  0.470948  1
