# generated using pymatgen
data_Zr4Al3Tc4W
_symmetry_space_group_name_H-M   'P 1'
_cell_length_a   5.26371080
_cell_length_b   5.26370961
_cell_length_c   8.74559900
_cell_angle_alpha   90.00000000
_cell_angle_beta   90.00000000
_cell_angle_gamma   120.41870986
_symmetry_Int_Tables_number   1
_chemical_formula_structural   Zr4Al3Tc4W
_chemical_formula_sum   'Zr4 Al3 Tc4 W1'
_cell_volume   208.95667694
_cell_formula_units_Z   1
loop_
 _symmetry_equiv_pos_site_id
 _symmetry_equiv_pos_as_xyz
  1  'x, y, z'
loop_
 _atom_site_type_symbol
 _atom_site_label
 _atom_site_symmetry_multiplicity
 _atom_site_fract_x
 _atom_site_fract_y
 _atom_site_fract_z
 _atom_site_occupancy
  Zr  Zr0  1  0.336147  0.663853  0.434568  1
  Zr  Zr1  1  0.667773  0.332227  0.936219  1
  Zr  Zr2  1  0.667773  0.332227  0.563781  1
  Zr  Zr3  1  0.336147  0.663853  0.065432  1
  Al  Al4  1  0.998190  0.001810  0.996217  1
  Al  Al5  1  0.998190  0.001810  0.503783  1
  Al  Al6  1  0.170594  0.829406  0.750000  1
  Tc  Tc7  1  0.173912  0.339316  0.750000  1
  Tc  Tc8  1  0.332733  0.167234  0.250000  1
  Tc  Tc9  1  0.660684  0.826088  0.750000  1
  Tc  Tc10  1  0.832766  0.667267  0.250000  1
  W  W11  1  0.825091  0.174909  0.250000  1
