# generated using pymatgen
data_Tb3DyCrRe3B16
_symmetry_space_group_name_H-M   'P 1'
_cell_length_a   3.59087800
_cell_length_b   5.97709891
_cell_length_c   11.56039200
_cell_angle_alpha   90.09290987
_cell_angle_beta   90.00000000
_cell_angle_gamma   90.00000000
_symmetry_Int_Tables_number   1
_chemical_formula_structural   Tb3DyCrRe3B16
_chemical_formula_sum   'Tb3 Dy1 Cr1 Re3 B16'
_cell_volume   248.12074874
_cell_formula_units_Z   1
loop_
 _symmetry_equiv_pos_site_id
 _symmetry_equiv_pos_as_xyz
  1  'x, y, z'
loop_
 _atom_site_type_symbol
 _atom_site_label
 _atom_site_symmetry_multiplicity
 _atom_site_fract_x
 _atom_site_fract_y
 _atom_site_fract_z
 _atom_site_occupancy
  Tb  Tb0  1  0.000000  0.627003  0.347447  1
  Tb  Tb1  1  0.000000  0.373250  0.650795  1
  Tb  Tb2  1  0.000000  0.124106  0.149120  1
  Dy  Dy3  1  0.000000  0.874322  0.851164  1
  Cr  Cr4  1  0.000000  0.627250  0.082918  1
  Re  Re5  1  0.000000  0.373491  0.916706  1
  Re  Re6  1  0.000000  0.133465  0.412231  1
  Re  Re7  1  0.000000  0.866820  0.588245  1
  B  B8  1  0.500000  0.783325  0.182748  1
  B  B9  1  0.500000  0.214384  0.816350  1
  B  B10  1  0.500000  0.285938  0.314060  1
  B  B11  1  0.500000  0.714649  0.685856  1
  B  B12  1  0.500000  0.862414  0.032766  1
  B  B13  1  0.500000  0.136575  0.968575  1
  B  B14  1  0.500000  0.363343  0.468431  1
  B  B15  1  0.500000  0.636574  0.531276  1
  B  B16  1  0.500000  0.885687  0.452546  1
  B  B17  1  0.500000  0.113475  0.547016  1
  B  B18  1  0.500000  0.387640  0.047873  1
  B  B19  1  0.500000  0.615360  0.954108  1
  B  B20  1  0.500000  0.974114  0.307186  1
  B  B21  1  0.500000  0.024683  0.692642  1
  B  B22  1  0.500000  0.478032  0.190960  1
  B  B23  1  0.500000  0.524099  0.808979  1
