# generated using pymatgen
data_Tb2Ta3Si4
_symmetry_space_group_name_H-M   'P 1'
_cell_length_a   6.87451400
_cell_length_b   7.06971800
_cell_length_c   13.39883300
_cell_angle_alpha   90.00000000
_cell_angle_beta   90.00000000
_cell_angle_gamma   90.00000000
_symmetry_Int_Tables_number   1
_chemical_formula_structural   Tb2Ta3Si4
_chemical_formula_sum   'Tb8 Ta12 Si16'
_cell_volume   651.19501270
_cell_formula_units_Z   4
loop_
 _symmetry_equiv_pos_site_id
 _symmetry_equiv_pos_as_xyz
  1  'x, y, z'
loop_
 _atom_site_type_symbol
 _atom_site_label
 _atom_site_symmetry_multiplicity
 _atom_site_fract_x
 _atom_site_fract_y
 _atom_site_fract_z
 _atom_site_occupancy
  Tb  Tb0  1  0.996515  0.170578  0.404298  1
  Tb  Tb1  1  0.496515  0.329422  0.095702  1
  Tb  Tb2  1  0.503485  0.670578  0.595702  1
  Tb  Tb3  1  0.003485  0.829422  0.904298  1
  Tb  Tb4  1  0.003485  0.829422  0.595702  1
  Tb  Tb5  1  0.503485  0.670578  0.904298  1
  Tb  Tb6  1  0.496515  0.329422  0.404298  1
  Tb  Tb7  1  0.996515  0.170578  0.095702  1
  Ta  Ta8  1  0.337157  0.824568  0.125165  1
  Ta  Ta9  1  0.837157  0.675432  0.374835  1
  Ta  Ta10  1  0.662843  0.175432  0.625165  1
  Ta  Ta11  1  0.162843  0.324568  0.874835  1
  Ta  Ta12  1  0.162843  0.324568  0.625165  1
  Ta  Ta13  1  0.662843  0.175432  0.874835  1
  Ta  Ta14  1  0.336455  0.010154  0.750000  1
  Ta  Ta15  1  0.837157  0.675432  0.125165  1
  Ta  Ta16  1  0.663545  0.989846  0.250000  1
  Ta  Ta17  1  0.163545  0.510154  0.250000  1
  Ta  Ta18  1  0.836455  0.489846  0.750000  1
  Ta  Ta19  1  0.337157  0.824568  0.374835  1
  Si  Si20  1  0.336837  0.036928  0.541037  1
  Si  Si21  1  0.836837  0.463072  0.958963  1
  Si  Si22  1  0.663163  0.963072  0.041037  1
  Si  Si23  1  0.163163  0.536928  0.458963  1
  Si  Si24  1  0.163163  0.536928  0.041037  1
  Si  Si25  1  0.663163  0.963072  0.458963  1
  Si  Si26  1  0.836837  0.463072  0.541037  1
  Si  Si27  1  0.336837  0.036928  0.958963  1
  Si  Si28  1  0.796341  0.375073  0.250000  1
  Si  Si29  1  0.296341  0.124927  0.250000  1
  Si  Si30  1  0.703659  0.875073  0.750000  1
  Si  Si31  1  0.203659  0.624927  0.750000  1
  Si  Si32  1  0.041931  0.875165  0.250000  1
  Si  Si33  1  0.541931  0.624835  0.250000  1
  Si  Si34  1  0.458069  0.375165  0.750000  1
  Si  Si35  1  0.958069  0.124835  0.750000  1
