# generated using pymatgen
data_CeLu15
_symmetry_space_group_name_H-M   'P 1'
_cell_length_a   7.13261800
_cell_length_b   7.13334657
_cell_length_c   11.13888000
_cell_angle_alpha   90.00000000
_cell_angle_beta   90.00000000
_cell_angle_gamma   119.99108900
_symmetry_Int_Tables_number   1
_chemical_formula_structural   CeLu15
_chemical_formula_sum   'Ce1 Lu15'
_cell_volume   490.85524596
_cell_formula_units_Z   1
loop_
 _symmetry_equiv_pos_site_id
 _symmetry_equiv_pos_as_xyz
  1  'x, y, z'
loop_
 _atom_site_type_symbol
 _atom_site_label
 _atom_site_symmetry_multiplicity
 _atom_site_fract_x
 _atom_site_fract_y
 _atom_site_fract_z
 _atom_site_occupancy
  Ce  Ce0  1  0.999363  0.999258  0.500000  1
  Lu  Lu1  1  0.999905  0.000087  0.000000  1
  Lu  Lu2  1  0.001355  0.500881  0.500000  1
  Lu  Lu3  1  0.000033  0.500069  0.000000  1
  Lu  Lu4  1  0.499562  0.501025  0.500000  1
  Lu  Lu5  1  0.499956  0.500163  0.000000  1
  Lu  Lu6  1  0.499574  0.999005  0.500000  1
  Lu  Lu7  1  0.499932  0.999886  0.000000  1
  Lu  Lu8  1  0.166219  0.332369  0.248468  1
  Lu  Lu9  1  0.166219  0.332369  0.751532  1
  Lu  Lu10  1  0.166214  0.833731  0.248454  1
  Lu  Lu11  1  0.166214  0.833731  0.751546  1
  Lu  Lu12  1  0.667779  0.833835  0.248536  1
  Lu  Lu13  1  0.667779  0.833835  0.751464  1
  Lu  Lu14  1  0.666615  0.333211  0.247867  1
  Lu  Lu15  1  0.666615  0.333211  0.752133  1
