# generated using pymatgen
data_Ca(AsPd2)2
_symmetry_space_group_name_H-M   'P 1'
_cell_length_a   7.95165000
_cell_length_b   7.95165000
_cell_length_c   3.94033800
_cell_angle_alpha   90.00000000
_cell_angle_beta   90.00000000
_cell_angle_gamma   90.00000000
_symmetry_Int_Tables_number   1
_chemical_formula_structural   Ca(AsPd2)2
_chemical_formula_sum   'Ca2 As4 Pd8'
_cell_volume   249.14259794
_cell_formula_units_Z   2
loop_
 _symmetry_equiv_pos_site_id
 _symmetry_equiv_pos_as_xyz
  1  'x, y, z'
loop_
 _atom_site_type_symbol
 _atom_site_label
 _atom_site_symmetry_multiplicity
 _atom_site_fract_x
 _atom_site_fract_y
 _atom_site_fract_z
 _atom_site_occupancy
  Ca  Ca0  1  0.500000  0.500000  0.000000  1
  Ca  Ca1  1  0.000000  0.000000  0.500000  1
  As  As2  1  0.722147  0.722147  0.500000  1
  As  As3  1  0.277853  0.277853  0.500000  1
  As  As4  1  0.222147  0.777853  0.000000  1
  As  As5  1  0.777853  0.222147  0.000000  1
  Pd  Pd6  1  0.583094  0.166285  0.500000  1
  Pd  Pd7  1  0.416906  0.833715  0.500000  1
  Pd  Pd8  1  0.083094  0.333715  0.000000  1
  Pd  Pd9  1  0.916906  0.666285  0.000000  1
  Pd  Pd10  1  0.166285  0.583094  0.500000  1
  Pd  Pd11  1  0.833715  0.416906  0.500000  1
  Pd  Pd12  1  0.333715  0.083094  0.000000  1
  Pd  Pd13  1  0.666285  0.916906  0.000000  1
