# generated using pymatgen
data_La12Tc2SnPtI12
_symmetry_space_group_name_H-M   'P 1'
_cell_length_a   11.23209329
_cell_length_b   10.89954486
_cell_length_c   11.26328144
_cell_angle_alpha   108.67768756
_cell_angle_beta   109.86778368
_cell_angle_gamma   109.15507369
_symmetry_Int_Tables_number   1
_chemical_formula_structural   La12Tc2SnPtI12
_chemical_formula_sum   'La12 Tc2 Sn1 Pt1 I12'
_cell_volume   1070.63263583
_cell_formula_units_Z   1
loop_
 _symmetry_equiv_pos_site_id
 _symmetry_equiv_pos_as_xyz
  1  'x, y, z'
loop_
 _atom_site_type_symbol
 _atom_site_label
 _atom_site_symmetry_multiplicity
 _atom_site_fract_x
 _atom_site_fract_y
 _atom_site_fract_z
 _atom_site_occupancy
  La  La0  1  0.459792  0.474917  0.234939  1
  La  La1  1  0.724350  0.218565  0.254424  1
  La  La2  1  0.706847  0.001496  0.451417  1
  La  La3  1  0.244571  0.449920  0.451417  1
  La  La4  1  0.275146  0.760022  0.234939  1
  La  La5  1  0.038456  0.273898  0.021091  1
  La  La6  1  0.030074  0.035859  0.254424  1
  La  La7  1  0.482636  0.747191  0.021091  1
  La  La8  1  0.479061  0.229061  0.458120  1
  La  La9  1  0.027312  0.499082  0.769705  1
  La  La10  1  0.270553  0.020553  0.041108  1
  La  La11  1  0.242393  0.270623  0.769705  1
  Tc  Tc12  1  0.249578  0.266046  0.261481  1
  Tc  Tc13  1  0.511904  0.995436  0.261481  1
  Sn  Sn14  1  0.000569  0.250569  0.501138  1
  Pt  Pt15  1  0.251106  0.501106  0.002213  1
  I  I16  1  0.254814  0.759854  0.749496  1
  I  I17  1  0.506626  0.499490  0.751031  1
  I  I18  1  0.983079  0.742524  0.992797  1
  I  I19  1  0.744406  0.251541  0.751031  1
  I  I20  1  0.994682  0.989641  0.749496  1
  I  I21  1  0.247843  0.998366  0.510277  1
  I  I22  1  0.762434  0.511910  0.510277  1
  I  I23  1  0.509719  0.250273  0.992797  1
  I  I24  1  0.756798  0.743679  0.248864  1
  I  I25  1  0.743989  0.993989  0.987977  1
  I  I26  1  0.992065  0.505185  0.248864  1
  I  I27  1  0.509201  0.759201  0.518402  1
