# generated using pymatgen
data_Ce3YInHgPd4
_symmetry_space_group_name_H-M   'P 1'
_cell_length_a   7.83730406
_cell_length_b   7.81570149
_cell_length_c   3.77732000
_cell_angle_alpha   90.00000000
_cell_angle_beta   90.00000000
_cell_angle_gamma   89.38076360
_symmetry_Int_Tables_number   1
_chemical_formula_structural   Ce3YInHgPd4
_chemical_formula_sum   'Ce3 Y1 In1 Hg1 Pd4'
_cell_volume   231.36255577
_cell_formula_units_Z   1
loop_
 _symmetry_equiv_pos_site_id
 _symmetry_equiv_pos_as_xyz
  1  'x, y, z'
loop_
 _atom_site_type_symbol
 _atom_site_label
 _atom_site_symmetry_multiplicity
 _atom_site_fract_x
 _atom_site_fract_y
 _atom_site_fract_z
 _atom_site_occupancy
  Ce  Ce0  1  0.828314  0.676946  0.500000  1
  Ce  Ce1  1  0.173918  0.324112  0.500000  1
  Ce  Ce2  1  0.674576  0.172064  0.500000  1
  Y  Y3  1  0.324297  0.827069  0.500000  1
  In  In4  1  0.498666  0.503162  0.000000  1
  Hg  Hg5  1  0.002265  0.998709  0.000000  1
  Pd  Pd6  1  0.376978  0.133740  0.000000  1
  Pd  Pd7  1  0.866601  0.373289  0.000000  1
  Pd  Pd8  1  0.127418  0.621243  0.000000  1
  Pd  Pd9  1  0.626967  0.869667  0.000000  1
