# generated using pymatgen
data_ErTm9In8IrPt3
_symmetry_space_group_name_H-M   'P 1'
_cell_length_a   3.60029600
_cell_length_b   8.07508803
_cell_length_c   18.05366346
_cell_angle_alpha   90.03473564
_cell_angle_beta   90.00000000
_cell_angle_gamma   90.00000000
_symmetry_Int_Tables_number   1
_chemical_formula_structural   ErTm9In8IrPt3
_chemical_formula_sum   'Er1 Tm9 In8 Ir1 Pt3'
_cell_volume   524.86877396
_cell_formula_units_Z   1
loop_
 _symmetry_equiv_pos_site_id
 _symmetry_equiv_pos_as_xyz
  1  'x, y, z'
loop_
 _atom_site_type_symbol
 _atom_site_label
 _atom_site_symmetry_multiplicity
 _atom_site_fract_x
 _atom_site_fract_y
 _atom_site_fract_z
 _atom_site_occupancy
  Er  Er0  1  0.000000  0.502150  0.499099  1
  Tm  Tm1  1  0.000000  0.114920  0.412239  1
  Tm  Tm2  1  0.000000  0.884148  0.585970  1
  Tm  Tm3  1  0.000000  0.384853  0.914406  1
  Tm  Tm4  1  0.000000  0.616274  0.087043  1
  Tm  Tm5  1  0.000000  0.237058  0.222434  1
  Tm  Tm6  1  0.000000  0.756399  0.778578  1
  Tm  Tm7  1  0.000000  0.255786  0.721855  1
  Tm  Tm8  1  0.000000  0.749831  0.278368  1
  Tm  Tm9  1  0.000000  0.000968  0.000449  1
  In  In10  1  0.500000  0.422716  0.351450  1
  In  In11  1  0.500000  0.573931  0.647884  1
  In  In12  1  0.500000  0.074377  0.853001  1
  In  In13  1  0.500000  0.928401  0.147782  1
  In  In14  1  0.500000  0.292027  0.066414  1
  In  In15  1  0.500000  0.709306  0.934495  1
  In  In16  1  0.500000  0.208647  0.565685  1
  In  In17  1  0.500000  0.794398  0.432041  1
  Ir  Ir18  1  0.500000  0.020790  0.303935  1
  Pt  Pt19  1  0.500000  0.975703  0.696752  1
  Pt  Pt20  1  0.500000  0.476086  0.803791  1
  Pt  Pt21  1  0.500000  0.521232  0.196327  1
