# generated using pymatgen
data_TbEr5Si24OsRu7
_symmetry_space_group_name_H-M   'P 1'
_cell_length_a   10.11197311
_cell_length_b   10.11146487
_cell_length_c   8.12993831
_cell_angle_alpha   89.96757925
_cell_angle_beta   90.02551466
_cell_angle_gamma   132.58599187
_symmetry_Int_Tables_number   1
_chemical_formula_structural   TbEr5Si24OsRu7
_chemical_formula_sum   'Tb1 Er5 Si24 Os1 Ru7'
_cell_volume   612.02600452
_cell_formula_units_Z   1
loop_
 _symmetry_equiv_pos_site_id
 _symmetry_equiv_pos_as_xyz
  1  'x, y, z'
loop_
 _atom_site_type_symbol
 _atom_site_label
 _atom_site_symmetry_multiplicity
 _atom_site_fract_x
 _atom_site_fract_y
 _atom_site_fract_z
 _atom_site_occupancy
  Tb  Tb0  1  0.002666  0.502399  0.750327  1
  Er  Er1  1  0.499970  0.499988  0.499947  1
  Er  Er2  1  0.000034  0.999954  0.000077  1
  Er  Er3  1  0.502428  0.002485  0.750142  1
  Er  Er4  1  0.997553  0.497576  0.249915  1
  Er  Er5  1  0.497773  0.997488  0.249737  1
  Si  Si6  1  0.795157  0.204072  0.499541  1
  Si  Si7  1  0.295334  0.705626  0.000537  1
  Si  Si8  1  0.205587  0.795346  0.499460  1
  Si  Si9  1  0.704807  0.294372  0.000477  1
  Si  Si10  1  0.332074  0.332275  0.833386  1
  Si  Si11  1  0.667704  0.667941  0.166589  1
  Si  Si12  1  0.167148  0.166889  0.332452  1
  Si  Si13  1  0.833085  0.832867  0.667567  1
  Si  Si14  1  0.122193  0.888036  0.728955  1
  Si  Si15  1  0.112060  0.877897  0.271274  1
  Si  Si16  1  0.612376  0.378371  0.226994  1
  Si  Si17  1  0.621509  0.387490  0.772784  1
  Si  Si18  1  0.877446  0.111379  0.270787  1
  Si  Si19  1  0.888502  0.122403  0.729364  1
  Si  Si20  1  0.387854  0.622460  0.771751  1
  Si  Si21  1  0.377612  0.612205  0.228029  1
  Si  Si22  1  0.343983  0.110715  0.505190  1
  Si  Si23  1  0.889111  0.655696  0.494477  1
  Si  Si24  1  0.387976  0.154358  0.004724  1
  Si  Si25  1  0.845879  0.612297  0.995639  1
  Si  Si26  1  0.654194  0.887995  0.493817  1
  Si  Si27  1  0.112256  0.346031  0.505820  1
  Si  Si28  1  0.611922  0.845480  0.995146  1
  Si  Si29  1  0.154287  0.387943  0.005191  1
  Os  Os30  1  0.668456  0.329463  0.499282  1
  Ru  Ru31  1  0.170349  0.831471  0.000799  1
  Ru  Ru32  1  0.331414  0.670362  0.499200  1
  Ru  Ru33  1  0.829607  0.168549  0.000632  1
  Ru  Ru34  1  0.127310  0.127548  0.626989  1
  Ru  Ru35  1  0.872402  0.872628  0.373111  1
  Ru  Ru36  1  0.373865  0.373846  0.127837  1
  Ru  Ru37  1  0.626116  0.626097  0.872051  1
