# generated using pymatgen
data_Ac3Ga2
_symmetry_space_group_name_H-M   'P 1'
_cell_length_a   8.23135800
_cell_length_b   8.23135800
_cell_length_c   4.96226400
_cell_angle_alpha   90.00000000
_cell_angle_beta   90.00000000
_cell_angle_gamma   90.00000000
_symmetry_Int_Tables_number   1
_chemical_formula_structural   Ac3Ga2
_chemical_formula_sum   'Ac6 Ga4'
_cell_volume   336.21946034
_cell_formula_units_Z   2
loop_
 _symmetry_equiv_pos_site_id
 _symmetry_equiv_pos_as_xyz
  1  'x, y, z'
loop_
 _atom_site_type_symbol
 _atom_site_label
 _atom_site_symmetry_multiplicity
 _atom_site_fract_x
 _atom_site_fract_y
 _atom_site_fract_z
 _atom_site_occupancy
  Ac  Ac0  1  0.000000  0.000000  0.000000  1
  Ac  Ac1  1  0.499999  0.499999  0.000000  1
  Ac  Ac2  1  0.328380  0.171619  0.500001  1
  Ac  Ac3  1  0.828381  0.328380  0.500001  1
  Ac  Ac4  1  0.171619  0.671620  0.500001  1
  Ac  Ac5  1  0.671620  0.828381  0.500001  1
  Ga  Ga6  1  0.613972  0.113971  0.000000  1
  Ga  Ga7  1  0.113971  0.386028  0.000000  1
  Ga  Ga8  1  0.886029  0.613972  0.000000  1
  Ga  Ga9  1  0.386028  0.886029  0.000000  1
