# generated using pymatgen
data_TmSb(SeO3)4
_symmetry_space_group_name_H-M   'P 1'
_cell_length_a   8.42153500
_cell_length_b   8.78095259
_cell_length_c   8.54503689
_cell_angle_alpha   90.95786837
_cell_angle_beta   90.00000000
_cell_angle_gamma   90.00000000
_symmetry_Int_Tables_number   1
_chemical_formula_structural   TmSb(SeO3)4
_chemical_formula_sum   'Tm2 Sb2 Se8 O24'
_cell_volume   631.80948091
_cell_formula_units_Z   2
loop_
 _symmetry_equiv_pos_site_id
 _symmetry_equiv_pos_as_xyz
  1  'x, y, z'
loop_
 _atom_site_type_symbol
 _atom_site_label
 _atom_site_symmetry_multiplicity
 _atom_site_fract_x
 _atom_site_fract_y
 _atom_site_fract_z
 _atom_site_occupancy
  Tm  Tm0  1  0.000000  0.500000  0.000000  1
  Tm  Tm1  1  0.500000  0.500000  0.500000  1
  Sb  Sb2  1  0.000000  0.000000  0.500000  1
  Sb  Sb3  1  0.500000  0.000000  0.000000  1
  Se  Se4  1  0.340994  0.691687  0.169070  1
  Se  Se5  1  0.840994  0.308313  0.330930  1
  Se  Se6  1  0.693884  0.842133  0.687617  1
  Se  Se7  1  0.193884  0.157867  0.812383  1
  Se  Se8  1  0.659006  0.308313  0.830930  1
  Se  Se9  1  0.159006  0.691687  0.669070  1
  Se  Se10  1  0.306116  0.157867  0.312383  1
  Se  Se11  1  0.806116  0.842133  0.187617  1
  O  O12  1  0.246017  0.570917  0.044886  1
  O  O13  1  0.746017  0.429083  0.455114  1
  O  O14  1  0.765343  0.978676  0.551937  1
  O  O15  1  0.265343  0.021324  0.948063  1
  O  O16  1  0.547170  0.966692  0.768699  1
  O  O17  1  0.476086  0.579780  0.257472  1
  O  O18  1  0.976086  0.420220  0.242528  1
  O  O19  1  0.047170  0.033308  0.731301  1
  O  O20  1  0.977737  0.223615  0.472511  1
  O  O21  1  0.579480  0.735832  0.569555  1
  O  O22  1  0.477737  0.776385  0.027489  1
  O  O23  1  0.079480  0.264168  0.930445  1
  O  O24  1  0.753983  0.429083  0.955114  1
  O  O25  1  0.253983  0.570917  0.544886  1
  O  O26  1  0.234657  0.021324  0.448063  1
  O  O27  1  0.734657  0.978676  0.051937  1
  O  O28  1  0.452830  0.033308  0.231301  1
  O  O29  1  0.523914  0.420220  0.742528  1
  O  O30  1  0.023914  0.579780  0.757472  1
  O  O31  1  0.952830  0.966692  0.268699  1
  O  O32  1  0.022263  0.776385  0.527489  1
  O  O33  1  0.420520  0.264168  0.430445  1
  O  O34  1  0.522263  0.223615  0.972511  1
  O  O35  1  0.920520  0.735832  0.069555  1
