# generated using pymatgen
data_DyHo2MoO6
_symmetry_space_group_name_H-M   'P 1'
_cell_length_a   6.62005117
_cell_length_b   6.61670422
_cell_length_c   6.61970212
_cell_angle_alpha   92.08199755
_cell_angle_beta   92.09281241
_cell_angle_gamma   92.12067885
_symmetry_Int_Tables_number   1
_chemical_formula_structural   DyHo2MoO6
_chemical_formula_sum   'Dy2 Ho4 Mo2 O12'
_cell_volume   289.36420904
_cell_formula_units_Z   2
loop_
 _symmetry_equiv_pos_site_id
 _symmetry_equiv_pos_as_xyz
  1  'x, y, z'
loop_
 _atom_site_type_symbol
 _atom_site_label
 _atom_site_symmetry_multiplicity
 _atom_site_fract_x
 _atom_site_fract_y
 _atom_site_fract_z
 _atom_site_occupancy
  Dy  Dy0  1  0.746797  0.931462  0.439596  1
  Dy  Dy1  1  0.931597  0.440242  0.746992  1
  Ho  Ho2  1  0.439898  0.747027  0.931441  1
  Ho  Ho3  1  0.253330  0.068606  0.560124  1
  Ho  Ho4  1  0.069155  0.559865  0.253156  1
  Ho  Ho5  1  0.559558  0.253470  0.068806  1
  Mo  Mo6  1  0.499615  0.499986  0.500046  1
  Mo  Mo7  1  0.000960  0.000527  0.000793  1
  O  O8  1  0.595694  0.466775  0.811338  1
  O  O9  1  0.465878  0.810999  0.597852  1
  O  O10  1  0.810932  0.596124  0.465531  1
  O  O11  1  0.402909  0.533344  0.188445  1
  O  O12  1  0.531723  0.188652  0.402264  1
  O  O13  1  0.188617  0.402456  0.531932  1
  O  O14  1  0.071116  0.908617  0.310719  1
  O  O15  1  0.908371  0.310635  0.071162  1
  O  O16  1  0.689494  0.930459  0.089719  1
  O  O17  1  0.092123  0.689962  0.931053  1
  O  O18  1  0.931397  0.090519  0.689976  1
  O  O19  1  0.310835  0.070274  0.909052  1
