# generated using pymatgen
data_Er7Pa(SiPt)8
_symmetry_space_group_name_H-M   'P 1'
_cell_length_a   4.29913700
_cell_length_b   7.38777718
_cell_length_c   13.96605900
_cell_angle_alpha   90.01254062
_cell_angle_beta   90.00000000
_cell_angle_gamma   90.00000000
_symmetry_Int_Tables_number   1
_chemical_formula_structural   Er7Pa(SiPt)8
_chemical_formula_sum   'Er7 Pa1 Si8 Pt8'
_cell_volume   443.57691396
_cell_formula_units_Z   1
loop_
 _symmetry_equiv_pos_site_id
 _symmetry_equiv_pos_as_xyz
  1  'x, y, z'
loop_
 _atom_site_type_symbol
 _atom_site_label
 _atom_site_symmetry_multiplicity
 _atom_site_fract_x
 _atom_site_fract_y
 _atom_site_fract_z
 _atom_site_occupancy
  Er  Er0  1  0.000000  0.297893  0.996855  1
  Er  Er1  1  0.500000  0.704045  0.502163  1
  Er  Er2  1  0.000000  0.292680  0.501907  1
  Er  Er3  1  0.500000  0.705950  0.999177  1
  Er  Er4  1  0.500000  0.788867  0.251525  1
  Er  Er5  1  0.000000  0.203758  0.750778  1
  Er  Er6  1  0.500000  0.794129  0.749561  1
  Pa  Pa7  1  0.000000  0.208625  0.248843  1
  Si  Si8  1  0.000000  0.910829  0.594189  1
  Si  Si9  1  0.500000  0.090125  0.905946  1
  Si  Si10  1  0.000000  0.909218  0.408836  1
  Si  Si11  1  0.500000  0.088871  0.091214  1
  Si  Si12  1  0.000000  0.592050  0.145687  1
  Si  Si13  1  0.500000  0.414877  0.350398  1
  Si  Si14  1  0.000000  0.589565  0.851343  1
  Si  Si15  1  0.500000  0.409271  0.648969  1
  Pt  Pt16  1  0.500000  0.077885  0.609278  1
  Pt  Pt17  1  0.000000  0.921275  0.890606  1
  Pt  Pt18  1  0.500000  0.078799  0.390117  1
  Pt  Pt19  1  0.000000  0.924329  0.109898  1
  Pt  Pt20  1  0.500000  0.412521  0.151124  1
  Pt  Pt21  1  0.000000  0.582735  0.350877  1
  Pt  Pt22  1  0.500000  0.419520  0.846310  1
  Pt  Pt23  1  0.000000  0.582185  0.654393  1
