# generated using pymatgen
data_TbDy7Hf11Si16Mo
_symmetry_space_group_name_H-M   'P 1'
_cell_length_a   7.25287686
_cell_length_b   7.25245558
_cell_length_c   13.31080007
_cell_angle_alpha   89.94541196
_cell_angle_beta   90.04489748
_cell_angle_gamma   90.06295064
_symmetry_Int_Tables_number   1
_chemical_formula_structural   TbDy7Hf11Si16Mo
_chemical_formula_sum   'Tb1 Dy7 Hf11 Si16 Mo1'
_cell_volume   700.16266649
_cell_formula_units_Z   1
loop_
 _symmetry_equiv_pos_site_id
 _symmetry_equiv_pos_as_xyz
  1  'x, y, z'
loop_
 _atom_site_type_symbol
 _atom_site_label
 _atom_site_symmetry_multiplicity
 _atom_site_fract_x
 _atom_site_fract_y
 _atom_site_fract_z
 _atom_site_occupancy
  Tb  Tb0  1  0.656726  0.004279  0.283490  1
  Dy  Dy1  1  0.998627  0.343144  0.212501  1
  Dy  Dy2  1  0.004145  0.656634  0.716468  1
  Dy  Dy3  1  0.156620  0.495473  0.465459  1
  Dy  Dy4  1  0.501144  0.845614  0.034239  1
  Dy  Dy5  1  0.845660  0.501185  0.965749  1
  Dy  Dy6  1  0.495446  0.156623  0.534549  1
  Dy  Dy7  1  0.343096  0.998574  0.787501  1
  Hf  Hf8  1  0.825621  0.825578  0.500048  1
  Hf  Hf9  1  0.324374  0.674345  0.248965  1
  Hf  Hf10  1  0.674439  0.324433  0.751031  1
  Hf  Hf11  1  0.148577  0.997127  0.373682  1
  Hf  Hf12  1  0.853258  0.004826  0.877393  1
  Hf  Hf13  1  0.503875  0.648572  0.624715  1
  Hf  Hf14  1  0.349250  0.493230  0.877214  1
  Hf  Hf15  1  0.493141  0.349319  0.122731  1
  Hf  Hf16  1  0.648594  0.503928  0.375337  1
  Hf  Hf17  1  0.997165  0.148487  0.626360  1
  Hf  Hf18  1  0.004855  0.853209  0.122549  1
  Si  Si19  1  0.362444  0.295298  0.316393  1
  Si  Si20  1  0.636559  0.704907  0.817656  1
  Si  Si21  1  0.205000  0.862771  0.567279  1
  Si  Si22  1  0.137630  0.796387  0.933006  1
  Si  Si23  1  0.796456  0.137637  0.066936  1
  Si  Si24  1  0.862937  0.205153  0.432856  1
  Si  Si25  1  0.295172  0.362591  0.683607  1
  Si  Si26  1  0.704953  0.636339  0.182291  1
  Si  Si27  1  0.294059  0.051218  0.182801  1
  Si  Si28  1  0.704036  0.951980  0.685938  1
  Si  Si29  1  0.450656  0.795717  0.435190  1
  Si  Si30  1  0.203962  0.547193  0.064182  1
  Si  Si31  1  0.547200  0.203966  0.935809  1
  Si  Si32  1  0.795865  0.450812  0.564911  1
  Si  Si33  1  0.051169  0.294274  0.817134  1
  Si  Si34  1  0.952087  0.703944  0.314059  1
  Mo  Mo35  1  0.175202  0.175233  0.999971  1
