# generated using pymatgen
data_Li2Nd6Zn21P
_symmetry_space_group_name_H-M   'P 1'
_cell_length_a   9.24813968
_cell_length_b   9.27435809
_cell_length_c   9.27435900
_cell_angle_alpha   60.00000031
_cell_angle_beta   59.90617510
_cell_angle_gamma   59.90617524
_symmetry_Int_Tables_number   1
_chemical_formula_structural   Li2Nd6Zn21P
_chemical_formula_sum   'Li2 Nd6 Zn21 P1'
_cell_volume   561.68107191
_cell_formula_units_Z   1
loop_
 _symmetry_equiv_pos_site_id
 _symmetry_equiv_pos_as_xyz
  1  'x, y, z'
loop_
 _atom_site_type_symbol
 _atom_site_label
 _atom_site_symmetry_multiplicity
 _atom_site_fract_x
 _atom_site_fract_y
 _atom_site_fract_z
 _atom_site_occupancy
  Li  Li0  1  0.620588  0.126471  0.126471  1
  Li  Li1  1  0.008023  0.997325  0.997325  1
  Nd  Nd2  1  0.715392  0.286590  0.286590  1
  Nd  Nd3  1  0.715392  0.286590  0.711430  1
  Nd  Nd4  1  0.715392  0.711430  0.286590  1
  Nd  Nd5  1  0.282621  0.716932  0.716932  1
  Nd  Nd6  1  0.282621  0.716932  0.283515  1
  Nd  Nd7  1  0.282621  0.283515  0.716932  1
  Zn  Zn8  1  0.125470  0.621819  0.126356  1
  Zn  Zn9  1  0.125470  0.126356  0.621819  1
  Zn  Zn10  1  0.125470  0.126356  0.126356  1
  Zn  Zn11  1  0.382539  0.872487  0.872487  1
  Zn  Zn12  1  0.869063  0.375500  0.877719  1
  Zn  Zn13  1  0.869063  0.877719  0.375500  1
  Zn  Zn14  1  0.869063  0.877719  0.877719  1
  Zn  Zn15  1  0.501670  0.000272  0.000272  1
  Zn  Zn16  1  0.501670  0.000272  0.497786  1
  Zn  Zn17  1  0.501670  0.497786  0.000272  1
  Zn  Zn18  1  0.000961  0.500228  0.500228  1
  Zn  Zn19  1  0.000961  0.500228  0.998585  1
  Zn  Zn20  1  0.000961  0.998585  0.500228  1
  Zn  Zn21  1  0.017940  0.327353  0.327353  1
  Zn  Zn22  1  0.329420  0.018803  0.325888  1
  Zn  Zn23  1  0.329420  0.325888  0.018803  1
  Zn  Zn24  1  0.329420  0.325888  0.325888  1
  Zn  Zn25  1  0.980407  0.673198  0.673198  1
  Zn  Zn26  1  0.673541  0.981284  0.672588  1
  Zn  Zn27  1  0.673541  0.672588  0.981284  1
  Zn  Zn28  1  0.673541  0.672588  0.672588  1
  P  P29  1  0.496093  0.501302  0.501302  1
