# generated using pymatgen
data_Lu6Zr4AlSb5
_symmetry_space_group_name_H-M   'P 1'
_cell_length_a   8.65212000
_cell_length_b   8.65212119
_cell_length_c   5.94805800
_cell_angle_alpha   90.00000000
_cell_angle_beta   90.00000000
_cell_angle_gamma   120.11875740
_symmetry_Int_Tables_number   1
_chemical_formula_structural   Lu6Zr4AlSb5
_chemical_formula_sum   'Lu6 Zr4 Al1 Sb5'
_cell_volume   385.15008584
_cell_formula_units_Z   1
loop_
 _symmetry_equiv_pos_site_id
 _symmetry_equiv_pos_as_xyz
  1  'x, y, z'
loop_
 _atom_site_type_symbol
 _atom_site_label
 _atom_site_symmetry_multiplicity
 _atom_site_fract_x
 _atom_site_fract_y
 _atom_site_fract_z
 _atom_site_occupancy
  Lu  Lu0  1  0.751353  0.751353  0.750000  1
  Lu  Lu1  1  0.248862  0.009906  0.750000  1
  Lu  Lu2  1  0.009906  0.248862  0.750000  1
  Lu  Lu3  1  0.242327  0.242327  0.250000  1
  Lu  Lu4  1  0.752538  0.997010  0.250000  1
  Lu  Lu5  1  0.997010  0.752538  0.250000  1
  Zr  Zr6  1  0.664121  0.333521  0.997376  1
  Zr  Zr7  1  0.333521  0.664121  0.997376  1
  Zr  Zr8  1  0.333521  0.664121  0.502624  1
  Zr  Zr9  1  0.664121  0.333521  0.502624  1
  Al  Al10  1  0.402609  0.402609  0.750000  1
  Sb  Sb11  1  0.608769  0.001622  0.750000  1
  Sb  Sb12  1  0.001622  0.608769  0.750000  1
  Sb  Sb13  1  0.598750  0.598750  0.250000  1
  Sb  Sb14  1  0.392895  0.998076  0.250000  1
  Sb  Sb15  1  0.998076  0.392895  0.250000  1
