# generated using pymatgen
data_Sc3CI5
_symmetry_space_group_name_H-M   'P 1'
_cell_length_a   7.31834384
_cell_length_b   9.55959109
_cell_length_c   9.54223777
_cell_angle_alpha   107.01966656
_cell_angle_beta   96.69051014
_cell_angle_gamma   104.09888579
_symmetry_Int_Tables_number   1
_chemical_formula_structural   Sc3CI5
_chemical_formula_sum   'Sc6 C2 I10'
_cell_volume   606.28482195
_cell_formula_units_Z   2
loop_
 _symmetry_equiv_pos_site_id
 _symmetry_equiv_pos_as_xyz
  1  'x, y, z'
loop_
 _atom_site_type_symbol
 _atom_site_label
 _atom_site_symmetry_multiplicity
 _atom_site_fract_x
 _atom_site_fract_y
 _atom_site_fract_z
 _atom_site_occupancy
  Sc  Sc0  1  0.094807  0.031766  0.796697  1
  Sc  Sc1  1  0.369313  0.127311  0.169997  1
  Sc  Sc2  1  0.905193  0.968234  0.203303  1
  Sc  Sc3  1  0.027861  0.765923  0.932439  1
  Sc  Sc4  1  0.972139  0.234077  0.067561  1
  Sc  Sc5  1  0.630687  0.872689  0.830003  1
  C  C6  1  0.903968  0.970303  0.959482  1
  C  C7  1  0.096032  0.029697  0.040518  1
  I  I8  1  0.196284  0.748646  0.667246  1
  I  I9  1  0.082208  0.337966  0.828729  1
  I  I10  1  0.457844  0.820858  0.092017  1
  I  I11  1  0.255131  0.083848  0.438631  1
  I  I12  1  0.542156  0.179142  0.907983  1
  I  I13  1  0.803716  0.251354  0.332754  1
  I  I14  1  0.338241  0.433312  0.260902  1
  I  I15  1  0.917792  0.662034  0.171271  1
  I  I16  1  0.661759  0.566688  0.739098  1
  I  I17  1  0.744869  0.916152  0.561369  1
