# generated using pymatgen
data_Sc4CoOs5W2
_symmetry_space_group_name_H-M   'P 1'
_cell_length_a   5.32618402
_cell_length_b   5.30755336
_cell_length_c   8.27028400
_cell_angle_alpha   90.00000000
_cell_angle_beta   90.00000000
_cell_angle_gamma   119.88436544
_symmetry_Int_Tables_number   1
_chemical_formula_structural   Sc4CoOs5W2
_chemical_formula_sum   'Sc4 Co1 Os5 W2'
_cell_volume   202.70593163
_cell_formula_units_Z   1
loop_
 _symmetry_equiv_pos_site_id
 _symmetry_equiv_pos_as_xyz
  1  'x, y, z'
loop_
 _atom_site_type_symbol
 _atom_site_label
 _atom_site_symmetry_multiplicity
 _atom_site_fract_x
 _atom_site_fract_y
 _atom_site_fract_z
 _atom_site_occupancy
  Sc  Sc0  1  0.333244  0.666623  0.437058  1
  Sc  Sc1  1  0.667539  0.333769  0.565663  1
  Sc  Sc2  1  0.667539  0.333769  0.934337  1
  Sc  Sc3  1  0.333244  0.666623  0.062942  1
  Co  Co4  1  0.659944  0.829973  0.750000  1
  Os  Os5  1  0.821273  0.172123  0.250000  1
  Os  Os6  1  0.821273  0.649148  0.250000  1
  Os  Os7  1  0.339706  0.169853  0.250000  1
  Os  Os8  1  0.178309  0.825899  0.750000  1
  Os  Os9  1  0.178309  0.352412  0.750000  1
  W  W10  1  0.999809  0.999905  0.504589  1
  W  W11  1  0.999809  0.999905  0.995411  1
