# generated using pymatgen
data_Sm2Er4Si5GeRh12
_symmetry_space_group_name_H-M   'P 1'
_cell_length_a   5.58888300
_cell_length_b   5.58888305
_cell_length_c   15.05293300
_cell_angle_alpha   90.00000000
_cell_angle_beta   90.00000000
_cell_angle_gamma   119.99999380
_symmetry_Int_Tables_number   1
_chemical_formula_structural   Sm2Er4Si5GeRh12
_chemical_formula_sum   'Sm2 Er4 Si5 Ge1 Rh12'
_cell_volume   407.19442855
_cell_formula_units_Z   1
loop_
 _symmetry_equiv_pos_site_id
 _symmetry_equiv_pos_as_xyz
  1  'x, y, z'
loop_
 _atom_site_type_symbol
 _atom_site_label
 _atom_site_symmetry_multiplicity
 _atom_site_fract_x
 _atom_site_fract_y
 _atom_site_fract_z
 _atom_site_occupancy
  Sm  Sm0  1  0.333333  0.666667  0.749515  1
  Sm  Sm1  1  0.666667  0.333333  0.250485  1
  Er  Er2  1  0.333333  0.666667  0.536256  1
  Er  Er3  1  0.666667  0.333333  0.463744  1
  Er  Er4  1  0.666667  0.333333  0.036753  1
  Er  Er5  1  0.333333  0.666667  0.963247  1
  Si  Si6  1  0.000000  0.000000  0.250776  1
  Si  Si7  1  0.000000  0.000000  0.749224  1
  Si  Si8  1  0.333333  0.666667  0.251204  1
  Si  Si9  1  0.666667  0.333333  0.748796  1
  Si  Si10  1  0.000000  0.000000  0.500000  1
  Ge  Ge11  1  0.000000  0.000000  0.000000  1
  Rh  Rh12  1  0.167906  0.335812  0.132059  1
  Rh  Rh13  1  0.832094  0.664188  0.867941  1
  Rh  Rh14  1  0.664188  0.832094  0.132059  1
  Rh  Rh15  1  0.833217  0.666436  0.629064  1
  Rh  Rh16  1  0.335812  0.167906  0.867941  1
  Rh  Rh17  1  0.166783  0.333564  0.370936  1
  Rh  Rh18  1  0.167906  0.832094  0.132059  1
  Rh  Rh19  1  0.333564  0.166783  0.629064  1
  Rh  Rh20  1  0.832094  0.167906  0.867941  1
  Rh  Rh21  1  0.666436  0.833217  0.370936  1
  Rh  Rh22  1  0.833217  0.166783  0.629064  1
  Rh  Rh23  1  0.166783  0.833217  0.370936  1
