# generated using pymatgen
data_Dy2Mn16SiC2
_symmetry_space_group_name_H-M   'P 1'
_cell_length_a   6.40467793
_cell_length_b   6.45614760
_cell_length_c   6.40467770
_cell_angle_alpha   83.60868837
_cell_angle_beta   83.58697465
_cell_angle_gamma   83.60868679
_symmetry_Int_Tables_number   1
_chemical_formula_structural   Dy2Mn16SiC2
_chemical_formula_sum   'Dy2 Mn16 Si1 C2'
_cell_volume   260.22329809
_cell_formula_units_Z   1
loop_
 _symmetry_equiv_pos_site_id
 _symmetry_equiv_pos_as_xyz
  1  'x, y, z'
loop_
 _atom_site_type_symbol
 _atom_site_label
 _atom_site_symmetry_multiplicity
 _atom_site_fract_x
 _atom_site_fract_y
 _atom_site_fract_z
 _atom_site_occupancy
  Dy  Dy0  1  0.648217  0.652570  0.648217  1
  Dy  Dy1  1  0.351783  0.347430  0.351783  1
  Mn  Mn2  1  0.903221  0.906052  0.903221  1
  Mn  Mn3  1  0.096779  0.093948  0.096779  1
  Mn  Mn4  1  0.724529  0.000000  0.275471  1
  Mn  Mn5  1  0.992094  0.278466  0.718752  1
  Mn  Mn6  1  0.281248  0.721534  0.007906  1
  Mn  Mn7  1  0.007906  0.721534  0.281248  1
  Mn  Mn8  1  0.718752  0.278466  0.992094  1
  Mn  Mn9  1  0.275471  0.000000  0.724529  1
  Mn  Mn10  1  0.339893  0.338950  0.860571  1
  Mn  Mn11  1  0.352091  0.869423  0.352091  1
  Mn  Mn12  1  0.860571  0.338950  0.339893  1
  Mn  Mn13  1  0.660107  0.661050  0.139429  1
  Mn  Mn14  1  0.647909  0.130577  0.647909  1
  Mn  Mn15  1  0.139429  0.661050  0.660107  1
  Mn  Mn16  1  0.500000  0.000000  0.000000  1
  Mn  Mn17  1  0.000000  0.000000  0.500000  1
  Si  Si18  1  0.000000  0.500000  0.000000  1
  C  C19  1  0.000000  0.500000  0.500000  1
  C  C20  1  0.500000  0.500000  0.000000  1
