# generated using pymatgen
data_Tb5ThCoSi4Ni
_symmetry_space_group_name_H-M   'P 1'
_cell_length_a   4.14886000
_cell_length_b   11.33556400
_cell_length_c   11.35061900
_cell_angle_alpha   90.00000000
_cell_angle_beta   90.00000000
_cell_angle_gamma   90.00000000
_symmetry_Int_Tables_number   1
_chemical_formula_structural   Tb5ThCoSi4Ni
_chemical_formula_sum   'Tb10 Th2 Co2 Si8 Ni2'
_cell_volume   533.81584381
_cell_formula_units_Z   2
loop_
 _symmetry_equiv_pos_site_id
 _symmetry_equiv_pos_as_xyz
  1  'x, y, z'
loop_
 _atom_site_type_symbol
 _atom_site_label
 _atom_site_symmetry_multiplicity
 _atom_site_fract_x
 _atom_site_fract_y
 _atom_site_fract_z
 _atom_site_occupancy
  Tb  Tb0  1  0.750000  0.938647  0.116430  1
  Tb  Tb1  1  0.750000  0.561353  0.616430  1
  Tb  Tb2  1  0.250000  0.120029  0.558821  1
  Tb  Tb3  1  0.250000  0.379971  0.058821  1
  Tb  Tb4  1  0.750000  0.873510  0.438726  1
  Tb  Tb5  1  0.750000  0.626490  0.938726  1
  Tb  Tb6  1  0.250000  0.802697  0.714052  1
  Tb  Tb7  1  0.250000  0.697303  0.214052  1
  Tb  Tb8  1  0.750000  0.193438  0.289282  1
  Tb  Tb9  1  0.750000  0.306562  0.789282  1
  Th  Th10  1  0.250000  0.057470  0.883401  1
  Th  Th11  1  0.250000  0.442530  0.383401  1
  Co  Co12  1  0.750000  0.631355  0.369267  1
  Co  Co13  1  0.750000  0.868645  0.869267  1
  Si  Si14  1  0.250000  0.810416  0.973941  1
  Si  Si15  1  0.250000  0.689584  0.473941  1
  Si  Si16  1  0.750000  0.191251  0.030487  1
  Si  Si17  1  0.750000  0.308749  0.530487  1
  Si  Si18  1  0.250000  0.493598  0.802002  1
  Si  Si19  1  0.250000  0.006402  0.302002  1
  Si  Si20  1  0.750000  0.510037  0.194224  1
  Si  Si21  1  0.750000  0.989963  0.694224  1
  Ni  Ni22  1  0.250000  0.363240  0.629367  1
  Ni  Ni23  1  0.250000  0.136760  0.129367  1
