# generated using pymatgen
data_NaYbTmI6
_symmetry_space_group_name_H-M   'P 1'
_cell_length_a   8.63805068
_cell_length_b   8.63809312
_cell_length_c   8.63801372
_cell_angle_alpha   53.44682227
_cell_angle_beta   53.44692003
_cell_angle_gamma   53.44687758
_symmetry_Int_Tables_number   1
_chemical_formula_structural   NaYbTmI6
_chemical_formula_sum   'Na1 Yb1 Tm1 I6'
_cell_volume   385.85824791
_cell_formula_units_Z   1
loop_
 _symmetry_equiv_pos_site_id
 _symmetry_equiv_pos_as_xyz
  1  'x, y, z'
loop_
 _atom_site_type_symbol
 _atom_site_label
 _atom_site_symmetry_multiplicity
 _atom_site_fract_x
 _atom_site_fract_y
 _atom_site_fract_z
 _atom_site_occupancy
  Na  Na0  1  0.669878  0.669874  0.669882  1
  Yb  Yb1  1  0.330854  0.330854  0.330855  1
  Tm  Tm2  1  0.999938  0.999910  0.999924  1
  I  I3  1  0.235073  0.601682  0.924993  1
  I  I4  1  0.601664  0.925000  0.235081  1
  I  I5  1  0.925003  0.235087  0.601659  1
  I  I6  1  0.754906  0.387462  0.095232  1
  I  I7  1  0.387458  0.095227  0.754909  1
  I  I8  1  0.095229  0.754904  0.387467  1
