# generated using pymatgen
data_TmLu2Mg3Ga2Hg
_symmetry_space_group_name_H-M   'P 1'
_cell_length_a   7.30052500
_cell_length_b   7.30903760
_cell_length_c   4.34875400
_cell_angle_alpha   90.00000000
_cell_angle_beta   90.00000000
_cell_angle_gamma   119.96147603
_symmetry_Int_Tables_number   1
_chemical_formula_structural   TmLu2Mg3Ga2Hg
_chemical_formula_sum   'Tm1 Lu2 Mg3 Ga2 Hg1'
_cell_volume   201.03803047
_cell_formula_units_Z   1
loop_
 _symmetry_equiv_pos_site_id
 _symmetry_equiv_pos_as_xyz
  1  'x, y, z'
loop_
 _atom_site_type_symbol
 _atom_site_label
 _atom_site_symmetry_multiplicity
 _atom_site_fract_x
 _atom_site_fract_y
 _atom_site_fract_z
 _atom_site_occupancy
  Tm  Tm0  1  0.570947  0.000000  0.000000  1
  Lu  Lu1  1  0.999923  0.571041  0.000000  1
  Lu  Lu2  1  0.428882  0.428959  0.000000  1
  Mg  Mg3  1  0.000161  0.249616  0.500000  1
  Mg  Mg4  1  0.750545  0.750384  0.500000  1
  Mg  Mg5  1  0.249325  0.000000  0.500000  1
  Ga  Ga6  1  0.666808  0.333818  0.500000  1
  Ga  Ga7  1  0.332989  0.666182  0.500000  1
  Hg  Hg8  1  0.000421  0.000000  0.000000  1
