# generated using pymatgen
data_Y2CdNi7B2
_symmetry_space_group_name_H-M   'P 1'
_cell_length_a   5.02593505
_cell_length_b   5.02023495
_cell_length_c   14.23880100
_cell_angle_alpha   90.00000000
_cell_angle_beta   90.00000000
_cell_angle_gamma   120.01440450
_symmetry_Int_Tables_number   1
_chemical_formula_structural   Y2CdNi7B2
_chemical_formula_sum   'Y4 Cd2 Ni14 B4'
_cell_volume   311.08703417
_cell_formula_units_Z   2
loop_
 _symmetry_equiv_pos_site_id
 _symmetry_equiv_pos_as_xyz
  1  'x, y, z'
loop_
 _atom_site_type_symbol
 _atom_site_label
 _atom_site_symmetry_multiplicity
 _atom_site_fract_x
 _atom_site_fract_y
 _atom_site_fract_z
 _atom_site_occupancy
  Y  Y0  1  0.666863  0.333541  0.470908  1
  Y  Y1  1  0.333137  0.666459  0.970908  1
  Y  Y2  1  0.333244  0.666559  0.743231  1
  Y  Y3  1  0.666756  0.333441  0.243231  1
  Cd  Cd4  1  0.332910  0.666271  0.531534  1
  Cd  Cd5  1  0.667090  0.333729  0.031534  1
  Ni  Ni6  1  0.999877  0.999886  0.000903  1
  Ni  Ni7  1  0.000123  0.000114  0.500903  1
  Ni  Ni8  1  0.165464  0.330599  0.148690  1
  Ni  Ni9  1  0.834536  0.669401  0.648690  1
  Ni  Ni10  1  0.669787  0.834961  0.148597  1
  Ni  Ni11  1  0.165495  0.835014  0.148636  1
  Ni  Ni12  1  0.834505  0.164986  0.648636  1
  Ni  Ni13  1  0.330213  0.165039  0.648597  1
  Ni  Ni14  1  0.833936  0.668222  0.851407  1
  Ni  Ni15  1  0.834156  0.165720  0.851432  1
  Ni  Ni16  1  0.331630  0.165671  0.851521  1
  Ni  Ni17  1  0.668370  0.834329  0.351521  1
  Ni  Ni18  1  0.165844  0.834280  0.351432  1
  Ni  Ni19  1  0.166064  0.331778  0.351407  1
  B  B20  1  0.333764  0.667077  0.250269  1
  B  B21  1  0.666236  0.332923  0.750269  1
  B  B22  1  0.999958  0.000027  0.252872  1
  B  B23  1  0.000042  0.999973  0.752872  1
