# generated using pymatgen
data_CeNdTh2(Si3Rh)2
_symmetry_space_group_name_H-M   'P 1'
_cell_length_a   8.26168601
_cell_length_b   8.26168579
_cell_length_c   4.19088200
_cell_angle_alpha   90.00000000
_cell_angle_beta   90.00000000
_cell_angle_gamma   120.68094465
_symmetry_Int_Tables_number   1
_chemical_formula_structural   CeNdTh2(Si3Rh)2
_chemical_formula_sum   'Ce1 Nd1 Th2 Si6 Rh2'
_cell_volume   246.00977465
_cell_formula_units_Z   1
loop_
 _symmetry_equiv_pos_site_id
 _symmetry_equiv_pos_as_xyz
  1  'x, y, z'
loop_
 _atom_site_type_symbol
 _atom_site_label
 _atom_site_symmetry_multiplicity
 _atom_site_fract_x
 _atom_site_fract_y
 _atom_site_fract_z
 _atom_site_occupancy
  Ce  Ce0  1  0.000000  0.000000  0.500000  1
  Nd  Nd1  1  0.500000  0.500000  0.500000  1
  Th  Th2  1  0.000000  0.500000  0.500000  1
  Th  Th3  1  0.500000  0.000000  0.500000  1
  Si  Si4  1  0.168545  0.333146  0.000000  1
  Si  Si5  1  0.666854  0.831455  0.000000  1
  Si  Si6  1  0.333146  0.168545  0.000000  1
  Si  Si7  1  0.162657  0.837343  0.000000  1
  Si  Si8  1  0.831455  0.666854  0.000000  1
  Si  Si9  1  0.837343  0.162657  0.000000  1
  Rh  Rh10  1  0.328525  0.671475  0.000000  1
  Rh  Rh11  1  0.671475  0.328525  0.000000  1
