# generated using pymatgen
data_DyTm7Lu2(CoSb2)2
_symmetry_space_group_name_H-M   'P 1'
_cell_length_a   7.73566800
_cell_length_b   8.72419800
_cell_length_c   12.02902000
_cell_angle_alpha   90.00000000
_cell_angle_beta   90.00000000
_cell_angle_gamma   90.00010439
_symmetry_Int_Tables_number   1
_chemical_formula_structural   DyTm7Lu2(CoSb2)2
_chemical_formula_sum   'Dy2 Tm14 Lu4 Co4 Sb8'
_cell_volume   811.80847876
_cell_formula_units_Z   2
loop_
 _symmetry_equiv_pos_site_id
 _symmetry_equiv_pos_as_xyz
  1  'x, y, z'
loop_
 _atom_site_type_symbol
 _atom_site_label
 _atom_site_symmetry_multiplicity
 _atom_site_fract_x
 _atom_site_fract_y
 _atom_site_fract_z
 _atom_site_occupancy
  Dy  Dy0  1  0.378177  0.249924  0.692602  1
  Dy  Dy1  1  0.121823  0.250076  0.192602  1
  Tm  Tm2  1  0.155529  0.750083  0.203789  1
  Tm  Tm3  1  0.344471  0.749917  0.703789  1
  Tm  Tm4  1  0.844939  0.250089  0.796379  1
  Tm  Tm5  1  0.655061  0.249911  0.296379  1
  Tm  Tm6  1  0.449615  0.749932  0.998075  1
  Tm  Tm7  1  0.050385  0.750068  0.498075  1
  Tm  Tm8  1  0.551328  0.249934  0.002089  1
  Tm  Tm9  1  0.948672  0.250066  0.502089  1
  Tm  Tm10  1  0.620335  0.749927  0.308705  1
  Tm  Tm11  1  0.879665  0.750073  0.808705  1
  Tm  Tm12  1  0.822978  0.538056  0.064673  1
  Tm  Tm13  1  0.677022  0.961944  0.564673  1
  Tm  Tm14  1  0.176290  0.036096  0.934410  1
  Tm  Tm15  1  0.323710  0.463904  0.434410  1
  Lu  Lu16  1  0.175728  0.463853  0.934437  1
  Lu  Lu17  1  0.324272  0.036147  0.434437  1
  Lu  Lu18  1  0.823515  0.961903  0.064605  1
  Lu  Lu19  1  0.676485  0.538097  0.564605  1
  Co  Co20  1  0.432731  0.749955  0.491043  1
  Co  Co21  1  0.067269  0.750045  0.991043  1
  Co  Co22  1  0.567538  0.249966  0.508520  1
  Co  Co23  1  0.932462  0.250034  0.008520  1
  Sb  Sb24  1  0.928889  0.509519  0.328264  1
  Sb  Sb25  1  0.571111  0.990481  0.828264  1
  Sb  Sb26  1  0.068348  0.007906  0.672076  1
  Sb  Sb27  1  0.431652  0.492094  0.172076  1
  Sb  Sb28  1  0.068185  0.492131  0.672092  1
  Sb  Sb29  1  0.431815  0.007869  0.172092  1
  Sb  Sb30  1  0.929046  0.990520  0.328239  1
  Sb  Sb31  1  0.570954  0.509480  0.828239  1
