# generated using pymatgen
data_Lu5Tl3Hg
_symmetry_space_group_name_H-M   'P 1'
_cell_length_a   9.04553900
_cell_length_b   9.04553963
_cell_length_c   6.69694500
_cell_angle_alpha   90.00000000
_cell_angle_beta   90.00000000
_cell_angle_gamma   120.00000136
_symmetry_Int_Tables_number   1
_chemical_formula_structural   Lu5Tl3Hg
_chemical_formula_sum   'Lu10 Tl6 Hg2'
_cell_volume   474.54378392
_cell_formula_units_Z   2
loop_
 _symmetry_equiv_pos_site_id
 _symmetry_equiv_pos_as_xyz
  1  'x, y, z'
loop_
 _atom_site_type_symbol
 _atom_site_label
 _atom_site_symmetry_multiplicity
 _atom_site_fract_x
 _atom_site_fract_y
 _atom_site_fract_z
 _atom_site_occupancy
  Lu  Lu0  1  0.333333  0.666667  0.500000  1
  Lu  Lu1  1  0.666667  0.333333  0.500000  1
  Lu  Lu2  1  0.666667  0.333333  0.000000  1
  Lu  Lu3  1  0.333333  0.666667  0.000000  1
  Lu  Lu4  1  0.285003  0.000000  0.750000  1
  Lu  Lu5  1  0.714997  0.000000  0.250000  1
  Lu  Lu6  1  0.000000  0.285003  0.750000  1
  Lu  Lu7  1  0.000000  0.714997  0.250000  1
  Lu  Lu8  1  0.714997  0.714997  0.750000  1
  Lu  Lu9  1  0.285003  0.285003  0.250000  1
  Tl  Tl10  1  0.624861  0.000000  0.750000  1
  Tl  Tl11  1  0.375139  0.000000  0.250000  1
  Tl  Tl12  1  0.000000  0.624861  0.750000  1
  Tl  Tl13  1  0.000000  0.375139  0.250000  1
  Tl  Tl14  1  0.375139  0.375139  0.750000  1
  Tl  Tl15  1  0.624861  0.624861  0.250000  1
  Hg  Hg16  1  0.000000  0.000000  0.500000  1
  Hg  Hg17  1  0.000000  0.000000  0.000000  1
