# generated using pymatgen
data_NaNb8NiS16
_symmetry_space_group_name_H-M   'P 1'
_cell_length_a   6.72737847
_cell_length_b   6.72730505
_cell_length_c   13.33798772
_cell_angle_alpha   90.04810766
_cell_angle_beta   89.95550617
_cell_angle_gamma   119.99716535
_symmetry_Int_Tables_number   1
_chemical_formula_structural   NaNb8NiS16
_chemical_formula_sum   'Na1 Nb8 Ni1 S16'
_cell_volume   522.78141684
_cell_formula_units_Z   1
loop_
 _symmetry_equiv_pos_site_id
 _symmetry_equiv_pos_as_xyz
  1  'x, y, z'
loop_
 _atom_site_type_symbol
 _atom_site_label
 _atom_site_symmetry_multiplicity
 _atom_site_fract_x
 _atom_site_fract_y
 _atom_site_fract_z
 _atom_site_occupancy
  Na  Na0  1  0.000000  0.000000  0.500000  1
  Nb  Nb1  1  0.504287  0.496150  0.778460  1
  Nb  Nb2  1  0.008336  0.503770  0.221519  1
  Nb  Nb3  1  0.495836  0.991300  0.221527  1
  Nb  Nb4  1  0.504164  0.008700  0.778473  1
  Nb  Nb5  1  0.991664  0.496230  0.778481  1
  Nb  Nb6  1  0.495713  0.503850  0.221540  1
  Nb  Nb7  1  0.000152  0.000340  0.775554  1
  Nb  Nb8  1  0.999848  0.999660  0.224446  1
  Ni  Ni9  1  0.000000  0.000000  0.000000  1
  S  S10  1  0.831866  0.167716  0.339410  1
  S  S11  1  0.831898  0.663796  0.339331  1
  S  S12  1  0.335701  0.167634  0.339335  1
  S  S13  1  0.667993  0.834304  0.893378  1
  S  S14  1  0.168102  0.336204  0.660669  1
  S  S15  1  0.165996  0.834259  0.893398  1
  S  S16  1  0.166054  0.332445  0.893416  1
  S  S17  1  0.834004  0.165741  0.106602  1
  S  S18  1  0.332007  0.165696  0.106622  1
  S  S19  1  0.664299  0.832366  0.660665  1
  S  S20  1  0.333423  0.666355  0.103367  1
  S  S21  1  0.666799  0.333665  0.657695  1
  S  S22  1  0.666577  0.333645  0.896633  1
  S  S23  1  0.333201  0.666335  0.342305  1
  S  S24  1  0.833946  0.667555  0.106584  1
  S  S25  1  0.168134  0.832284  0.660590  1
