# generated using pymatgen
data_Th4Ga18CuRu5
_symmetry_space_group_name_H-M   'P 1'
_cell_length_a   7.67058756
_cell_length_b   7.67059224
_cell_length_c   9.63530491
_cell_angle_alpha   89.79952279
_cell_angle_beta   89.79945885
_cell_angle_gamma   119.45145760
_symmetry_Int_Tables_number   1
_chemical_formula_structural   Th4Ga18CuRu5
_chemical_formula_sum   'Th4 Ga18 Cu1 Ru5'
_cell_volume   493.64787410
_cell_formula_units_Z   1
loop_
 _symmetry_equiv_pos_site_id
 _symmetry_equiv_pos_as_xyz
  1  'x, y, z'
loop_
 _atom_site_type_symbol
 _atom_site_label
 _atom_site_symmetry_multiplicity
 _atom_site_fract_x
 _atom_site_fract_y
 _atom_site_fract_z
 _atom_site_occupancy
  Th  Th0  1  0.328049  0.002060  0.750819  1
  Th  Th1  1  0.671951  0.997940  0.249181  1
  Th  Th2  1  0.002060  0.328049  0.750819  1
  Th  Th3  1  0.997940  0.671951  0.249181  1
  Ga  Ga4  1  0.865093  0.865093  0.751405  1
  Ga  Ga5  1  0.134907  0.134907  0.248595  1
  Ga  Ga6  1  0.656410  0.656410  0.437711  1
  Ga  Ga7  1  0.338395  0.338395  0.942235  1
  Ga  Ga8  1  0.661605  0.661605  0.057765  1
  Ga  Ga9  1  0.343590  0.343590  0.562289  1
  Ga  Ga10  1  0.453050  0.662521  0.750082  1
  Ga  Ga11  1  0.546950  0.337479  0.249918  1
  Ga  Ga12  1  0.662521  0.453050  0.750082  1
  Ga  Ga13  1  0.337479  0.546950  0.249918  1
  Ga  Ga14  1  0.007241  0.336598  0.076884  1
  Ga  Ga15  1  0.992690  0.660300  0.578695  1
  Ga  Ga16  1  0.339700  0.007310  0.421305  1
  Ga  Ga17  1  0.663402  0.992759  0.923116  1
  Ga  Ga18  1  0.992759  0.663402  0.923116  1
  Ga  Ga19  1  0.007310  0.339700  0.421305  1
  Ga  Ga20  1  0.660300  0.992690  0.578695  1
  Ga  Ga21  1  0.336598  0.007241  0.076884  1
  Cu  Cu22  1  0.000000  0.000000  0.500000  1
  Ru  Ru23  1  0.000000  0.000000  0.000000  1
  Ru  Ru24  1  0.673693  0.326308  0.500000  1
  Ru  Ru25  1  0.326592  0.673408  0.000000  1
  Ru  Ru26  1  0.326307  0.673692  0.500000  1
  Ru  Ru27  1  0.673408  0.326592  0.000000  1
