# generated using pymatgen
data_Dy2LuIn3HgPt2
_symmetry_space_group_name_H-M   'P 1'
_cell_length_a   7.87495048
_cell_length_b   7.86728073
_cell_length_c   3.77760000
_cell_angle_alpha   90.00000000
_cell_angle_beta   90.00000000
_cell_angle_gamma   119.81241776
_symmetry_Int_Tables_number   1
_chemical_formula_structural   Dy2LuIn3HgPt2
_chemical_formula_sum   'Dy2 Lu1 In3 Hg1 Pt2'
_cell_volume   203.06584623
_cell_formula_units_Z   1
loop_
 _symmetry_equiv_pos_site_id
 _symmetry_equiv_pos_as_xyz
  1  'x, y, z'
loop_
 _atom_site_type_symbol
 _atom_site_label
 _atom_site_symmetry_multiplicity
 _atom_site_fract_x
 _atom_site_fract_y
 _atom_site_fract_z
 _atom_site_occupancy
  Dy  Dy0  1  0.022566  0.613084  0.500000  1
  Dy  Dy1  1  0.590998  0.977659  0.500000  1
  Lu  Lu2  1  0.383960  0.409160  0.500000  1
  In  In3  1  0.999562  0.260547  0.000000  1
  In  In4  1  0.262262  0.002945  0.000000  1
  In  In5  1  0.739750  0.737664  0.000000  1
  Hg  Hg6  1  0.664636  0.334067  0.000000  1
  Pt  Pt7  1  0.001643  0.001730  0.500000  1
  Pt  Pt8  1  0.334624  0.663144  0.000000  1
