# generated using pymatgen
data_Gd8Be4Si11Sn
_symmetry_space_group_name_H-M   'P 1'
_cell_length_a   7.86006301
_cell_length_b   7.86006341
_cell_length_c   8.47750000
_cell_angle_alpha   90.00348437
_cell_angle_beta   89.99651563
_cell_angle_gamma   119.80679754
_symmetry_Int_Tables_number   1
_chemical_formula_structural   Gd8Be4Si11Sn
_chemical_formula_sum   'Gd8 Be4 Si11 Sn1'
_cell_volume   454.45691792
_cell_formula_units_Z   1
loop_
 _symmetry_equiv_pos_site_id
 _symmetry_equiv_pos_as_xyz
  1  'x, y, z'
loop_
 _atom_site_type_symbol
 _atom_site_label
 _atom_site_symmetry_multiplicity
 _atom_site_fract_x
 _atom_site_fract_y
 _atom_site_fract_z
 _atom_site_occupancy
  Gd  Gd0  1  0.500419  0.499581  0.747487  1
  Gd  Gd1  1  0.500508  0.499492  0.252348  1
  Gd  Gd2  1  0.004195  0.506599  0.745306  1
  Gd  Gd3  1  0.004300  0.506721  0.254795  1
  Gd  Gd4  1  0.493401  0.995805  0.745306  1
  Gd  Gd5  1  0.493279  0.995700  0.254795  1
  Gd  Gd6  1  0.003102  0.996898  0.746217  1
  Gd  Gd7  1  0.003131  0.996869  0.253892  1
  Be  Be8  1  0.656476  0.343524  0.997644  1
  Be  Be9  1  0.331558  0.668442  0.001937  1
  Be  Be10  1  0.333673  0.666327  0.498238  1
  Be  Be11  1  0.666628  0.333372  0.501786  1
  Si  Si12  1  0.172616  0.827384  0.999860  1
  Si  Si13  1  0.344156  0.169786  0.000222  1
  Si  Si14  1  0.172627  0.827373  0.500194  1
  Si  Si15  1  0.644252  0.807957  0.999681  1
  Si  Si16  1  0.827627  0.172373  0.499879  1
  Si  Si17  1  0.830214  0.655844  0.000222  1
  Si  Si18  1  0.654684  0.827542  0.500126  1
  Si  Si19  1  0.192043  0.355748  0.999681  1
  Si  Si20  1  0.345100  0.172442  0.499863  1
  Si  Si21  1  0.172458  0.345316  0.500126  1
  Si  Si22  1  0.827558  0.654900  0.499863  1
  Sn  Sn23  1  0.825995  0.174005  0.000533  1
