# generated using pymatgen
data_Er5SnPb2O
_symmetry_space_group_name_H-M   'P 1'
_cell_length_a   9.00876615
_cell_length_b   9.00876543
_cell_length_c   9.00156962
_cell_angle_alpha   125.80878267
_cell_angle_beta   125.80877662
_cell_angle_gamma   80.25959695
_symmetry_Int_Tables_number   1
_chemical_formula_structural   Er5SnPb2O
_chemical_formula_sum   'Er10 Sn2 Pb4 O2'
_cell_volume   463.51858820
_cell_formula_units_Z   2
loop_
 _symmetry_equiv_pos_site_id
 _symmetry_equiv_pos_as_xyz
  1  'x, y, z'
loop_
 _atom_site_type_symbol
 _atom_site_label
 _atom_site_symmetry_multiplicity
 _atom_site_fract_x
 _atom_site_fract_y
 _atom_site_fract_z
 _atom_site_occupancy
  Er  Er0  1  0.998192  0.201314  0.499990  1
  Er  Er1  1  0.800804  0.300804  0.800570  1
  Er  Er2  1  0.499773  0.999773  0.800577  1
  Er  Er3  1  0.500227  0.000227  0.199423  1
  Er  Er4  1  0.001808  0.798686  0.500010  1
  Er  Er5  1  0.500000  0.500000  0.000000  1
  Er  Er6  1  0.199196  0.699196  0.199430  1
  Er  Er7  1  0.701314  0.498192  0.499990  1
  Er  Er8  1  0.298686  0.501808  0.500010  1
  Er  Er9  1  0.000000  0.000000  0.000000  1
  Sn  Sn10  1  0.852721  0.352721  0.205450  1
  Sn  Sn11  1  0.147279  0.647279  0.794550  1
  Pb  Pb12  1  0.350951  0.149049  0.500000  1
  Pb  Pb13  1  0.750017  0.749983  0.000000  1
  Pb  Pb14  1  0.649049  0.850951  0.500000  1
  Pb  Pb15  1  0.249983  0.250017  0.000000  1
  O  O16  1  0.749710  0.249710  0.500003  1
  O  O17  1  0.250290  0.750290  0.499997  1
