# generated using pymatgen
data_Rb3Y7S12
_symmetry_space_group_name_H-M   'P 1'
_cell_length_a   3.97521200
_cell_length_b   12.30540800
_cell_length_c   25.16729600
_cell_angle_alpha   90.00000000
_cell_angle_beta   90.00000000
_cell_angle_gamma   90.00000000
_symmetry_Int_Tables_number   1
_chemical_formula_structural   Rb3Y7S12
_chemical_formula_sum   'Rb6 Y14 S24'
_cell_volume   1231.09869110
_cell_formula_units_Z   2
loop_
 _symmetry_equiv_pos_site_id
 _symmetry_equiv_pos_as_xyz
  1  'x, y, z'
loop_
 _atom_site_type_symbol
 _atom_site_label
 _atom_site_symmetry_multiplicity
 _atom_site_fract_x
 _atom_site_fract_y
 _atom_site_fract_z
 _atom_site_occupancy
  Rb  Rb0  1  0.500000  0.529617  0.128816  1
  Rb  Rb1  1  0.500000  0.962857  0.863428  1
  Rb  Rb2  1  0.000000  0.037143  0.363428  1
  Rb  Rb3  1  0.000000  0.470383  0.628816  1
  Rb  Rb4  1  0.500000  0.797735  0.477953  1
  Rb  Rb5  1  0.000000  0.202265  0.977953  1
  Y  Y6  1  0.500000  0.467008  0.418906  1
  Y  Y7  1  0.500000  0.031528  0.583499  1
  Y  Y8  1  0.000000  0.968472  0.083499  1
  Y  Y9  1  0.000000  0.532992  0.918906  1
  Y  Y10  1  0.500000  0.660506  0.788907  1
  Y  Y11  1  0.500000  0.836459  0.210203  1
  Y  Y12  1  0.000000  0.163541  0.710203  1
  Y  Y13  1  0.000000  0.339494  0.288907  1
  Y  Y14  1  0.000000  0.245504  0.498845  1
  Y  Y15  1  0.500000  0.754496  0.998845  1
  Y  Y16  1  0.500000  0.332096  0.816836  1
  Y  Y17  1  0.500000  0.170465  0.182663  1
  Y  Y18  1  0.000000  0.829535  0.682663  1
  Y  Y19  1  0.000000  0.667904  0.316836  1
  S  S20  1  0.500000  0.681265  0.897116  1
  S  S21  1  0.500000  0.819409  0.102307  1
  S  S22  1  0.000000  0.180591  0.602307  1
  S  S23  1  0.000000  0.318735  0.397116  1
  S  S24  1  0.500000  0.501802  0.305674  1
  S  S25  1  0.500000  0.999047  0.695541  1
  S  S26  1  0.000000  0.000953  0.195541  1
  S  S27  1  0.000000  0.498198  0.805674  1
  S  S28  1  0.500000  0.380619  0.922570  1
  S  S29  1  0.500000  0.120591  0.077562  1
  S  S30  1  0.000000  0.879409  0.577562  1
  S  S31  1  0.000000  0.619381  0.422570  1
  S  S32  1  0.500000  0.309822  0.710168  1
  S  S33  1  0.500000  0.193050  0.289390  1
  S  S34  1  0.000000  0.806950  0.789390  1
  S  S35  1  0.000000  0.690178  0.210168  1
  S  S36  1  0.500000  0.680974  0.680588  1
  S  S37  1  0.500000  0.818236  0.320443  1
  S  S38  1  0.000000  0.181764  0.820443  1
  S  S39  1  0.000000  0.319026  0.180588  1
  S  S40  1  0.500000  0.394337  0.518868  1
  S  S41  1  0.500000  0.091447  0.480124  1
  S  S42  1  0.000000  0.908553  0.980124  1
  S  S43  1  0.000000  0.605663  0.018868  1
