# generated using pymatgen
data_Y19HoSi15Ag
_symmetry_space_group_name_H-M   'P 1'
_cell_length_a   7.48225735
_cell_length_b   7.70805532
_cell_length_c   14.70305842
_cell_angle_alpha   90.22125534
_cell_angle_beta   90.64763935
_cell_angle_gamma   90.16681250
_symmetry_Int_Tables_number   1
_chemical_formula_structural   Y19HoSi15Ag
_chemical_formula_sum   'Y19 Ho1 Si15 Ag1'
_cell_volume   847.91490140
_cell_formula_units_Z   1
loop_
 _symmetry_equiv_pos_site_id
 _symmetry_equiv_pos_as_xyz
  1  'x, y, z'
loop_
 _atom_site_type_symbol
 _atom_site_label
 _atom_site_symmetry_multiplicity
 _atom_site_fract_x
 _atom_site_fract_y
 _atom_site_fract_z
 _atom_site_occupancy
  Y  Y0  1  0.182813  0.321919  0.877558  1
  Y  Y1  1  0.317735  0.820004  0.121190  1
  Y  Y2  1  0.826003  0.675015  0.376319  1
  Y  Y3  1  0.317852  0.824773  0.377813  1
  Y  Y4  1  0.817099  0.678783  0.121625  1
  Y  Y5  1  0.681102  0.179287  0.877601  1
  Y  Y6  1  0.176680  0.320908  0.623321  1
  Y  Y7  1  0.524487  0.675719  0.602288  1
  Y  Y8  1  0.029229  0.816405  0.900933  1
  Y  Y9  1  0.469478  0.318424  0.098579  1
  Y  Y10  1  0.979468  0.184856  0.398474  1
  Y  Y11  1  0.471037  0.325400  0.399763  1
  Y  Y12  1  0.969844  0.183416  0.098386  1
  Y  Y13  1  0.531143  0.682624  0.899454  1
  Y  Y14  1  0.025704  0.817240  0.601294  1
  Y  Y15  1  0.851217  0.507556  0.749979  1
  Y  Y16  1  0.349834  0.989478  0.748319  1
  Y  Y17  1  0.150842  0.489023  0.249530  1
  Y  Y18  1  0.651276  0.011059  0.249176  1
  Ho  Ho19  1  0.679204  0.175377  0.624618  1
  Si  Si20  1  0.144135  0.527843  0.040515  1
  Si  Si21  1  0.354405  0.029013  0.959699  1
  Si  Si22  1  0.847996  0.470262  0.541393  1
  Si  Si23  1  0.342887  0.028379  0.542883  1
  Si  Si24  1  0.855553  0.471699  0.958773  1
  Si  Si25  1  0.643495  0.971095  0.039225  1
  Si  Si26  1  0.149403  0.530588  0.461102  1
  Si  Si27  1  0.477764  0.393950  0.750628  1
  Si  Si28  1  0.976167  0.104250  0.752239  1
  Si  Si29  1  0.523653  0.609072  0.248818  1
  Si  Si30  1  0.024218  0.895570  0.247771  1
  Si  Si31  1  0.733964  0.871198  0.751684  1
  Si  Si32  1  0.233262  0.626676  0.751365  1
  Si  Si33  1  0.268683  0.126658  0.247282  1
  Si  Si34  1  0.765628  0.375108  0.248684  1
  Ag  Ag35  1  0.656741  0.971374  0.461718  1
