# generated using pymatgen
data_Dy6Ho10In4NiIr3
_symmetry_space_group_name_H-M   'P 1'
_cell_length_a   9.59611541
_cell_length_b   9.61402581
_cell_length_c   9.61584164
_cell_angle_alpha   60.24989930
_cell_angle_beta   60.17805806
_cell_angle_gamma   60.11359370
_symmetry_Int_Tables_number   1
_chemical_formula_structural   Dy6Ho10In4NiIr3
_chemical_formula_sum   'Dy6 Ho10 In4 Ni1 Ir3'
_cell_volume   629.85943995
_cell_formula_units_Z   1
loop_
 _symmetry_equiv_pos_site_id
 _symmetry_equiv_pos_as_xyz
  1  'x, y, z'
loop_
 _atom_site_type_symbol
 _atom_site_label
 _atom_site_symmetry_multiplicity
 _atom_site_fract_x
 _atom_site_fract_y
 _atom_site_fract_z
 _atom_site_occupancy
  Dy  Dy0  1  0.439755  0.434268  0.062285  1
  Dy  Dy1  1  0.647827  0.651404  0.047533  1
  Dy  Dy2  1  0.190638  0.810564  0.189209  1
  Dy  Dy3  1  0.058494  0.439628  0.059070  1
  Dy  Dy4  1  0.191769  0.810946  0.809688  1
  Dy  Dy5  1  0.059274  0.438499  0.439884  1
  Ho  Ho6  1  0.810155  0.190400  0.190429  1
  Ho  Ho7  1  0.651855  0.653297  0.653402  1
  Ho  Ho8  1  0.810428  0.191264  0.808697  1
  Ho  Ho9  1  0.191065  0.189657  0.809650  1
  Ho  Ho10  1  0.049002  0.649511  0.649097  1
  Ho  Ho11  1  0.440174  0.061088  0.061404  1
  Ho  Ho12  1  0.058266  0.058501  0.440731  1
  Ho  Ho13  1  0.648375  0.047316  0.651390  1
  Ho  Ho14  1  0.809929  0.809388  0.191368  1
  Ho  Ho15  1  0.439963  0.061643  0.435196  1
  In  In16  1  0.418279  0.416073  0.416743  1
  In  In17  1  0.418594  0.417120  0.747787  1
  In  In18  1  0.418313  0.748547  0.417344  1
  In  In19  1  0.746884  0.417372  0.417846  1
  Ni  Ni20  1  0.423834  0.860389  0.859067  1
  Ir  Ir21  1  0.858416  0.858992  0.858036  1
  Ir  Ir22  1  0.860045  0.424365  0.858963  1
  Ir  Ir23  1  0.858662  0.859767  0.425184  1
