# generated using pymatgen
data_Ho8Th4TcOs3
_symmetry_space_group_name_H-M   'P 1'
_cell_length_a   6.35141810
_cell_length_b   7.31101201
_cell_length_c   9.45975400
_cell_angle_alpha   90.00000000
_cell_angle_beta   90.00000000
_cell_angle_gamma   89.92501227
_symmetry_Int_Tables_number   1
_chemical_formula_structural   Ho8Th4TcOs3
_chemical_formula_sum   'Ho8 Th4 Tc1 Os3'
_cell_volume   439.26608208
_cell_formula_units_Z   1
loop_
 _symmetry_equiv_pos_site_id
 _symmetry_equiv_pos_as_xyz
  1  'x, y, z'
loop_
 _atom_site_type_symbol
 _atom_site_label
 _atom_site_symmetry_multiplicity
 _atom_site_fract_x
 _atom_site_fract_y
 _atom_site_fract_z
 _atom_site_occupancy
  Ho  Ho0  1  0.335772  0.673321  0.065085  1
  Ho  Ho1  1  0.167855  0.176583  0.433920  1
  Ho  Ho2  1  0.665308  0.325231  0.565311  1
  Ho  Ho3  1  0.836450  0.824809  0.932513  1
  Ho  Ho4  1  0.665308  0.325231  0.934689  1
  Ho  Ho5  1  0.836450  0.824809  0.567487  1
  Ho  Ho6  1  0.335772  0.673321  0.434915  1
  Ho  Ho7  1  0.167855  0.176583  0.066080  1
  Th  Th8  1  0.856387  0.550451  0.250000  1
  Th  Th9  1  0.646305  0.044054  0.250000  1
  Th  Th10  1  0.147744  0.454771  0.750000  1
  Th  Th11  1  0.353475  0.955468  0.750000  1
  Tc  Tc12  1  0.019836  0.868851  0.250000  1
  Os  Os13  1  0.465417  0.373922  0.250000  1
  Os  Os14  1  0.961566  0.126946  0.750000  1
  Os  Os15  1  0.538499  0.625646  0.750000  1
