# generated using pymatgen
data_Nb5Al2P
_symmetry_space_group_name_H-M   'P 1'
_cell_length_a   6.71613800
_cell_length_b   7.63617872
_cell_length_c   6.70737800
_cell_angle_alpha   116.05184111
_cell_angle_beta   90.00000000
_cell_angle_gamma   116.08841919
_symmetry_Int_Tables_number   1
_chemical_formula_structural   Nb5Al2P
_chemical_formula_sum   'Nb10 Al4 P2'
_cell_volume   269.48668658
_cell_formula_units_Z   2
loop_
 _symmetry_equiv_pos_site_id
 _symmetry_equiv_pos_as_xyz
  1  'x, y, z'
loop_
 _atom_site_type_symbol
 _atom_site_label
 _atom_site_symmetry_multiplicity
 _atom_site_fract_x
 _atom_site_fract_y
 _atom_site_fract_z
 _atom_site_occupancy
  Nb  Nb0  1  0.990748  0.000000  0.997109  1
  Nb  Nb1  1  0.509252  0.000000  0.497109  1
  Nb  Nb2  1  0.527424  0.708250  0.688542  1
  Nb  Nb3  1  0.191560  0.696873  0.014101  1
  Nb  Nb4  1  0.680825  0.708250  0.188542  1
  Nb  Nb5  1  0.005312  0.696873  0.514101  1
  Nb  Nb6  1  0.494688  0.303127  0.317229  1
  Nb  Nb7  1  0.819175  0.291750  0.980293  1
  Nb  Nb8  1  0.308440  0.303127  0.817229  1
  Nb  Nb9  1  0.972576  0.291750  0.480293  1
  Al  Al10  1  0.750000  0.500000  0.758054  1
  Al  Al11  1  0.250000  0.500000  0.258054  1
  Al  Al12  1  0.134420  0.000000  0.367218  1
  Al  Al13  1  0.365580  0.000000  0.867218  1
  P  P14  1  0.875160  0.000000  0.627455  1
  P  P15  1  0.624840  0.000000  0.127455  1
