# generated using pymatgen
data_Sc12Os(RhBr8)2
_symmetry_space_group_name_H-M   'P 1'
_cell_length_a   8.97625867
_cell_length_b   11.27747342
_cell_length_c   11.94749665
_cell_angle_alpha   117.15162903
_cell_angle_beta   101.51538825
_cell_angle_gamma   101.17564334
_symmetry_Int_Tables_number   1
_chemical_formula_structural   Sc12Os(RhBr8)2
_chemical_formula_sum   'Sc12 Os1 Rh2 Br16'
_cell_volume   996.60726413
_cell_formula_units_Z   1
loop_
 _symmetry_equiv_pos_site_id
 _symmetry_equiv_pos_as_xyz
  1  'x, y, z'
loop_
 _atom_site_type_symbol
 _atom_site_label
 _atom_site_symmetry_multiplicity
 _atom_site_fract_x
 _atom_site_fract_y
 _atom_site_fract_z
 _atom_site_occupancy
  Sc  Sc0  1  0.085051  0.260226  0.353216  1
  Sc  Sc1  1  0.915879  0.741167  0.647608  1
  Sc  Sc2  1  0.776677  0.537927  0.321915  1
  Sc  Sc3  1  0.223969  0.462278  0.677109  1
  Sc  Sc4  1  0.282183  0.740657  0.647610  1
  Sc  Sc5  1  0.717691  0.257954  0.351633  1
  Sc  Sc6  1  0.143493  0.537534  0.324285  1
  Sc  Sc7  1  0.857474  0.462265  0.676694  1
  Sc  Sc8  1  0.400026  0.354632  0.268130  1
  Sc  Sc9  1  0.593916  0.645206  0.731621  1
  Sc  Sc10  1  0.454214  0.301804  0.520800  1
  Sc  Sc11  1  0.540079  0.698340  0.479276  1
  Os  Os12  1  0.339214  0.500052  0.499481  1
  Rh  Rh13  1  0.997738  0.500049  0.500144  1
  Rh  Rh14  1  0.662020  0.499899  0.500426  1
  Br  Br15  1  0.395820  0.740017  0.881481  1
  Br  Br16  1  0.605407  0.261222  0.120285  1
  Br  Br17  1  0.186883  0.963420  0.782821  1
  Br  Br18  1  0.810139  0.036553  0.217276  1
  Br  Br19  1  0.343614  0.096168  0.251929  1
  Br  Br20  1  0.664079  0.903977  0.748172  1
  Br  Br21  1  0.556303  0.437708  0.796921  1
  Br  Br22  1  0.450272  0.562145  0.203219  1
  Br  Br23  1  0.309019  0.826685  0.463219  1
  Br  Br24  1  0.691777  0.174924  0.536679  1
  Br  Br25  1  0.166794  0.171058  0.532034  1
  Br  Br26  1  0.833289  0.827286  0.467911  1
  Br  Br27  1  0.925373  0.574800  0.162138  1
  Br  Br28  1  0.072163  0.425277  0.837876  1
  Br  Br29  1  0.921690  0.736851  0.879563  1
  Br  Br30  1  0.077758  0.261918  0.118524  1
