# generated using pymatgen
data_Yb12Tm5Lu3Si16
_symmetry_space_group_name_H-M   'P 1'
_cell_length_a   7.33008009
_cell_length_b   7.76436306
_cell_length_c   14.97711008
_cell_angle_alpha   90.00167238
_cell_angle_beta   89.98817230
_cell_angle_gamma   90.01387773
_symmetry_Int_Tables_number   1
_chemical_formula_structural   Yb12Tm5Lu3Si16
_chemical_formula_sum   'Yb12 Tm5 Lu3 Si16'
_cell_volume   852.39825955
_cell_formula_units_Z   1
loop_
 _symmetry_equiv_pos_site_id
 _symmetry_equiv_pos_as_xyz
  1  'x, y, z'
loop_
 _atom_site_type_symbol
 _atom_site_label
 _atom_site_symmetry_multiplicity
 _atom_site_fract_x
 _atom_site_fract_y
 _atom_site_fract_z
 _atom_site_occupancy
  Yb  Yb0  1  0.974053  0.816989  0.404034  1
  Yb  Yb1  1  0.474155  0.682946  0.095962  1
  Yb  Yb2  1  0.525913  0.317078  0.596025  1
  Yb  Yb3  1  0.025862  0.182927  0.904020  1
  Yb  Yb4  1  0.026078  0.182970  0.596021  1
  Yb  Yb5  1  0.526120  0.317055  0.904007  1
  Yb  Yb6  1  0.473948  0.682919  0.404013  1
  Yb  Yb7  1  0.973845  0.817015  0.095961  1
  Yb  Yb8  1  0.351691  0.019906  0.749971  1
  Yb  Yb9  1  0.851684  0.480074  0.750021  1
  Yb  Yb10  1  0.148269  0.520016  0.249974  1
  Yb  Yb11  1  0.648407  0.980004  0.249925  1
  Tm  Tm12  1  0.314942  0.176664  0.121011  1
  Tm  Tm13  1  0.814972  0.323427  0.378943  1
  Tm  Tm14  1  0.185031  0.676694  0.878926  1
  Tm  Tm15  1  0.685094  0.823252  0.621114  1
  Tm  Tm16  1  0.314846  0.176590  0.378942  1
  Lu  Lu17  1  0.814945  0.323702  0.121084  1
  Lu  Lu18  1  0.185074  0.676327  0.621150  1
  Lu  Lu19  1  0.685080  0.823664  0.878875  1
  Si  Si20  1  0.856581  0.534211  0.538423  1
  Si  Si21  1  0.356633  0.965890  0.961591  1
  Si  Si22  1  0.643704  0.033928  0.461725  1
  Si  Si23  1  0.143385  0.465861  0.038400  1
  Si  Si24  1  0.144003  0.466188  0.461903  1
  Si  Si25  1  0.644369  0.034058  0.038248  1
  Si  Si26  1  0.355785  0.965678  0.538433  1
  Si  Si27  1  0.855599  0.534074  0.961764  1
  Si  Si28  1  0.977161  0.878239  0.750086  1
  Si  Si29  1  0.477162  0.621752  0.749925  1
  Si  Si30  1  0.523104  0.378516  0.249827  1
  Si  Si31  1  0.022626  0.121617  0.249910  1
  Si  Si32  1  0.248614  0.397112  0.749865  1
  Si  Si33  1  0.748637  0.102865  0.750142  1
  Si  Si34  1  0.251184  0.896887  0.249958  1
  Si  Si35  1  0.751442  0.602906  0.249820  1
