# generated using pymatgen
data_Np4Al18(IrPd)3
_symmetry_space_group_name_H-M   'P 1'
_cell_length_a   7.62608597
_cell_length_b   7.62969421
_cell_length_c   9.47983512
_cell_angle_alpha   90.01010472
_cell_angle_beta   89.99951489
_cell_angle_gamma   119.58790487
_symmetry_Int_Tables_number   1
_chemical_formula_structural   Np4Al18(IrPd)3
_chemical_formula_sum   'Np4 Al18 Ir3 Pd3'
_cell_volume   479.65472448
_cell_formula_units_Z   1
loop_
 _symmetry_equiv_pos_site_id
 _symmetry_equiv_pos_as_xyz
  1  'x, y, z'
loop_
 _atom_site_type_symbol
 _atom_site_label
 _atom_site_symmetry_multiplicity
 _atom_site_fract_x
 _atom_site_fract_y
 _atom_site_fract_z
 _atom_site_occupancy
  Np  Np0  1  0.994704  0.670023  0.252849  1
  Np  Np1  1  0.006546  0.329330  0.748555  1
  Np  Np2  1  0.670701  0.993607  0.251539  1
  Np  Np3  1  0.329968  0.005197  0.747101  1
  Al  Al4  1  0.128416  0.129474  0.249677  1
  Al  Al5  1  0.870584  0.871503  0.750322  1
  Al  Al6  1  0.999320  0.333629  0.075091  1
  Al  Al7  1  0.001279  0.668366  0.924511  1
  Al  Al8  1  0.996091  0.663324  0.576901  1
  Al  Al9  1  0.336565  0.003868  0.423053  1
  Al  Al10  1  0.997467  0.331814  0.424552  1
  Al  Al11  1  0.668302  0.002524  0.575491  1
  Al  Al12  1  0.666289  0.000586  0.925002  1
  Al  Al13  1  0.331705  0.998733  0.075470  1
  Al  Al14  1  0.334113  0.331021  0.552524  1
  Al  Al15  1  0.668991  0.665905  0.447474  1
  Al  Al16  1  0.670364  0.669712  0.057200  1
  Al  Al17  1  0.330412  0.329587  0.942825  1
  Al  Al18  1  0.340720  0.548500  0.249849  1
  Al  Al19  1  0.658230  0.451413  0.748580  1
  Al  Al20  1  0.548611  0.341844  0.251377  1
  Al  Al21  1  0.451522  0.659230  0.750129  1
  Ir  Ir22  1  0.671386  0.328456  0.499998  1
  Ir  Ir23  1  0.999143  0.000856  0.999989  1
  Ir  Ir24  1  0.000325  0.999672  0.500001  1
  Pd  Pd25  1  0.670271  0.329637  0.999975  1
  Pd  Pd26  1  0.329471  0.670586  0.999997  1
  Pd  Pd27  1  0.328505  0.671602  0.499967  1
