# generated using pymatgen
data_La14Nd6Ir7Rh5
_symmetry_space_group_name_H-M   'P 1'
_cell_length_a   11.37475643
_cell_length_b   11.36118359
_cell_length_c   6.69448786
_cell_angle_alpha   89.96241869
_cell_angle_beta   89.95558604
_cell_angle_gamma   90.19830781
_symmetry_Int_Tables_number   1
_chemical_formula_structural   La14Nd6Ir7Rh5
_chemical_formula_sum   'La14 Nd6 Ir7 Rh5'
_cell_volume   865.12769654
_cell_formula_units_Z   1
loop_
 _symmetry_equiv_pos_site_id
 _symmetry_equiv_pos_as_xyz
  1  'x, y, z'
loop_
 _atom_site_type_symbol
 _atom_site_label
 _atom_site_symmetry_multiplicity
 _atom_site_fract_x
 _atom_site_fract_y
 _atom_site_fract_z
 _atom_site_occupancy
  La  La0  1  0.092820  0.290412  0.108542  1
  La  La1  1  0.789900  0.409079  0.108411  1
  La  La2  1  0.210559  0.589134  0.108310  1
  La  La3  1  0.905521  0.708896  0.108154  1
  La  La4  1  0.409934  0.789860  0.391666  1
  La  La5  1  0.591831  0.209671  0.391775  1
  La  La6  1  0.290235  0.094599  0.392497  1
  La  La7  1  0.710495  0.907207  0.391930  1
  La  La8  1  0.407815  0.210856  0.890504  1
  La  La9  1  0.710168  0.091991  0.891240  1
  La  La10  1  0.290657  0.908583  0.889961  1
  La  La11  1  0.592268  0.789193  0.890152  1
  La  La12  1  0.089280  0.706941  0.609312  1
  La  La13  1  0.910147  0.292149  0.608040  1
  Nd  Nd14  1  0.210310  0.409245  0.609803  1
  Nd  Nd15  1  0.789489  0.590645  0.609603  1
  Nd  Nd16  1  0.999610  0.000113  0.001157  1
  Nd  Nd17  1  0.500128  0.500029  0.998191  1
  Nd  Nd18  1  0.499904  0.499893  0.500494  1
  Nd  Nd19  1  0.999796  0.000497  0.500711  1
  Ir  Ir20  1  0.347200  0.345480  0.249593  1
  Ir  Ir21  1  0.652596  0.654758  0.249656  1
  Ir  Ir22  1  0.845977  0.154473  0.250074  1
  Ir  Ir23  1  0.344217  0.653777  0.748480  1
  Ir  Ir24  1  0.154356  0.153924  0.750122  1
  Ir  Ir25  1  0.846117  0.845619  0.750330  1
  Ir  Ir26  1  0.655094  0.346905  0.748544  1
  Rh  Rh27  1  0.154228  0.845459  0.249985  1
  Rh  Rh28  1  0.000439  0.500952  0.378157  1
  Rh  Rh29  1  0.499037  0.999544  0.121965  1
  Rh  Rh30  1  0.499603  0.999707  0.622096  1
  Rh  Rh31  1  0.000268  0.500410  0.880545  1
