# generated using pymatgen
data_AcPr2Al7Cu2
_symmetry_space_group_name_H-M   'P 1'
_cell_length_a   9.36869185
_cell_length_b   9.36869203
_cell_length_c   9.36869277
_cell_angle_alpha   35.23747647
_cell_angle_beta   35.23747208
_cell_angle_gamma   35.23747669
_symmetry_Int_Tables_number   1
_chemical_formula_structural   AcPr2Al7Cu2
_chemical_formula_sum   'Ac1 Pr2 Al7 Cu2'
_cell_volume   244.51670101
_cell_formula_units_Z   1
loop_
 _symmetry_equiv_pos_site_id
 _symmetry_equiv_pos_as_xyz
  1  'x, y, z'
loop_
 _atom_site_type_symbol
 _atom_site_label
 _atom_site_symmetry_multiplicity
 _atom_site_fract_x
 _atom_site_fract_y
 _atom_site_fract_z
 _atom_site_occupancy
  Ac  Ac0  1  0.000000  0.000000  0.000000  1
  Pr  Pr1  1  0.142279  0.142279  0.142279  1
  Pr  Pr2  1  0.857721  0.857721  0.857721  1
  Al  Al3  1  0.581722  0.581722  0.071959  1
  Al  Al4  1  0.928040  0.418279  0.418278  1
  Al  Al5  1  0.418279  0.928040  0.418278  1
  Al  Al6  1  0.500000  0.500000  0.500000  1
  Al  Al7  1  0.581721  0.071960  0.581722  1
  Al  Al8  1  0.071960  0.581721  0.581722  1
  Al  Al9  1  0.418278  0.418278  0.928041  1
  Cu  Cu10  1  0.335661  0.335661  0.335661  1
  Cu  Cu11  1  0.664339  0.664339  0.664339  1
