# generated using pymatgen
data_Eu2(CoN)3
_symmetry_space_group_name_H-M   'P 1'
_cell_length_a   6.30814262
_cell_length_b   6.30814263
_cell_length_c   6.10111348
_cell_angle_alpha   88.30642582
_cell_angle_beta   88.30640674
_cell_angle_gamma   117.44905958
_symmetry_Int_Tables_number   1
_chemical_formula_structural   Eu2(CoN)3
_chemical_formula_sum   'Eu4 Co6 N6'
_cell_volume   215.09828558
_cell_formula_units_Z   2
loop_
 _symmetry_equiv_pos_site_id
 _symmetry_equiv_pos_as_xyz
  1  'x, y, z'
loop_
 _atom_site_type_symbol
 _atom_site_label
 _atom_site_symmetry_multiplicity
 _atom_site_fract_x
 _atom_site_fract_y
 _atom_site_fract_z
 _atom_site_occupancy
  Eu  Eu0  1  0.827740  0.672242  0.898962  1
  Eu  Eu1  1  0.327758  0.172260  0.601038  1
  Eu  Eu2  1  0.172260  0.327758  0.101038  1
  Eu  Eu3  1  0.672242  0.827740  0.398962  1
  Co  Co4  1  0.810907  0.189093  0.750000  1
  Co  Co5  1  0.189093  0.810907  0.250000  1
  Co  Co6  1  0.566255  0.168953  0.102535  1
  Co  Co7  1  0.433745  0.831047  0.897465  1
  Co  Co8  1  0.831047  0.433745  0.397465  1
  Co  Co9  1  0.168953  0.566255  0.602535  1
  N  N10  1  0.423023  0.576977  0.750000  1
  N  N11  1  0.576977  0.423023  0.250000  1
  N  N12  1  0.010684  0.739441  0.505751  1
  N  N13  1  0.739441  0.010684  0.005751  1
  N  N14  1  0.989316  0.260559  0.494249  1
  N  N15  1  0.260559  0.989316  0.994249  1
