# generated using pymatgen
data_Hf3ZrFe2(CoP)6
_symmetry_space_group_name_H-M   'P 1'
_cell_length_a   12.07973627
_cell_length_b   12.08672652
_cell_length_c   3.64898900
_cell_angle_alpha   90.00000000
_cell_angle_beta   90.00000000
_cell_angle_gamma   120.15496329
_symmetry_Int_Tables_number   1
_chemical_formula_structural   Hf3ZrFe2(CoP)6
_chemical_formula_sum   'Hf6 Zr2 Fe4 Co12 P12'
_cell_volume   460.66907393
_cell_formula_units_Z   2
loop_
 _symmetry_equiv_pos_site_id
 _symmetry_equiv_pos_as_xyz
  1  'x, y, z'
loop_
 _atom_site_type_symbol
 _atom_site_label
 _atom_site_symmetry_multiplicity
 _atom_site_fract_x
 _atom_site_fract_y
 _atom_site_fract_z
 _atom_site_occupancy
  Hf  Hf0  1  0.442548  0.442266  0.000000  1
  Hf  Hf1  1  0.555780  0.998880  0.000000  1
  Hf  Hf2  1  0.333654  0.666527  0.000000  1
  Hf  Hf3  1  0.664501  0.333117  0.000000  1
  Hf  Hf4  1  0.999162  0.556792  0.000000  1
  Hf  Hf5  1  0.179239  0.000159  0.500000  1
  Zr  Zr6  1  0.820889  0.820021  0.500000  1
  Zr  Zr7  1  0.001640  0.180331  0.500000  1
  Fe  Fe8  1  0.627401  0.822694  0.000000  1
  Fe  Fe9  1  0.373868  0.194003  0.000000  1
  Fe  Fe10  1  0.000967  0.722549  0.500000  1
  Fe  Fe11  1  0.276925  0.279087  0.500000  1
  Co  Co12  1  0.872265  0.355088  0.500000  1
  Co  Co13  1  0.723516  0.002807  0.500000  1
  Co  Co14  1  0.820035  0.627059  0.000000  1
  Co  Co15  1  0.180580  0.807640  0.000000  1
  Co  Co16  1  0.356823  0.871083  0.500000  1
  Co  Co17  1  0.126211  0.481960  0.500000  1
  Co  Co18  1  0.643715  0.515881  0.500000  1
  Co  Co19  1  0.001931  0.000636  0.000000  1
  Co  Co20  1  0.517570  0.643661  0.500000  1
  Co  Co21  1  0.482570  0.125050  0.500000  1
  Co  Co22  1  0.193379  0.374360  0.000000  1
  Co  Co23  1  0.805781  0.178585  0.000000  1
  P  P24  1  0.000000  0.347324  0.000000  1
  P  P25  1  0.826608  0.519174  0.500000  1
  P  P26  1  0.690102  0.173862  0.500000  1
  P  P27  1  0.179711  0.176731  0.000000  1
  P  P28  1  0.651750  0.653801  0.000000  1
  P  P29  1  0.823428  0.998530  0.000000  1
  P  P30  1  0.519416  0.825798  0.500000  1
  P  P31  1  0.172759  0.691179  0.500000  1
  P  P32  1  0.346918  0.001949  0.000000  1
  P  P33  1  0.478522  0.306013  0.500000  1
  P  P34  1  0.001345  0.824048  0.000000  1
  P  P35  1  0.308490  0.481354  0.500000  1
