# generated using pymatgen
data_Tm4Al4Ni2RuRh
_symmetry_space_group_name_H-M   'P 1'
_cell_length_a   4.15187400
_cell_length_b   6.71709348
_cell_length_c   7.82162506
_cell_angle_alpha   90.11667195
_cell_angle_beta   90.00000000
_cell_angle_gamma   90.00000000
_symmetry_Int_Tables_number   1
_chemical_formula_structural   Tm4Al4Ni2RuRh
_chemical_formula_sum   'Tm4 Al4 Ni2 Ru1 Rh1'
_cell_volume   218.13313973
_cell_formula_units_Z   1
loop_
 _symmetry_equiv_pos_site_id
 _symmetry_equiv_pos_as_xyz
  1  'x, y, z'
loop_
 _atom_site_type_symbol
 _atom_site_label
 _atom_site_symmetry_multiplicity
 _atom_site_fract_x
 _atom_site_fract_y
 _atom_site_fract_z
 _atom_site_occupancy
  Tm  Tm0  1  0.250000  0.967615  0.320068  1
  Tm  Tm1  1  0.750000  0.533083  0.826789  1
  Tm  Tm2  1  0.250000  0.467467  0.178774  1
  Tm  Tm3  1  0.750000  0.037715  0.676098  1
  Al  Al4  1  0.750000  0.634112  0.436691  1
  Al  Al5  1  0.750000  0.135195  0.061630  1
  Al  Al6  1  0.250000  0.359499  0.553949  1
  Al  Al7  1  0.250000  0.859569  0.946117  1
  Ni  Ni8  1  0.750000  0.768112  0.129606  1
  Ni  Ni9  1  0.750000  0.267704  0.371767  1
  Ru  Ru10  1  0.250000  0.236322  0.876606  1
  Rh  Rh11  1  0.250000  0.733606  0.621904  1
