# generated using pymatgen
data_Ca3TbTm2(Si3Os)8
_symmetry_space_group_name_H-M   'P 1'
_cell_length_a   10.16533986
_cell_length_b   10.16516188
_cell_length_c   8.16824252
_cell_angle_alpha   90.04686506
_cell_angle_beta   89.97644120
_cell_angle_gamma   132.61087479
_symmetry_Int_Tables_number   1
_chemical_formula_structural   Ca3TbTm2(Si3Os)8
_chemical_formula_sum   'Ca3 Tb1 Tm2 Si24 Os8'
_cell_volume   621.18929067
_cell_formula_units_Z   1
loop_
 _symmetry_equiv_pos_site_id
 _symmetry_equiv_pos_as_xyz
  1  'x, y, z'
loop_
 _atom_site_type_symbol
 _atom_site_label
 _atom_site_symmetry_multiplicity
 _atom_site_fract_x
 _atom_site_fract_y
 _atom_site_fract_z
 _atom_site_occupancy
  Ca  Ca0  1  0.499450  0.999654  0.750186  1
  Ca  Ca1  1  0.000311  0.500511  0.249814  1
  Ca  Ca2  1  0.999912  0.000098  0.999947  1
  Tb  Tb3  1  0.499479  0.999443  0.249886  1
  Tm  Tm4  1  0.000307  0.500292  0.750166  1
  Tm  Tm5  1  0.499981  0.500016  0.500051  1
  Si  Si6  1  0.795765  0.205411  0.500589  1
  Si  Si7  1  0.705025  0.296166  0.999398  1
  Si  Si8  1  0.204791  0.793946  0.500681  1
  Si  Si9  1  0.294295  0.704428  0.999309  1
  Si  Si10  1  0.664137  0.671816  0.166456  1
  Si  Si11  1  0.169959  0.161655  0.331224  1
  Si  Si12  1  0.838481  0.829993  0.668762  1
  Si  Si13  1  0.328139  0.335982  0.833565  1
  Si  Si14  1  0.846611  0.613750  0.992027  1
  Si  Si15  1  0.111576  0.345173  0.507134  1
  Si  Si16  1  0.654651  0.888119  0.493231  1
  Si  Si17  1  0.385945  0.153213  0.007599  1
  Si  Si18  1  0.153620  0.387341  0.005367  1
  Si  Si19  1  0.889319  0.655184  0.496204  1
  Si  Si20  1  0.122114  0.888639  0.729366  1
  Si  Si21  1  0.388772  0.622586  0.771826  1
  Si  Si22  1  0.377112  0.610904  0.228420  1
  Si  Si23  1  0.111028  0.877576  0.270373  1
  Si  Si24  1  0.876194  0.109327  0.270295  1
  Si  Si25  1  0.609381  0.375655  0.228611  1
  Si  Si26  1  0.624732  0.390884  0.771628  1
  Si  Si27  1  0.890951  0.124210  0.729471  1
  Si  Si28  1  0.612847  0.846556  0.994264  1
  Si  Si29  1  0.344988  0.110883  0.504179  1
  Os  Os30  1  0.625564  0.624418  0.871543  1
  Os  Os31  1  0.128521  0.130018  0.624266  1
  Os  Os32  1  0.375741  0.374506  0.128639  1
  Os  Os33  1  0.870049  0.871630  0.375557  1
  Os  Os34  1  0.169327  0.829280  0.999231  1
  Os  Os35  1  0.330788  0.667796  0.500745  1
  Os  Os36  1  0.829726  0.171820  0.999369  1
  Os  Os37  1  0.670415  0.331116  0.500619  1
