# generated using pymatgen
data_Nd3Ho2(Co2Sn5)2
_symmetry_space_group_name_H-M   'P 1'
_cell_length_a   13.97135800
_cell_length_b   13.97135800
_cell_length_c   4.47962400
_cell_angle_alpha   90.00000000
_cell_angle_beta   90.00000000
_cell_angle_gamma   90.00000000
_symmetry_Int_Tables_number   1
_chemical_formula_structural   Nd3Ho2(Co2Sn5)2
_chemical_formula_sum   'Nd6 Ho4 Co8 Sn20'
_cell_volume   874.41742799
_cell_formula_units_Z   2
loop_
 _symmetry_equiv_pos_site_id
 _symmetry_equiv_pos_as_xyz
  1  'x, y, z'
loop_
 _atom_site_type_symbol
 _atom_site_label
 _atom_site_symmetry_multiplicity
 _atom_site_fract_x
 _atom_site_fract_y
 _atom_site_fract_z
 _atom_site_occupancy
  Nd  Nd0  1  0.000000  0.000000  0.000000  1
  Nd  Nd1  1  0.500000  0.500000  0.000000  1
  Nd  Nd2  1  0.891516  0.608484  0.500000  1
  Nd  Nd3  1  0.108484  0.391516  0.500000  1
  Nd  Nd4  1  0.391516  0.891516  0.500000  1
  Nd  Nd5  1  0.608484  0.108484  0.500000  1
  Ho  Ho6  1  0.180389  0.680389  0.500000  1
  Ho  Ho7  1  0.819611  0.319611  0.500000  1
  Ho  Ho8  1  0.680389  0.819611  0.500000  1
  Ho  Ho9  1  0.319611  0.180389  0.500000  1
  Co  Co10  1  0.255154  0.536785  0.000000  1
  Co  Co11  1  0.744846  0.463215  0.000000  1
  Co  Co12  1  0.755154  0.963215  0.000000  1
  Co  Co13  1  0.244846  0.036785  0.000000  1
  Co  Co14  1  0.463215  0.255154  0.000000  1
  Co  Co15  1  0.536785  0.744846  0.000000  1
  Co  Co16  1  0.036785  0.755154  0.000000  1
  Co  Co17  1  0.963215  0.244846  0.000000  1
  Sn  Sn18  1  0.353074  0.700940  0.000000  1
  Sn  Sn19  1  0.646926  0.299060  0.000000  1
  Sn  Sn20  1  0.853074  0.799060  0.000000  1
  Sn  Sn21  1  0.146926  0.200940  0.000000  1
  Sn  Sn22  1  0.299060  0.353074  0.000000  1
  Sn  Sn23  1  0.700940  0.646926  0.000000  1
  Sn  Sn24  1  0.200940  0.853074  0.000000  1
  Sn  Sn25  1  0.799060  0.146926  0.000000  1
  Sn  Sn26  1  0.333264  0.514015  0.500000  1
  Sn  Sn27  1  0.666736  0.485985  0.500000  1
  Sn  Sn28  1  0.833264  0.985985  0.500000  1
  Sn  Sn29  1  0.166736  0.014015  0.500000  1
  Sn  Sn30  1  0.485985  0.333264  0.500000  1
  Sn  Sn31  1  0.514015  0.666736  0.500000  1
  Sn  Sn32  1  0.014015  0.833264  0.500000  1
  Sn  Sn33  1  0.985985  0.166736  0.500000  1
  Sn  Sn34  1  0.073309  0.573309  0.000000  1
  Sn  Sn35  1  0.926691  0.426691  0.000000  1
  Sn  Sn36  1  0.573309  0.926691  0.000000  1
  Sn  Sn37  1  0.426691  0.073309  0.000000  1
