# generated using pymatgen
data_Lu7Si4BiO20
_symmetry_space_group_name_H-M   'P 1'
_cell_length_a   6.70232508
_cell_length_b   7.90934338
_cell_length_c   9.58614138
_cell_angle_alpha   90.52805712
_cell_angle_beta   110.66972991
_cell_angle_gamma   114.62723637
_symmetry_Int_Tables_number   1
_chemical_formula_structural   Lu7Si4BiO20
_chemical_formula_sum   'Lu7 Si4 Bi1 O20'
_cell_volume   424.84992257
_cell_formula_units_Z   1
loop_
 _symmetry_equiv_pos_site_id
 _symmetry_equiv_pos_as_xyz
  1  'x, y, z'
loop_
 _atom_site_type_symbol
 _atom_site_label
 _atom_site_symmetry_multiplicity
 _atom_site_fract_x
 _atom_site_fract_y
 _atom_site_fract_z
 _atom_site_occupancy
  Lu  Lu0  1  0.934109  0.447053  0.165688  1
  Lu  Lu1  1  0.813383  0.059470  0.341070  1
  Lu  Lu2  1  0.693717  0.400212  0.467765  1
  Lu  Lu3  1  0.309941  0.604749  0.528481  1
  Lu  Lu4  1  0.176564  0.939193  0.654666  1
  Lu  Lu5  1  0.077720  0.548685  0.837033  1
  Lu  Lu6  1  0.675318  0.891597  0.977025  1
  Si  Si7  1  0.475088  0.567085  0.199102  1
  Si  Si8  1  0.214644  0.938995  0.308900  1
  Si  Si9  1  0.772520  0.054040  0.687832  1
  Si  Si10  1  0.536851  0.442806  0.803701  1
  Bi  Bi11  1  0.317568  0.109251  0.024403  1
  O  O12  1  0.203501  0.469712  0.065586  1
  O  O13  1  0.730523  0.141819  0.106441  1
  O  O14  1  0.043178  0.938762  0.136180  1
  O  O15  1  0.613098  0.786187  0.181595  1
  O  O16  1  0.626446  0.449619  0.193591  1
  O  O17  1  0.493372  0.089890  0.336762  1
  O  O18  1  0.182231  0.724905  0.325669  1
  O  O19  1  0.455748  0.537984  0.364374  1
  O  O20  1  0.977534  0.362696  0.398063  1
  O  O21  1  0.143214  0.022540  0.431276  1
  O  O22  1  0.841042  0.968966  0.564504  1
  O  O23  1  0.028021  0.634892  0.605947  1
  O  O24  1  0.546291  0.469048  0.636330  1
  O  O25  1  0.827739  0.274572  0.677501  1
  O  O26  1  0.491717  0.912692  0.657919  1
  O  O27  1  0.425658  0.586152  0.833658  1
  O  O28  1  0.366240  0.222158  0.804996  1
  O  O29  1  0.917098  0.027290  0.858793  1
  O  O30  1  0.282146  0.860272  0.891884  1
  O  O31  1  0.807782  0.516711  0.933267  1
