# generated using pymatgen
data_Hf6GaSnBi
_symmetry_space_group_name_H-M   'P 1'
_cell_length_a   7.67473000
_cell_length_b   7.67472987
_cell_length_c   3.86596700
_cell_angle_alpha   90.00000000
_cell_angle_beta   90.00000000
_cell_angle_gamma   120.00000055
_symmetry_Int_Tables_number   1
_chemical_formula_structural   Hf6GaSnBi
_chemical_formula_sum   'Hf6 Ga1 Sn1 Bi1'
_cell_volume   197.20366237
_cell_formula_units_Z   1
loop_
 _symmetry_equiv_pos_site_id
 _symmetry_equiv_pos_as_xyz
  1  'x, y, z'
loop_
 _atom_site_type_symbol
 _atom_site_label
 _atom_site_symmetry_multiplicity
 _atom_site_fract_x
 _atom_site_fract_y
 _atom_site_fract_z
 _atom_site_occupancy
  Hf  Hf0  1  0.395431  0.005947  0.000000  1
  Hf  Hf1  1  0.994053  0.389484  0.000000  1
  Hf  Hf2  1  0.610516  0.604570  0.000000  1
  Hf  Hf3  1  0.759567  0.004101  0.500000  1
  Hf  Hf4  1  0.244534  0.240432  0.500000  1
  Hf  Hf5  1  0.995899  0.755466  0.500000  1
  Ga  Ga6  1  0.000000  0.000000  0.000000  1
  Sn  Sn7  1  0.666666  0.333333  0.500000  1
  Bi  Bi8  1  0.333334  0.666667  0.500000  1
