# generated using pymatgen
data_Hf6V4Ga5Sb
_symmetry_space_group_name_H-M   'P 1'
_cell_length_a   7.86824500
_cell_length_b   7.85916371
_cell_length_c   5.27118000
_cell_angle_alpha   90.00000000
_cell_angle_beta   90.00000000
_cell_angle_gamma   120.03824372
_symmetry_Int_Tables_number   1
_chemical_formula_structural   Hf6V4Ga5Sb
_chemical_formula_sum   'Hf6 V4 Ga5 Sb1'
_cell_volume   282.17932861
_cell_formula_units_Z   1
loop_
 _symmetry_equiv_pos_site_id
 _symmetry_equiv_pos_as_xyz
  1  'x, y, z'
loop_
 _atom_site_type_symbol
 _atom_site_label
 _atom_site_symmetry_multiplicity
 _atom_site_fract_x
 _atom_site_fract_y
 _atom_site_fract_z
 _atom_site_occupancy
  Hf  Hf0  1  0.755922  0.744385  0.250000  1
  Hf  Hf1  1  0.760131  0.000000  0.750000  1
  Hf  Hf2  1  0.011538  0.255615  0.250000  1
  Hf  Hf3  1  0.248298  0.250165  0.750000  1
  Hf  Hf4  1  0.232934  0.000000  0.250000  1
  Hf  Hf5  1  0.998132  0.749835  0.750000  1
  V  V6  1  0.668079  0.339270  0.995224  1
  V  V7  1  0.668079  0.339270  0.504776  1
  V  V8  1  0.328808  0.660730  0.504776  1
  V  V9  1  0.328808  0.660730  0.995224  1
  Ga  Ga10  1  0.597010  0.598905  0.750000  1
  Ga  Ga11  1  0.998104  0.401095  0.750000  1
  Ga  Ga12  1  0.002698  0.596852  0.250000  1
  Ga  Ga13  1  0.405846  0.403148  0.250000  1
  Ga  Ga14  1  0.399942  0.000000  0.750000  1
  Sb  Sb15  1  0.595675  0.000000  0.250000  1
