# generated using pymatgen
data_Zr12Al4TcRu2Rh5N4
_symmetry_space_group_name_H-M   'P 1'
_cell_length_a   8.56923443
_cell_length_b   8.56923409
_cell_length_c   8.56923500
_cell_angle_alpha   60.08163511
_cell_angle_beta   60.08163642
_cell_angle_gamma   60.08162892
_symmetry_Int_Tables_number   1
_chemical_formula_structural   Zr12Al4TcRu2Rh5N4
_chemical_formula_sum   'Zr12 Al4 Tc1 Ru2 Rh5 N4'
_cell_volume   445.77297599
_cell_formula_units_Z   1
loop_
 _symmetry_equiv_pos_site_id
 _symmetry_equiv_pos_as_xyz
  1  'x, y, z'
loop_
 _atom_site_type_symbol
 _atom_site_label
 _atom_site_symmetry_multiplicity
 _atom_site_fract_x
 _atom_site_fract_y
 _atom_site_fract_z
 _atom_site_occupancy
  Zr  Zr0  1  0.808668  0.807748  0.191945  1
  Zr  Zr1  1  0.192885  0.192721  0.807803  1
  Zr  Zr2  1  0.808668  0.191945  0.807748  1
  Zr  Zr3  1  0.192885  0.807803  0.192721  1
  Zr  Zr4  1  0.192321  0.807763  0.807763  1
  Zr  Zr5  1  0.809137  0.192127  0.192127  1
  Zr  Zr6  1  0.440155  0.440264  0.056226  1
  Zr  Zr7  1  0.058315  0.061574  0.439853  1
  Zr  Zr8  1  0.440155  0.056226  0.440264  1
  Zr  Zr9  1  0.058315  0.439853  0.061574  1
  Zr  Zr10  1  0.055069  0.439994  0.439994  1
  Zr  Zr11  1  0.439784  0.059765  0.059765  1
  Al  Al12  1  0.124486  0.625368  0.625368  1
  Al  Al13  1  0.624840  0.120620  0.627561  1
  Al  Al14  1  0.624840  0.627561  0.120620  1
  Al  Al15  1  0.625422  0.627996  0.627996  1
  Tc  Tc16  1  0.743649  0.419276  0.419276  1
  Ru  Ru17  1  0.418377  0.748026  0.417452  1
  Ru  Ru18  1  0.418377  0.417452  0.748026  1
  Rh  Rh19  1  0.416622  0.416048  0.416048  1
  Rh  Rh20  1  0.497672  0.834363  0.834363  1
  Rh  Rh21  1  0.835150  0.496585  0.834470  1
  Rh  Rh22  1  0.835150  0.834470  0.496585  1
  Rh  Rh23  1  0.835345  0.834490  0.834490  1
  N  N24  1  0.624182  0.125808  0.125808  1
  N  N25  1  0.126765  0.624538  0.125158  1
  N  N26  1  0.126765  0.125158  0.624538  1
  N  N27  1  0.125999  0.124459  0.124459  1
