# generated using pymatgen
data_Tm5GaSb2
_symmetry_space_group_name_H-M   'P 1'
_cell_length_a   8.71369900
_cell_length_b   8.72273668
_cell_length_c   6.34010800
_cell_angle_alpha   90.00000000
_cell_angle_beta   90.00000000
_cell_angle_gamma   119.96572800
_symmetry_Int_Tables_number   1
_chemical_formula_structural   Tm5GaSb2
_chemical_formula_sum   'Tm10 Ga2 Sb4'
_cell_volume   417.47693166
_cell_formula_units_Z   2
loop_
 _symmetry_equiv_pos_site_id
 _symmetry_equiv_pos_as_xyz
  1  'x, y, z'
loop_
 _atom_site_type_symbol
 _atom_site_label
 _atom_site_symmetry_multiplicity
 _atom_site_fract_x
 _atom_site_fract_y
 _atom_site_fract_z
 _atom_site_occupancy
  Tm  Tm0  1  0.342820  0.685642  0.000000  1
  Tm  Tm1  1  0.657180  0.314358  0.500000  1
  Tm  Tm2  1  0.657180  0.314358  0.000000  1
  Tm  Tm3  1  0.342820  0.685642  0.500000  1
  Tm  Tm4  1  0.244568  0.000000  0.250000  1
  Tm  Tm5  1  0.755432  0.000000  0.750000  1
  Tm  Tm6  1  0.986265  0.231063  0.250000  1
  Tm  Tm7  1  0.755203  0.768937  0.250000  1
  Tm  Tm8  1  0.244797  0.231063  0.750000  1
  Tm  Tm9  1  0.013735  0.768937  0.750000  1
  Ga  Ga10  1  0.603512  0.000000  0.250000  1
  Ga  Ga11  1  0.396488  0.000000  0.750000  1
  Sb  Sb12  1  0.993832  0.605602  0.250000  1
  Sb  Sb13  1  0.388230  0.394398  0.250000  1
  Sb  Sb14  1  0.611770  0.605602  0.750000  1
  Sb  Sb15  1  0.006168  0.394398  0.750000  1
