# generated using pymatgen
data_CeLu(Al3Ni)6
_symmetry_space_group_name_H-M   'P 1'
_cell_length_a   10.08356192
_cell_length_b   10.08356166
_cell_length_c   10.08356255
_cell_angle_alpha   42.49049226
_cell_angle_beta   42.49049625
_cell_angle_gamma   42.49049239
_symmetry_Int_Tables_number   1
_chemical_formula_structural   CeLu(Al3Ni)6
_chemical_formula_sum   'Ce1 Lu1 Al18 Ni6'
_cell_volume   423.56721986
_cell_formula_units_Z   1
loop_
 _symmetry_equiv_pos_site_id
 _symmetry_equiv_pos_as_xyz
  1  'x, y, z'
loop_
 _atom_site_type_symbol
 _atom_site_label
 _atom_site_symmetry_multiplicity
 _atom_site_fract_x
 _atom_site_fract_y
 _atom_site_fract_z
 _atom_site_occupancy
  Ce  Ce0  1  0.166811  0.166811  0.166811  1
  Lu  Lu1  1  0.833128  0.833128  0.833128  1
  Al  Al2  1  0.102224  0.434395  0.761192  1
  Al  Al3  1  0.434395  0.761192  0.102224  1
  Al  Al4  1  0.569372  0.895884  0.236979  1
  Al  Al5  1  0.948072  0.948072  0.948072  1
  Al  Al6  1  0.051736  0.051736  0.051736  1
  Al  Al7  1  0.290713  0.706280  0.503042  1
  Al  Al8  1  0.895884  0.236979  0.569372  1
  Al  Al9  1  0.386945  0.386945  0.386945  1
  Al  Al10  1  0.503042  0.290713  0.706280  1
  Al  Al11  1  0.236979  0.569372  0.895884  1
  Al  Al12  1  0.718227  0.718227  0.718227  1
  Al  Al13  1  0.613023  0.613023  0.613023  1
  Al  Al14  1  0.334521  0.999469  0.666013  1
  Al  Al15  1  0.706280  0.503042  0.290713  1
  Al  Al16  1  0.666013  0.334521  0.999469  1
  Al  Al17  1  0.281962  0.281962  0.281962  1
  Al  Al18  1  0.999469  0.666013  0.334521  1
  Al  Al19  1  0.761192  0.102224  0.434395  1
  Ni  Ni20  1  0.418884  0.078185  0.758466  1
  Ni  Ni21  1  0.581832  0.241219  0.921425  1
  Ni  Ni22  1  0.078185  0.758466  0.418884  1
  Ni  Ni23  1  0.758466  0.418884  0.078185  1
  Ni  Ni24  1  0.921425  0.581832  0.241219  1
  Ni  Ni25  1  0.241219  0.921425  0.581832  1
