# generated using pymatgen
data_Ho2Er2Tm4Ga3Co
_symmetry_space_group_name_H-M   'P 1'
_cell_length_a   9.89042801
_cell_length_b   9.89042714
_cell_length_c   6.88648200
_cell_angle_alpha   89.99889136
_cell_angle_beta   90.00111356
_cell_angle_gamma   119.99427816
_symmetry_Int_Tables_number   1
_chemical_formula_structural   Ho2Er2Tm4Ga3Co
_chemical_formula_sum   'Ho4 Er4 Tm8 Ga6 Co2'
_cell_volume   583.42256163
_cell_formula_units_Z   2
loop_
 _symmetry_equiv_pos_site_id
 _symmetry_equiv_pos_as_xyz
  1  'x, y, z'
loop_
 _atom_site_type_symbol
 _atom_site_label
 _atom_site_symmetry_multiplicity
 _atom_site_fract_x
 _atom_site_fract_y
 _atom_site_fract_z
 _atom_site_occupancy
  Ho  Ho0  1  0.928031  0.464052  0.707892  1
  Ho  Ho1  1  0.535948  0.071969  0.707892  1
  Ho  Ho2  1  0.999986  0.000014  0.230997  1
  Ho  Ho3  1  0.000003  0.999997  0.731010  1
  Er  Er4  1  0.463918  0.536082  0.207853  1
  Er  Er5  1  0.072207  0.536105  0.207879  1
  Er  Er6  1  0.463895  0.927793  0.207879  1
  Er  Er7  1  0.536044  0.463956  0.707830  1
  Tm  Tm8  1  0.173481  0.826519  0.510978  1
  Tm  Tm9  1  0.653005  0.826441  0.511044  1
  Tm  Tm10  1  0.173559  0.346995  0.511044  1
  Tm  Tm11  1  0.826553  0.173447  0.011249  1
  Tm  Tm12  1  0.346967  0.173524  0.011169  1
  Tm  Tm13  1  0.826476  0.653033  0.011169  1
  Tm  Tm14  1  0.333362  0.666638  0.826970  1
  Tm  Tm15  1  0.666631  0.333369  0.326809  1
  Ga  Ga16  1  0.163528  0.836472  0.959111  1
  Ga  Ga17  1  0.672942  0.836462  0.959084  1
  Ga  Ga18  1  0.163538  0.327058  0.959084  1
  Ga  Ga19  1  0.836514  0.163486  0.458953  1
  Ga  Ga20  1  0.327036  0.163559  0.459021  1
  Ga  Ga21  1  0.836441  0.672964  0.459021  1
  Co  Co22  1  0.333330  0.666670  0.444962  1
  Co  Co23  1  0.666606  0.333394  0.945143  1
