# generated using pymatgen
data_Nd3Th(CoB10)2
_symmetry_space_group_name_H-M   'P 1'
_cell_length_a   4.18345800
_cell_length_b   5.61806577
_cell_length_c   11.20807455
_cell_angle_alpha   90.06025154
_cell_angle_beta   90.00000000
_cell_angle_gamma   90.00000000
_symmetry_Int_Tables_number   1
_chemical_formula_structural   Nd3Th(CoB10)2
_chemical_formula_sum   'Nd3 Th1 Co2 B20'
_cell_volume   263.42258285
_cell_formula_units_Z   1
loop_
 _symmetry_equiv_pos_site_id
 _symmetry_equiv_pos_as_xyz
  1  'x, y, z'
loop_
 _atom_site_type_symbol
 _atom_site_label
 _atom_site_symmetry_multiplicity
 _atom_site_fract_x
 _atom_site_fract_y
 _atom_site_fract_z
 _atom_site_occupancy
  Nd  Nd0  1  0.500000  0.301907  0.865557  1
  Nd  Nd1  1  0.500000  0.698949  0.132817  1
  Nd  Nd2  1  0.500000  0.802946  0.636162  1
  Th  Th3  1  0.500000  0.198975  0.366697  1
  Co  Co4  1  0.000000  0.497618  0.498919  1
  Co  Co5  1  0.000000  0.999822  0.000314  1
  B  B6  1  0.000000  0.126887  0.540365  1
  B  B7  1  0.000000  0.871696  0.459810  1
  B  B8  1  0.000000  0.627408  0.959304  1
  B  B9  1  0.000000  0.372469  0.040512  1
  B  B10  1  0.000000  0.155874  0.697670  1
  B  B11  1  0.000000  0.845926  0.302859  1
  B  B12  1  0.299074  0.201216  0.113088  1
  B  B13  1  0.298848  0.798737  0.887226  1
  B  B14  1  0.700619  0.700764  0.386460  1
  B  B15  1  0.700779  0.297908  0.612816  1
  B  B16  1  0.701152  0.798737  0.887226  1
  B  B17  1  0.700926  0.201216  0.113088  1
  B  B18  1  0.299221  0.297908  0.612816  1
  B  B19  1  0.299381  0.700764  0.386460  1
  B  B20  1  0.000000  0.034548  0.187300  1
  B  B21  1  0.000000  0.966477  0.813524  1
  B  B22  1  0.000000  0.534211  0.312898  1
  B  B23  1  0.000000  0.466581  0.686324  1
  B  B24  1  0.000000  0.344470  0.197343  1
  B  B25  1  0.000000  0.655987  0.802446  1
