# generated using pymatgen
data_Dy3In3SnPtRh
_symmetry_space_group_name_H-M   'P 1'
_cell_length_a   7.86106500
_cell_length_b   7.86106649
_cell_length_c   3.87227100
_cell_angle_alpha   90.00000000
_cell_angle_beta   90.00000000
_cell_angle_gamma   119.99998952
_symmetry_Int_Tables_number   1
_chemical_formula_structural   Dy3In3SnPtRh
_chemical_formula_sum   'Dy3 In3 Sn1 Pt1 Rh1'
_cell_volume   207.23317373
_cell_formula_units_Z   1
loop_
 _symmetry_equiv_pos_site_id
 _symmetry_equiv_pos_as_xyz
  1  'x, y, z'
loop_
 _atom_site_type_symbol
 _atom_site_label
 _atom_site_symmetry_multiplicity
 _atom_site_fract_x
 _atom_site_fract_y
 _atom_site_fract_z
 _atom_site_occupancy
  Dy  Dy0  1  0.026292  0.613549  0.500000  1
  Dy  Dy1  1  0.587256  0.973708  0.500000  1
  Dy  Dy2  1  0.386451  0.412744  0.500000  1
  In  In3  1  0.006567  0.254602  0.000000  1
  In  In4  1  0.248035  0.993433  0.000000  1
  In  In5  1  0.745398  0.751965  0.000000  1
  Sn  Sn6  1  0.666667  0.333333  0.000000  1
  Pt  Pt7  1  0.333333  0.666667  0.000000  1
  Rh  Rh8  1  0.000000  0.000000  0.500000  1
