# generated using pymatgen
data_NdPa3(NbN2)4
_symmetry_space_group_name_H-M   'P 1'
_cell_length_a   3.33824400
_cell_length_b   5.76003903
_cell_length_c   11.05135440
_cell_angle_alpha   90.00923637
_cell_angle_beta   90.00000000
_cell_angle_gamma   90.00000000
_symmetry_Int_Tables_number   1
_chemical_formula_structural   NdPa3(NbN2)4
_chemical_formula_sum   'Nd1 Pa3 Nb4 N8'
_cell_volume   212.50003417
_cell_formula_units_Z   1
loop_
 _symmetry_equiv_pos_site_id
 _symmetry_equiv_pos_as_xyz
  1  'x, y, z'
loop_
 _atom_site_type_symbol
 _atom_site_label
 _atom_site_symmetry_multiplicity
 _atom_site_fract_x
 _atom_site_fract_y
 _atom_site_fract_z
 _atom_site_occupancy
  Nd  Nd0  1  0.250000  0.579090  0.853836  1
  Pa  Pa1  1  0.750000  0.426459  0.141329  1
  Pa  Pa2  1  0.750000  0.924270  0.356619  1
  Pa  Pa3  1  0.250000  0.078846  0.645689  1
  Nb  Nb4  1  0.250000  0.923437  0.099667  1
  Nb  Nb5  1  0.750000  0.072501  0.906198  1
  Nb  Nb6  1  0.750000  0.575969  0.595601  1
  Nb  Nb7  1  0.250000  0.425457  0.402593  1
  N  N8  1  0.250000  0.658807  0.246689  1
  N  N9  1  0.750000  0.325405  0.745087  1
  N  N10  1  0.750000  0.849366  0.739968  1
  N  N11  1  0.250000  0.158233  0.257472  1
  N  N12  1  0.250000  0.766655  0.503748  1
  N  N13  1  0.750000  0.234841  0.494131  1
  N  N14  1  0.750000  0.740640  0.010039  1
  N  N15  1  0.250000  0.260025  0.001336  1
