# generated using pymatgen
data_RbCrFeF6
_symmetry_space_group_name_H-M   'P 1'
_cell_length_a   7.47112986
_cell_length_b   7.47112918
_cell_length_c   7.47112950
_cell_angle_alpha   121.10147980
_cell_angle_beta   120.02244565
_cell_angle_gamma   89.03196346
_symmetry_Int_Tables_number   1
_chemical_formula_structural   RbCrFeF6
_chemical_formula_sum   'Rb2 Cr2 Fe2 F12'
_cell_volume   292.29590642
_cell_formula_units_Z   2
loop_
 _symmetry_equiv_pos_site_id
 _symmetry_equiv_pos_as_xyz
  1  'x, y, z'
loop_
 _atom_site_type_symbol
 _atom_site_label
 _atom_site_symmetry_multiplicity
 _atom_site_fract_x
 _atom_site_fract_y
 _atom_site_fract_z
 _atom_site_occupancy
  Rb  Rb0  1  0.367381  0.117381  0.250000  1
  Rb  Rb1  1  0.632619  0.882619  0.750000  1
  Cr  Cr2  1  0.000000  0.500000  0.500000  1
  Cr  Cr3  1  0.500000  0.500000  0.000000  1
  Fe  Fe4  1  0.000000  0.500000  0.000000  1
  Fe  Fe5  1  0.000000  0.000000  0.500000  1
  F  F6  1  0.308064  0.558064  0.750000  1
  F  F7  1  0.916832  0.166832  0.750000  1
  F  F8  1  0.336749  0.187115  0.769311  1
  F  F9  1  0.917804  0.567437  0.730689  1
  F  F10  1  0.336749  0.567437  0.149633  1
  F  F11  1  0.917804  0.187115  0.350367  1
  F  F12  1  0.691936  0.441936  0.250000  1
  F  F13  1  0.083168  0.833168  0.250000  1
  F  F14  1  0.663251  0.812885  0.230689  1
  F  F15  1  0.082196  0.432563  0.269311  1
  F  F16  1  0.663251  0.432563  0.850367  1
  F  F17  1  0.082196  0.812885  0.649633  1
