# generated using pymatgen
data_CsPaTe3Pd
_symmetry_space_group_name_H-M   'P 1'
_cell_length_a   9.41278800
_cell_length_b   9.41278799
_cell_length_c   11.03932300
_cell_angle_alpha   90.00000000
_cell_angle_beta   90.00000000
_cell_angle_gamma   154.34498174
_symmetry_Int_Tables_number   1
_chemical_formula_structural   CsPaTe3Pd
_chemical_formula_sum   'Cs2 Pa2 Te6 Pd2'
_cell_volume   423.46573772
_cell_formula_units_Z   2
loop_
 _symmetry_equiv_pos_site_id
 _symmetry_equiv_pos_as_xyz
  1  'x, y, z'
loop_
 _atom_site_type_symbol
 _atom_site_label
 _atom_site_symmetry_multiplicity
 _atom_site_fract_x
 _atom_site_fract_y
 _atom_site_fract_z
 _atom_site_occupancy
  Cs  Cs0  1  0.749122  0.250880  0.250000  1
  Cs  Cs1  1  0.250880  0.749122  0.750000  1
  Pa  Pa2  1  0.000000  0.000000  0.000000  1
  Pa  Pa3  1  0.000000  0.000000  0.500000  1
  Te  Te4  1  0.382885  0.617118  0.054986  1
  Te  Te5  1  0.065858  0.934144  0.250000  1
  Te  Te6  1  0.382885  0.617118  0.445015  1
  Te  Te7  1  0.617118  0.382885  0.554986  1
  Te  Te8  1  0.934144  0.065858  0.750000  1
  Te  Te9  1  0.617118  0.382885  0.945014  1
  Pd  Pd10  1  0.472877  0.527126  0.250000  1
  Pd  Pd11  1  0.527126  0.472877  0.750000  1
