# generated using pymatgen
data_Tb2YEr5Au4
_symmetry_space_group_name_H-M   'P 1'
_cell_length_a   4.91759200
_cell_length_b   7.13325934
_cell_length_c   8.92395564
_cell_angle_alpha   89.95835477
_cell_angle_beta   90.00000000
_cell_angle_gamma   90.00000000
_symmetry_Int_Tables_number   1
_chemical_formula_structural   Tb2YEr5Au4
_chemical_formula_sum   'Tb2 Y1 Er5 Au4'
_cell_volume   313.03852991
_cell_formula_units_Z   1
loop_
 _symmetry_equiv_pos_site_id
 _symmetry_equiv_pos_as_xyz
  1  'x, y, z'
loop_
 _atom_site_type_symbol
 _atom_site_label
 _atom_site_symmetry_multiplicity
 _atom_site_fract_x
 _atom_site_fract_y
 _atom_site_fract_z
 _atom_site_occupancy
  Tb  Tb0  1  0.750000  0.514326  0.823560  1
  Tb  Tb1  1  0.750000  0.014325  0.676560  1
  Y  Y2  1  0.250000  0.985648  0.322426  1
  Er  Er3  1  0.250000  0.851822  0.920661  1
  Er  Er4  1  0.250000  0.352487  0.579611  1
  Er  Er5  1  0.750000  0.148512  0.080276  1
  Er  Er6  1  0.750000  0.647536  0.419142  1
  Er  Er7  1  0.250000  0.485415  0.176202  1
  Au  Au8  1  0.250000  0.255379  0.901310  1
  Au  Au9  1  0.250000  0.754775  0.600128  1
  Au  Au10  1  0.750000  0.744254  0.100407  1
  Au  Au11  1  0.750000  0.245523  0.399716  1
