# generated using pymatgen
data_Er20GaBi7Ir4
_symmetry_space_group_name_H-M   'P 1'
_cell_length_a   7.93057574
_cell_length_b   8.97537361
_cell_length_c   12.38192400
_cell_angle_alpha   90.10511987
_cell_angle_beta   90.11045802
_cell_angle_gamma   90.14419573
_symmetry_Int_Tables_number   1
_chemical_formula_structural   Er20GaBi7Ir4
_chemical_formula_sum   'Er20 Ga1 Bi7 Ir4'
_cell_volume   881.33794667
_cell_formula_units_Z   1
loop_
 _symmetry_equiv_pos_site_id
 _symmetry_equiv_pos_as_xyz
  1  'x, y, z'
loop_
 _atom_site_type_symbol
 _atom_site_label
 _atom_site_symmetry_multiplicity
 _atom_site_fract_x
 _atom_site_fract_y
 _atom_site_fract_z
 _atom_site_occupancy
  Er  Er0  1  0.829732  0.739946  0.790679  1
  Er  Er1  1  0.161773  0.250242  0.205253  1
  Er  Er2  1  0.346373  0.260142  0.711506  1
  Er  Er3  1  0.659847  0.751146  0.292126  1
  Er  Er4  1  0.384800  0.739915  0.697523  1
  Er  Er5  1  0.624140  0.249896  0.308348  1
  Er  Er6  1  0.863062  0.258134  0.808209  1
  Er  Er7  1  0.124022  0.749572  0.192410  1
  Er  Er8  1  0.945886  0.751291  0.502133  1
  Er  Er9  1  0.056029  0.248778  0.499098  1
  Er  Er10  1  0.452136  0.260275  0.991228  1
  Er  Er11  1  0.553790  0.739736  0.996087  1
  Er  Er12  1  0.676356  0.043259  0.567176  1
  Er  Er13  1  0.324967  0.956015  0.434714  1
  Er  Er14  1  0.174153  0.958164  0.932917  1
  Er  Er15  1  0.325395  0.542111  0.433501  1
  Er  Er16  1  0.822147  0.040513  0.065014  1
  Er  Er17  1  0.671852  0.459212  0.574839  1
  Er  Er18  1  0.824776  0.457664  0.063654  1
  Er  Er19  1  0.181516  0.541536  0.932058  1
  Ga  Ga20  1  0.563709  0.494983  0.830021  1
  Bi  Bi21  1  0.433004  0.508664  0.173998  1
  Bi  Bi22  1  0.067642  0.508772  0.671777  1
  Bi  Bi23  1  0.432566  0.991612  0.169201  1
  Bi  Bi24  1  0.932786  0.490933  0.327762  1
  Bi  Bi25  1  0.566759  0.007757  0.827937  1
  Bi  Bi26  1  0.933083  0.009362  0.326737  1
  Bi  Bi27  1  0.067818  0.991921  0.675018  1
  Ir  Ir28  1  0.573763  0.749365  0.509578  1
  Ir  Ir29  1  0.427569  0.249979  0.491967  1
  Ir  Ir30  1  0.070148  0.250033  0.989611  1
  Ir  Ir31  1  0.928403  0.749071  0.007921  1
