# generated using pymatgen
data_TmMgCd2(Ni3B)2
_symmetry_space_group_name_H-M   'P 1'
_cell_length_a   5.07908900
_cell_length_b   5.07908693
_cell_length_c   14.05072500
_cell_angle_alpha   90.00000000
_cell_angle_beta   90.00000000
_cell_angle_gamma   120.00000697
_symmetry_Int_Tables_number   1
_chemical_formula_structural   TmMgCd2(Ni3B)2
_chemical_formula_sum   'Tm2 Mg2 Cd4 Ni12 B4'
_cell_volume   313.90685801
_cell_formula_units_Z   2
loop_
 _symmetry_equiv_pos_site_id
 _symmetry_equiv_pos_as_xyz
  1  'x, y, z'
loop_
 _atom_site_type_symbol
 _atom_site_label
 _atom_site_symmetry_multiplicity
 _atom_site_fract_x
 _atom_site_fract_y
 _atom_site_fract_z
 _atom_site_occupancy
  Tm  Tm0  1  0.333333  0.666667  0.750000  1
  Tm  Tm1  1  0.666667  0.333333  0.250000  1
  Mg  Mg2  1  0.000000  0.000000  0.000000  1
  Mg  Mg3  1  0.000000  0.000000  0.500000  1
  Cd  Cd4  1  0.333333  0.666667  0.530655  1
  Cd  Cd5  1  0.666667  0.333333  0.030655  1
  Cd  Cd6  1  0.666667  0.333333  0.469345  1
  Cd  Cd7  1  0.333333  0.666667  0.969345  1
  Ni  Ni8  1  0.168049  0.336099  0.151503  1
  Ni  Ni9  1  0.831951  0.663901  0.651503  1
  Ni  Ni10  1  0.663901  0.831951  0.151503  1
  Ni  Ni11  1  0.168049  0.831951  0.151503  1
  Ni  Ni12  1  0.831951  0.168049  0.651503  1
  Ni  Ni13  1  0.336099  0.168049  0.651503  1
  Ni  Ni14  1  0.831951  0.663901  0.848497  1
  Ni  Ni15  1  0.831951  0.168049  0.848497  1
  Ni  Ni16  1  0.336099  0.168049  0.848497  1
  Ni  Ni17  1  0.663901  0.831951  0.348497  1
  Ni  Ni18  1  0.168049  0.831951  0.348497  1
  Ni  Ni19  1  0.168049  0.336099  0.348497  1
  B  B20  1  0.333333  0.666667  0.250000  1
  B  B21  1  0.666667  0.333333  0.750000  1
  B  B22  1  0.000000  0.000000  0.250000  1
  B  B23  1  0.000000  0.000000  0.750000  1
