# generated using pymatgen
data_CsNa2SrTl(B3O5)6
_symmetry_space_group_name_H-M   'P 1'
_cell_length_a   8.65495600
_cell_length_b   8.59957341
_cell_length_c   17.46180200
_cell_angle_alpha   87.19431785
_cell_angle_beta   90.00000000
_cell_angle_gamma   90.00000000
_symmetry_Int_Tables_number   1
_chemical_formula_structural   CsNa2SrTl(B3O5)6
_chemical_formula_sum   'Cs2 Na4 Sr2 Tl2 B36 O60'
_cell_volume   1298.10530806
_cell_formula_units_Z   2
loop_
 _symmetry_equiv_pos_site_id
 _symmetry_equiv_pos_as_xyz
  1  'x, y, z'
loop_
 _atom_site_type_symbol
 _atom_site_label
 _atom_site_symmetry_multiplicity
 _atom_site_fract_x
 _atom_site_fract_y
 _atom_site_fract_z
 _atom_site_occupancy
  Cs  Cs0  1  0.539278  0.497541  0.195542  1
  Cs  Cs1  1  0.039278  0.502459  0.304458  1
  Na  Na2  1  0.258326  0.229356  0.619789  1
  Na  Na3  1  0.758326  0.770644  0.880211  1
  Na  Na4  1  0.738730  0.774302  0.381549  1
  Na  Na5  1  0.238730  0.225698  0.118451  1
  Sr  Sr6  1  0.999625  0.999171  0.999128  1
  Sr  Sr7  1  0.499625  0.000829  0.500872  1
  Tl  Tl8  1  0.450194  0.483832  0.813875  1
  Tl  Tl9  1  0.950194  0.516168  0.686125  1
  B  B10  1  0.651137  0.174146  0.916815  1
  B  B11  1  0.151137  0.825854  0.583185  1
  B  B12  1  0.349002  0.828117  0.082275  1
  B  B13  1  0.849002  0.171883  0.417725  1
  B  B14  1  0.620663  0.179123  0.057336  1
  B  B15  1  0.120663  0.820877  0.442664  1
  B  B16  1  0.379321  0.820171  0.942047  1
  B  B17  1  0.879321  0.179829  0.557953  1
  B  B18  1  0.395824  0.224235  0.974199  1
  B  B19  1  0.895824  0.775765  0.525801  1
  B  B20  1  0.603454  0.776904  0.025804  1
  B  B21  1  0.103454  0.223096  0.474196  1
  B  B22  1  0.142799  0.330100  0.913419  1
  B  B23  1  0.642799  0.669900  0.586581  1
  B  B24  1  0.857791  0.670265  0.085768  1
  B  B25  1  0.357791  0.329735  0.414232  1
  B  B26  1  0.861733  0.376844  0.904998  1
  B  B27  1  0.361733  0.623156  0.595002  1
  B  B28  1  0.138987  0.624420  0.092974  1
  B  B29  1  0.638987  0.375580  0.407026  1
  B  B30  1  0.041152  0.596559  0.893933  1
  B  B31  1  0.541152  0.403441  0.606067  1
  B  B32  1  0.959844  0.404107  0.104850  1
  B  B33  1  0.459844  0.595893  0.395150  1
  B  B34  1  0.190216  0.952361  0.710989  1
  B  B35  1  0.690216  0.047639  0.789011  1
  B  B36  1  0.809726  0.047142  0.289043  1
  B  B37  1  0.309726  0.952858  0.210957  1
  B  B38  1  0.166503  0.850145  0.844135  1
  B  B39  1  0.666503  0.149855  0.655865  1
  B  B40  1  0.833938  0.149439  0.155478  1
  B  B41  1  0.333938  0.850561  0.344522  1
  B  B42  1  0.175618  0.133563  0.813979  1
  B  B43  1  0.675618  0.866437  0.686021  1
  B  B44  1  0.827260  0.866263  0.185648  1
  B  B45  1  0.327260  0.133737  0.314352  1
  O  O46  1  0.713868  0.330654  0.896239  1
  O  O47  1  0.213868  0.669346  0.603761  1
  O  O48  1  0.285989  0.671455  0.102423  1
  O  O49  1  0.785989  0.328545  0.397577  1
  O  O50  1  0.706471  0.053663  0.866877  1
  O  O51  1  0.206471  0.946337  0.633123  1
  O  O52  1  0.292295  0.947280  0.133077  1
  O  O53  1  0.792295  0.052720  0.366923  1
  O  O54  1  0.701388  0.124610  0.996125  1
  O  O55  1  0.201388  0.875390  0.503875  1
  O  O56  1  0.298645  0.877528  0.002785  1
  O  O57  1  0.798645  0.122472  0.497215  1
  O  O58  1  0.480272  0.192139  0.911141  1
  O  O59  1  0.980272  0.807861  0.588859  1
  O  O60  1  0.519267  0.813031  0.088041  1
  O  O61  1  0.019267  0.186969  0.411959  1
  O  O62  1  0.677342  0.190541  0.129139  1
  O  O63  1  0.177342  0.809459  0.370861  1
  O  O64  1  0.323014  0.807479  0.870160  1
  O  O65  1  0.823014  0.192521  0.629840  1
  O  O66  1  0.467212  0.230875  0.046189  1
  O  O67  1  0.967212  0.769125  0.453811  1
  O  O68  1  0.532161  0.767462  0.953780  1
  O  O69  1  0.032161  0.232538  0.546220  1
  O  O70  1  0.239233  0.253792  0.974260  1
  O  O71  1  0.739233  0.746208  0.525740  1
  O  O72  1  0.760128  0.747074  0.025880  1
  O  O73  1  0.260128  0.252926  0.474120  1
  O  O74  1  0.980990  0.283227  0.931693  1
  O  O75  1  0.480990  0.716773  0.568307  1
  O  O76  1  0.019316  0.717052  0.066196  1
  O  O77  1  0.519316  0.282948  0.433804  1
  O  O78  1  0.163076  0.501643  0.912458  1
  O  O79  1  0.663076  0.498357  0.587542  1
  O  O80  1  0.838193  0.498615  0.086513  1
  O  O81  1  0.338193  0.501385  0.413487  1
  O  O82  1  0.182941  0.284494  0.834900  1
  O  O83  1  0.682941  0.715506  0.665100  1
  O  O84  1  0.822391  0.715555  0.164983  1
  O  O85  1  0.322391  0.284445  0.335017  1
  O  O86  1  0.893130  0.533099  0.883280  1
  O  O87  1  0.393130  0.466901  0.616720  1
  O  O88  1  0.108172  0.467786  0.115508  1
  O  O89  1  0.608172  0.532214  0.384492  1
  O  O90  1  0.044598  0.755665  0.883721  1
  O  O91  1  0.544598  0.244335  0.616279  1
  O  O92  1  0.955962  0.245144  0.116435  1
  O  O93  1  0.455962  0.754856  0.383565  1
  O  O94  1  0.211083  0.103810  0.738018  1
  O  O95  1  0.711083  0.896190  0.761982  1
  O  O96  1  0.791249  0.895382  0.261839  1
  O  O97  1  0.291249  0.104618  0.238161  1
  O  O98  1  0.158449  0.830134  0.760723  1
  O  O99  1  0.658449  0.169866  0.739277  1
  O  O100  1  0.839864  0.169862  0.239148  1
  O  O101  1  0.339864  0.830138  0.260852  1
  O  O102  1  0.130585  0.013282  0.863448  1
  O  O103  1  0.630585  0.986718  0.636552  1
  O  O104  1  0.871594  0.987147  0.136349  1
  O  O105  1  0.371594  0.012853  0.363651  1
