# generated using pymatgen
data_TbEu3Ga18(IrPd)3
_symmetry_space_group_name_H-M   'P 1'
_cell_length_a   7.69209548
_cell_length_b   7.69037895
_cell_length_c   9.68692407
_cell_angle_alpha   90.00988443
_cell_angle_beta   89.99603323
_cell_angle_gamma   119.70172971
_symmetry_Int_Tables_number   1
_chemical_formula_structural   TbEu3Ga18(IrPd)3
_chemical_formula_sum   'Tb1 Eu3 Ga18 Ir3 Pd3'
_cell_volume   497.74441909
_cell_formula_units_Z   1
loop_
 _symmetry_equiv_pos_site_id
 _symmetry_equiv_pos_as_xyz
  1  'x, y, z'
loop_
 _atom_site_type_symbol
 _atom_site_label
 _atom_site_symmetry_multiplicity
 _atom_site_fract_x
 _atom_site_fract_y
 _atom_site_fract_z
 _atom_site_occupancy
  Tb  Tb0  1  0.001590  0.330128  0.750621  1
  Eu  Eu1  1  0.997070  0.669838  0.249526  1
  Eu  Eu2  1  0.330565  0.003120  0.750383  1
  Eu  Eu3  1  0.670124  0.998128  0.249686  1
  Ga  Ga4  1  0.663069  0.665580  0.436240  1
  Ga  Ga5  1  0.334880  0.335470  0.937533  1
  Ga  Ga6  1  0.663849  0.664172  0.060364  1
  Ga  Ga7  1  0.333365  0.336029  0.565966  1
  Ga  Ga8  1  0.004265  0.337096  0.421184  1
  Ga  Ga9  1  0.999860  0.661794  0.922168  1
  Ga  Ga10  1  0.338009  0.000325  0.076357  1
  Ga  Ga11  1  0.663705  0.996600  0.580247  1
  Ga  Ga12  1  0.001653  0.664495  0.579970  1
  Ga  Ga13  1  0.999972  0.337724  0.077000  1
  Ga  Ga14  1  0.662964  0.000372  0.921812  1
  Ga  Ga15  1  0.334734  0.998443  0.421749  1
  Ga  Ga16  1  0.131416  0.130163  0.249566  1
  Ga  Ga17  1  0.870351  0.870151  0.750491  1
  Ga  Ga18  1  0.663545  0.456394  0.752006  1
  Ga  Ga19  1  0.338452  0.546641  0.249325  1
  Ga  Ga20  1  0.452251  0.660733  0.750581  1
  Ga  Ga21  1  0.544123  0.337849  0.247538  1
  Ir  Ir22  1  0.328189  0.668606  0.998307  1
  Ir  Ir23  1  0.329139  0.667991  0.501617  1
  Ir  Ir24  1  0.671237  0.329818  0.998203  1
  Pd  Pd25  1  0.000558  0.000804  0.501519  1
  Pd  Pd26  1  0.999898  0.001771  0.998519  1
  Pd  Pd27  1  0.671164  0.329767  0.501523  1
