# generated using pymatgen
data_Tb7Co3Sn23Rh3
_symmetry_space_group_name_H-M   'P 1'
_cell_length_a   9.79738616
_cell_length_b   9.79953140
_cell_length_c   10.05703122
_cell_angle_alpha   90.00952179
_cell_angle_beta   90.01413128
_cell_angle_gamma   120.00836280
_symmetry_Int_Tables_number   1
_chemical_formula_structural   Tb7Co3Sn23Rh3
_chemical_formula_sum   'Tb7 Co3 Sn23 Rh3'
_cell_volume   836.14062258
_cell_formula_units_Z   1
loop_
 _symmetry_equiv_pos_site_id
 _symmetry_equiv_pos_as_xyz
  1  'x, y, z'
loop_
 _atom_site_type_symbol
 _atom_site_label
 _atom_site_symmetry_multiplicity
 _atom_site_fract_x
 _atom_site_fract_y
 _atom_site_fract_z
 _atom_site_occupancy
  Tb  Tb0  1  0.999493  0.998905  0.000500  1
  Tb  Tb1  1  0.477599  0.521074  0.307138  1
  Tb  Tb2  1  0.520765  0.478084  0.693616  1
  Tb  Tb3  1  0.478476  0.957074  0.306892  1
  Tb  Tb4  1  0.521854  0.043482  0.693444  1
  Tb  Tb5  1  0.043749  0.521327  0.306974  1
  Tb  Tb6  1  0.957068  0.477924  0.693684  1
  Co  Co7  1  0.168507  0.335526  0.802929  1
  Co  Co8  1  0.336367  0.169575  0.196917  1
  Co  Co9  1  0.664482  0.832866  0.801274  1
  Sn  Sn10  1  0.350364  0.004299  0.004526  1
  Sn  Sn11  1  0.649566  0.995694  0.995120  1
  Sn  Sn12  1  0.004778  0.349692  0.995169  1
  Sn  Sn13  1  0.000397  0.648617  0.999961  1
  Sn  Sn14  1  0.648956  0.653505  0.995379  1
  Sn  Sn15  1  0.345322  0.345630  0.000040  1
  Sn  Sn16  1  0.335655  0.664287  0.817697  1
  Sn  Sn17  1  0.661405  0.330747  0.180958  1
  Sn  Sn18  1  0.999585  0.999223  0.500287  1
  Sn  Sn19  1  0.779141  0.220593  0.455816  1
  Sn  Sn20  1  0.220554  0.779159  0.544250  1
  Sn  Sn21  1  0.779068  0.558151  0.456422  1
  Sn  Sn22  1  0.218977  0.437858  0.549558  1
  Sn  Sn23  1  0.438319  0.219100  0.451225  1
  Sn  Sn24  1  0.561842  0.780789  0.549354  1
  Sn  Sn25  1  0.333454  0.666915  0.116680  1
  Sn  Sn26  1  0.666799  0.333595  0.883155  1
  Sn  Sn27  1  0.123532  0.887243  0.276726  1
  Sn  Sn28  1  0.883115  0.117677  0.725597  1
  Sn  Sn29  1  0.123388  0.236719  0.276986  1
  Sn  Sn30  1  0.876661  0.763196  0.722627  1
  Sn  Sn31  1  0.760373  0.880754  0.281075  1
  Sn  Sn32  1  0.237193  0.124133  0.722347  1
  Rh  Rh33  1  0.832773  0.168910  0.195882  1
  Rh  Rh34  1  0.169220  0.833818  0.802069  1
  Rh  Rh35  1  0.831202  0.663859  0.197726  1
