# generated using pymatgen
data_Ho24CuRu13
_symmetry_space_group_name_H-M   'P 1'
_cell_length_a   11.25040857
_cell_length_b   8.39541702
_cell_length_c   11.26296000
_cell_angle_alpha   56.22554334
_cell_angle_beta   89.95433310
_cell_angle_gamma   89.82689287
_symmetry_Int_Tables_number   1
_chemical_formula_structural   Ho24CuRu13
_chemical_formula_sum   'Ho24 Cu1 Ru13'
_cell_volume   884.26684439
_cell_formula_units_Z   1
loop_
 _symmetry_equiv_pos_site_id
 _symmetry_equiv_pos_as_xyz
  1  'x, y, z'
loop_
 _atom_site_type_symbol
 _atom_site_label
 _atom_site_symmetry_multiplicity
 _atom_site_fract_x
 _atom_site_fract_y
 _atom_site_fract_z
 _atom_site_occupancy
  Ho  Ho0  1  0.705794  0.241268  0.532619  1
  Ho  Ho1  1  0.204364  0.755177  0.968866  1
  Ho  Ho2  1  0.847525  0.507885  0.657229  1
  Ho  Ho3  1  0.345158  0.492363  0.843214  1
  Ho  Ho4  1  0.153207  0.492116  0.345108  1
  Ho  Ho5  1  0.653610  0.492438  0.161153  1
  Ho  Ho6  1  0.005639  0.851417  0.361120  1
  Ho  Ho7  1  0.503446  0.151100  0.138322  1
  Ho  Ho8  1  0.994169  0.149853  0.639540  1
  Ho  Ho9  1  0.491119  0.849931  0.858505  1
  Ho  Ho10  1  0.799012  0.249417  0.028412  1
  Ho  Ho11  1  0.294343  0.756509  0.468178  1
  Ho  Ho12  1  0.930917  0.780730  0.089440  1
  Ho  Ho13  1  0.429917  0.221043  0.410059  1
  Ho  Ho14  1  0.072318  0.223361  0.909094  1
  Ho  Ho15  1  0.567786  0.779806  0.591684  1
  Ho  Ho16  1  0.304098  0.242700  0.674087  1
  Ho  Ho17  1  0.800388  0.761592  0.824470  1
  Ho  Ho18  1  0.697598  0.752194  0.335947  1
  Ho  Ho19  1  0.197359  0.240684  0.175645  1
  Ho  Ho20  1  0.926026  0.280033  0.292726  1
  Ho  Ho21  1  0.423304  0.719823  0.204997  1
  Ho  Ho22  1  0.074156  0.720864  0.706758  1
  Ho  Ho23  1  0.577644  0.282051  0.791009  1
  Cu  Cu24  1  0.655878  0.912215  0.038252  1
  Ru  Ru25  1  0.500951  0.503320  0.497339  1
  Ru  Ru26  1  0.999562  0.502238  0.998754  1
  Ru  Ru27  1  0.144593  0.076771  0.463896  1
  Ru  Ru28  1  0.350851  0.082128  0.962520  1
  Ru  Ru29  1  0.854643  0.927083  0.535648  1
  Ru  Ru30  1  0.399037  0.486417  0.103090  1
  Ru  Ru31  1  0.893343  0.519920  0.393121  1
  Ru  Ru32  1  0.602477  0.512044  0.899487  1
  Ru  Ru33  1  0.103172  0.484902  0.602508  1
  Ru  Ru34  1  0.815191  0.102784  0.849275  1
  Ru  Ru35  1  0.317800  0.902757  0.650110  1
  Ru  Ru36  1  0.182018  0.898385  0.150899  1
  Ru  Ru37  1  0.681591  0.094679  0.346923  1
