# generated using pymatgen
data_Ni4Mo6As2C
_symmetry_space_group_name_H-M   'P 1'
_cell_length_a   7.80200702
_cell_length_b   7.80200628
_cell_length_c   7.80200700
_cell_angle_alpha   59.99999271
_cell_angle_beta   59.99999586
_cell_angle_gamma   59.99999653
_symmetry_Int_Tables_number   1
_chemical_formula_structural   Ni4Mo6As2C
_chemical_formula_sum   'Ni8 Mo12 As4 C2'
_cell_volume   335.81796170
_cell_formula_units_Z   2
loop_
 _symmetry_equiv_pos_site_id
 _symmetry_equiv_pos_as_xyz
  1  'x, y, z'
loop_
 _atom_site_type_symbol
 _atom_site_label
 _atom_site_symmetry_multiplicity
 _atom_site_fract_x
 _atom_site_fract_y
 _atom_site_fract_z
 _atom_site_occupancy
  Ni  Ni0  1  0.332475  0.332475  0.002576  1
  Ni  Ni1  1  0.332475  0.332475  0.332475  1
  Ni  Ni2  1  0.247424  0.917525  0.917525  1
  Ni  Ni3  1  0.917525  0.917525  0.917525  1
  Ni  Ni4  1  0.002576  0.332475  0.332475  1
  Ni  Ni5  1  0.332475  0.002576  0.332475  1
  Ni  Ni6  1  0.917525  0.917525  0.247424  1
  Ni  Ni7  1  0.917525  0.247424  0.917525  1
  Mo  Mo8  1  0.308973  0.691027  0.691027  1
  Mo  Mo9  1  0.691027  0.691027  0.308973  1
  Mo  Mo10  1  0.691027  0.308973  0.691027  1
  Mo  Mo11  1  0.308973  0.691027  0.308973  1
  Mo  Mo12  1  0.558973  0.941027  0.558973  1
  Mo  Mo13  1  0.558973  0.941027  0.941027  1
  Mo  Mo14  1  0.941027  0.558973  0.558973  1
  Mo  Mo15  1  0.941027  0.558973  0.941027  1
  Mo  Mo16  1  0.308973  0.308973  0.691027  1
  Mo  Mo17  1  0.558973  0.558973  0.941027  1
  Mo  Mo18  1  0.941027  0.941027  0.558973  1
  Mo  Mo19  1  0.691027  0.308973  0.308973  1
  As  As20  1  0.125000  0.625000  0.125000  1
  As  As21  1  0.125000  0.125000  0.625000  1
  As  As22  1  0.625000  0.125000  0.125000  1
  As  As23  1  0.125000  0.125000  0.125000  1
  C  C24  1  0.500000  0.500000  0.500000  1
  C  C25  1  0.750000  0.750000  0.750000  1
