# generated using pymatgen
data_LiY6P12Ir17
_symmetry_space_group_name_H-M   'P 1'
_cell_length_a   3.97324300
_cell_length_b   11.25383800
_cell_length_c   12.78723400
_cell_angle_alpha   90.00000000
_cell_angle_beta   90.00000000
_cell_angle_gamma   90.00000000
_symmetry_Int_Tables_number   1
_chemical_formula_structural   LiY6P12Ir17
_chemical_formula_sum   'Li1 Y6 P12 Ir17'
_cell_volume   571.77136123
_cell_formula_units_Z   1
loop_
 _symmetry_equiv_pos_site_id
 _symmetry_equiv_pos_as_xyz
  1  'x, y, z'
loop_
 _atom_site_type_symbol
 _atom_site_label
 _atom_site_symmetry_multiplicity
 _atom_site_fract_x
 _atom_site_fract_y
 _atom_site_fract_z
 _atom_site_occupancy
  Li  Li0  1  0.500000  0.500000  0.155906  1
  Y  Y1  1  0.000000  0.500000  0.516576  1
  Y  Y2  1  0.500000  0.000000  0.478939  1
  Y  Y3  1  0.500000  0.814892  0.203672  1
  Y  Y4  1  0.500000  0.185108  0.203672  1
  Y  Y5  1  0.000000  0.683714  0.797056  1
  Y  Y6  1  0.000000  0.316286  0.797056  1
  P  P7  1  0.500000  0.500000  0.879819  1
  P  P8  1  0.000000  0.000000  0.124413  1
  P  P9  1  0.500000  0.500000  0.344486  1
  P  P10  1  0.000000  0.000000  0.642944  1
  P  P11  1  0.500000  0.314744  0.618552  1
  P  P12  1  0.500000  0.685256  0.618552  1
  P  P13  1  0.000000  0.186806  0.383182  1
  P  P14  1  0.000000  0.813194  0.383182  1
  P  P15  1  0.500000  0.846137  0.894082  1
  P  P16  1  0.500000  0.153863  0.894082  1
  P  P17  1  0.000000  0.657903  0.107782  1
  P  P18  1  0.000000  0.342097  0.107782  1
  Ir  Ir19  1  0.000000  0.000000  0.821509  1
  Ir  Ir20  1  0.500000  0.500000  0.701012  1
  Ir  Ir21  1  0.000000  0.000000  0.301673  1
  Ir  Ir22  1  0.000000  0.500000  0.980799  1
  Ir  Ir23  1  0.500000  0.000000  0.028905  1
  Ir  Ir24  1  0.500000  0.332816  0.996600  1
  Ir  Ir25  1  0.500000  0.667184  0.996600  1
  Ir  Ir26  1  0.000000  0.163165  0.000477  1
  Ir  Ir27  1  0.000000  0.836835  0.000477  1
  Ir  Ir28  1  0.500000  0.288175  0.432604  1
  Ir  Ir29  1  0.500000  0.711825  0.432604  1
  Ir  Ir30  1  0.000000  0.205189  0.573193  1
  Ir  Ir31  1  0.000000  0.794811  0.573193  1
  Ir  Ir32  1  0.500000  0.870613  0.715091  1
  Ir  Ir33  1  0.500000  0.129387  0.715091  1
  Ir  Ir34  1  0.000000  0.627361  0.289219  1
  Ir  Ir35  1  0.000000  0.372639  0.289219  1
