# generated using pymatgen
data_Nd3Er5Pt4
_symmetry_space_group_name_H-M   'P 1'
_cell_length_a   4.80869000
_cell_length_b   7.21841553
_cell_length_c   8.84950188
_cell_angle_alpha   90.36935702
_cell_angle_beta   90.00000000
_cell_angle_gamma   90.00000000
_symmetry_Int_Tables_number   1
_chemical_formula_structural   Nd3Er5Pt4
_chemical_formula_sum   'Nd3 Er5 Pt4'
_cell_volume   307.16976183
_cell_formula_units_Z   1
loop_
 _symmetry_equiv_pos_site_id
 _symmetry_equiv_pos_as_xyz
  1  'x, y, z'
loop_
 _atom_site_type_symbol
 _atom_site_label
 _atom_site_symmetry_multiplicity
 _atom_site_fract_x
 _atom_site_fract_y
 _atom_site_fract_z
 _atom_site_occupancy
  Nd  Nd0  1  0.250000  0.991956  0.326947  1
  Nd  Nd1  1  0.750000  0.008970  0.675223  1
  Nd  Nd2  1  0.250000  0.491879  0.170713  1
  Er  Er3  1  0.750000  0.509372  0.832118  1
  Er  Er4  1  0.750000  0.641152  0.424188  1
  Er  Er5  1  0.250000  0.358804  0.583436  1
  Er  Er6  1  0.750000  0.143224  0.076815  1
  Er  Er7  1  0.250000  0.854154  0.919008  1
  Pt  Pt8  1  0.250000  0.253554  0.905275  1
  Pt  Pt9  1  0.750000  0.749030  0.085326  1
  Pt  Pt10  1  0.250000  0.747584  0.592317  1
  Pt  Pt11  1  0.750000  0.250319  0.408635  1
