# generated using pymatgen
data_TbTm5MgCo17P12
_symmetry_space_group_name_H-M   'P 1'
_cell_length_a   3.70129600
_cell_length_b   10.55046500
_cell_length_c   12.19618100
_cell_angle_alpha   90.00000000
_cell_angle_beta   90.00000000
_cell_angle_gamma   90.00000000
_symmetry_Int_Tables_number   1
_chemical_formula_structural   TbTm5MgCo17P12
_chemical_formula_sum   'Tb1 Tm5 Mg1 Co17 P12'
_cell_volume   476.26567216
_cell_formula_units_Z   1
loop_
 _symmetry_equiv_pos_site_id
 _symmetry_equiv_pos_as_xyz
  1  'x, y, z'
loop_
 _atom_site_type_symbol
 _atom_site_label
 _atom_site_symmetry_multiplicity
 _atom_site_fract_x
 _atom_site_fract_y
 _atom_site_fract_z
 _atom_site_occupancy
  Tb  Tb0  1  0.500000  0.000000  0.477277  1
  Tm  Tm1  1  0.000000  0.500000  0.525886  1
  Tm  Tm2  1  0.500000  0.822102  0.207333  1
  Tm  Tm3  1  0.500000  0.177898  0.207333  1
  Tm  Tm4  1  0.000000  0.682064  0.794481  1
  Tm  Tm5  1  0.000000  0.317936  0.794481  1
  Mg  Mg6  1  0.500000  0.500000  0.154240  1
  Co  Co7  1  0.000000  0.000000  0.837808  1
  Co  Co8  1  0.500000  0.500000  0.704270  1
  Co  Co9  1  0.000000  0.000000  0.295250  1
  Co  Co10  1  0.000000  0.500000  0.986257  1
  Co  Co11  1  0.500000  0.000000  0.012182  1
  Co  Co12  1  0.500000  0.329036  0.992862  1
  Co  Co13  1  0.500000  0.670964  0.992862  1
  Co  Co14  1  0.000000  0.163377  0.001664  1
  Co  Co15  1  0.000000  0.836623  0.001664  1
  Co  Co16  1  0.500000  0.296174  0.433213  1
  Co  Co17  1  0.500000  0.703826  0.433213  1
  Co  Co18  1  0.000000  0.202875  0.570620  1
  Co  Co19  1  0.000000  0.797125  0.570620  1
  Co  Co20  1  0.500000  0.879111  0.708389  1
  Co  Co21  1  0.500000  0.120889  0.708389  1
  Co  Co22  1  0.000000  0.623499  0.293537  1
  Co  Co23  1  0.000000  0.376501  0.293537  1
  P  P24  1  0.500000  0.500000  0.882943  1
  P  P25  1  0.000000  0.000000  0.116621  1
  P  P26  1  0.500000  0.500000  0.355499  1
  P  P27  1  0.000000  0.000000  0.654626  1
  P  P28  1  0.500000  0.310872  0.617745  1
  P  P29  1  0.500000  0.689128  0.617745  1
  P  P30  1  0.000000  0.189020  0.384982  1
  P  P31  1  0.000000  0.810980  0.384982  1
  P  P32  1  0.500000  0.848959  0.889268  1
  P  P33  1  0.500000  0.151041  0.889268  1
  P  P34  1  0.000000  0.663740  0.104474  1
  P  P35  1  0.000000  0.336260  0.104474  1
