# generated using pymatgen
data_NdDyTh2(Al3Rh)6
_symmetry_space_group_name_H-M   'P 1'
_cell_length_a   7.63603285
_cell_length_b   7.64190741
_cell_length_c   9.52430000
_cell_angle_alpha   90.00000000
_cell_angle_beta   90.00000000
_cell_angle_gamma   119.44858972
_symmetry_Int_Tables_number   1
_chemical_formula_structural   NdDyTh2(Al3Rh)6
_chemical_formula_sum   'Nd1 Dy1 Th2 Al18 Rh6'
_cell_volume   483.97133923
_cell_formula_units_Z   1
loop_
 _symmetry_equiv_pos_site_id
 _symmetry_equiv_pos_as_xyz
  1  'x, y, z'
loop_
 _atom_site_type_symbol
 _atom_site_label
 _atom_site_symmetry_multiplicity
 _atom_site_fract_x
 _atom_site_fract_y
 _atom_site_fract_z
 _atom_site_occupancy
  Nd  Nd0  1  0.004709  0.328986  0.250000  1
  Dy  Dy1  1  0.328419  0.005403  0.250000  1
  Th  Th2  1  0.995344  0.671146  0.750000  1
  Th  Th3  1  0.671448  0.994829  0.750000  1
  Al  Al4  1  0.135171  0.133956  0.750000  1
  Al  Al5  1  0.873201  0.872298  0.250000  1
  Al  Al6  1  0.005550  0.335564  0.571407  1
  Al  Al7  1  0.000394  0.666705  0.419988  1
  Al  Al8  1  0.000394  0.666705  0.080012  1
  Al  Al9  1  0.335549  0.005020  0.931061  1
  Al  Al10  1  0.005550  0.335564  0.928593  1
  Al  Al11  1  0.662375  0.998591  0.079919  1
  Al  Al12  1  0.662375  0.998591  0.420081  1
  Al  Al13  1  0.335549  0.005020  0.568939  1
  Al  Al14  1  0.333719  0.332357  0.053813  1
  Al  Al15  1  0.663047  0.662924  0.958039  1
  Al  Al16  1  0.663047  0.662924  0.541961  1
  Al  Al17  1  0.333719  0.332357  0.446187  1
  Al  Al18  1  0.340897  0.543539  0.750000  1
  Al  Al19  1  0.656962  0.448371  0.250000  1
  Al  Al20  1  0.543532  0.338988  0.750000  1
  Al  Al21  1  0.449663  0.661344  0.250000  1
  Rh  Rh22  1  0.672794  0.328415  0.500829  1
  Rh  Rh23  1  0.328390  0.672882  0.501270  1
  Rh  Rh24  1  0.328390  0.672882  0.998730  1
  Rh  Rh25  1  0.672794  0.328415  0.999171  1
  Rh  Rh26  1  0.998511  0.998111  0.502080  1
  Rh  Rh27  1  0.998511  0.998111  0.997920  1
