# generated using pymatgen
data_HfZrMn2SiP
_symmetry_space_group_name_H-M   'P 1'
_cell_length_a   3.64388600
_cell_length_b   6.48858700
_cell_length_c   7.57301500
_cell_angle_alpha   90.00000000
_cell_angle_beta   90.00000000
_cell_angle_gamma   90.00000000
_symmetry_Int_Tables_number   1
_chemical_formula_structural   HfZrMn2SiP
_chemical_formula_sum   'Hf2 Zr2 Mn4 Si2 P2'
_cell_volume   179.05387763
_cell_formula_units_Z   2
loop_
 _symmetry_equiv_pos_site_id
 _symmetry_equiv_pos_as_xyz
  1  'x, y, z'
loop_
 _atom_site_type_symbol
 _atom_site_label
 _atom_site_symmetry_multiplicity
 _atom_site_fract_x
 _atom_site_fract_y
 _atom_site_fract_z
 _atom_site_occupancy
  Hf  Hf0  1  0.750000  0.967971  0.174193  1
  Hf  Hf1  1  0.750000  0.467971  0.325807  1
  Zr  Zr2  1  0.250000  0.527401  0.678572  1
  Zr  Zr3  1  0.250000  0.027401  0.821428  1
  Mn  Mn4  1  0.750000  0.365257  0.937316  1
  Mn  Mn5  1  0.250000  0.139276  0.439004  1
  Mn  Mn6  1  0.750000  0.865257  0.562684  1
  Mn  Mn7  1  0.250000  0.639276  0.060996  1
  Si  Si8  1  0.250000  0.270217  0.124639  1
  Si  Si9  1  0.250000  0.770217  0.375361  1
  P  P10  1  0.750000  0.729878  0.875350  1
  P  P11  1  0.750000  0.229878  0.624650  1
