# generated using pymatgen
data_Ho4Er6Zn3Bi2Au
_symmetry_space_group_name_H-M   'P 1'
_cell_length_a   8.61342124
_cell_length_b   8.61216432
_cell_length_c   8.61513311
_cell_angle_alpha   123.93167963
_cell_angle_beta   123.93697475
_cell_angle_gamma   83.29335026
_symmetry_Int_Tables_number   1
_chemical_formula_structural   Ho4Er6Zn3Bi2Au
_chemical_formula_sum   'Ho4 Er6 Zn3 Bi2 Au1'
_cell_volume   421.92383430
_cell_formula_units_Z   1
loop_
 _symmetry_equiv_pos_site_id
 _symmetry_equiv_pos_as_xyz
  1  'x, y, z'
loop_
 _atom_site_type_symbol
 _atom_site_label
 _atom_site_symmetry_multiplicity
 _atom_site_fract_x
 _atom_site_fract_y
 _atom_site_fract_z
 _atom_site_occupancy
  Ho  Ho0  1  0.989469  0.490971  0.195400  1
  Ho  Ho1  1  0.294068  0.795577  0.804602  1
  Ho  Ho2  1  0.489281  0.294519  0.499998  1
  Ho  Ho3  1  0.794776  0.988544  0.499990  1
  Er  Er4  1  0.999574  0.999292  0.999170  1
  Er  Er5  1  0.500434  0.500114  0.000860  1
  Er  Er6  1  0.009035  0.510697  0.804194  1
  Er  Er7  1  0.704827  0.206492  0.195771  1
  Er  Er8  1  0.511750  0.705509  0.500011  1
  Er  Er9  1  0.205866  0.010835  0.500011  1
  Zn  Zn10  1  0.638381  0.140037  0.778805  1
  Zn  Zn11  1  0.359577  0.861239  0.221201  1
  Zn  Zn12  1  0.140242  0.359379  0.500001  1
  Bi  Bi13  1  0.749043  0.751072  0.000020  1
  Bi  Bi14  1  0.249024  0.251058  0.999983  1
  Au  Au15  1  0.864654  0.634666  0.499983  1
