# generated using pymatgen
data_HoHf(ZrPt6)2
_symmetry_space_group_name_H-M   'P 1'
_cell_length_a   5.75877800
_cell_length_b   5.75877710
_cell_length_c   9.37750300
_cell_angle_alpha   90.00000000
_cell_angle_beta   90.00000000
_cell_angle_gamma   120.00000519
_symmetry_Int_Tables_number   1
_chemical_formula_structural   HoHf(ZrPt6)2
_chemical_formula_sum   'Ho1 Hf1 Zr2 Pt12'
_cell_volume   269.32609013
_cell_formula_units_Z   1
loop_
 _symmetry_equiv_pos_site_id
 _symmetry_equiv_pos_as_xyz
  1  'x, y, z'
loop_
 _atom_site_type_symbol
 _atom_site_label
 _atom_site_symmetry_multiplicity
 _atom_site_fract_x
 _atom_site_fract_y
 _atom_site_fract_z
 _atom_site_occupancy
  Ho  Ho0  1  0.666667  0.333333  0.750000  1
  Hf  Hf1  1  0.333333  0.666667  0.250000  1
  Zr  Zr2  1  0.000000  0.000000  0.502033  1
  Zr  Zr3  1  0.000000  0.000000  0.997967  1
  Pt  Pt4  1  0.170565  0.341129  0.750000  1
  Pt  Pt5  1  0.003904  0.501952  0.004625  1
  Pt  Pt6  1  0.830655  0.661311  0.250000  1
  Pt  Pt7  1  0.338689  0.169345  0.250000  1
  Pt  Pt8  1  0.498048  0.501952  0.004625  1
  Pt  Pt9  1  0.830655  0.169345  0.250000  1
  Pt  Pt10  1  0.498048  0.501952  0.495375  1
  Pt  Pt11  1  0.498048  0.996096  0.495375  1
  Pt  Pt12  1  0.170565  0.829435  0.750000  1
  Pt  Pt13  1  0.658871  0.829435  0.750000  1
  Pt  Pt14  1  0.498048  0.996096  0.004625  1
  Pt  Pt15  1  0.003904  0.501952  0.495375  1
