# generated using pymatgen
data_NaNd8Sc11Sn16
_symmetry_space_group_name_H-M   'P 1'
_cell_length_a   7.88521157
_cell_length_b   8.08028613
_cell_length_c   15.17542000
_cell_angle_alpha   90.14007201
_cell_angle_beta   90.09382163
_cell_angle_gamma   90.16097312
_symmetry_Int_Tables_number   1
_chemical_formula_structural   NaNd8Sc11Sn16
_chemical_formula_sum   'Na1 Nd8 Sc11 Sn16'
_cell_volume   966.89031672
_cell_formula_units_Z   1
loop_
 _symmetry_equiv_pos_site_id
 _symmetry_equiv_pos_as_xyz
  1  'x, y, z'
loop_
 _atom_site_type_symbol
 _atom_site_label
 _atom_site_symmetry_multiplicity
 _atom_site_fract_x
 _atom_site_fract_y
 _atom_site_fract_z
 _atom_site_occupancy
  Na  Na0  1  0.843246  0.660472  0.878561  1
  Nd  Nd1  1  0.511108  0.327112  0.902483  1
  Nd  Nd2  1  0.008545  0.176500  0.593581  1
  Nd  Nd3  1  0.490532  0.674424  0.404006  1
  Nd  Nd4  1  0.990486  0.824562  0.096141  1
  Nd  Nd5  1  0.490576  0.673400  0.097415  1
  Nd  Nd6  1  0.991596  0.826108  0.404446  1
  Nd  Nd7  1  0.508526  0.324637  0.594178  1
  Nd  Nd8  1  0.006463  0.178602  0.904204  1
  Sc  Sc9  1  0.344809  0.834142  0.871670  1
  Sc  Sc10  1  0.843324  0.664341  0.624669  1
  Sc  Sc11  1  0.654484  0.162624  0.373441  1
  Sc  Sc12  1  0.154879  0.338312  0.127386  1
  Sc  Sc13  1  0.653964  0.162786  0.129416  1
  Sc  Sc14  1  0.155417  0.336931  0.373269  1
  Sc  Sc15  1  0.346261  0.837409  0.624294  1
  Sc  Sc16  1  0.180826  0.506237  0.750039  1
  Sc  Sc17  1  0.680754  0.994442  0.749650  1
  Sc  Sc18  1  0.821856  0.494615  0.250893  1
  Sc  Sc19  1  0.321102  0.004514  0.250521  1
  Sn  Sn20  1  0.322279  0.044453  0.042348  1
  Sn  Sn21  1  0.821414  0.455529  0.456787  1
  Sn  Sn22  1  0.680984  0.955605  0.541806  1
  Sn  Sn23  1  0.189491  0.541701  0.959819  1
  Sn  Sn24  1  0.667527  0.960040  0.958492  1
  Sn  Sn25  1  0.178891  0.545283  0.542541  1
  Sn  Sn26  1  0.320145  0.044864  0.456534  1
  Sn  Sn27  1  0.823590  0.450645  0.048173  1
  Sn  Sn28  1  0.540723  0.630427  0.744446  1
  Sn  Sn29  1  0.042615  0.873909  0.749742  1
  Sn  Sn30  1  0.458940  0.368222  0.251570  1
  Sn  Sn31  1  0.959648  0.130660  0.250184  1
  Sn  Sn32  1  0.314338  0.141028  0.748363  1
  Sn  Sn33  1  0.814524  0.355939  0.747229  1
  Sn  Sn34  1  0.683530  0.857285  0.251093  1
  Sn  Sn35  1  0.182612  0.642235  0.250609  1
