# generated using pymatgen
data_Dy4Ga16IrRu2
_symmetry_space_group_name_H-M   'P 1'
_cell_length_a   6.12638000
_cell_length_b   6.12552200
_cell_length_c   11.36917100
_cell_angle_alpha   90.00000000
_cell_angle_beta   90.00000000
_cell_angle_gamma   90.00000000
_symmetry_Int_Tables_number   1
_chemical_formula_structural   Dy4Ga16IrRu2
_chemical_formula_sum   'Dy4 Ga16 Ir1 Ru2'
_cell_volume   426.65401199
_cell_formula_units_Z   1
loop_
 _symmetry_equiv_pos_site_id
 _symmetry_equiv_pos_as_xyz
  1  'x, y, z'
loop_
 _atom_site_type_symbol
 _atom_site_label
 _atom_site_symmetry_multiplicity
 _atom_site_fract_x
 _atom_site_fract_y
 _atom_site_fract_z
 _atom_site_occupancy
  Dy  Dy0  1  0.500000  0.000000  0.808494  1
  Dy  Dy1  1  0.000000  0.500000  0.806887  1
  Dy  Dy2  1  0.500000  0.000000  0.191506  1
  Dy  Dy3  1  0.000000  0.500000  0.193113  1
  Ga  Ga4  1  0.248914  0.244878  0.619731  1
  Ga  Ga5  1  0.751086  0.755122  0.619731  1
  Ga  Ga6  1  0.751086  0.244878  0.619731  1
  Ga  Ga7  1  0.248914  0.755122  0.619731  1
  Ga  Ga8  1  0.751086  0.755122  0.380269  1
  Ga  Ga9  1  0.248914  0.244878  0.380269  1
  Ga  Ga10  1  0.248914  0.755122  0.380269  1
  Ga  Ga11  1  0.751086  0.244878  0.380269  1
  Ga  Ga12  1  0.285760  0.286806  0.000000  1
  Ga  Ga13  1  0.714240  0.713194  0.000000  1
  Ga  Ga14  1  0.714240  0.286806  0.000000  1
  Ga  Ga15  1  0.285760  0.713194  0.000000  1
  Ga  Ga16  1  0.500000  0.500000  0.803120  1
  Ga  Ga17  1  0.500000  0.500000  0.196880  1
  Ga  Ga18  1  0.000000  0.000000  0.780528  1
  Ga  Ga19  1  0.000000  0.000000  0.219472  1
  Ir  Ir20  1  0.000000  0.500000  0.500000  1
  Ru  Ru21  1  0.500000  0.000000  0.500000  1
  Ru  Ru22  1  0.000000  0.000000  0.000000  1
