# generated using pymatgen
data_Tb3Y9Ru4
_symmetry_space_group_name_H-M   'P 1'
_cell_length_a   7.31166882
_cell_length_b   9.26420500
_cell_length_c   6.37517049
_cell_angle_alpha   90.00000000
_cell_angle_beta   90.07959705
_cell_angle_gamma   90.00000000
_symmetry_Int_Tables_number   1
_chemical_formula_structural   Tb3Y9Ru4
_chemical_formula_sum   'Tb3 Y9 Ru4'
_cell_volume   431.83322434
_cell_formula_units_Z   1
loop_
 _symmetry_equiv_pos_site_id
 _symmetry_equiv_pos_as_xyz
  1  'x, y, z'
loop_
 _atom_site_type_symbol
 _atom_site_label
 _atom_site_symmetry_multiplicity
 _atom_site_fract_x
 _atom_site_fract_y
 _atom_site_fract_z
 _atom_site_occupancy
  Tb  Tb0  1  0.542143  0.750000  0.135461  1
  Tb  Tb1  1  0.042284  0.750000  0.364092  1
  Tb  Tb2  1  0.957432  0.250000  0.636186  1
  Y  Y3  1  0.823741  0.065040  0.170926  1
  Y  Y4  1  0.823741  0.434959  0.170926  1
  Y  Y5  1  0.323694  0.065822  0.328592  1
  Y  Y6  1  0.323694  0.434177  0.328592  1
  Y  Y7  1  0.676100  0.565553  0.671087  1
  Y  Y8  1  0.676100  0.934447  0.671087  1
  Y  Y9  1  0.176385  0.565478  0.828949  1
  Y  Y10  1  0.176385  0.934522  0.828949  1
  Y  Y11  1  0.459433  0.250000  0.865820  1
  Ru  Ru12  1  0.113669  0.250000  0.036106  1
  Ru  Ru13  1  0.616448  0.250000  0.463219  1
  Ru  Ru14  1  0.384559  0.750000  0.534134  1
  Ru  Ru15  1  0.884191  0.750000  0.965888  1
