# generated using pymatgen
data_Ho2NbIr2Ru
_symmetry_space_group_name_H-M   'P 1'
_cell_length_a   5.61319000
_cell_length_b   5.63653705
_cell_length_c   8.26018700
_cell_angle_alpha   90.00000000
_cell_angle_beta   90.00000000
_cell_angle_gamma   119.86404263
_symmetry_Int_Tables_number   1
_chemical_formula_structural   Ho2NbIr2Ru
_chemical_formula_sum   'Ho4 Nb2 Ir4 Ru2'
_cell_volume   226.63969305
_cell_formula_units_Z   2
loop_
 _symmetry_equiv_pos_site_id
 _symmetry_equiv_pos_as_xyz
  1  'x, y, z'
loop_
 _atom_site_type_symbol
 _atom_site_label
 _atom_site_symmetry_multiplicity
 _atom_site_fract_x
 _atom_site_fract_y
 _atom_site_fract_z
 _atom_site_occupancy
  Ho  Ho0  1  0.666270  0.332576  0.561397  1
  Ho  Ho1  1  0.333318  0.666603  0.440137  1
  Ho  Ho2  1  0.333318  0.666603  0.059863  1
  Ho  Ho3  1  0.666270  0.332576  0.938603  1
  Nb  Nb4  1  0.001349  0.002694  0.494239  1
  Nb  Nb5  1  0.001349  0.002694  0.005761  1
  Ir  Ir6  1  0.172212  0.344458  0.750000  1
  Ir  Ir7  1  0.170284  0.827981  0.750000  1
  Ir  Ir8  1  0.657660  0.827989  0.750000  1
  Ir  Ir9  1  0.825544  0.650992  0.250000  1
  Ru  Ru10  1  0.826830  0.172412  0.250000  1
  Ru  Ru11  1  0.345596  0.172421  0.250000  1
