# generated using pymatgen
data_Pr4AlB4Rh9
_symmetry_space_group_name_H-M   'P 1'
_cell_length_a   5.59071601
_cell_length_b   5.59071775
_cell_length_c   20.76187900
_cell_angle_alpha   90.00000000
_cell_angle_beta   90.00000000
_cell_angle_gamma   119.99667131
_symmetry_Int_Tables_number   1
_chemical_formula_structural   Pr4AlB4Rh9
_chemical_formula_sum   'Pr8 Al2 B8 Rh18'
_cell_volume   562.01363672
_cell_formula_units_Z   2
loop_
 _symmetry_equiv_pos_site_id
 _symmetry_equiv_pos_as_xyz
  1  'x, y, z'
loop_
 _atom_site_type_symbol
 _atom_site_label
 _atom_site_symmetry_multiplicity
 _atom_site_fract_x
 _atom_site_fract_y
 _atom_site_fract_z
 _atom_site_occupancy
  Pr  Pr0  1  0.666672  0.333328  0.523271  1
  Pr  Pr1  1  0.333328  0.666672  0.476729  1
  Pr  Pr2  1  0.333328  0.666672  0.023271  1
  Pr  Pr3  1  0.666672  0.333328  0.976729  1
  Pr  Pr4  1  0.666738  0.333262  0.673990  1
  Pr  Pr5  1  0.333262  0.666738  0.326010  1
  Pr  Pr6  1  0.333262  0.666738  0.173990  1
  Pr  Pr7  1  0.666738  0.333262  0.826010  1
  Al  Al8  1  0.000000  0.000000  0.500000  1
  Al  Al9  1  0.000000  0.000000  0.000000  1
  B  B10  1  0.000067  0.999933  0.674382  1
  B  B11  1  0.999933  0.000067  0.325618  1
  B  B12  1  0.999933  0.000067  0.174382  1
  B  B13  1  0.000067  0.999933  0.825618  1
  B  B14  1  0.666591  0.333409  0.325991  1
  B  B15  1  0.333409  0.666591  0.674009  1
  B  B16  1  0.333409  0.666591  0.825991  1
  B  B17  1  0.666591  0.333409  0.174009  1
  Rh  Rh18  1  0.166943  0.333656  0.750000  1
  Rh  Rh19  1  0.166938  0.833062  0.750000  1
  Rh  Rh20  1  0.666344  0.833057  0.750000  1
  Rh  Rh21  1  0.833057  0.666344  0.250000  1
  Rh  Rh22  1  0.833062  0.166938  0.250000  1
  Rh  Rh23  1  0.333656  0.166943  0.250000  1
  Rh  Rh24  1  0.165736  0.331266  0.605233  1
  Rh  Rh25  1  0.165728  0.834272  0.605213  1
  Rh  Rh26  1  0.668734  0.834264  0.605233  1
  Rh  Rh27  1  0.834264  0.668734  0.394767  1
  Rh  Rh28  1  0.834272  0.165728  0.394787  1
  Rh  Rh29  1  0.331266  0.165736  0.394767  1
  Rh  Rh30  1  0.834264  0.668734  0.105233  1
  Rh  Rh31  1  0.834272  0.165728  0.105213  1
  Rh  Rh32  1  0.331266  0.165736  0.105233  1
  Rh  Rh33  1  0.165736  0.331266  0.894767  1
  Rh  Rh34  1  0.165728  0.834272  0.894787  1
  Rh  Rh35  1  0.668734  0.834264  0.894767  1
