# generated using pymatgen
data_Ba5Sn2BiH
_symmetry_space_group_name_H-M   'P 1'
_cell_length_a   10.58791792
_cell_length_b   10.58791903
_cell_length_c   10.58798456
_cell_angle_alpha   128.26607080
_cell_angle_beta   128.26607909
_cell_angle_gamma   76.19426826
_symmetry_Int_Tables_number   1
_chemical_formula_structural   Ba5Sn2BiH
_chemical_formula_sum   'Ba10 Sn4 Bi2 H2'
_cell_volume   711.19221408
_cell_formula_units_Z   2
loop_
 _symmetry_equiv_pos_site_id
 _symmetry_equiv_pos_as_xyz
  1  'x, y, z'
loop_
 _atom_site_type_symbol
 _atom_site_label
 _atom_site_symmetry_multiplicity
 _atom_site_fract_x
 _atom_site_fract_y
 _atom_site_fract_z
 _atom_site_occupancy
  Ba  Ba0  1  0.500000  0.500000  0.000000  1
  Ba  Ba1  1  0.000000  0.000000  0.000000  1
  Ba  Ba2  1  0.515998  0.015998  0.826446  1
  Ba  Ba3  1  0.189551  0.689551  0.173554  1
  Ba  Ba4  1  0.015996  0.189550  0.500000  1
  Ba  Ba5  1  0.689550  0.515996  0.500000  1
  Ba  Ba6  1  0.484002  0.984002  0.173554  1
  Ba  Ba7  1  0.810449  0.310449  0.826446  1
  Ba  Ba8  1  0.984004  0.810450  0.500000  1
  Ba  Ba9  1  0.310450  0.484004  0.500000  1
  Sn  Sn10  1  0.881858  0.381858  0.263716  1
  Sn  Sn11  1  0.118142  0.618142  0.736284  1
  Sn  Sn12  1  0.381855  0.118145  0.500000  1
  Sn  Sn13  1  0.618145  0.881855  0.500000  1
  Bi  Bi14  1  0.250000  0.250000  0.000000  1
  Bi  Bi15  1  0.750000  0.750000  0.000000  1
  H  H16  1  0.250001  0.750001  0.500000  1
  H  H17  1  0.749999  0.249999  0.500000  1
