# generated using pymatgen
data_NdTh(Ga2Rh3)2
_symmetry_space_group_name_H-M   'P 1'
_cell_length_a   6.82032263
_cell_length_b   6.82032252
_cell_length_c   6.82029573
_cell_angle_alpha   130.64176960
_cell_angle_beta   112.11365852
_cell_angle_gamma   88.40876530
_symmetry_Int_Tables_number   1
_chemical_formula_structural   NdTh(Ga2Rh3)2
_chemical_formula_sum   'Nd1 Th1 Ga4 Rh6'
_cell_volume   212.09082348
_cell_formula_units_Z   1
loop_
 _symmetry_equiv_pos_site_id
 _symmetry_equiv_pos_as_xyz
  1  'x, y, z'
loop_
 _atom_site_type_symbol
 _atom_site_label
 _atom_site_symmetry_multiplicity
 _atom_site_fract_x
 _atom_site_fract_y
 _atom_site_fract_z
 _atom_site_occupancy
  Nd  Nd0  1  0.250000  0.951433  0.701433  1
  Th  Th1  1  0.750000  0.066034  0.316035  1
  Ga  Ga2  1  0.577220  0.379080  0.801857  1
  Ga  Ga3  1  0.411814  0.616030  0.204220  1
  Ga  Ga4  1  0.088189  0.292407  0.204220  1
  Ga  Ga5  1  0.922776  0.724638  0.801857  1
  Rh  Rh6  1  0.217581  0.489091  0.715717  1
  Rh  Rh7  1  0.726627  0.998137  0.715717  1
  Rh  Rh8  1  0.773372  0.489089  0.271507  1
  Rh  Rh9  1  0.282418  0.998136  0.271507  1
  Rh  Rh10  1  0.508180  0.497950  0.506131  1
  Rh  Rh11  1  0.991823  0.497975  0.989798  1
