# generated using pymatgen
data_Lu11ThFe3Pt
_symmetry_space_group_name_H-M   'P 1'
_cell_length_a   6.18883646
_cell_length_b   6.99090155
_cell_length_c   9.05486000
_cell_angle_alpha   90.00000000
_cell_angle_beta   90.00000000
_cell_angle_gamma   90.82422789
_symmetry_Int_Tables_number   1
_chemical_formula_structural   Lu11ThFe3Pt
_chemical_formula_sum   'Lu11 Th1 Fe3 Pt1'
_cell_volume   391.72293009
_cell_formula_units_Z   1
loop_
 _symmetry_equiv_pos_site_id
 _symmetry_equiv_pos_as_xyz
  1  'x, y, z'
loop_
 _atom_site_type_symbol
 _atom_site_label
 _atom_site_symmetry_multiplicity
 _atom_site_fract_x
 _atom_site_fract_y
 _atom_site_fract_z
 _atom_site_occupancy
  Lu  Lu0  1  0.324925  0.676244  0.068215  1
  Lu  Lu1  1  0.174630  0.175826  0.433234  1
  Lu  Lu2  1  0.675122  0.311586  0.560748  1
  Lu  Lu3  1  0.831443  0.835340  0.934840  1
  Lu  Lu4  1  0.675122  0.311586  0.939252  1
  Lu  Lu5  1  0.831443  0.835340  0.565160  1
  Lu  Lu6  1  0.324925  0.676244  0.431785  1
  Lu  Lu7  1  0.174630  0.175826  0.066766  1
  Lu  Lu8  1  0.629453  0.038718  0.250000  1
  Lu  Lu9  1  0.121147  0.454377  0.750000  1
  Lu  Lu10  1  0.360146  0.968092  0.750000  1
  Th  Th11  1  0.853453  0.556923  0.250000  1
  Fe  Fe12  1  0.030177  0.870790  0.250000  1
  Fe  Fe13  1  0.489460  0.388868  0.250000  1
  Fe  Fe14  1  0.959512  0.115008  0.750000  1
  Pt  Pt15  1  0.544417  0.609233  0.750000  1
