# generated using pymatgen
data_Tb5Ho8Th3(ZnIr)4
_symmetry_space_group_name_H-M   'P 1'
_cell_length_a   9.63678583
_cell_length_b   9.62707595
_cell_length_c   9.62707600
_cell_angle_alpha   59.90819934
_cell_angle_beta   59.93347291
_cell_angle_gamma   59.93347336
_symmetry_Int_Tables_number   1
_chemical_formula_structural   Tb5Ho8Th3(ZnIr)4
_chemical_formula_sum   'Tb5 Ho8 Th3 Zn4 Ir4'
_cell_volume   630.47368325
_cell_formula_units_Z   1
loop_
 _symmetry_equiv_pos_site_id
 _symmetry_equiv_pos_as_xyz
  1  'x, y, z'
loop_
 _atom_site_type_symbol
 _atom_site_label
 _atom_site_symmetry_multiplicity
 _atom_site_fract_x
 _atom_site_fract_y
 _atom_site_fract_z
 _atom_site_occupancy
  Tb  Tb0  1  0.813625  0.186046  0.186046  1
  Tb  Tb1  1  0.816398  0.185718  0.814906  1
  Tb  Tb2  1  0.187934  0.812333  0.186338  1
  Tb  Tb3  1  0.816398  0.814906  0.185718  1
  Tb  Tb4  1  0.187934  0.186338  0.812333  1
  Ho  Ho5  1  0.188936  0.604399  0.604399  1
  Ho  Ho6  1  0.059828  0.441024  0.441024  1
  Ho  Ho7  1  0.436666  0.062889  0.062889  1
  Ho  Ho8  1  0.437113  0.061728  0.439305  1
  Ho  Ho9  1  0.060434  0.439809  0.059293  1
  Ho  Ho10  1  0.437113  0.439305  0.061728  1
  Ho  Ho11  1  0.060434  0.059293  0.439809  1
  Ho  Ho12  1  0.189284  0.812678  0.812678  1
  Th  Th13  1  0.601159  0.601896  0.601896  1
  Th  Th14  1  0.602463  0.604298  0.191146  1
  Th  Th15  1  0.602463  0.191146  0.604298  1
  Zn  Zn16  1  0.834777  0.829341  0.829341  1
  Zn  Zn17  1  0.832976  0.829322  0.506022  1
  Zn  Zn18  1  0.832976  0.506022  0.829322  1
  Zn  Zn19  1  0.501730  0.831402  0.831402  1
  Ir  Ir20  1  0.393563  0.393273  0.393273  1
  Ir  Ir21  1  0.392691  0.393174  0.820634  1
  Ir  Ir22  1  0.392691  0.820634  0.393174  1
  Ir  Ir23  1  0.820419  0.393029  0.393029  1
