# generated using pymatgen
data_ErZr3(Ga3Rh)6
_symmetry_space_group_name_H-M   'P 1'
_cell_length_a   7.49473320
_cell_length_b   7.48829009
_cell_length_c   9.40837500
_cell_angle_alpha   90.00000000
_cell_angle_beta   90.00000000
_cell_angle_gamma   120.09846308
_symmetry_Int_Tables_number   1
_chemical_formula_structural   ErZr3(Ga3Rh)6
_chemical_formula_sum   'Er1 Zr3 Ga18 Rh6'
_cell_volume   456.82760075
_cell_formula_units_Z   1
loop_
 _symmetry_equiv_pos_site_id
 _symmetry_equiv_pos_as_xyz
  1  'x, y, z'
loop_
 _atom_site_type_symbol
 _atom_site_label
 _atom_site_symmetry_multiplicity
 _atom_site_fract_x
 _atom_site_fract_y
 _atom_site_fract_z
 _atom_site_occupancy
  Er  Er0  1  0.330827  0.003739  0.750000  1
  Zr  Zr1  1  0.996132  0.669705  0.250000  1
  Zr  Zr2  1  0.004364  0.331439  0.750000  1
  Zr  Zr3  1  0.669156  0.996165  0.250000  1
  Ga  Ga4  1  0.122242  0.124249  0.250000  1
  Ga  Ga5  1  0.873272  0.875476  0.750000  1
  Ga  Ga6  1  0.995804  0.333707  0.079360  1
  Ga  Ga7  1  0.001453  0.663167  0.922466  1
  Ga  Ga8  1  0.001453  0.663167  0.577534  1
  Ga  Ga9  1  0.333978  0.996382  0.416161  1
  Ga  Ga10  1  0.995804  0.333707  0.420640  1
  Ga  Ga11  1  0.669188  0.003799  0.577813  1
  Ga  Ga12  1  0.669188  0.003799  0.922187  1
  Ga  Ga13  1  0.333978  0.996382  0.083839  1
  Ga  Ga14  1  0.330578  0.332970  0.568787  1
  Ga  Ga15  1  0.669291  0.669333  0.427826  1
  Ga  Ga16  1  0.669291  0.669333  0.072174  1
  Ga  Ga17  1  0.330578  0.332970  0.931213  1
  Ga  Ga18  1  0.335831  0.549794  0.250000  1
  Ga  Ga19  1  0.666350  0.453318  0.750000  1
  Ga  Ga20  1  0.552271  0.337674  0.250000  1
  Ga  Ga21  1  0.449156  0.660572  0.750000  1
  Rh  Rh22  1  0.670706  0.328396  0.000774  1
  Rh  Rh23  1  0.329461  0.672865  0.001752  1
  Rh  Rh24  1  0.329461  0.672865  0.498248  1
  Rh  Rh25  1  0.670706  0.328396  0.499226  1
  Rh  Rh26  1  0.999741  0.998315  0.001269  1
  Rh  Rh27  1  0.999741  0.998315  0.498731  1
