# generated using pymatgen
data_DyEr(GeRh2)4
_symmetry_space_group_name_H-M   'P 1'
_cell_length_a   4.22365100
_cell_length_b   9.17973800
_cell_length_c   11.50192900
_cell_angle_alpha   90.00000000
_cell_angle_beta   90.00000000
_cell_angle_gamma   90.00000000
_symmetry_Int_Tables_number   1
_chemical_formula_structural   DyEr(GeRh2)4
_chemical_formula_sum   'Dy2 Er2 Ge8 Rh16'
_cell_volume   445.95290142
_cell_formula_units_Z   2
loop_
 _symmetry_equiv_pos_site_id
 _symmetry_equiv_pos_as_xyz
  1  'x, y, z'
loop_
 _atom_site_type_symbol
 _atom_site_label
 _atom_site_symmetry_multiplicity
 _atom_site_fract_x
 _atom_site_fract_y
 _atom_site_fract_z
 _atom_site_occupancy
  Dy  Dy0  1  0.250000  0.147757  0.825559  1
  Dy  Dy1  1  0.250000  0.352243  0.325559  1
  Er  Er2  1  0.750000  0.852248  0.174474  1
  Er  Er3  1  0.750000  0.647752  0.674474  1
  Ge  Ge4  1  0.250000  0.414276  0.638609  1
  Ge  Ge5  1  0.250000  0.085724  0.138609  1
  Ge  Ge6  1  0.750000  0.586240  0.361354  1
  Ge  Ge7  1  0.750000  0.913760  0.861354  1
  Ge  Ge8  1  0.250000  0.618176  0.059551  1
  Ge  Ge9  1  0.250000  0.881824  0.559551  1
  Ge  Ge10  1  0.750000  0.381920  0.940549  1
  Ge  Ge11  1  0.750000  0.118080  0.440549  1
  Rh  Rh12  1  0.250000  0.615640  0.498966  1
  Rh  Rh13  1  0.250000  0.884360  0.998966  1
  Rh  Rh14  1  0.750000  0.384770  0.501572  1
  Rh  Rh15  1  0.750000  0.115230  0.001572  1
  Rh  Rh16  1  0.250000  0.691504  0.268716  1
  Rh  Rh17  1  0.250000  0.808496  0.768716  1
  Rh  Rh18  1  0.750000  0.309224  0.730927  1
  Rh  Rh19  1  0.750000  0.190776  0.230927  1
  Rh  Rh20  1  0.250000  0.170845  0.560601  1
  Rh  Rh21  1  0.250000  0.329155  0.060601  1
  Rh  Rh22  1  0.750000  0.829165  0.439310  1
  Rh  Rh23  1  0.750000  0.670835  0.939310  1
  Rh  Rh24  1  0.250000  0.003516  0.344295  1
  Rh  Rh25  1  0.250000  0.496484  0.844295  1
  Rh  Rh26  1  0.750000  0.996104  0.655519  1
  Rh  Rh27  1  0.750000  0.503896  0.155519  1
