# generated using pymatgen
data_LuPuMnB6
_symmetry_space_group_name_H-M   'P 1'
_cell_length_a   3.52952700
_cell_length_b   9.03021700
_cell_length_c   11.38087500
_cell_angle_alpha   90.00000000
_cell_angle_beta   90.00000000
_cell_angle_gamma   90.00000000
_symmetry_Int_Tables_number   1
_chemical_formula_structural   LuPuMnB6
_chemical_formula_sum   'Lu4 Pu4 Mn4 B24'
_cell_volume   362.73574023
_cell_formula_units_Z   4
loop_
 _symmetry_equiv_pos_site_id
 _symmetry_equiv_pos_as_xyz
  1  'x, y, z'
loop_
 _atom_site_type_symbol
 _atom_site_label
 _atom_site_symmetry_multiplicity
 _atom_site_fract_x
 _atom_site_fract_y
 _atom_site_fract_z
 _atom_site_occupancy
  Lu  Lu0  1  0.000000  0.943620  0.371031  1
  Lu  Lu1  1  0.000000  0.056380  0.628969  1
  Lu  Lu2  1  0.000000  0.443620  0.128969  1
  Lu  Lu3  1  0.000000  0.556380  0.871031  1
  Pu  Pu4  1  0.000000  0.324227  0.414494  1
  Pu  Pu5  1  0.000000  0.675773  0.585506  1
  Pu  Pu6  1  0.000000  0.824227  0.085506  1
  Pu  Pu7  1  0.000000  0.175773  0.914494  1
  Mn  Mn8  1  0.000000  0.638172  0.321275  1
  Mn  Mn9  1  0.000000  0.361828  0.678725  1
  Mn  Mn10  1  0.000000  0.138172  0.178725  1
  Mn  Mn11  1  0.000000  0.861828  0.821275  1
  B  B12  1  0.500000  0.554141  0.431969  1
  B  B13  1  0.500000  0.445859  0.568031  1
  B  B14  1  0.500000  0.054141  0.068031  1
  B  B15  1  0.500000  0.945859  0.931969  1
  B  B16  1  0.500000  0.748155  0.418454  1
  B  B17  1  0.500000  0.251845  0.581546  1
  B  B18  1  0.500000  0.248155  0.081546  1
  B  B19  1  0.500000  0.751845  0.918454  1
  B  B20  1  0.500000  0.791549  0.265841  1
  B  B21  1  0.500000  0.208451  0.734159  1
  B  B22  1  0.500000  0.291549  0.234159  1
  B  B23  1  0.500000  0.708451  0.765841  1
  B  B24  1  0.500000  0.632149  0.185445  1
  B  B25  1  0.500000  0.367851  0.814555  1
  B  B26  1  0.500000  0.132149  0.314555  1
  B  B27  1  0.500000  0.867851  0.685445  1
  B  B28  1  0.500000  0.984345  0.212365  1
  B  B29  1  0.500000  0.015655  0.787635  1
  B  B30  1  0.500000  0.484345  0.287635  1
  B  B31  1  0.500000  0.515655  0.712365  1
  B  B32  1  0.500000  0.606500  0.029373  1
  B  B33  1  0.500000  0.393500  0.970627  1
  B  B34  1  0.500000  0.106500  0.470627  1
  B  B35  1  0.500000  0.893500  0.529373  1
