# generated using pymatgen
data_Tm6Co16Si9P3Ru2
_symmetry_space_group_name_H-M   'P 1'
_cell_length_a   3.74742900
_cell_length_b   10.71456600
_cell_length_c   12.31691700
_cell_angle_alpha   90.00000000
_cell_angle_beta   90.00000000
_cell_angle_gamma   90.00000000
_symmetry_Int_Tables_number   1
_chemical_formula_structural   Tm6Co16Si9P3Ru2
_chemical_formula_sum   'Tm6 Co16 Si9 P3 Ru2'
_cell_volume   494.54977947
_cell_formula_units_Z   1
loop_
 _symmetry_equiv_pos_site_id
 _symmetry_equiv_pos_as_xyz
  1  'x, y, z'
loop_
 _atom_site_type_symbol
 _atom_site_label
 _atom_site_symmetry_multiplicity
 _atom_site_fract_x
 _atom_site_fract_y
 _atom_site_fract_z
 _atom_site_occupancy
  Tm  Tm0  1  0.000000  0.500000  0.526043  1
  Tm  Tm1  1  0.500000  0.000000  0.472569  1
  Tm  Tm2  1  0.500000  0.820618  0.203951  1
  Tm  Tm3  1  0.500000  0.179382  0.203951  1
  Tm  Tm4  1  0.000000  0.681173  0.795652  1
  Tm  Tm5  1  0.000000  0.318827  0.795652  1
  Co  Co6  1  0.500000  0.500000  0.696581  1
  Co  Co7  1  0.000000  0.000000  0.298101  1
  Co  Co8  1  0.000000  0.500000  0.983592  1
  Co  Co9  1  0.500000  0.000000  0.020279  1
  Co  Co10  1  0.500000  0.329796  0.992581  1
  Co  Co11  1  0.500000  0.670204  0.992581  1
  Co  Co12  1  0.000000  0.165990  0.010475  1
  Co  Co13  1  0.000000  0.834010  0.010475  1
  Co  Co14  1  0.500000  0.303327  0.429297  1
  Co  Co15  1  0.500000  0.696673  0.429297  1
  Co  Co16  1  0.000000  0.195537  0.570205  1
  Co  Co17  1  0.000000  0.804463  0.570205  1
  Co  Co18  1  0.500000  0.883430  0.704572  1
  Co  Co19  1  0.500000  0.116570  0.704572  1
  Co  Co20  1  0.000000  0.616823  0.295287  1
  Co  Co21  1  0.000000  0.383177  0.295287  1
  Si  Si22  1  0.500000  0.500000  0.882106  1
  Si  Si23  1  0.500000  0.305789  0.614943  1
  Si  Si24  1  0.500000  0.694211  0.614943  1
  Si  Si25  1  0.000000  0.193122  0.384394  1
  Si  Si26  1  0.000000  0.806878  0.384394  1
  Si  Si27  1  0.500000  0.850534  0.893464  1
  Si  Si28  1  0.500000  0.149466  0.893464  1
  Si  Si29  1  0.000000  0.650550  0.106969  1
  Si  Si30  1  0.000000  0.349450  0.106969  1
  P  P31  1  0.000000  0.000000  0.118053  1
  P  P32  1  0.500000  0.500000  0.345527  1
  P  P33  1  0.000000  0.000000  0.653957  1
  Ru  Ru34  1  0.500000  0.500000  0.155910  1
  Ru  Ru35  1  0.000000  0.000000  0.843700  1
