# generated using pymatgen
data_Yb3Ho2Er(CoSn6)2
_symmetry_space_group_name_H-M   'P 1'
_cell_length_a   8.39507861
_cell_length_b   8.39507853
_cell_length_c   13.24808622
_cell_angle_alpha   90.04546522
_cell_angle_beta   89.95453423
_cell_angle_gamma   147.96511370
_symmetry_Int_Tables_number   1
_chemical_formula_structural   Yb3Ho2Er(CoSn6)2
_chemical_formula_sum   'Yb3 Ho2 Er1 Co2 Sn12'
_cell_volume   495.26214169
_cell_formula_units_Z   1
loop_
 _symmetry_equiv_pos_site_id
 _symmetry_equiv_pos_as_xyz
  1  'x, y, z'
loop_
 _atom_site_type_symbol
 _atom_site_label
 _atom_site_symmetry_multiplicity
 _atom_site_fract_x
 _atom_site_fract_y
 _atom_site_fract_z
 _atom_site_occupancy
  Yb  Yb0  1  0.100336  0.899664  0.597849  1
  Yb  Yb1  1  0.100789  0.899211  0.902742  1
  Yb  Yb2  1  0.899997  0.100003  0.401492  1
  Ho  Ho3  1  0.898237  0.101763  0.095708  1
  Ho  Ho4  1  0.901251  0.098749  0.754332  1
  Er  Er5  1  0.098798  0.901202  0.247377  1
  Co  Co6  1  0.298725  0.701275  0.249340  1
  Co  Co7  1  0.703303  0.296697  0.750477  1
  Sn  Sn8  1  0.759334  0.240666  0.572611  1
  Sn  Sn9  1  0.424932  0.575068  0.578443  1
  Sn  Sn10  1  0.573814  0.426186  0.422245  1
  Sn  Sn11  1  0.732486  0.267514  0.248595  1
  Sn  Sn12  1  0.267873  0.732127  0.750390  1
  Sn  Sn13  1  0.240966  0.759034  0.072446  1
  Sn  Sn14  1  0.241640  0.758360  0.426873  1
  Sn  Sn15  1  0.572925  0.427075  0.075177  1
  Sn  Sn16  1  0.455396  0.544604  0.248245  1
  Sn  Sn17  1  0.545421  0.454579  0.750470  1
  Sn  Sn18  1  0.757745  0.242255  0.929248  1
  Sn  Sn19  1  0.426035  0.573965  0.925938  1
