# generated using pymatgen
data_Sm5HfCo16(MoP6)2
_symmetry_space_group_name_H-M   'P 1'
_cell_length_a   12.22614835
_cell_length_b   12.23827564
_cell_length_c   3.74620900
_cell_angle_alpha   90.00000000
_cell_angle_beta   90.00000000
_cell_angle_gamma   120.03282188
_symmetry_Int_Tables_number   1
_chemical_formula_structural   Sm5HfCo16(MoP6)2
_chemical_formula_sum   'Sm5 Hf1 Co16 Mo2 P12'
_cell_volume   485.27597925
_cell_formula_units_Z   1
loop_
 _symmetry_equiv_pos_site_id
 _symmetry_equiv_pos_as_xyz
  1  'x, y, z'
loop_
 _atom_site_type_symbol
 _atom_site_label
 _atom_site_symmetry_multiplicity
 _atom_site_fract_x
 _atom_site_fract_y
 _atom_site_fract_z
 _atom_site_occupancy
  Sm  Sm0  1  0.813869  0.813589  0.500000  1
  Sm  Sm1  1  0.000000  0.181226  0.500000  1
  Sm  Sm2  1  0.335218  0.667037  0.000000  1
  Sm  Sm3  1  0.664782  0.331818  0.000000  1
  Sm  Sm4  1  0.186131  0.999720  0.500000  1
  Hf  Hf5  1  0.000000  0.559823  0.000000  1
  Co  Co6  1  0.623024  0.823853  0.000000  1
  Co  Co7  1  0.376976  0.200830  0.000000  1
  Co  Co8  1  0.000000  0.720082  0.500000  1
  Co  Co9  1  0.281973  0.281173  0.500000  1
  Co  Co10  1  0.873713  0.351602  0.500000  1
  Co  Co11  1  0.718027  0.999201  0.500000  1
  Co  Co12  1  0.818750  0.623790  0.000000  1
  Co  Co13  1  0.181250  0.805040  0.000000  1
  Co  Co14  1  0.359121  0.877988  0.500000  1
  Co  Co15  1  0.126287  0.477888  0.500000  1
  Co  Co16  1  0.640879  0.518866  0.500000  1
  Co  Co17  1  0.000000  0.999234  0.000000  1
  Co  Co18  1  0.517549  0.644832  0.500000  1
  Co  Co19  1  0.482451  0.127281  0.500000  1
  Co  Co20  1  0.199049  0.373342  0.000000  1
  Co  Co21  1  0.800951  0.174293  0.000000  1
  Mo  Mo22  1  0.444851  0.446292  0.000000  1
  Mo  Mo23  1  0.555149  0.001440  0.000000  1
  P  P24  1  0.000000  0.353684  0.000000  1
  P  P25  1  0.828490  0.521676  0.500000  1
  P  P26  1  0.686851  0.163511  0.500000  1
  P  P27  1  0.181349  0.179440  0.000000  1
  P  P28  1  0.634263  0.638451  0.000000  1
  P  P29  1  0.818651  0.998090  0.000000  1
  P  P30  1  0.522081  0.836632  0.500000  1
  P  P31  1  0.171510  0.693184  0.500000  1
  P  P32  1  0.365737  0.004189  0.000000  1
  P  P33  1  0.477919  0.314552  0.500000  1
  P  P34  1  0.000000  0.819692  0.000000  1
  P  P35  1  0.313149  0.476658  0.500000  1
