# generated using pymatgen
data_HoEr3B12IrRh
_symmetry_space_group_name_H-M   'P 1'
_cell_length_a   3.63190700
_cell_length_b   9.14934974
_cell_length_c   11.48259226
_cell_angle_alpha   90.10121817
_cell_angle_beta   90.00000000
_cell_angle_gamma   90.00000000
_symmetry_Int_Tables_number   1
_chemical_formula_structural   HoEr3B12IrRh
_chemical_formula_sum   'Ho2 Er6 B24 Ir2 Rh2'
_cell_volume   381.56120764
_cell_formula_units_Z   2
loop_
 _symmetry_equiv_pos_site_id
 _symmetry_equiv_pos_as_xyz
  1  'x, y, z'
loop_
 _atom_site_type_symbol
 _atom_site_label
 _atom_site_symmetry_multiplicity
 _atom_site_fract_x
 _atom_site_fract_y
 _atom_site_fract_z
 _atom_site_occupancy
  Ho  Ho0  1  0.500000  0.322820  0.414029  1
  Ho  Ho1  1  0.500000  0.677180  0.585971  1
  Er  Er2  1  0.500000  0.178887  0.912987  1
  Er  Er3  1  0.500000  0.821113  0.087013  1
  Er  Er4  1  0.500000  0.445245  0.126443  1
  Er  Er5  1  0.500000  0.554755  0.873557  1
  Er  Er6  1  0.500000  0.056555  0.626090  1
  Er  Er7  1  0.500000  0.943445  0.373910  1
  B  B8  1  0.000000  0.109361  0.470180  1
  B  B9  1  0.000000  0.890639  0.529820  1
  B  B10  1  0.000000  0.389953  0.970223  1
  B  B11  1  0.000000  0.610047  0.029777  1
  B  B12  1  0.000000  0.132456  0.316049  1
  B  B13  1  0.000000  0.867544  0.683951  1
  B  B14  1  0.000000  0.366573  0.816372  1
  B  B15  1  0.000000  0.633427  0.183628  1
  B  B16  1  0.000000  0.053925  0.065603  1
  B  B17  1  0.000000  0.946075  0.934397  1
  B  B18  1  0.000000  0.446365  0.565428  1
  B  B19  1  0.000000  0.553635  0.434572  1
  B  B20  1  0.000000  0.482637  0.286774  1
  B  B21  1  0.000000  0.517363  0.713226  1
  B  B22  1  0.000000  0.017729  0.786700  1
  B  B23  1  0.000000  0.982271  0.213300  1
  B  B24  1  0.000000  0.249871  0.079086  1
  B  B25  1  0.000000  0.750129  0.920914  1
  B  B26  1  0.000000  0.250792  0.579527  1
  B  B27  1  0.000000  0.749208  0.420473  1
  B  B28  1  0.000000  0.294051  0.235247  1
  B  B29  1  0.000000  0.705949  0.764753  1
  B  B30  1  0.000000  0.205808  0.736099  1
  B  B31  1  0.000000  0.794192  0.263901  1
  Ir  Ir32  1  0.500000  0.138785  0.177954  1
  Ir  Ir33  1  0.500000  0.861215  0.822046  1
  Rh  Rh34  1  0.500000  0.360290  0.679924  1
  Rh  Rh35  1  0.500000  0.639710  0.320076  1
