# generated using pymatgen
data_TbDyCo9CuP6
_symmetry_space_group_name_H-M   'P 1'
_cell_length_a   3.67120300
_cell_length_b   10.26077900
_cell_length_c   11.79894900
_cell_angle_alpha   90.00000000
_cell_angle_beta   90.00000000
_cell_angle_gamma   90.00000000
_symmetry_Int_Tables_number   1
_chemical_formula_structural   TbDyCo9CuP6
_chemical_formula_sum   'Tb2 Dy2 Co18 Cu2 P12'
_cell_volume   444.45936069
_cell_formula_units_Z   2
loop_
 _symmetry_equiv_pos_site_id
 _symmetry_equiv_pos_as_xyz
  1  'x, y, z'
loop_
 _atom_site_type_symbol
 _atom_site_label
 _atom_site_symmetry_multiplicity
 _atom_site_fract_x
 _atom_site_fract_y
 _atom_site_fract_z
 _atom_site_occupancy
  Tb  Tb0  1  0.750000  0.417916  0.296836  1
  Tb  Tb1  1  0.750000  0.082084  0.796836  1
  Dy  Dy2  1  0.250000  0.579447  0.701936  1
  Dy  Dy3  1  0.250000  0.920553  0.201936  1
  Co  Co4  1  0.750000  0.287368  0.008886  1
  Co  Co5  1  0.750000  0.212632  0.508886  1
  Co  Co6  1  0.250000  0.404785  0.487522  1
  Co  Co7  1  0.250000  0.095215  0.987522  1
  Co  Co8  1  0.750000  0.592051  0.514908  1
  Co  Co9  1  0.750000  0.907949  0.014908  1
  Co  Co10  1  0.250000  0.222428  0.175346  1
  Co  Co11  1  0.250000  0.277572  0.675346  1
  Co  Co12  1  0.750000  0.778004  0.825843  1
  Co  Co13  1  0.750000  0.721996  0.325843  1
  Co  Co14  1  0.250000  0.881660  0.698241  1
  Co  Co15  1  0.250000  0.618340  0.198241  1
  Co  Co16  1  0.750000  0.119844  0.300443  1
  Co  Co17  1  0.750000  0.380156  0.800443  1
  Co  Co18  1  0.250000  0.466044  0.931636  1
  Co  Co19  1  0.250000  0.033956  0.431636  1
  Co  Co20  1  0.750000  0.534098  0.066306  1
  Co  Co21  1  0.750000  0.965902  0.566306  1
  Cu  Cu22  1  0.250000  0.711945  0.990777  1
  Cu  Cu23  1  0.250000  0.788055  0.490777  1
  P  P24  1  0.250000  0.420034  0.111470  1
  P  P25  1  0.250000  0.079966  0.611470  1
  P  P26  1  0.750000  0.576673  0.884152  1
  P  P27  1  0.750000  0.923327  0.384152  1
  P  P28  1  0.250000  0.269946  0.868265  1
  P  P29  1  0.250000  0.230054  0.368265  1
  P  P30  1  0.750000  0.729458  0.138398  1
  P  P31  1  0.750000  0.770542  0.638398  1
  P  P32  1  0.250000  0.599185  0.391360  1
  P  P33  1  0.250000  0.900815  0.891360  1
  P  P34  1  0.750000  0.396085  0.607676  1
  P  P35  1  0.750000  0.103915  0.107676  1
