# generated using pymatgen
data_Er3Tm5Sc12Si15Pt
_symmetry_space_group_name_H-M   'P 1'
_cell_length_a   7.07311447
_cell_length_b   7.33972058
_cell_length_c   13.96906303
_cell_angle_alpha   89.95700497
_cell_angle_beta   89.77236871
_cell_angle_gamma   90.18595403
_symmetry_Int_Tables_number   1
_chemical_formula_structural   Er3Tm5Sc12Si15Pt
_chemical_formula_sum   'Er3 Tm5 Sc12 Si15 Pt1'
_cell_volume   725.18973713
_cell_formula_units_Z   1
loop_
 _symmetry_equiv_pos_site_id
 _symmetry_equiv_pos_as_xyz
  1  'x, y, z'
loop_
 _atom_site_type_symbol
 _atom_site_label
 _atom_site_symmetry_multiplicity
 _atom_site_fract_x
 _atom_site_fract_y
 _atom_site_fract_z
 _atom_site_occupancy
  Er  Er0  1  0.012713  0.176346  0.097085  1
  Er  Er1  1  0.987501  0.823530  0.903352  1
  Er  Er2  1  0.487101  0.677173  0.903175  1
  Tm  Tm3  1  0.988890  0.822116  0.596906  1
  Tm  Tm4  1  0.512208  0.323188  0.096597  1
  Tm  Tm5  1  0.012431  0.178429  0.402336  1
  Tm  Tm6  1  0.508105  0.325494  0.403478  1
  Tm  Tm7  1  0.485664  0.671785  0.597589  1
  Sc  Sc8  1  0.162856  0.502723  0.747036  1
  Sc  Sc9  1  0.837669  0.497479  0.251177  1
  Sc  Sc10  1  0.338315  0.001992  0.250131  1
  Sc  Sc11  1  0.662902  0.995373  0.749925  1
  Sc  Sc12  1  0.332893  0.182647  0.622841  1
  Sc  Sc13  1  0.668646  0.823141  0.374273  1
  Sc  Sc14  1  0.170390  0.669921  0.376198  1
  Sc  Sc15  1  0.670210  0.824053  0.125707  1
  Sc  Sc16  1  0.832519  0.326181  0.624214  1
  Sc  Sc17  1  0.328846  0.176165  0.875600  1
  Sc  Sc18  1  0.830290  0.322803  0.875562  1
  Sc  Sc19  1  0.170014  0.676831  0.125093  1
  Si  Si20  1  0.033663  0.114290  0.750545  1
  Si  Si21  1  0.968505  0.886084  0.250027  1
  Si  Si22  1  0.467369  0.613551  0.248815  1
  Si  Si23  1  0.535894  0.385949  0.752443  1
  Si  Si24  1  0.285016  0.873586  0.750575  1
  Si  Si25  1  0.713697  0.130139  0.249583  1
  Si  Si26  1  0.215955  0.369737  0.247982  1
  Si  Si27  1  0.784641  0.628550  0.752476  1
  Si  Si28  1  0.836601  0.535653  0.460036  1
  Si  Si29  1  0.342000  0.964880  0.460250  1
  Si  Si30  1  0.842288  0.535149  0.038910  1
  Si  Si31  1  0.657923  0.034000  0.538632  1
  Si  Si32  1  0.156847  0.465081  0.961266  1
  Si  Si33  1  0.658011  0.034404  0.961533  1
  Si  Si34  1  0.342572  0.965027  0.038964  1
  Pt  Pt35  1  0.158855  0.466549  0.539682  1
