# generated using pymatgen
data_TmMgPaNi2
_symmetry_space_group_name_H-M   'P 1'
_cell_length_a   7.40098276
_cell_length_b   7.40098276
_cell_length_c   3.52110400
_cell_angle_alpha   90.00000000
_cell_angle_beta   90.00000000
_cell_angle_gamma   93.59201464
_symmetry_Int_Tables_number   1
_chemical_formula_structural   TmMgPaNi2
_chemical_formula_sum   'Tm2 Mg2 Pa2 Ni4'
_cell_volume   192.48797940
_cell_formula_units_Z   2
loop_
 _symmetry_equiv_pos_site_id
 _symmetry_equiv_pos_as_xyz
  1  'x, y, z'
loop_
 _atom_site_type_symbol
 _atom_site_label
 _atom_site_symmetry_multiplicity
 _atom_site_fract_x
 _atom_site_fract_y
 _atom_site_fract_z
 _atom_site_occupancy
  Tm  Tm0  1  0.169666  0.330334  0.500000  1
  Tm  Tm1  1  0.830334  0.669666  0.500000  1
  Mg  Mg2  1  0.000000  0.000000  0.000000  1
  Mg  Mg3  1  0.500000  0.500000  0.000000  1
  Pa  Pa4  1  0.672261  0.172261  0.500000  1
  Pa  Pa5  1  0.327739  0.827739  0.500000  1
  Ni  Ni6  1  0.134646  0.634646  0.000000  1
  Ni  Ni7  1  0.865354  0.365354  0.000000  1
  Ni  Ni8  1  0.618388  0.881612  0.000000  1
  Ni  Ni9  1  0.381612  0.118388  0.000000  1
