# generated using pymatgen
data_Sc10Sn5Ge2Sb
_symmetry_space_group_name_H-M   'P 1'
_cell_length_a   8.71703882
_cell_length_b   8.74925737
_cell_length_c   6.05499700
_cell_angle_alpha   90.00000000
_cell_angle_beta   90.00000000
_cell_angle_gamma   120.12234638
_symmetry_Int_Tables_number   1
_chemical_formula_structural   Sc10Sn5Ge2Sb
_chemical_formula_sum   'Sc10 Sn5 Ge2 Sb1'
_cell_volume   399.43673036
_cell_formula_units_Z   1
loop_
 _symmetry_equiv_pos_site_id
 _symmetry_equiv_pos_as_xyz
  1  'x, y, z'
loop_
 _atom_site_type_symbol
 _atom_site_label
 _atom_site_symmetry_multiplicity
 _atom_site_fract_x
 _atom_site_fract_y
 _atom_site_fract_z
 _atom_site_occupancy
  Sc  Sc0  1  0.667260  0.333624  0.999157  1
  Sc  Sc1  1  0.332740  0.666364  0.999157  1
  Sc  Sc2  1  0.332740  0.666364  0.500843  1
  Sc  Sc3  1  0.667260  0.333624  0.500843  1
  Sc  Sc4  1  0.743591  0.742828  0.750000  1
  Sc  Sc5  1  0.256409  0.999236  0.750000  1
  Sc  Sc6  1  0.000000  0.258058  0.750000  1
  Sc  Sc7  1  0.254934  0.255568  0.250000  1
  Sc  Sc8  1  0.745066  0.000634  0.250000  1
  Sc  Sc9  1  0.000000  0.742067  0.250000  1
  Sn  Sn10  1  0.391767  0.391902  0.750000  1
  Sn  Sn11  1  0.608233  0.000135  0.750000  1
  Sn  Sn12  1  0.000000  0.609328  0.750000  1
  Sn  Sn13  1  0.607093  0.608006  0.250000  1
  Sn  Sn14  1  0.392907  0.000913  0.250000  1
  Ge  Ge15  1  0.000000  0.999366  0.999143  1
  Ge  Ge16  1  0.000000  0.999366  0.500857  1
  Sb  Sb17  1  0.000000  0.392619  0.250000  1
