# generated using pymatgen
data_CdTeBr18
_symmetry_space_group_name_H-M   'P 1'
_cell_length_a   9.48620194
_cell_length_b   9.44709550
_cell_length_c   9.47049458
_cell_angle_alpha   88.10005937
_cell_angle_beta   88.16676958
_cell_angle_gamma   88.30248824
_symmetry_Int_Tables_number   1
_chemical_formula_structural   CdTeBr18
_chemical_formula_sum   'Cd1 Te1 Br18'
_cell_volume   847.47047063
_cell_formula_units_Z   1
loop_
 _symmetry_equiv_pos_site_id
 _symmetry_equiv_pos_as_xyz
  1  'x, y, z'
loop_
 _atom_site_type_symbol
 _atom_site_label
 _atom_site_symmetry_multiplicity
 _atom_site_fract_x
 _atom_site_fract_y
 _atom_site_fract_z
 _atom_site_occupancy
  Cd  Cd0  1  0.000000  0.000000  0.000000  1
  Te  Te1  1  0.500000  0.500000  0.500000  1
  Br  Br2  1  0.789094  0.460531  0.517773  1
  Br  Br3  1  0.519899  0.790446  0.460149  1
  Br  Br4  1  0.462132  0.519696  0.789891  1
  Br  Br5  1  0.210906  0.539469  0.482227  1
  Br  Br6  1  0.480101  0.209554  0.539851  1
  Br  Br7  1  0.537868  0.480304  0.210109  1
  Br  Br8  1  0.898322  0.374354  0.764716  1
  Br  Br9  1  0.766310  0.900186  0.373922  1
  Br  Br10  1  0.373992  0.766121  0.899211  1
  Br  Br11  1  0.101678  0.625646  0.235284  1
  Br  Br12  1  0.233690  0.099814  0.626078  1
  Br  Br13  1  0.626008  0.233879  0.100789  1
  Br  Br14  1  0.023318  0.967748  0.703401  1
  Br  Br15  1  0.703484  0.023717  0.968913  1
  Br  Br16  1  0.969184  0.702460  0.025148  1
  Br  Br17  1  0.976682  0.032252  0.296599  1
  Br  Br18  1  0.296516  0.976283  0.031087  1
  Br  Br19  1  0.030816  0.297540  0.974852  1
