# generated using pymatgen
data_ErPa(B4Os)2
_symmetry_space_group_name_H-M   'P 1'
_cell_length_a   3.57777000
_cell_length_b   5.97661053
_cell_length_c   11.58596862
_cell_angle_alpha   89.83072333
_cell_angle_beta   90.00000000
_cell_angle_gamma   90.00000000
_symmetry_Int_Tables_number   1
_chemical_formula_structural   ErPa(B4Os)2
_chemical_formula_sum   'Er2 Pa2 B16 Os4'
_cell_volume   247.74096585
_cell_formula_units_Z   2
loop_
 _symmetry_equiv_pos_site_id
 _symmetry_equiv_pos_as_xyz
  1  'x, y, z'
loop_
 _atom_site_type_symbol
 _atom_site_label
 _atom_site_symmetry_multiplicity
 _atom_site_fract_x
 _atom_site_fract_y
 _atom_site_fract_z
 _atom_site_occupancy
  Er  Er0  1  0.000000  0.128982  0.147739  1
  Er  Er1  1  0.000000  0.871018  0.852261  1
  Pa  Pa2  1  0.000000  0.628989  0.348886  1
  Pa  Pa3  1  0.000000  0.371011  0.651114  1
  B  B4  1  0.500000  0.790985  0.185839  1
  B  B5  1  0.500000  0.209015  0.814161  1
  B  B6  1  0.500000  0.290592  0.311933  1
  B  B7  1  0.500000  0.709408  0.688067  1
  B  B8  1  0.500000  0.864134  0.030852  1
  B  B9  1  0.500000  0.135866  0.969148  1
  B  B10  1  0.500000  0.366024  0.467405  1
  B  B11  1  0.500000  0.633976  0.532595  1
  B  B12  1  0.500000  0.887322  0.453378  1
  B  B13  1  0.500000  0.112678  0.546622  1
  B  B14  1  0.500000  0.385841  0.045552  1
  B  B15  1  0.500000  0.614159  0.954448  1
  B  B16  1  0.500000  0.973383  0.307517  1
  B  B17  1  0.500000  0.026617  0.692483  1
  B  B18  1  0.500000  0.470707  0.189775  1
  B  B19  1  0.500000  0.529293  0.810225  1
  Os  Os20  1  0.000000  0.640520  0.095179  1
  Os  Os21  1  0.000000  0.359480  0.904821  1
  Os  Os22  1  0.000000  0.141488  0.404060  1
  Os  Os23  1  0.000000  0.858512  0.595940  1
