# generated using pymatgen
data_La3Pr2In2Ru3
_symmetry_space_group_name_H-M   'P 1'
_cell_length_a   8.79980089
_cell_length_b   8.74765616
_cell_length_c   8.74683900
_cell_angle_alpha   109.64215981
_cell_angle_beta   109.56734631
_cell_angle_gamma   109.67697542
_symmetry_Int_Tables_number   1
_chemical_formula_structural   La3Pr2In2Ru3
_chemical_formula_sum   'La6 Pr4 In4 Ru6'
_cell_volume   515.26797418
_cell_formula_units_Z   2
loop_
 _symmetry_equiv_pos_site_id
 _symmetry_equiv_pos_as_xyz
  1  'x, y, z'
loop_
 _atom_site_type_symbol
 _atom_site_label
 _atom_site_symmetry_multiplicity
 _atom_site_fract_x
 _atom_site_fract_y
 _atom_site_fract_z
 _atom_site_occupancy
  La  La0  1  0.061515  0.747865  0.811084  1
  La  La1  1  0.812610  0.063827  0.750113  1
  La  La2  1  0.203818  0.201795  0.203845  1
  La  La3  1  0.499766  0.002434  0.294737  1
  La  La4  1  0.291668  0.499156  0.000434  1
  La  La5  1  0.001625  0.294038  0.498896  1
  Pr  Pr6  1  0.249082  0.683971  0.432640  1
  Pr  Pr7  1  0.748209  0.814135  0.065885  1
  Pr  Pr8  1  0.434346  0.250456  0.686029  1
  Pr  Pr9  1  0.683465  0.433869  0.248831  1
  In  In10  1  0.499301  0.997335  0.905685  1
  In  In11  1  0.588189  0.590004  0.590372  1
  In  In12  1  0.904382  0.502372  0.001833  1
  In  In13  1  0.000878  0.906528  0.498726  1
  Ru  Ru14  1  0.250360  0.129860  0.888439  1
  Ru  Ru15  1  0.760000  0.375833  0.617985  1
  Ru  Ru16  1  0.887176  0.246194  0.127646  1
  Ru  Ru17  1  0.140927  0.890860  0.253802  1
  Ru  Ru18  1  0.618987  0.759576  0.372631  1
  Ru  Ru19  1  0.363698  0.609895  0.750386  1
