# generated using pymatgen
data_Pr2YSi4(AsPd10)2
_symmetry_space_group_name_H-M   'P 1'
_cell_length_a   8.75926214
_cell_length_b   8.85549967
_cell_length_c   8.85549430
_cell_angle_alpha   59.28226643
_cell_angle_beta   60.35882874
_cell_angle_gamma   60.35883475
_symmetry_Int_Tables_number   1
_chemical_formula_structural   Pr2YSi4(AsPd10)2
_chemical_formula_sum   'Pr2 Y1 Si4 As2 Pd20'
_cell_volume   485.59776181
_cell_formula_units_Z   1
loop_
 _symmetry_equiv_pos_site_id
 _symmetry_equiv_pos_as_xyz
  1  'x, y, z'
loop_
 _atom_site_type_symbol
 _atom_site_label
 _atom_site_symmetry_multiplicity
 _atom_site_fract_x
 _atom_site_fract_y
 _atom_site_fract_z
 _atom_site_occupancy
  Pr  Pr0  1  0.250000  0.250000  0.250000  1
  Pr  Pr1  1  0.750000  0.750000  0.750000  1
  Y  Y2  1  0.000000  0.000000  0.000000  1
  Si  Si3  1  0.265890  0.734110  0.265890  1
  Si  Si4  1  0.734110  0.265890  0.734110  1
  Si  Si5  1  0.265890  0.265890  0.734110  1
  Si  Si6  1  0.734110  0.734110  0.265890  1
  As  As7  1  0.736144  0.263856  0.263856  1
  As  As8  1  0.263856  0.736144  0.736144  1
  Pd  Pd9  1  0.380390  0.388022  0.388023  1
  Pd  Pd10  1  0.619610  0.611978  0.611977  1
  Pd  Pd11  1  0.388022  0.380390  0.843566  1
  Pd  Pd12  1  0.388022  0.843566  0.380390  1
  Pd  Pd13  1  0.611978  0.619610  0.156434  1
  Pd  Pd14  1  0.611978  0.156434  0.619610  1
  Pd  Pd15  1  0.843566  0.388022  0.388023  1
  Pd  Pd16  1  0.156434  0.611978  0.611977  1
  Pd  Pd17  1  0.345857  0.000000  0.000000  1
  Pd  Pd18  1  0.654143  0.000000  0.000000  1
  Pd  Pd19  1  0.000000  0.345857  0.654144  1
  Pd  Pd20  1  0.000000  0.654143  0.345856  1
  Pd  Pd21  1  0.008140  0.346766  0.991860  1
  Pd  Pd22  1  0.653234  0.991860  0.346766  1
  Pd  Pd23  1  0.991860  0.653234  0.008140  1
  Pd  Pd24  1  0.346766  0.008140  0.653234  1
  Pd  Pd25  1  0.008140  0.991860  0.346766  1
  Pd  Pd26  1  0.991860  0.008140  0.653234  1
  Pd  Pd27  1  0.653234  0.346766  0.991860  1
  Pd  Pd28  1  0.346766  0.653234  0.008140  1
