# generated using pymatgen
data_Tb3Y(In2Cl5)4
_symmetry_space_group_name_H-M   'P 1'
_cell_length_a   8.32174415
_cell_length_b   8.58995000
_cell_length_c   13.04247422
_cell_angle_alpha   90.00000000
_cell_angle_beta   90.04311158
_cell_angle_gamma   90.00000000
_symmetry_Int_Tables_number   1
_chemical_formula_structural   Tb3Y(In2Cl5)4
_chemical_formula_sum   'Tb3 Y1 In8 Cl20'
_cell_volume   932.31969602
_cell_formula_units_Z   1
loop_
 _symmetry_equiv_pos_site_id
 _symmetry_equiv_pos_as_xyz
  1  'x, y, z'
loop_
 _atom_site_type_symbol
 _atom_site_label
 _atom_site_symmetry_multiplicity
 _atom_site_fract_x
 _atom_site_fract_y
 _atom_site_fract_z
 _atom_site_occupancy
  Tb  Tb0  1  0.927108  0.750000  0.504723  1
  Tb  Tb1  1  0.571927  0.750000  0.004244  1
  Tb  Tb2  1  0.073387  0.250000  0.495212  1
  Y  Y3  1  0.427376  0.250000  0.995783  1
  In  In4  1  0.939265  0.007902  0.829350  1
  In  In5  1  0.060691  0.993252  0.171099  1
  In  In6  1  0.560627  0.493999  0.327676  1
  In  In7  1  0.060691  0.506748  0.171099  1
  In  In8  1  0.939265  0.492098  0.829350  1
  In  In9  1  0.439467  0.506080  0.671828  1
  In  In10  1  0.560627  0.006001  0.327676  1
  In  In11  1  0.439467  0.993920  0.671828  1
  Cl  Cl12  1  0.595679  0.750000  0.508316  1
  Cl  Cl13  1  0.161911  0.954209  0.433147  1
  Cl  Cl14  1  0.838622  0.045830  0.566835  1
  Cl  Cl15  1  0.338114  0.545577  0.933070  1
  Cl  Cl16  1  0.161911  0.545791  0.433147  1
  Cl  Cl17  1  0.348221  0.250000  0.195981  1
  Cl  Cl18  1  0.338114  0.954423  0.933070  1
  Cl  Cl19  1  0.838622  0.454170  0.566835  1
  Cl  Cl20  1  0.403679  0.750000  0.181096  1
  Cl  Cl21  1  0.661892  0.045543  0.066941  1
  Cl  Cl22  1  0.152046  0.250000  0.696438  1
  Cl  Cl23  1  0.594717  0.250000  0.819992  1
  Cl  Cl24  1  0.404635  0.250000  0.491403  1
  Cl  Cl25  1  0.095990  0.750000  0.681796  1
  Cl  Cl26  1  0.661892  0.454457  0.066941  1
  Cl  Cl27  1  0.096928  0.250000  0.990833  1
  Cl  Cl28  1  0.903140  0.750000  0.008676  1
  Cl  Cl29  1  0.847808  0.750000  0.303529  1
  Cl  Cl30  1  0.651634  0.750000  0.803775  1
  Cl  Cl31  1  0.904543  0.250000  0.318308  1
