# generated using pymatgen
data_Tm6Co2Si5Ni
_symmetry_space_group_name_H-M   'P 1'
_cell_length_a   5.54028367
_cell_length_b   5.54028354
_cell_length_c   13.44056839
_cell_angle_alpha   109.40615456
_cell_angle_beta   109.40615461
_cell_angle_gamma   43.20686798
_symmetry_Int_Tables_number   1
_chemical_formula_structural   Tm6Co2Si5Ni
_chemical_formula_sum   'Tm6 Co2 Si5 Ni1'
_cell_volume   263.79755279
_cell_formula_units_Z   1
loop_
 _symmetry_equiv_pos_site_id
 _symmetry_equiv_pos_as_xyz
  1  'x, y, z'
loop_
 _atom_site_type_symbol
 _atom_site_label
 _atom_site_symmetry_multiplicity
 _atom_site_fract_x
 _atom_site_fract_y
 _atom_site_fract_z
 _atom_site_occupancy
  Tm  Tm0  1  0.397893  0.397893  0.079974  1
  Tm  Tm1  1  0.742814  0.742814  0.224303  1
  Tm  Tm2  1  0.526678  0.526678  0.380885  1
  Tm  Tm3  1  0.474277  0.474277  0.618834  1
  Tm  Tm4  1  0.253007  0.253007  0.768996  1
  Tm  Tm5  1  0.604711  0.604711  0.925685  1
  Co  Co6  1  0.249056  0.249056  0.419590  1
  Co  Co7  1  0.754094  0.754094  0.583578  1
  Si  Si8  1  0.052672  0.052672  0.242131  1
  Si  Si9  1  0.859127  0.859127  0.454041  1
  Si  Si10  1  0.138163  0.138163  0.544527  1
  Si  Si11  1  0.947650  0.947650  0.757006  1
  Si  Si12  1  0.891897  0.891897  0.922961  1
  Ni  Ni13  1  0.107962  0.107962  0.077488  1
