# generated using pymatgen
data_Eu6Ge(P3Rh5)4
_symmetry_space_group_name_H-M   'P 1'
_cell_length_a   13.55455900
_cell_length_b   13.55455788
_cell_length_c   3.92471100
_cell_angle_alpha   90.00000000
_cell_angle_beta   90.00000000
_cell_angle_gamma   119.99999542
_symmetry_Int_Tables_number   1
_chemical_formula_structural   Eu6Ge(P3Rh5)4
_chemical_formula_sum   'Eu6 Ge1 P12 Rh20'
_cell_volume   624.46641032
_cell_formula_units_Z   1
loop_
 _symmetry_equiv_pos_site_id
 _symmetry_equiv_pos_as_xyz
  1  'x, y, z'
loop_
 _atom_site_type_symbol
 _atom_site_label
 _atom_site_symmetry_multiplicity
 _atom_site_fract_x
 _atom_site_fract_y
 _atom_site_fract_z
 _atom_site_occupancy
  Eu  Eu0  1  0.527380  0.717477  0.249612  1
  Eu  Eu1  1  0.282523  0.809903  0.249612  1
  Eu  Eu2  1  0.190097  0.472620  0.249612  1
  Eu  Eu3  1  0.472620  0.282523  0.750388  1
  Eu  Eu4  1  0.717477  0.190097  0.750388  1
  Eu  Eu5  1  0.809903  0.527380  0.750388  1
  Ge  Ge6  1  0.000000  0.000000  0.000000  1
  P  P7  1  0.522529  0.134752  0.250780  1
  P  P8  1  0.865248  0.387780  0.250780  1
  P  P9  1  0.612220  0.477471  0.250780  1
  P  P10  1  0.948514  0.719665  0.251306  1
  P  P11  1  0.280335  0.228849  0.251306  1
  P  P12  1  0.771151  0.051486  0.251306  1
  P  P13  1  0.387780  0.522529  0.749220  1
  P  P14  1  0.477471  0.865248  0.749220  1
  P  P15  1  0.134752  0.612220  0.749220  1
  P  P16  1  0.719665  0.771151  0.748694  1
  P  P17  1  0.228849  0.948514  0.748694  1
  P  P18  1  0.051486  0.280335  0.748694  1
  Rh  Rh19  1  0.333333  0.666667  0.751434  1
  Rh  Rh20  1  0.924505  0.251573  0.250834  1
  Rh  Rh21  1  0.748427  0.672933  0.250834  1
  Rh  Rh22  1  0.327067  0.075495  0.250834  1
  Rh  Rh23  1  0.440971  0.025216  0.750489  1
  Rh  Rh24  1  0.974784  0.415756  0.750489  1
  Rh  Rh25  1  0.584244  0.559029  0.750489  1
  Rh  Rh26  1  0.666667  0.333333  0.248566  1
  Rh  Rh27  1  0.094675  0.193498  0.252765  1
  Rh  Rh28  1  0.806502  0.901177  0.252765  1
  Rh  Rh29  1  0.098823  0.905325  0.252765  1
  Rh  Rh30  1  0.025216  0.584244  0.249511  1
  Rh  Rh31  1  0.415756  0.440971  0.249511  1
  Rh  Rh32  1  0.559029  0.974784  0.249511  1
  Rh  Rh33  1  0.672933  0.924505  0.749166  1
  Rh  Rh34  1  0.075495  0.748427  0.749166  1
  Rh  Rh35  1  0.251573  0.327067  0.749166  1
  Rh  Rh36  1  0.905325  0.806502  0.747235  1
  Rh  Rh37  1  0.193498  0.098823  0.747235  1
  Rh  Rh38  1  0.901177  0.094675  0.747235  1
