# generated using pymatgen
data_RbYbMoH9
_symmetry_space_group_name_H-M   'P 1'
_cell_length_a   8.96624200
_cell_length_b   8.96624133
_cell_length_c   5.53760300
_cell_angle_alpha   90.00000000
_cell_angle_beta   90.00000000
_cell_angle_gamma   120.00000984
_symmetry_Int_Tables_number   1
_chemical_formula_structural   RbYbMoH9
_chemical_formula_sum   'Rb3 Yb3 Mo3 H27'
_cell_volume   385.54341175
_cell_formula_units_Z   3
loop_
 _symmetry_equiv_pos_site_id
 _symmetry_equiv_pos_as_xyz
  1  'x, y, z'
loop_
 _atom_site_type_symbol
 _atom_site_label
 _atom_site_symmetry_multiplicity
 _atom_site_fract_x
 _atom_site_fract_y
 _atom_site_fract_z
 _atom_site_occupancy
  Rb  Rb0  1  0.000000  0.586955  0.000000  1
  Rb  Rb1  1  0.413045  0.413045  0.000000  1
  Rb  Rb2  1  0.586955  0.000000  0.000000  1
  Yb  Yb3  1  0.000000  0.275726  0.500000  1
  Yb  Yb4  1  0.724274  0.724274  0.500000  1
  Yb  Yb5  1  0.275726  0.000000  0.500000  1
  Mo  Mo6  1  0.666667  0.333333  0.500000  1
  Mo  Mo7  1  0.333333  0.666667  0.500000  1
  Mo  Mo8  1  0.000000  0.000000  0.000000  1
  H  H9  1  0.789939  0.303290  0.724410  1
  H  H10  1  0.696710  0.486648  0.724410  1
  H  H11  1  0.513352  0.210061  0.724410  1
  H  H12  1  0.210061  0.513352  0.275590  1
  H  H13  1  0.513352  0.210061  0.275590  1
  H  H14  1  0.789939  0.303290  0.275590  1
  H  H15  1  0.696710  0.486648  0.275590  1
  H  H16  1  0.303290  0.789939  0.724410  1
  H  H17  1  0.486648  0.696710  0.724410  1
  H  H18  1  0.193964  0.000000  0.000000  1
  H  H19  1  0.806036  0.806036  0.000000  1
  H  H20  1  0.000000  0.193964  0.000000  1
  H  H21  1  0.864009  0.000000  0.236229  1
  H  H22  1  0.135991  0.135991  0.763771  1
  H  H23  1  0.000000  0.864009  0.763771  1
  H  H24  1  0.000000  0.864009  0.236229  1
  H  H25  1  0.135991  0.135991  0.236229  1
  H  H26  1  0.864009  0.000000  0.763771  1
  H  H27  1  0.124361  0.627627  0.500000  1
  H  H28  1  0.503266  0.875639  0.500000  1
  H  H29  1  0.372373  0.496734  0.500000  1
  H  H30  1  0.496734  0.372373  0.500000  1
  H  H31  1  0.875639  0.503266  0.500000  1
  H  H32  1  0.627627  0.124361  0.500000  1
  H  H33  1  0.210061  0.513352  0.724410  1
  H  H34  1  0.303290  0.789939  0.275590  1
  H  H35  1  0.486648  0.696710  0.275590  1
