# generated using pymatgen
data_LiMg3(AlPd5)2
_symmetry_space_group_name_H-M   'P 1'
_cell_length_a   4.17173700
_cell_length_b   5.47308528
_cell_length_c   10.61009176
_cell_angle_alpha   89.23422253
_cell_angle_beta   90.00000000
_cell_angle_gamma   90.00000000
_symmetry_Int_Tables_number   1
_chemical_formula_structural   LiMg3(AlPd5)2
_chemical_formula_sum   'Li1 Mg3 Al2 Pd10'
_cell_volume   242.23086847
_cell_formula_units_Z   1
loop_
 _symmetry_equiv_pos_site_id
 _symmetry_equiv_pos_as_xyz
  1  'x, y, z'
loop_
 _atom_site_type_symbol
 _atom_site_label
 _atom_site_symmetry_multiplicity
 _atom_site_fract_x
 _atom_site_fract_y
 _atom_site_fract_z
 _atom_site_occupancy
  Li  Li0  1  0.500000  0.165757  0.359826  1
  Mg  Mg1  1  0.500000  0.837045  0.637851  1
  Mg  Mg2  1  0.500000  0.662456  0.143117  1
  Mg  Mg3  1  0.500000  0.335321  0.859347  1
  Al  Al4  1  0.000000  0.001047  0.001649  1
  Al  Al5  1  0.000000  0.497153  0.497155  1
  Pd  Pd6  1  0.500000  0.175486  0.109167  1
  Pd  Pd7  1  0.500000  0.823565  0.895082  1
  Pd  Pd8  1  0.500000  0.682520  0.394610  1
  Pd  Pd9  1  0.500000  0.323748  0.603445  1
  Pd  Pd10  1  0.000000  0.006702  0.495887  1
  Pd  Pd11  1  0.000000  0.499972  0.000923  1
  Pd  Pd12  1  0.000000  0.906618  0.238811  1
  Pd  Pd13  1  0.000000  0.089967  0.761586  1
  Pd  Pd14  1  0.000000  0.401392  0.265232  1
  Pd  Pd15  1  0.000000  0.591251  0.736310  1
