# generated using pymatgen
data_Ca12Tm3Ge12Mo5O48
_symmetry_space_group_name_H-M   'P 1'
_cell_length_a   11.07289305
_cell_length_b   11.07248450
_cell_length_c   11.07321402
_cell_angle_alpha   109.47847778
_cell_angle_beta   109.47069727
_cell_angle_gamma   109.45923042
_symmetry_Int_Tables_number   1
_chemical_formula_structural   Ca12Tm3Ge12Mo5O48
_chemical_formula_sum   'Ca12 Tm3 Ge12 Mo5 O48'
_cell_volume   1045.16811014
_cell_formula_units_Z   1
loop_
 _symmetry_equiv_pos_site_id
 _symmetry_equiv_pos_as_xyz
  1  'x, y, z'
loop_
 _atom_site_type_symbol
 _atom_site_label
 _atom_site_symmetry_multiplicity
 _atom_site_fract_x
 _atom_site_fract_y
 _atom_site_fract_z
 _atom_site_occupancy
  Ca  Ca0  1  0.250413  0.877674  0.622820  1
  Ca  Ca1  1  0.752249  0.626866  0.874402  1
  Ca  Ca2  1  0.625118  0.873451  0.747726  1
  Ca  Ca3  1  0.875946  0.625825  0.249617  1
  Ca  Ca4  1  0.627561  0.250394  0.872921  1
  Ca  Ca5  1  0.875192  0.752282  0.626095  1
  Ca  Ca6  1  0.749587  0.122326  0.377180  1
  Ca  Ca7  1  0.247751  0.373134  0.125598  1
  Ca  Ca8  1  0.374882  0.126549  0.252274  1
  Ca  Ca9  1  0.124054  0.374175  0.750383  1
  Ca  Ca10  1  0.372439  0.749606  0.127079  1
  Ca  Ca11  1  0.124808  0.247718  0.373905  1
  Tm  Tm12  1  0.000000  0.500000  0.500000  1
  Tm  Tm13  1  0.500000  0.500000  0.000000  1
  Tm  Tm14  1  0.500000  0.000000  0.000000  1
  Ge  Ge15  1  0.123637  0.751167  0.877604  1
  Ge  Ge16  1  0.876363  0.248833  0.122396  1
  Ge  Ge17  1  0.625472  0.376833  0.252654  1
  Ge  Ge18  1  0.754170  0.876454  0.127733  1
  Ge  Ge19  1  0.874960  0.125099  0.750051  1
  Ge  Ge20  1  0.251517  0.626942  0.374237  1
  Ge  Ge21  1  0.748483  0.373058  0.625763  1
  Ge  Ge22  1  0.245830  0.123546  0.872267  1
  Ge  Ge23  1  0.125040  0.874901  0.249949  1
  Ge  Ge24  1  0.374528  0.623167  0.747346  1
  Ge  Ge25  1  0.624696  0.751456  0.377144  1
  Ge  Ge26  1  0.375304  0.248544  0.622856  1
  Mo  Mo27  1  0.500000  0.500000  0.500000  1
  Mo  Mo28  1  0.500000  0.000000  0.500000  1
  Mo  Mo29  1  0.000000  0.000000  0.500000  1
  Mo  Mo30  1  0.000000  0.500000  0.000000  1
  Mo  Mo31  1  0.000000  0.000000  0.000000  1
  O  O32  1  0.410225  0.805055  0.784312  1
  O  O33  1  0.879070  0.397204  0.088943  1
  O  O34  1  0.100291  0.978074  0.689537  1
  O  O35  1  0.521077  0.622450  0.711681  1
  O  O36  1  0.691598  0.088124  0.709838  1
  O  O37  1  0.623905  0.711901  0.521547  1
  O  O38  1  0.623842  0.409312  0.104756  1
  O  O39  1  0.710011  0.517226  0.621925  1
  O  O40  1  0.806785  0.522903  0.397837  1
  O  O41  1  0.977542  0.787959  0.877236  1
  O  O42  1  0.789815  0.879208  0.981852  1
  O  O43  1  0.716078  0.693886  0.089875  1
  O  O44  1  0.410996  0.101696  0.621291  1
  O  O45  1  0.398468  0.809027  0.519004  1
  O  O46  1  0.089887  0.714130  0.696366  1
  O  O47  1  0.105578  0.625278  0.410491  1
  O  O48  1  0.519042  0.394514  0.804633  1
  O  O49  1  0.087696  0.877605  0.396209  1
  O  O50  1  0.981971  0.691750  0.103626  1
  O  O51  1  0.193215  0.477097  0.602163  1
  O  O52  1  0.693952  0.104191  0.978000  1
  O  O53  1  0.788680  0.412084  0.809786  1
  O  O54  1  0.393222  0.089403  0.875055  1
  O  O55  1  0.877755  0.981327  0.789601  1
  O  O56  1  0.589775  0.194945  0.215688  1
  O  O57  1  0.120930  0.602796  0.911057  1
  O  O58  1  0.899709  0.021926  0.310463  1
  O  O59  1  0.478923  0.377550  0.288319  1
  O  O60  1  0.308402  0.911876  0.290162  1
  O  O61  1  0.376095  0.288099  0.478453  1
  O  O62  1  0.376158  0.590688  0.895244  1
  O  O63  1  0.289989  0.482774  0.378075  1
  O  O64  1  0.122245  0.018673  0.210399  1
  O  O65  1  0.606778  0.910597  0.124945  1
  O  O66  1  0.211320  0.587916  0.190214  1
  O  O67  1  0.192634  0.209403  0.588010  1
  O  O68  1  0.306048  0.895809  0.022000  1
  O  O69  1  0.018029  0.308250  0.896374  1
  O  O70  1  0.912304  0.122395  0.603791  1
  O  O71  1  0.480958  0.605486  0.195367  1
  O  O72  1  0.894422  0.374722  0.589509  1
  O  O73  1  0.910113  0.285870  0.303634  1
  O  O74  1  0.601532  0.190973  0.480996  1
  O  O75  1  0.589004  0.898304  0.378709  1
  O  O76  1  0.283922  0.306114  0.910125  1
  O  O77  1  0.210185  0.120792  0.018148  1
  O  O78  1  0.022458  0.212041  0.122764  1
  O  O79  1  0.807366  0.790597  0.411990  1
