# generated using pymatgen
data_Ca2Ac(AlSi)2
_symmetry_space_group_name_H-M   'P 1'
_cell_length_a   4.17497485
_cell_length_b   4.67446330
_cell_length_c   9.76386165
_cell_angle_alpha   103.84969789
_cell_angle_beta   102.34499539
_cell_angle_gamma   90.00000194
_symmetry_Int_Tables_number   1
_chemical_formula_structural   Ca2Ac(AlSi)2
_chemical_formula_sum   'Ca2 Ac1 Al2 Si2'
_cell_volume   180.46832887
_cell_formula_units_Z   1
loop_
 _symmetry_equiv_pos_site_id
 _symmetry_equiv_pos_as_xyz
  1  'x, y, z'
loop_
 _atom_site_type_symbol
 _atom_site_label
 _atom_site_symmetry_multiplicity
 _atom_site_fract_x
 _atom_site_fract_y
 _atom_site_fract_z
 _atom_site_occupancy
  Ca  Ca0  1  0.186626  0.186625  0.373251  1
  Ca  Ca1  1  0.813375  0.813374  0.626749  1
  Ac  Ac2  1  0.500001  0.000000  0.000000  1
  Al  Al3  1  0.070039  0.570038  0.140077  1
  Al  Al4  1  0.929962  0.429961  0.859923  1
  Si  Si5  1  0.644456  0.644454  0.288911  1
  Si  Si6  1  0.355545  0.355545  0.711089  1
