# generated using pymatgen
data_Ho2Er3Bi2Ru
_symmetry_space_group_name_H-M   'P 1'
_cell_length_a   7.92542200
_cell_length_b   8.96933300
_cell_length_c   12.41295300
_cell_angle_alpha   90.00000000
_cell_angle_beta   90.00000000
_cell_angle_gamma   90.00000000
_symmetry_Int_Tables_number   1
_chemical_formula_structural   Ho2Er3Bi2Ru
_chemical_formula_sum   'Ho8 Er12 Bi8 Ru4'
_cell_volume   882.38406234
_cell_formula_units_Z   4
loop_
 _symmetry_equiv_pos_site_id
 _symmetry_equiv_pos_as_xyz
  1  'x, y, z'
loop_
 _atom_site_type_symbol
 _atom_site_label
 _atom_site_symmetry_multiplicity
 _atom_site_fract_x
 _atom_site_fract_y
 _atom_site_fract_z
 _atom_site_occupancy
  Ho  Ho0  1  0.880671  0.750000  0.808855  1
  Ho  Ho1  1  0.119329  0.250000  0.191145  1
  Ho  Ho2  1  0.380671  0.250000  0.691145  1
  Ho  Ho3  1  0.619329  0.750000  0.308855  1
  Ho  Ho4  1  0.053992  0.750000  0.496551  1
  Ho  Ho5  1  0.946008  0.250000  0.503449  1
  Ho  Ho6  1  0.553992  0.250000  0.003449  1
  Ho  Ho7  1  0.446008  0.750000  0.996551  1
  Er  Er8  1  0.344342  0.750000  0.705592  1
  Er  Er9  1  0.655658  0.250000  0.294408  1
  Er  Er10  1  0.844342  0.250000  0.794408  1
  Er  Er11  1  0.155658  0.750000  0.205592  1
  Er  Er12  1  0.675369  0.541040  0.563979  1
  Er  Er13  1  0.324631  0.458960  0.436021  1
  Er  Er14  1  0.175369  0.458960  0.936021  1
  Er  Er15  1  0.324631  0.041040  0.436021  1
  Er  Er16  1  0.824631  0.541040  0.063979  1
  Er  Er17  1  0.675369  0.958960  0.563979  1
  Er  Er18  1  0.824631  0.958960  0.063979  1
  Er  Er19  1  0.175369  0.041040  0.936021  1
  Bi  Bi20  1  0.570577  0.508312  0.827238  1
  Bi  Bi21  1  0.429423  0.491688  0.172762  1
  Bi  Bi22  1  0.070577  0.491688  0.672762  1
  Bi  Bi23  1  0.429423  0.008312  0.172762  1
  Bi  Bi24  1  0.929423  0.508312  0.327238  1
  Bi  Bi25  1  0.570577  0.991688  0.827238  1
  Bi  Bi26  1  0.929423  0.991688  0.327238  1
  Bi  Bi27  1  0.070577  0.008312  0.672762  1
  Ru  Ru28  1  0.071461  0.750000  0.990475  1
  Ru  Ru29  1  0.928539  0.250000  0.009525  1
  Ru  Ru30  1  0.571461  0.250000  0.509525  1
  Ru  Ru31  1  0.428539  0.750000  0.490475  1
