# generated using pymatgen
data_Gd2S4O15
_symmetry_space_group_name_H-M   'P 1'
_cell_length_a   5.46668305
_cell_length_b   6.64945186
_cell_length_c   9.31023459
_cell_angle_alpha   92.98508658
_cell_angle_beta   110.30241190
_cell_angle_gamma   100.93507620
_symmetry_Int_Tables_number   1
_chemical_formula_structural   Gd2S4O15
_chemical_formula_sum   'Gd2 S4 O15'
_cell_volume   309.07796388
_cell_formula_units_Z   1
loop_
 _symmetry_equiv_pos_site_id
 _symmetry_equiv_pos_as_xyz
  1  'x, y, z'
loop_
 _atom_site_type_symbol
 _atom_site_label
 _atom_site_symmetry_multiplicity
 _atom_site_fract_x
 _atom_site_fract_y
 _atom_site_fract_z
 _atom_site_occupancy
  Gd  Gd0  1  0.018321  0.267136  0.561219  1
  Gd  Gd1  1  0.886575  0.899645  0.966913  1
  S  S2  1  0.685779  0.347342  0.830086  1
  S  S3  1  0.527318  0.772968  0.215027  1
  S  S4  1  0.375972  0.347372  0.300568  1
  S  S5  1  0.184838  0.829647  0.676719  1
  O  O6  1  0.040474  0.921466  0.766595  1
  O  O7  1  0.035957  0.619326  0.602345  1
  O  O8  1  0.848180  0.556941  0.895623  1
  O  O9  1  0.311693  0.412074  0.433560  1
  O  O10  1  0.750786  0.269649  0.697420  1
  O  O11  1  0.174159  0.177361  0.197900  1
  O  O12  1  0.346984  0.531724  0.191450  1
  O  O13  1  0.750671  0.754039  0.165438  1
  O  O14  1  0.456363  0.822226  0.781313  1
  O  O15  1  0.651961  0.322834  0.342616  1
  O  O16  1  0.193479  0.969033  0.557586  1
  O  O17  1  0.397149  0.349840  0.776854  1
  O  O18  1  0.604470  0.862334  0.372559  1
  O  O19  1  0.747885  0.207521  0.949777  1
  O  O20  1  0.328601  0.854718  0.097752  1
