# generated using pymatgen
data_Ce(YPt2)9
_symmetry_space_group_name_H-M   'P 1'
_cell_length_a   9.82275968
_cell_length_b   9.82275968
_cell_length_c   5.79452900
_cell_angle_alpha   90.00000000
_cell_angle_beta   90.00000000
_cell_angle_gamma   89.52138078
_symmetry_Int_Tables_number   1
_chemical_formula_structural   Ce(YPt2)9
_chemical_formula_sum   'Ce1 Y9 Pt18'
_cell_volume   559.07493970
_cell_formula_units_Z   1
loop_
 _symmetry_equiv_pos_site_id
 _symmetry_equiv_pos_as_xyz
  1  'x, y, z'
loop_
 _atom_site_type_symbol
 _atom_site_label
 _atom_site_symmetry_multiplicity
 _atom_site_fract_x
 _atom_site_fract_y
 _atom_site_fract_z
 _atom_site_occupancy
  Ce  Ce0  1  0.500000  0.500000  0.500000  1
  Y  Y1  1  0.452537  0.809794  0.000000  1
  Y  Y2  1  0.547463  0.190206  0.000000  1
  Y  Y3  1  0.190206  0.547463  0.000000  1
  Y  Y4  1  0.809794  0.452537  0.000000  1
  Y  Y5  1  0.307778  0.046855  0.500000  1
  Y  Y6  1  0.692222  0.953145  0.500000  1
  Y  Y7  1  0.953145  0.692222  0.500000  1
  Y  Y8  1  0.046855  0.307778  0.500000  1
  Y  Y9  1  0.000000  0.000000  0.000000  1
  Pt  Pt10  1  0.191829  0.808171  0.250582  1
  Pt  Pt11  1  0.808171  0.191829  0.749418  1
  Pt  Pt12  1  0.808171  0.191829  0.250582  1
  Pt  Pt13  1  0.191829  0.808171  0.749418  1
  Pt  Pt14  1  0.440101  0.779416  0.500000  1
  Pt  Pt15  1  0.559899  0.220584  0.500000  1
  Pt  Pt16  1  0.220584  0.559899  0.500000  1
  Pt  Pt17  1  0.779416  0.440101  0.500000  1
  Pt  Pt18  1  0.306767  0.306767  0.249525  1
  Pt  Pt19  1  0.693233  0.693233  0.750475  1
  Pt  Pt20  1  0.693233  0.693233  0.249525  1
  Pt  Pt21  1  0.306767  0.306767  0.750475  1
  Pt  Pt22  1  0.281113  0.059364  0.000000  1
  Pt  Pt23  1  0.718887  0.940636  0.000000  1
  Pt  Pt24  1  0.940636  0.718887  0.000000  1
  Pt  Pt25  1  0.059364  0.281113  0.000000  1
  Pt  Pt26  1  0.000000  0.000000  0.500000  1
  Pt  Pt27  1  0.500000  0.500000  0.000000  1
