# generated using pymatgen
data_AcLa6Pr5(Si7Br3)2
_symmetry_space_group_name_H-M   'P 1'
_cell_length_a   4.15199000
_cell_length_b   11.95300990
_cell_length_c   16.82109525
_cell_angle_alpha   89.95566551
_cell_angle_beta   90.00000000
_cell_angle_gamma   90.00000000
_symmetry_Int_Tables_number   1
_chemical_formula_structural   AcLa6Pr5(Si7Br3)2
_chemical_formula_sum   'Ac1 La6 Pr5 Si14 Br6'
_cell_volume   834.81014487
_cell_formula_units_Z   1
loop_
 _symmetry_equiv_pos_site_id
 _symmetry_equiv_pos_as_xyz
  1  'x, y, z'
loop_
 _atom_site_type_symbol
 _atom_site_label
 _atom_site_symmetry_multiplicity
 _atom_site_fract_x
 _atom_site_fract_y
 _atom_site_fract_z
 _atom_site_occupancy
  Ac  Ac0  1  0.500000  0.337262  0.500361  1
  La  La1  1  0.000000  0.658410  0.999560  1
  La  La2  1  0.500000  0.358621  0.243212  1
  La  La3  1  0.500000  0.066577  0.879958  1
  La  La4  1  0.000000  0.932043  0.620721  1
  La  La5  1  0.500000  0.066208  0.119041  1
  La  La6  1  0.000000  0.931539  0.379744  1
  Pr  Pr7  1  0.500000  0.360650  0.757812  1
  Pr  Pr8  1  0.000000  0.640699  0.743839  1
  Pr  Pr9  1  0.000000  0.641009  0.256178  1
  Pr  Pr10  1  0.500000  0.358071  0.999520  1
  Pr  Pr11  1  0.000000  0.642766  0.500466  1
  Si  Si12  1  0.000000  0.154504  0.999495  1
  Si  Si13  1  0.500000  0.845473  0.500198  1
  Si  Si14  1  0.500000  0.564333  0.876893  1
  Si  Si15  1  0.000000  0.437379  0.625879  1
  Si  Si16  1  0.500000  0.564648  0.122268  1
  Si  Si17  1  0.000000  0.439098  0.374847  1
  Si  Si18  1  0.000000  0.255494  0.874462  1
  Si  Si19  1  0.500000  0.745549  0.626246  1
  Si  Si20  1  0.000000  0.255457  0.124251  1
  Si  Si21  1  0.500000  0.745424  0.374235  1
  Si  Si22  1  0.000000  0.458135  0.876579  1
  Si  Si23  1  0.500000  0.543983  0.625225  1
  Si  Si24  1  0.500000  0.544460  0.375127  1
  Si  Si25  1  0.000000  0.458396  0.123370  1
  Br  Br26  1  0.500000  0.109713  0.692666  1
  Br  Br27  1  0.000000  0.891044  0.808237  1
  Br  Br28  1  0.000000  0.131299  0.499951  1
  Br  Br29  1  0.500000  0.861519  0.999978  1
  Br  Br30  1  0.500000  0.108953  0.307869  1
  Br  Br31  1  0.000000  0.891285  0.191813  1
