# generated using pymatgen
data_Tb2YbY(SiPd)4
_symmetry_space_group_name_H-M   'P 1'
_cell_length_a   4.33548700
_cell_length_b   7.44035925
_cell_length_c   21.19580401
_cell_angle_alpha   89.98712880
_cell_angle_beta   90.00000000
_cell_angle_gamma   90.00000000
_symmetry_Int_Tables_number   1
_chemical_formula_structural   Tb2YbY(SiPd)4
_chemical_formula_sum   'Tb6 Yb3 Y3 Si12 Pd12'
_cell_volume   683.72534299
_cell_formula_units_Z   3
loop_
 _symmetry_equiv_pos_site_id
 _symmetry_equiv_pos_as_xyz
  1  'x, y, z'
loop_
 _atom_site_type_symbol
 _atom_site_label
 _atom_site_symmetry_multiplicity
 _atom_site_fract_x
 _atom_site_fract_y
 _atom_site_fract_z
 _atom_site_occupancy
  Tb  Tb0  1  0.250000  0.797295  0.832378  1
  Tb  Tb1  1  0.250000  0.797990  0.166255  1
  Tb  Tb2  1  0.250000  0.703696  0.665779  1
  Tb  Tb3  1  0.250000  0.708542  0.001161  1
  Tb  Tb4  1  0.750000  0.207107  0.499211  1
  Tb  Tb5  1  0.250000  0.793877  0.500228  1
  Yb  Yb6  1  0.250000  0.703620  0.332204  1
  Yb  Yb7  1  0.750000  0.294913  0.667575  1
  Yb  Yb8  1  0.750000  0.203251  0.167672  1
  Y  Y9  1  0.750000  0.204409  0.833433  1
  Y  Y10  1  0.750000  0.296600  0.333638  1
  Y  Y11  1  0.750000  0.291256  0.999977  1
  Si  Si12  1  0.250000  0.088561  0.065876  1
  Si  Si13  1  0.750000  0.910651  0.928577  1
  Si  Si14  1  0.750000  0.586818  0.434104  1
  Si  Si15  1  0.250000  0.412780  0.566082  1
  Si  Si16  1  0.250000  0.086696  0.274539  1
  Si  Si17  1  0.750000  0.911453  0.727773  1
  Si  Si18  1  0.750000  0.587053  0.225702  1
  Si  Si19  1  0.250000  0.414432  0.774145  1
  Si  Si20  1  0.250000  0.089560  0.395053  1
  Si  Si21  1  0.750000  0.910811  0.605737  1
  Si  Si22  1  0.750000  0.588853  0.104973  1
  Si  Si23  1  0.250000  0.410872  0.895474  1
  Pd  Pd24  1  0.250000  0.415378  0.236846  1
  Pd  Pd25  1  0.750000  0.582834  0.763799  1
  Pd  Pd26  1  0.750000  0.915449  0.263194  1
  Pd  Pd27  1  0.250000  0.085451  0.736748  1
  Pd  Pd28  1  0.250000  0.417700  0.436705  1
  Pd  Pd29  1  0.750000  0.582730  0.563236  1
  Pd  Pd30  1  0.750000  0.916782  0.063723  1
  Pd  Pd31  1  0.250000  0.083239  0.938000  1
  Pd  Pd32  1  0.250000  0.418340  0.094075  1
  Pd  Pd33  1  0.750000  0.580815  0.905968  1
  Pd  Pd34  1  0.750000  0.916970  0.406557  1
  Pd  Pd35  1  0.250000  0.083215  0.593603  1
