# generated using pymatgen
data_Tb8Yb11PrSn16
_symmetry_space_group_name_H-M   'P 1'
_cell_length_a   7.87378312
_cell_length_b   8.44347216
_cell_length_c   16.08229239
_cell_angle_alpha   90.02624167
_cell_angle_beta   90.10650456
_cell_angle_gamma   89.90448110
_symmetry_Int_Tables_number   1
_chemical_formula_structural   Tb8Yb11PrSn16
_chemical_formula_sum   'Tb8 Yb11 Pr1 Sn16'
_cell_volume   1069.18062130
_cell_formula_units_Z   1
loop_
 _symmetry_equiv_pos_site_id
 _symmetry_equiv_pos_as_xyz
  1  'x, y, z'
loop_
 _atom_site_type_symbol
 _atom_site_label
 _atom_site_symmetry_multiplicity
 _atom_site_fract_x
 _atom_site_fract_y
 _atom_site_fract_z
 _atom_site_occupancy
  Tb  Tb0  1  0.669601  0.168516  0.622549  1
  Tb  Tb1  1  0.170451  0.332514  0.878158  1
  Tb  Tb2  1  0.328896  0.833203  0.122258  1
  Tb  Tb3  1  0.829429  0.667315  0.377737  1
  Tb  Tb4  1  0.328820  0.833027  0.376750  1
  Tb  Tb5  1  0.829012  0.666888  0.122170  1
  Tb  Tb6  1  0.671465  0.166929  0.877732  1
  Tb  Tb7  1  0.169279  0.331700  0.621966  1
  Yb  Yb8  1  0.002962  0.812946  0.907444  1
  Yb  Yb9  1  0.496946  0.313223  0.093060  1
  Yb  Yb10  1  0.997871  0.187136  0.406753  1
  Yb  Yb11  1  0.496945  0.314602  0.406576  1
  Yb  Yb12  1  0.996834  0.187400  0.093137  1
  Yb  Yb13  1  0.502806  0.686810  0.906587  1
  Yb  Yb14  1  0.003390  0.813562  0.592653  1
  Yb  Yb15  1  0.834097  0.509880  0.751121  1
  Yb  Yb16  1  0.332656  0.990125  0.750672  1
  Yb  Yb17  1  0.166731  0.488905  0.249924  1
  Yb  Yb18  1  0.666666  0.011016  0.249829  1
  Pr  Pr19  1  0.504767  0.684458  0.593280  1
  Sn  Sn20  1  0.672106  0.964051  0.460519  1
  Sn  Sn21  1  0.172490  0.536223  0.040118  1
  Sn  Sn22  1  0.328550  0.034807  0.959232  1
  Sn  Sn23  1  0.827175  0.463429  0.540423  1
  Sn  Sn24  1  0.328153  0.033810  0.540861  1
  Sn  Sn25  1  0.827874  0.464588  0.959506  1
  Sn  Sn26  1  0.671785  0.964786  0.040425  1
  Sn  Sn27  1  0.175223  0.537377  0.460233  1
  Sn  Sn28  1  0.467988  0.377951  0.749579  1
  Sn  Sn29  1  0.967558  0.123310  0.749409  1
  Sn  Sn30  1  0.531113  0.622461  0.249631  1
  Sn  Sn31  1  0.030924  0.877404  0.249660  1
  Sn  Sn32  1  0.712347  0.870121  0.750165  1
  Sn  Sn33  1  0.214416  0.628913  0.749514  1
  Sn  Sn34  1  0.286392  0.128703  0.250015  1
  Sn  Sn35  1  0.786281  0.371914  0.250352  1
