# generated using pymatgen
data_VCu3Se3S
_symmetry_space_group_name_H-M   'P 1'
_cell_length_a   5.57979657
_cell_length_b   5.57979571
_cell_length_c   5.57979513
_cell_angle_alpha   89.02619698
_cell_angle_beta   89.02618783
_cell_angle_gamma   89.02618037
_symmetry_Int_Tables_number   1
_chemical_formula_structural   VCu3Se3S
_chemical_formula_sum   'V1 Cu3 Se3 S1'
_cell_volume   173.64760808
_cell_formula_units_Z   1
loop_
 _symmetry_equiv_pos_site_id
 _symmetry_equiv_pos_as_xyz
  1  'x, y, z'
loop_
 _atom_site_type_symbol
 _atom_site_label
 _atom_site_symmetry_multiplicity
 _atom_site_fract_x
 _atom_site_fract_y
 _atom_site_fract_z
 _atom_site_occupancy
  V  V0  1  0.000232  0.000232  0.000232  1
  Cu  Cu1  1  0.005948  0.496157  0.005948  1
  Cu  Cu2  1  0.005948  0.005948  0.496157  1
  Cu  Cu3  1  0.496157  0.005948  0.005948  1
  Se  Se4  1  0.251642  0.756638  0.756638  1
  Se  Se5  1  0.756638  0.756638  0.251642  1
  Se  Se6  1  0.756638  0.251642  0.756638  1
  S  S7  1  0.226795  0.226795  0.226795  1
