# generated using pymatgen
data_Tm9Lu(CoPt2)2
_symmetry_space_group_name_H-M   'P 1'
_cell_length_a   10.89701000
_cell_length_b   10.89701000
_cell_length_c   6.28986900
_cell_angle_alpha   90.00000000
_cell_angle_beta   90.00000000
_cell_angle_gamma   90.00000000
_symmetry_Int_Tables_number   1
_chemical_formula_structural   Tm9Lu(CoPt2)2
_chemical_formula_sum   'Tm18 Lu2 Co4 Pt8'
_cell_volume   746.88940588
_cell_formula_units_Z   2
loop_
 _symmetry_equiv_pos_site_id
 _symmetry_equiv_pos_as_xyz
  1  'x, y, z'
loop_
 _atom_site_type_symbol
 _atom_site_label
 _atom_site_symmetry_multiplicity
 _atom_site_fract_x
 _atom_site_fract_y
 _atom_site_fract_z
 _atom_site_occupancy
  Tm  Tm0  1  0.297732  0.085495  0.374489  1
  Tm  Tm1  1  0.297732  0.914505  0.874489  1
  Tm  Tm2  1  0.702268  0.085495  0.874489  1
  Tm  Tm3  1  0.702268  0.914505  0.374489  1
  Tm  Tm4  1  0.585572  0.798429  0.874168  1
  Tm  Tm5  1  0.585572  0.201571  0.374168  1
  Tm  Tm6  1  0.414428  0.798429  0.374168  1
  Tm  Tm7  1  0.414428  0.201571  0.874168  1
  Tm  Tm8  1  0.201571  0.414428  0.625832  1
  Tm  Tm9  1  0.201571  0.585572  0.125832  1
  Tm  Tm10  1  0.798429  0.414428  0.125832  1
  Tm  Tm11  1  0.798429  0.585572  0.625832  1
  Tm  Tm12  1  0.914505  0.702268  0.125511  1
  Tm  Tm13  1  0.914505  0.297732  0.625511  1
  Tm  Tm14  1  0.085495  0.702268  0.625511  1
  Tm  Tm15  1  0.085495  0.297732  0.125511  1
  Tm  Tm16  1  0.500000  0.500000  0.000000  1
  Tm  Tm17  1  0.500000  0.500000  0.500000  1
  Lu  Lu18  1  0.000000  0.000000  0.500000  1
  Lu  Lu19  1  0.000000  0.000000  0.000000  1
  Co  Co20  1  0.500000  0.000000  0.120374  1
  Co  Co21  1  0.500000  0.000000  0.620374  1
  Co  Co22  1  0.000000  0.500000  0.879626  1
  Co  Co23  1  0.000000  0.500000  0.379626  1
  Pt  Pt24  1  0.847295  0.152705  0.250000  1
  Pt  Pt25  1  0.847295  0.847295  0.750000  1
  Pt  Pt26  1  0.152705  0.152705  0.750000  1
  Pt  Pt27  1  0.152705  0.847295  0.250000  1
  Pt  Pt28  1  0.653962  0.346038  0.750000  1
  Pt  Pt29  1  0.653962  0.653962  0.250000  1
  Pt  Pt30  1  0.346038  0.346038  0.250000  1
  Pt  Pt31  1  0.346038  0.653962  0.750000  1
