# generated using pymatgen
data_Y3Lu17(TcAg3)2
_symmetry_space_group_name_H-M   'P 1'
_cell_length_a   9.14049900
_cell_length_b   9.14049846
_cell_length_c   9.53806400
_cell_angle_alpha   90.00000000
_cell_angle_beta   90.00000000
_cell_angle_gamma   119.99999834
_symmetry_Int_Tables_number   1
_chemical_formula_structural   Y3Lu17(TcAg3)2
_chemical_formula_sum   'Y3 Lu17 Tc2 Ag6'
_cell_volume   690.12960228
_cell_formula_units_Z   1
loop_
 _symmetry_equiv_pos_site_id
 _symmetry_equiv_pos_as_xyz
  1  'x, y, z'
loop_
 _atom_site_type_symbol
 _atom_site_label
 _atom_site_symmetry_multiplicity
 _atom_site_fract_x
 _atom_site_fract_y
 _atom_site_fract_z
 _atom_site_occupancy
  Y  Y0  1  0.461309  0.538691  0.750000  1
  Y  Y1  1  0.461309  0.922619  0.750000  1
  Y  Y2  1  0.077381  0.538691  0.750000  1
  Lu  Lu3  1  0.000000  0.000000  0.499417  1
  Lu  Lu4  1  0.000000  0.000000  0.000583  1
  Lu  Lu5  1  0.208834  0.791166  0.442266  1
  Lu  Lu6  1  0.208834  0.417668  0.442266  1
  Lu  Lu7  1  0.582332  0.791166  0.442266  1
  Lu  Lu8  1  0.790564  0.209436  0.554247  1
  Lu  Lu9  1  0.790564  0.581129  0.554247  1
  Lu  Lu10  1  0.418871  0.209436  0.554247  1
  Lu  Lu11  1  0.790564  0.209436  0.945753  1
  Lu  Lu12  1  0.790564  0.581129  0.945753  1
  Lu  Lu13  1  0.418871  0.209436  0.945753  1
  Lu  Lu14  1  0.208834  0.791166  0.057734  1
  Lu  Lu15  1  0.208834  0.417668  0.057734  1
  Lu  Lu16  1  0.582332  0.791166  0.057734  1
  Lu  Lu17  1  0.539684  0.460316  0.250000  1
  Lu  Lu18  1  0.539684  0.079368  0.250000  1
  Lu  Lu19  1  0.920632  0.460316  0.250000  1
  Tc  Tc20  1  0.333333  0.666667  0.250000  1
  Tc  Tc21  1  0.666667  0.333333  0.750000  1
  Ag  Ag22  1  0.884891  0.115109  0.250000  1
  Ag  Ag23  1  0.884891  0.769782  0.250000  1
  Ag  Ag24  1  0.230218  0.115109  0.250000  1
  Ag  Ag25  1  0.112470  0.887530  0.750000  1
  Ag  Ag26  1  0.112470  0.224938  0.750000  1
  Ag  Ag27  1  0.775062  0.887530  0.750000  1
