# generated using pymatgen
data_YHoLu14(InRh)4
_symmetry_space_group_name_H-M   'P 1'
_cell_length_a   9.48396200
_cell_length_b   9.48404690
_cell_length_c   9.47952407
_cell_angle_alpha   60.02697734
_cell_angle_beta   60.02550962
_cell_angle_gamma   60.02236887
_symmetry_Int_Tables_number   1
_chemical_formula_structural   YHoLu14(InRh)4
_chemical_formula_sum   'Y1 Ho1 Lu14 In4 Rh4'
_cell_volume   603.25456160
_cell_formula_units_Z   1
loop_
 _symmetry_equiv_pos_site_id
 _symmetry_equiv_pos_as_xyz
  1  'x, y, z'
loop_
 _atom_site_type_symbol
 _atom_site_label
 _atom_site_symmetry_multiplicity
 _atom_site_fract_x
 _atom_site_fract_y
 _atom_site_fract_z
 _atom_site_occupancy
  Y  Y0  1  0.187614  0.187608  0.812340  1
  Ho  Ho1  1  0.599964  0.599962  0.599223  1
  Lu  Lu2  1  0.599773  0.599751  0.201454  1
  Lu  Lu3  1  0.439558  0.060961  0.438324  1
  Lu  Lu4  1  0.439085  0.439100  0.061144  1
  Lu  Lu5  1  0.811359  0.187731  0.812036  1
  Lu  Lu6  1  0.188189  0.811102  0.188921  1
  Lu  Lu7  1  0.439772  0.060493  0.061114  1
  Lu  Lu8  1  0.187722  0.811360  0.812058  1
  Lu  Lu9  1  0.060485  0.439782  0.061118  1
  Lu  Lu10  1  0.812565  0.812550  0.187262  1
  Lu  Lu11  1  0.200724  0.600447  0.599398  1
  Lu  Lu12  1  0.060956  0.439554  0.438328  1
  Lu  Lu13  1  0.060767  0.060764  0.439204  1
  Lu  Lu14  1  0.811104  0.188193  0.188895  1
  Lu  Lu15  1  0.600470  0.200723  0.599384  1
  In  In16  1  0.833422  0.833466  0.833756  1
  In  In17  1  0.833633  0.833634  0.499438  1
  In  In18  1  0.500536  0.832863  0.833613  1
  In  In19  1  0.832842  0.500520  0.833620  1
  Rh  Rh20  1  0.391457  0.823586  0.391834  1
  Rh  Rh21  1  0.392552  0.392530  0.391805  1
  Rh  Rh22  1  0.823598  0.391479  0.391837  1
  Rh  Rh23  1  0.391857  0.391846  0.823894  1
