# generated using pymatgen
data_La4Fe3SiCl2
_symmetry_space_group_name_H-M   'P 1'
_cell_length_a   4.06794300
_cell_length_b   4.06794104
_cell_length_c   16.99912000
_cell_angle_alpha   90.00000000
_cell_angle_beta   90.00000000
_cell_angle_gamma   120.00000784
_symmetry_Int_Tables_number   1
_chemical_formula_structural   La4Fe3SiCl2
_chemical_formula_sum   'La4 Fe3 Si1 Cl2'
_cell_volume   243.61641353
_cell_formula_units_Z   1
loop_
 _symmetry_equiv_pos_site_id
 _symmetry_equiv_pos_as_xyz
  1  'x, y, z'
loop_
 _atom_site_type_symbol
 _atom_site_label
 _atom_site_symmetry_multiplicity
 _atom_site_fract_x
 _atom_site_fract_y
 _atom_site_fract_z
 _atom_site_occupancy
  La  La0  1  0.000000  0.000000  0.113113  1
  La  La1  1  0.000000  0.000000  0.886336  1
  La  La2  1  0.000000  0.000000  0.612655  1
  La  La3  1  0.000000  0.000000  0.389073  1
  Fe  Fe4  1  0.666667  0.333333  0.498799  1
  Fe  Fe5  1  0.666667  0.333333  0.002436  1
  Fe  Fe6  1  0.333333  0.666667  0.997099  1
  Si  Si7  1  0.333333  0.666667  0.501221  1
  Cl  Cl8  1  0.333333  0.666667  0.250241  1
  Cl  Cl9  1  0.666667  0.333333  0.749027  1
