# generated using pymatgen
data_Th2MgZnIr2
_symmetry_space_group_name_H-M   'P 1'
_cell_length_a   4.12197300
_cell_length_b   7.20913200
_cell_length_c   8.51725700
_cell_angle_alpha   90.00000000
_cell_angle_beta   90.00000000
_cell_angle_gamma   90.00000000
_symmetry_Int_Tables_number   1
_chemical_formula_structural   Th2MgZnIr2
_chemical_formula_sum   'Th4 Mg2 Zn2 Ir4'
_cell_volume   253.09750977
_cell_formula_units_Z   2
loop_
 _symmetry_equiv_pos_site_id
 _symmetry_equiv_pos_as_xyz
  1  'x, y, z'
loop_
 _atom_site_type_symbol
 _atom_site_label
 _atom_site_symmetry_multiplicity
 _atom_site_fract_x
 _atom_site_fract_y
 _atom_site_fract_z
 _atom_site_occupancy
  Th  Th0  1  0.250000  0.047174  0.315720  1
  Th  Th1  1  0.250000  0.547174  0.184280  1
  Th  Th2  1  0.750000  0.956047  0.686633  1
  Th  Th3  1  0.750000  0.456047  0.813367  1
  Mg  Mg4  1  0.250000  0.624801  0.554492  1
  Mg  Mg5  1  0.250000  0.124801  0.945508  1
  Zn  Zn6  1  0.750000  0.369625  0.440322  1
  Zn  Zn7  1  0.750000  0.869625  0.059678  1
  Ir  Ir8  1  0.250000  0.238915  0.628521  1
  Ir  Ir9  1  0.250000  0.738915  0.871479  1
  Ir  Ir10  1  0.750000  0.763441  0.371733  1
  Ir  Ir11  1  0.750000  0.263441  0.128267  1
