# generated using pymatgen
data_Tm9Lu3IrOs3
_symmetry_space_group_name_H-M   'P 1'
_cell_length_a   7.29813638
_cell_length_b   8.87403968
_cell_length_c   6.25203355
_cell_angle_alpha   90.11483445
_cell_angle_beta   90.03466564
_cell_angle_gamma   89.97508902
_symmetry_Int_Tables_number   1
_chemical_formula_structural   Tm9Lu3IrOs3
_chemical_formula_sum   'Tm9 Lu3 Ir1 Os3'
_cell_volume   404.90547408
_cell_formula_units_Z   1
loop_
 _symmetry_equiv_pos_site_id
 _symmetry_equiv_pos_as_xyz
  1  'x, y, z'
loop_
 _atom_site_type_symbol
 _atom_site_label
 _atom_site_symmetry_multiplicity
 _atom_site_fract_x
 _atom_site_fract_y
 _atom_site_fract_z
 _atom_site_occupancy
  Tm  Tm0  1  0.674286  0.061617  0.333461  1
  Tm  Tm1  1  0.177239  0.438694  0.167871  1
  Tm  Tm2  1  0.325107  0.562114  0.667940  1
  Tm  Tm3  1  0.823972  0.935757  0.829988  1
  Tm  Tm4  1  0.324550  0.937940  0.668302  1
  Tm  Tm5  1  0.537639  0.250609  0.873889  1
  Tm  Tm6  1  0.038726  0.250146  0.626484  1
  Tm  Tm7  1  0.461822  0.749746  0.126522  1
  Tm  Tm8  1  0.961626  0.749792  0.372995  1
  Lu  Lu9  1  0.824129  0.564051  0.830034  1
  Lu  Lu10  1  0.673673  0.438654  0.333425  1
  Lu  Lu11  1  0.176744  0.061394  0.168113  1
  Ir  Ir12  1  0.884225  0.250570  0.039622  1
  Os  Os13  1  0.383790  0.249873  0.460856  1
  Os  Os14  1  0.115467  0.750397  0.963313  1
  Os  Os15  1  0.617004  0.748647  0.537185  1
