# generated using pymatgen
data_PdCl15
_symmetry_space_group_name_H-M   'P 1'
_cell_length_a   8.88290484
_cell_length_b   11.94051400
_cell_length_c   15.03485600
_cell_angle_alpha   69.79086797
_cell_angle_beta   125.29797454
_cell_angle_gamma   109.46755988
_symmetry_Int_Tables_number   1
_chemical_formula_structural   PdCl15
_chemical_formula_sum   'Pd2 Cl30'
_cell_volume   1202.65484813
_cell_formula_units_Z   2
loop_
 _symmetry_equiv_pos_site_id
 _symmetry_equiv_pos_as_xyz
  1  'x, y, z'
loop_
 _atom_site_type_symbol
 _atom_site_label
 _atom_site_symmetry_multiplicity
 _atom_site_fract_x
 _atom_site_fract_y
 _atom_site_fract_z
 _atom_site_occupancy
  Pd  Pd0  1  0.150542  0.132634  0.987641  1
  Pd  Pd1  1  0.849458  0.867366  0.012359  1
  Cl  Cl2  1  0.124794  0.331610  0.925789  1
  Cl  Cl3  1  0.875206  0.668390  0.074211  1
  Cl  Cl4  1  0.157374  0.924527  0.050320  1
  Cl  Cl5  1  0.842626  0.075473  0.949680  1
  Cl  Cl6  1  0.163118  0.694341  0.301628  1
  Cl  Cl7  1  0.836882  0.305659  0.698372  1
  Cl  Cl8  1  0.359967  0.692163  0.464129  1
  Cl  Cl9  1  0.640033  0.307837  0.535871  1
  Cl  Cl10  1  0.192336  0.595126  0.683869  1
  Cl  Cl11  1  0.807664  0.404874  0.316131  1
  Cl  Cl12  1  0.024567  0.346749  0.465059  1
  Cl  Cl13  1  0.975433  0.653251  0.534941  1
  Cl  Cl14  1  0.401969  0.243389  0.820422  1
  Cl  Cl15  1  0.598031  0.756611  0.179578  1
  Cl  Cl16  1  0.288578  0.983772  0.530521  1
  Cl  Cl17  1  0.711422  0.016228  0.469479  1
  Cl  Cl18  1  0.279670  0.418393  0.276191  1
  Cl  Cl19  1  0.720330  0.581607  0.723809  1
  Cl  Cl20  1  0.056759  0.915382  0.674210  1
  Cl  Cl21  1  0.943241  0.084618  0.325790  1
  Cl  Cl22  1  0.754955  0.602967  0.861748  1
  Cl  Cl23  1  0.245045  0.397033  0.138252  1
  Cl  Cl24  1  0.632268  0.733738  0.331180  1
  Cl  Cl25  1  0.367732  0.266262  0.668820  1
  Cl  Cl26  1  0.513787  0.918623  0.668034  1
  Cl  Cl27  1  0.486213  0.081377  0.331966  1
  Cl  Cl28  1  0.062158  0.912209  0.809967  1
  Cl  Cl29  1  0.937842  0.087791  0.190033  1
  Cl  Cl30  1  0.552315  0.825139  0.974789  1
  Cl  Cl31  1  0.447685  0.174861  0.025211  1
