# generated using pymatgen
data_Y20CdIn5Ru2
_symmetry_space_group_name_H-M   'P 1'
_cell_length_a   9.76933530
_cell_length_b   9.83785941
_cell_length_c   9.75106600
_cell_angle_alpha   90.00000000
_cell_angle_beta   90.00000000
_cell_angle_gamma   120.23230384
_symmetry_Int_Tables_number   1
_chemical_formula_structural   Y20CdIn5Ru2
_chemical_formula_sum   'Y20 Cd1 In5 Ru2'
_cell_volume   809.70527940
_cell_formula_units_Z   1
loop_
 _symmetry_equiv_pos_site_id
 _symmetry_equiv_pos_as_xyz
  1  'x, y, z'
loop_
 _atom_site_type_symbol
 _atom_site_label
 _atom_site_symmetry_multiplicity
 _atom_site_fract_x
 _atom_site_fract_y
 _atom_site_fract_z
 _atom_site_occupancy
  Y  Y0  1  0.996674  0.998337  0.501941  1
  Y  Y1  1  0.996674  0.998337  0.998059  1
  Y  Y2  1  0.210578  0.789955  0.440342  1
  Y  Y3  1  0.210578  0.420624  0.440342  1
  Y  Y4  1  0.579250  0.789626  0.437827  1
  Y  Y5  1  0.789980  0.211395  0.559712  1
  Y  Y6  1  0.789980  0.578584  0.559712  1
  Y  Y7  1  0.419899  0.209949  0.561563  1
  Y  Y8  1  0.789980  0.211395  0.940288  1
  Y  Y9  1  0.789980  0.578584  0.940288  1
  Y  Y10  1  0.419899  0.209949  0.938437  1
  Y  Y11  1  0.210578  0.789955  0.059658  1
  Y  Y12  1  0.210578  0.420624  0.059658  1
  Y  Y13  1  0.579250  0.789626  0.062173  1
  Y  Y14  1  0.541696  0.459900  0.250000  1
  Y  Y15  1  0.541696  0.081797  0.250000  1
  Y  Y16  1  0.921242  0.460621  0.250000  1
  Y  Y17  1  0.461128  0.542503  0.750000  1
  Y  Y18  1  0.461128  0.918624  0.750000  1
  Y  Y19  1  0.082535  0.541267  0.750000  1
  Cd  Cd20  1  0.765524  0.882762  0.750000  1
  In  In21  1  0.883776  0.118851  0.250000  1
  In  In22  1  0.883776  0.764925  0.250000  1
  In  In23  1  0.232357  0.116179  0.250000  1
  In  In24  1  0.116364  0.880814  0.750000  1
  In  In25  1  0.116364  0.235549  0.750000  1
  Ru  Ru26  1  0.330315  0.665158  0.250000  1
  Ru  Ru27  1  0.668222  0.334111  0.750000  1
