# generated using pymatgen
data_PaTi(CoH3)2
_symmetry_space_group_name_H-M   'P 1'
_cell_length_a   5.49068853
_cell_length_b   5.49068741
_cell_length_c   4.32037100
_cell_angle_alpha   90.00000000
_cell_angle_beta   90.00000000
_cell_angle_gamma   142.05620777
_symmetry_Int_Tables_number   1
_chemical_formula_structural   PaTi(CoH3)2
_chemical_formula_sum   'Pa1 Ti1 Co2 H6'
_cell_volume   80.08859605
_cell_formula_units_Z   1
loop_
 _symmetry_equiv_pos_site_id
 _symmetry_equiv_pos_as_xyz
  1  'x, y, z'
loop_
 _atom_site_type_symbol
 _atom_site_label
 _atom_site_symmetry_multiplicity
 _atom_site_fract_x
 _atom_site_fract_y
 _atom_site_fract_z
 _atom_site_occupancy
  Pa  Pa0  1  0.869149  0.130853  0.250000  1
  Ti  Ti1  1  0.136915  0.863087  0.750001  1
  Co  Co2  1  0.574063  0.425940  0.250000  1
  Co  Co3  1  0.429278  0.570725  0.750001  1
  H  H4  1  0.299022  0.700981  0.976163  1
  H  H5  1  0.093042  0.906960  0.250000  1
  H  H6  1  0.299022  0.700981  0.523838  1
  H  H7  1  0.677028  0.322975  0.534246  1
  H  H8  1  0.945466  0.054536  0.750001  1
  H  H9  1  0.677028  0.322975  0.965753  1
