# generated using pymatgen
data_DyEr3(P3Rh4)2
_symmetry_space_group_name_H-M   'P 1'
_cell_length_a   3.96617600
_cell_length_b   11.33282000
_cell_length_c   12.96988700
_cell_angle_alpha   90.00000000
_cell_angle_beta   90.00000000
_cell_angle_gamma   90.00000000
_symmetry_Int_Tables_number   1
_chemical_formula_structural   DyEr3(P3Rh4)2
_chemical_formula_sum   'Dy2 Er6 P12 Rh16'
_cell_volume   582.96994517
_cell_formula_units_Z   2
loop_
 _symmetry_equiv_pos_site_id
 _symmetry_equiv_pos_as_xyz
  1  'x, y, z'
loop_
 _atom_site_type_symbol
 _atom_site_label
 _atom_site_symmetry_multiplicity
 _atom_site_fract_x
 _atom_site_fract_y
 _atom_site_fract_z
 _atom_site_occupancy
  Dy  Dy0  1  0.250000  0.250000  0.838451  1
  Dy  Dy1  1  0.750000  0.750000  0.161549  1
  Er  Er2  1  0.750000  0.250000  0.475772  1
  Er  Er3  1  0.250000  0.750000  0.524228  1
  Er  Er4  1  0.250000  0.928545  0.796560  1
  Er  Er5  1  0.250000  0.571455  0.796560  1
  Er  Er6  1  0.750000  0.071455  0.203440  1
  Er  Er7  1  0.750000  0.428545  0.203440  1
  P  P8  1  0.250000  0.250000  0.119327  1
  P  P9  1  0.750000  0.750000  0.880673  1
  P  P10  1  0.250000  0.250000  0.631601  1
  P  P11  1  0.750000  0.750000  0.368399  1
  P  P12  1  0.250000  0.436317  0.383147  1
  P  P13  1  0.250000  0.063683  0.383147  1
  P  P14  1  0.750000  0.563683  0.616853  1
  P  P15  1  0.750000  0.936317  0.616853  1
  P  P16  1  0.250000  0.913132  0.111810  1
  P  P17  1  0.250000  0.586868  0.111810  1
  P  P18  1  0.750000  0.086868  0.888190  1
  P  P19  1  0.750000  0.413132  0.888190  1
  Rh  Rh20  1  0.250000  0.250000  0.297866  1
  Rh  Rh21  1  0.750000  0.750000  0.702134  1
  Rh  Rh22  1  0.750000  0.250000  0.017160  1
  Rh  Rh23  1  0.250000  0.750000  0.982840  1
  Rh  Rh24  1  0.250000  0.419097  0.009608  1
  Rh  Rh25  1  0.250000  0.080903  0.009608  1
  Rh  Rh26  1  0.750000  0.580903  0.990392  1
  Rh  Rh27  1  0.750000  0.919097  0.990392  1
  Rh  Rh28  1  0.250000  0.461204  0.567378  1
  Rh  Rh29  1  0.250000  0.038796  0.567378  1
  Rh  Rh30  1  0.750000  0.538796  0.432622  1
  Rh  Rh31  1  0.750000  0.961204  0.432622  1
  Rh  Rh32  1  0.250000  0.877792  0.296751  1
  Rh  Rh33  1  0.250000  0.622208  0.296751  1
  Rh  Rh34  1  0.750000  0.122208  0.703249  1
  Rh  Rh35  1  0.750000  0.377792  0.703249  1
