# generated using pymatgen
data_Ho4Er8Co4BiRh
_symmetry_space_group_name_H-M   'P 1'
_cell_length_a   8.25984311
_cell_length_b   8.25962233
_cell_length_c   8.25984381
_cell_angle_alpha   110.74079436
_cell_angle_beta   110.88948232
_cell_angle_gamma   106.81664320
_symmetry_Int_Tables_number   1
_chemical_formula_structural   Ho4Er8Co4BiRh
_chemical_formula_sum   'Ho4 Er8 Co4 Bi1 Rh1'
_cell_volume   433.09156689
_cell_formula_units_Z   1
loop_
 _symmetry_equiv_pos_site_id
 _symmetry_equiv_pos_as_xyz
  1  'x, y, z'
loop_
 _atom_site_type_symbol
 _atom_site_label
 _atom_site_symmetry_multiplicity
 _atom_site_fract_x
 _atom_site_fract_y
 _atom_site_fract_z
 _atom_site_occupancy
  Ho  Ho0  1  0.287648  0.184389  0.472048  1
  Ho  Ho1  1  0.712352  0.815611  0.527952  1
  Ho  Ho2  1  0.287658  0.815611  0.103259  1
  Ho  Ho3  1  0.712342  0.184389  0.896741  1
  Er  Er4  1  0.621054  0.311535  0.309530  1
  Er  Er5  1  0.378946  0.688465  0.690470  1
  Er  Er6  1  0.002006  0.311535  0.690481  1
  Er  Er7  1  0.997994  0.688465  0.309519  1
  Er  Er8  1  0.210785  0.408450  0.197665  1
  Er  Er9  1  0.789215  0.591550  0.802335  1
  Er  Er10  1  0.210833  0.013163  0.802330  1
  Er  Er11  1  0.789167  0.986837  0.197670  1
  Co  Co12  1  0.999981  0.376451  0.376470  1
  Co  Co13  1  0.000019  0.623549  0.623530  1
  Co  Co14  1  0.388616  0.888640  0.500024  1
  Co  Co15  1  0.611384  0.111360  0.499976  1
  Bi  Bi16  1  0.500000  0.500000  0.000000  1
  Rh  Rh17  1  0.000000  0.000000  0.000000  1
