# generated using pymatgen
data_Ta4Nb6Al4Au
_symmetry_space_group_name_H-M   'P 1'
_cell_length_a   9.98136900
_cell_length_b   9.98136900
_cell_length_c   5.23154400
_cell_angle_alpha   90.00000000
_cell_angle_beta   90.00000000
_cell_angle_gamma   90.00000000
_symmetry_Int_Tables_number   1
_chemical_formula_structural   Ta4Nb6Al4Au
_chemical_formula_sum   'Ta8 Nb12 Al8 Au2'
_cell_volume   521.20683802
_cell_formula_units_Z   2
loop_
 _symmetry_equiv_pos_site_id
 _symmetry_equiv_pos_as_xyz
  1  'x, y, z'
loop_
 _atom_site_type_symbol
 _atom_site_label
 _atom_site_symmetry_multiplicity
 _atom_site_fract_x
 _atom_site_fract_y
 _atom_site_fract_z
 _atom_site_occupancy
  Ta  Ta0  1  0.129837  0.465024  0.000000  1
  Ta  Ta1  1  0.965024  0.370163  0.500000  1
  Ta  Ta2  1  0.034976  0.629837  0.500000  1
  Ta  Ta3  1  0.870163  0.534976  0.000000  1
  Ta  Ta4  1  0.370163  0.965024  0.500000  1
  Ta  Ta5  1  0.629837  0.034976  0.500000  1
  Ta  Ta6  1  0.465024  0.129837  0.000000  1
  Ta  Ta7  1  0.534976  0.870163  0.000000  1
  Nb  Nb8  1  0.397919  0.397919  0.000000  1
  Nb  Nb9  1  0.897919  0.102081  0.500000  1
  Nb  Nb10  1  0.102081  0.897919  0.500000  1
  Nb  Nb11  1  0.602081  0.602081  0.000000  1
  Nb  Nb12  1  0.184734  0.184734  0.252819  1
  Nb  Nb13  1  0.684734  0.315266  0.752819  1
  Nb  Nb14  1  0.315266  0.684734  0.752819  1
  Nb  Nb15  1  0.815266  0.815266  0.252819  1
  Nb  Nb16  1  0.315266  0.684734  0.247181  1
  Nb  Nb17  1  0.684734  0.315266  0.247181  1
  Nb  Nb18  1  0.184734  0.184734  0.747181  1
  Nb  Nb19  1  0.815266  0.815266  0.747181  1
  Al  Al20  1  0.260073  0.934631  0.000000  1
  Al  Al21  1  0.434631  0.239927  0.500000  1
  Al  Al22  1  0.565369  0.760073  0.500000  1
  Al  Al23  1  0.739927  0.065369  0.000000  1
  Al  Al24  1  0.239927  0.434631  0.500000  1
  Al  Al25  1  0.760073  0.565369  0.500000  1
  Al  Al26  1  0.934631  0.260073  0.000000  1
  Al  Al27  1  0.065369  0.739927  0.000000  1
  Au  Au28  1  0.000000  0.000000  0.000000  1
  Au  Au29  1  0.500000  0.500000  0.500000  1
