# generated using pymatgen
data_La4Nd3HoSe12
_symmetry_space_group_name_H-M   'P 1'
_cell_length_a   4.26064900
_cell_length_b   11.20703416
_cell_length_c   11.58509700
_cell_angle_alpha   90.00981597
_cell_angle_beta   90.00000000
_cell_angle_gamma   90.00000000
_symmetry_Int_Tables_number   1
_chemical_formula_structural   La4Nd3HoSe12
_chemical_formula_sum   'La4 Nd3 Ho1 Se12'
_cell_volume   553.17955628
_cell_formula_units_Z   1
loop_
 _symmetry_equiv_pos_site_id
 _symmetry_equiv_pos_as_xyz
  1  'x, y, z'
loop_
 _atom_site_type_symbol
 _atom_site_label
 _atom_site_symmetry_multiplicity
 _atom_site_fract_x
 _atom_site_fract_y
 _atom_site_fract_z
 _atom_site_occupancy
  La  La0  1  0.250000  0.999049  0.695601  1
  La  La1  1  0.750000  0.004199  0.305339  1
  La  La2  1  0.750000  0.495383  0.807929  1
  La  La3  1  0.250000  0.499964  0.191659  1
  Nd  Nd4  1  0.250000  0.313678  0.509782  1
  Nd  Nd5  1  0.750000  0.686437  0.489961  1
  Nd  Nd6  1  0.750000  0.814487  0.990329  1
  Ho  Ho7  1  0.250000  0.186036  0.008797  1
  Se  Se8  1  0.750000  0.060515  0.886299  1
  Se  Se9  1  0.250000  0.948801  0.115233  1
  Se  Se10  1  0.250000  0.555749  0.619114  1
  Se  Se11  1  0.750000  0.443443  0.381317  1
  Se  Se12  1  0.250000  0.873049  0.454839  1
  Se  Se13  1  0.750000  0.128312  0.545482  1
  Se  Se14  1  0.750000  0.363614  0.043961  1
  Se  Se15  1  0.250000  0.626774  0.955137  1
  Se  Se16  1  0.250000  0.296990  0.773725  1
  Se  Se17  1  0.750000  0.700690  0.229205  1
  Se  Se18  1  0.750000  0.800385  0.730622  1
  Se  Se19  1  0.250000  0.202446  0.265673  1
