# generated using pymatgen
data_LiNd(NiH3)2
_symmetry_space_group_name_H-M   'P 1'
_cell_length_a   4.91231088
_cell_length_b   4.91232897
_cell_length_c   4.91231900
_cell_angle_alpha   120.00020900
_cell_angle_beta   119.99987202
_cell_angle_gamma   90.00005874
_symmetry_Int_Tables_number   1
_chemical_formula_structural   LiNd(NiH3)2
_chemical_formula_sum   'Li1 Nd1 Ni2 H6'
_cell_volume   83.81931281
_cell_formula_units_Z   1
loop_
 _symmetry_equiv_pos_site_id
 _symmetry_equiv_pos_as_xyz
  1  'x, y, z'
loop_
 _atom_site_type_symbol
 _atom_site_label
 _atom_site_symmetry_multiplicity
 _atom_site_fract_x
 _atom_site_fract_y
 _atom_site_fract_z
 _atom_site_occupancy
  Li  Li0  1  0.750000  0.749998  0.000000  1
  Nd  Nd1  1  0.249998  0.249999  0.000000  1
  Ni  Ni2  1  0.499998  0.999999  0.500000  1
  Ni  Ni3  1  0.000000  0.500000  0.499999  1
  H  H4  1  0.250057  0.750056  0.000113  1
  H  H5  1  0.749942  0.750056  0.499998  1
  H  H6  1  0.749942  0.249943  0.499999  1
  H  H7  1  0.250056  0.750055  0.499999  1
  H  H8  1  0.250056  0.249943  0.499999  1
  H  H9  1  0.749944  0.249943  0.999887  1
