# generated using pymatgen
data_Tb5Zr5(Pb3S)2
_symmetry_space_group_name_H-M   'P 1'
_cell_length_a   8.99691460
_cell_length_b   8.96119840
_cell_length_c   6.29321600
_cell_angle_alpha   90.00000000
_cell_angle_beta   90.00000000
_cell_angle_gamma   119.86876620
_symmetry_Int_Tables_number   1
_chemical_formula_structural   Tb5Zr5(Pb3S)2
_chemical_formula_sum   'Tb5 Zr5 Pb6 S2'
_cell_volume   439.98285511
_cell_formula_units_Z   1
loop_
 _symmetry_equiv_pos_site_id
 _symmetry_equiv_pos_as_xyz
  1  'x, y, z'
loop_
 _atom_site_type_symbol
 _atom_site_label
 _atom_site_symmetry_multiplicity
 _atom_site_fract_x
 _atom_site_fract_y
 _atom_site_fract_z
 _atom_site_occupancy
  Tb  Tb0  1  0.751088  0.749442  0.250000  1
  Tb  Tb1  1  0.248912  0.998354  0.250000  1
  Tb  Tb2  1  0.000000  0.245810  0.250000  1
  Tb  Tb3  1  0.249645  0.250144  0.750000  1
  Tb  Tb4  1  0.750355  0.000499  0.750000  1
  Zr  Zr5  1  0.668129  0.336073  0.500281  1
  Zr  Zr6  1  0.331871  0.667945  0.500281  1
  Zr  Zr7  1  0.331871  0.667945  0.999719  1
  Zr  Zr8  1  0.668129  0.336073  0.999719  1
  Zr  Zr9  1  0.000000  0.753848  0.750000  1
  Pb  Pb10  1  0.399790  0.400537  0.250000  1
  Pb  Pb11  1  0.600210  0.000747  0.250000  1
  Pb  Pb12  1  0.000000  0.598847  0.250000  1
  Pb  Pb13  1  0.605162  0.602116  0.750000  1
  Pb  Pb14  1  0.394838  0.996954  0.750000  1
  Pb  Pb15  1  0.000000  0.406932  0.750000  1
  S  S16  1  0.000000  0.993866  0.504287  1
  S  S17  1  0.000000  0.993866  0.995713  1
