# generated using pymatgen
data_Pr3Pa(Pt2Pb)2
_symmetry_space_group_name_H-M   'P 1'
_cell_length_a   8.14545971
_cell_length_b   8.14545915
_cell_length_c   3.70412000
_cell_angle_alpha   90.00000000
_cell_angle_beta   90.00000000
_cell_angle_gamma   92.12254663
_symmetry_Int_Tables_number   1
_chemical_formula_structural   Pr3Pa(Pt2Pb)2
_chemical_formula_sum   'Pr3 Pa1 Pt4 Pb2'
_cell_volume   245.59422168
_cell_formula_units_Z   1
loop_
 _symmetry_equiv_pos_site_id
 _symmetry_equiv_pos_as_xyz
  1  'x, y, z'
loop_
 _atom_site_type_symbol
 _atom_site_label
 _atom_site_symmetry_multiplicity
 _atom_site_fract_x
 _atom_site_fract_y
 _atom_site_fract_z
 _atom_site_occupancy
  Pr  Pr0  1  0.674249  0.174249  0.500000  1
  Pr  Pr1  1  0.829407  0.671127  0.500000  1
  Pr  Pr2  1  0.171127  0.329407  0.500000  1
  Pa  Pa3  1  0.332287  0.832287  0.500000  1
  Pt  Pt4  1  0.883273  0.383273  0.000000  1
  Pt  Pt5  1  0.605036  0.863067  0.000000  1
  Pt  Pt6  1  0.363067  0.105036  0.000000  1
  Pt  Pt7  1  0.144889  0.644889  0.000000  1
  Pb  Pb8  1  0.501362  0.495301  0.000000  1
  Pb  Pb9  1  0.995301  0.001362  0.000000  1
