# generated using pymatgen
data_Ac3CdP6N13
_symmetry_space_group_name_H-M   'P 1'
_cell_length_a   7.65658060
_cell_length_b   7.65658054
_cell_length_c   7.65658129
_cell_angle_alpha   109.18844085
_cell_angle_beta   109.18843835
_cell_angle_gamma   109.18844124
_symmetry_Int_Tables_number   1
_chemical_formula_structural   Ac3CdP6N13
_chemical_formula_sum   'Ac3 Cd1 P6 N13'
_cell_volume   349.09827604
_cell_formula_units_Z   1
loop_
 _symmetry_equiv_pos_site_id
 _symmetry_equiv_pos_as_xyz
  1  'x, y, z'
loop_
 _atom_site_type_symbol
 _atom_site_label
 _atom_site_symmetry_multiplicity
 _atom_site_fract_x
 _atom_site_fract_y
 _atom_site_fract_z
 _atom_site_occupancy
  Ac  Ac0  1  0.674064  0.000317  0.000317  1
  Ac  Ac1  1  0.000317  0.000317  0.674064  1
  Ac  Ac2  1  0.000317  0.674064  0.000317  1
  Cd  Cd3  1  0.274165  0.274165  0.274165  1
  P  P4  1  0.257616  0.758277  0.507634  1
  P  P5  1  0.758277  0.257616  0.507634  1
  P  P6  1  0.758277  0.507634  0.257616  1
  P  P7  1  0.257616  0.507634  0.758277  1
  P  P8  1  0.507634  0.758277  0.257616  1
  P  P9  1  0.507634  0.257616  0.758277  1
  N  N10  1  0.870118  0.870118  0.870118  1
  N  N11  1  0.730528  0.329131  0.329131  1
  N  N12  1  0.329131  0.730528  0.329131  1
  N  N13  1  0.304610  0.628627  0.628627  1
  N  N14  1  0.628627  0.628627  0.304610  1
  N  N15  1  0.383411  0.700721  0.007523  1
  N  N16  1  0.007523  0.700721  0.383411  1
  N  N17  1  0.628627  0.304610  0.628627  1
  N  N18  1  0.700721  0.007523  0.383411  1
  N  N19  1  0.383411  0.007523  0.700721  1
  N  N20  1  0.700721  0.383411  0.007523  1
  N  N21  1  0.329131  0.329131  0.730528  1
  N  N22  1  0.007523  0.383411  0.700721  1
