# generated using pymatgen
data_Ho6Lu6AlCo4Sn
_symmetry_space_group_name_H-M   'P 1'
_cell_length_a   8.22617614
_cell_length_b   8.22617537
_cell_length_c   8.21346776
_cell_angle_alpha   112.10874098
_cell_angle_beta   109.41250420
_cell_angle_gamma   106.99943329
_symmetry_Int_Tables_number   1
_chemical_formula_structural   Ho6Lu6AlCo4Sn
_chemical_formula_sum   'Ho6 Lu6 Al1 Co4 Sn1'
_cell_volume   426.65468000
_cell_formula_units_Z   1
loop_
 _symmetry_equiv_pos_site_id
 _symmetry_equiv_pos_as_xyz
  1  'x, y, z'
loop_
 _atom_site_type_symbol
 _atom_site_label
 _atom_site_symmetry_multiplicity
 _atom_site_fract_x
 _atom_site_fract_y
 _atom_site_fract_z
 _atom_site_occupancy
  Ho  Ho0  1  0.438717  0.233462  0.202654  1
  Ho  Ho1  1  0.561283  0.766538  0.797346  1
  Ho  Ho2  1  0.030807  0.236063  0.797346  1
  Ho  Ho3  1  0.969193  0.763937  0.202654  1
  Ho  Ho4  1  0.181075  0.281786  0.462861  1
  Ho  Ho5  1  0.818925  0.718214  0.537139  1
  Lu  Lu6  1  0.181022  0.719189  0.900211  1
  Lu  Lu7  1  0.818978  0.280811  0.099789  1
  Lu  Lu8  1  0.323582  0.638042  0.312130  1
  Lu  Lu9  1  0.676418  0.361958  0.687870  1
  Lu  Lu10  1  0.325913  0.011452  0.687870  1
  Lu  Lu11  1  0.674087  0.988548  0.312130  1
  Al  Al12  1  0.000000  0.000000  0.000000  1
  Co  Co13  1  0.341615  0.998598  0.340213  1
  Co  Co14  1  0.658385  0.001402  0.659787  1
  Co  Co15  1  0.115212  0.615212  0.500000  1
  Co  Co16  1  0.884788  0.384788  0.500000  1
  Sn  Sn17  1  0.500000  0.500000  0.000000  1
