# generated using pymatgen
data_Dy9Er10LuSn16
_symmetry_space_group_name_H-M   'P 1'
_cell_length_a   7.99356503
_cell_length_b   8.12612074
_cell_length_c   15.37364607
_cell_angle_alpha   90.02234748
_cell_angle_beta   90.00706686
_cell_angle_gamma   90.07130340
_symmetry_Int_Tables_number   1
_chemical_formula_structural   Dy9Er10LuSn16
_chemical_formula_sum   'Dy9 Er10 Lu1 Sn16'
_cell_volume   998.62006809
_cell_formula_units_Z   1
loop_
 _symmetry_equiv_pos_site_id
 _symmetry_equiv_pos_as_xyz
  1  'x, y, z'
loop_
 _atom_site_type_symbol
 _atom_site_label
 _atom_site_symmetry_multiplicity
 _atom_site_fract_x
 _atom_site_fract_y
 _atom_site_fract_z
 _atom_site_occupancy
  Dy  Dy0  1  0.865992  0.663364  0.877790  1
  Dy  Dy1  1  0.520103  0.321138  0.904007  1
  Dy  Dy2  1  0.020121  0.178768  0.595738  1
  Dy  Dy3  1  0.479598  0.678537  0.403765  1
  Dy  Dy4  1  0.979304  0.822395  0.097425  1
  Dy  Dy5  1  0.480883  0.678114  0.096362  1
  Dy  Dy6  1  0.980002  0.821728  0.403352  1
  Dy  Dy7  1  0.519354  0.321129  0.595583  1
  Dy  Dy8  1  0.019942  0.178502  0.903631  1
  Er  Er9  1  0.364563  0.837497  0.876441  1
  Er  Er10  1  0.865055  0.661971  0.622915  1
  Er  Er11  1  0.634767  0.161505  0.376837  1
  Er  Er12  1  0.135231  0.337773  0.123444  1
  Er  Er13  1  0.633739  0.161883  0.124335  1
  Er  Er14  1  0.134898  0.337381  0.376795  1
  Er  Er15  1  0.365751  0.838016  0.622556  1
  Er  Er16  1  0.196905  0.504111  0.749767  1
  Er  Er17  1  0.696479  0.996209  0.749418  1
  Er  Er18  1  0.803467  0.495754  0.250378  1
  Lu  Lu19  1  0.302911  0.004074  0.250040  1
  Sn  Sn20  1  0.296016  0.038786  0.041662  1
  Sn  Sn21  1  0.796359  0.461013  0.458431  1
  Sn  Sn22  1  0.704419  0.960705  0.541101  1
  Sn  Sn23  1  0.206375  0.538037  0.958858  1
  Sn  Sn24  1  0.701889  0.963292  0.958783  1
  Sn  Sn25  1  0.203190  0.539165  0.541202  1
  Sn  Sn26  1  0.296005  0.038874  0.458048  1
  Sn  Sn27  1  0.796371  0.459869  0.042408  1
  Sn  Sn28  1  0.562594  0.618750  0.749279  1
  Sn  Sn29  1  0.063017  0.882100  0.749246  1
  Sn  Sn30  1  0.437166  0.380870  0.250674  1
  Sn  Sn31  1  0.938258  0.118577  0.250098  1
  Sn  Sn32  1  0.329839  0.149532  0.749650  1
  Sn  Sn33  1  0.829680  0.350426  0.749578  1
  Sn  Sn34  1  0.669451  0.849991  0.250263  1
  Sn  Sn35  1  0.170304  0.650161  0.250139  1
