# generated using pymatgen
data_CsTiCu3S4
_symmetry_space_group_name_H-M   'P 1'
_cell_length_a   7.57285700
_cell_length_b   5.59417254
_cell_length_c   10.03594280
_cell_angle_alpha   73.72903022
_cell_angle_beta   90.00000000
_cell_angle_gamma   90.00000000
_symmetry_Int_Tables_number   1
_chemical_formula_structural   CsTiCu3S4
_chemical_formula_sum   'Cs2 Ti2 Cu6 S8'
_cell_volume   408.13253437
_cell_formula_units_Z   2
loop_
 _symmetry_equiv_pos_site_id
 _symmetry_equiv_pos_as_xyz
  1  'x, y, z'
loop_
 _atom_site_type_symbol
 _atom_site_label
 _atom_site_symmetry_multiplicity
 _atom_site_fract_x
 _atom_site_fract_y
 _atom_site_fract_z
 _atom_site_occupancy
  Cs  Cs0  1  0.250000  0.177145  0.622206  1
  Cs  Cs1  1  0.750000  0.822855  0.377794  1
  Ti  Ti2  1  0.750000  0.352043  0.793853  1
  Ti  Ti3  1  0.250000  0.647957  0.206147  1
  Cu  Cu4  1  0.506843  0.731936  0.996966  1
  Cu  Cu5  1  0.750000  0.851702  0.795629  1
  Cu  Cu6  1  0.250000  0.148298  0.204371  1
  Cu  Cu7  1  0.493157  0.268064  0.003034  1
  Cu  Cu8  1  0.006843  0.268064  0.003034  1
  Cu  Cu9  1  0.993157  0.731936  0.996966  1
  S  S10  1  0.503160  0.592733  0.796361  1
  S  S11  1  0.003160  0.407267  0.203639  1
  S  S12  1  0.996840  0.592733  0.796361  1
  S  S13  1  0.496840  0.407267  0.203639  1
  S  S14  1  0.250000  0.978114  0.002565  1
  S  S15  1  0.750000  0.021886  0.997435  1
  S  S16  1  0.250000  0.798830  0.389927  1
  S  S17  1  0.750000  0.201170  0.610073  1
