# generated using pymatgen
data_Lu6VMoO12
_symmetry_space_group_name_H-M   'P 1'
_cell_length_a   6.45369937
_cell_length_b   6.45370079
_cell_length_c   6.45370005
_cell_angle_alpha   92.63937073
_cell_angle_beta   92.63938667
_cell_angle_gamma   92.63938161
_symmetry_Int_Tables_number   1
_chemical_formula_structural   Lu6VMoO12
_chemical_formula_sum   'Lu6 V1 Mo1 O12'
_cell_volume   267.91548352
_cell_formula_units_Z   1
loop_
 _symmetry_equiv_pos_site_id
 _symmetry_equiv_pos_as_xyz
  1  'x, y, z'
loop_
 _atom_site_type_symbol
 _atom_site_label
 _atom_site_symmetry_multiplicity
 _atom_site_fract_x
 _atom_site_fract_y
 _atom_site_fract_z
 _atom_site_occupancy
  Lu  Lu0  1  0.437217  0.742889  0.926736  1
  Lu  Lu1  1  0.257111  0.073264  0.562783  1
  Lu  Lu2  1  0.073264  0.562783  0.257111  1
  Lu  Lu3  1  0.926736  0.437217  0.742889  1
  Lu  Lu4  1  0.742889  0.926736  0.437217  1
  Lu  Lu5  1  0.562783  0.257111  0.073264  1
  V  V6  1  0.500000  0.500000  0.500000  1
  Mo  Mo7  1  0.000000  0.000000  0.000000  1
  O  O8  1  0.092340  0.684657  0.929252  1
  O  O9  1  0.315343  0.070748  0.907660  1
  O  O10  1  0.194646  0.408061  0.536760  1
  O  O11  1  0.070748  0.907660  0.315343  1
  O  O12  1  0.591939  0.463240  0.805354  1
  O  O13  1  0.463240  0.805354  0.591939  1
  O  O14  1  0.536760  0.194646  0.408061  1
  O  O15  1  0.408061  0.536760  0.194646  1
  O  O16  1  0.929252  0.092340  0.684657  1
  O  O17  1  0.805354  0.591939  0.463240  1
  O  O18  1  0.684657  0.929252  0.092340  1
  O  O19  1  0.907660  0.315343  0.070748  1
