# generated using pymatgen
data_OsPt2RhF24
_symmetry_space_group_name_H-M   'P 1'
_cell_length_a   5.13714599
_cell_length_b   8.86406700
_cell_length_c   9.69889995
_cell_angle_alpha   90.00000000
_cell_angle_beta   90.03010658
_cell_angle_gamma   90.00000000
_symmetry_Int_Tables_number   1
_chemical_formula_structural   OsPt2RhF24
_chemical_formula_sum   'Os1 Pt2 Rh1 F24'
_cell_volume   441.64910790
_cell_formula_units_Z   1
loop_
 _symmetry_equiv_pos_site_id
 _symmetry_equiv_pos_as_xyz
  1  'x, y, z'
loop_
 _atom_site_type_symbol
 _atom_site_label
 _atom_site_symmetry_multiplicity
 _atom_site_fract_x
 _atom_site_fract_y
 _atom_site_fract_z
 _atom_site_occupancy
  Os  Os0  1  0.909129  0.750000  0.626904  1
  Pt  Pt1  1  0.091178  0.250000  0.372939  1
  Pt  Pt2  1  0.409351  0.250000  0.873321  1
  Rh  Rh3  1  0.590428  0.750000  0.126882  1
  F  F4  1  0.253692  0.098463  0.984820  1
  F  F5  1  0.759170  0.898612  0.517944  1
  F  F6  1  0.744362  0.600975  0.016633  1
  F  F7  1  0.244817  0.402091  0.484901  1
  F  F8  1  0.614768  0.750000  0.739555  1
  F  F9  1  0.110784  0.250000  0.757054  1
  F  F10  1  0.389357  0.250000  0.257031  1
  F  F11  1  0.883948  0.750000  0.242275  1
  F  F12  1  0.059078  0.601829  0.736167  1
  F  F13  1  0.563784  0.401782  0.761018  1
  F  F14  1  0.936870  0.098656  0.261373  1
  F  F15  1  0.438072  0.899047  0.237433  1
  F  F16  1  0.936870  0.401344  0.261373  1
  F  F17  1  0.438072  0.600953  0.237433  1
  F  F18  1  0.059078  0.898171  0.736167  1
  F  F19  1  0.563784  0.098218  0.761018  1
  F  F20  1  0.201974  0.750000  0.513464  1
  F  F21  1  0.707959  0.250000  0.988986  1
  F  F22  1  0.793800  0.250000  0.489564  1
  F  F23  1  0.297633  0.750000  0.011450  1
  F  F24  1  0.759170  0.601388  0.517944  1
  F  F25  1  0.253692  0.401537  0.984820  1
  F  F26  1  0.244817  0.097909  0.484901  1
  F  F27  1  0.744362  0.899025  0.016633  1
