# generated using pymatgen
data_Lu2U(ZnIr)3
_symmetry_space_group_name_H-M   'P 1'
_cell_length_a   7.07778337
_cell_length_b   7.27875514
_cell_length_c   3.80233000
_cell_angle_alpha   90.00000000
_cell_angle_beta   90.00000000
_cell_angle_gamma   120.94382617
_symmetry_Int_Tables_number   1
_chemical_formula_structural   Lu2U(ZnIr)3
_chemical_formula_sum   'Lu2 U1 Zn3 Ir3'
_cell_volume   168.00620957
_cell_formula_units_Z   1
loop_
 _symmetry_equiv_pos_site_id
 _symmetry_equiv_pos_as_xyz
  1  'x, y, z'
loop_
 _atom_site_type_symbol
 _atom_site_label
 _atom_site_symmetry_multiplicity
 _atom_site_fract_x
 _atom_site_fract_y
 _atom_site_fract_z
 _atom_site_occupancy
  Lu  Lu0  1  0.599400  0.596776  0.500000  1
  Lu  Lu1  1  0.400600  0.997376  0.500000  1
  U  U2  1  0.000000  0.408982  0.500000  1
  Zn  Zn3  1  0.000000  0.763255  0.000000  1
  Zn  Zn4  1  0.266473  0.252618  0.000000  1
  Zn  Zn5  1  0.733527  0.986145  0.000000  1
  Ir  Ir6  1  0.307108  0.643049  0.000000  1
  Ir  Ir7  1  0.692892  0.335940  0.000000  1
  Ir  Ir8  1  0.000000  0.015859  0.500000  1
