# generated using pymatgen
data_KTaTeO6
_symmetry_space_group_name_H-M   'P 1'
_cell_length_a   7.34130117
_cell_length_b   7.34130189
_cell_length_c   7.34130229
_cell_angle_alpha   120.42651895
_cell_angle_beta   119.54670075
_cell_angle_gamma   90.02487994
_symmetry_Int_Tables_number   1
_chemical_formula_structural   KTaTeO6
_chemical_formula_sum   'K2 Ta2 Te2 O12'
_cell_volume   279.80798246
_cell_formula_units_Z   2
loop_
 _symmetry_equiv_pos_site_id
 _symmetry_equiv_pos_as_xyz
  1  'x, y, z'
loop_
 _atom_site_type_symbol
 _atom_site_label
 _atom_site_symmetry_multiplicity
 _atom_site_fract_x
 _atom_site_fract_y
 _atom_site_fract_z
 _atom_site_occupancy
  K  K0  1  0.624460  0.874460  0.750000  1
  K  K1  1  0.375540  0.125540  0.250000  1
  Ta  Ta2  1  0.500000  0.500000  0.000000  1
  Ta  Ta3  1  0.000000  0.500000  0.500000  1
  Te  Te4  1  0.000000  0.500000  0.000000  1
  Te  Te5  1  0.000000  0.000000  0.500000  1
  O  O6  1  0.073566  0.823566  0.250000  1
  O  O7  1  0.685806  0.435806  0.250000  1
  O  O8  1  0.065894  0.823534  0.634961  1
  O  O9  1  0.688574  0.430934  0.865039  1
  O  O10  1  0.688574  0.823534  0.257641  1
  O  O11  1  0.065894  0.430934  0.242359  1
  O  O12  1  0.926434  0.176434  0.750000  1
  O  O13  1  0.314194  0.564194  0.750000  1
  O  O14  1  0.934106  0.176466  0.365039  1
  O  O15  1  0.311426  0.569066  0.134961  1
  O  O16  1  0.311426  0.176466  0.742359  1
  O  O17  1  0.934106  0.569066  0.757641  1
