# generated using pymatgen
data_Ba2ScUS6
_symmetry_space_group_name_H-M   'P 1'
_cell_length_a   7.13420461
_cell_length_b   7.13420447
_cell_length_c   7.13420497
_cell_angle_alpha   61.30628199
_cell_angle_beta   61.30629189
_cell_angle_gamma   61.30629186
_symmetry_Int_Tables_number   1
_chemical_formula_structural   Ba2ScUS6
_chemical_formula_sum   'Ba2 Sc1 U1 S6'
_cell_volume   264.29563851
_cell_formula_units_Z   1
loop_
 _symmetry_equiv_pos_site_id
 _symmetry_equiv_pos_as_xyz
  1  'x, y, z'
loop_
 _atom_site_type_symbol
 _atom_site_label
 _atom_site_symmetry_multiplicity
 _atom_site_fract_x
 _atom_site_fract_y
 _atom_site_fract_z
 _atom_site_occupancy
  Ba  Ba0  1  0.249012  0.249012  0.249012  1
  Ba  Ba1  1  0.750988  0.750988  0.750988  1
  Sc  Sc2  1  0.000000  0.000000  0.000000  1
  U  U3  1  0.500000  0.500000  0.500000  1
  S  S4  1  0.307675  0.751563  0.188772  1
  S  S5  1  0.811230  0.692324  0.248436  1
  S  S6  1  0.751564  0.188771  0.307676  1
  S  S7  1  0.248436  0.811229  0.692324  1
  S  S8  1  0.188770  0.307676  0.751564  1
  S  S9  1  0.692325  0.248437  0.811228  1
