# generated using pymatgen
data_ErTa2Bi3O11
_symmetry_space_group_name_H-M   'P 1'
_cell_length_a   6.61200178
_cell_length_b   7.67598057
_cell_length_c   9.85811800
_cell_angle_alpha   101.04256291
_cell_angle_beta   90.13674956
_cell_angle_gamma   90.18617714
_symmetry_Int_Tables_number   1
_chemical_formula_structural   ErTa2Bi3O11
_chemical_formula_sum   'Er2 Ta4 Bi6 O22'
_cell_volume   491.06643191
_cell_formula_units_Z   2
loop_
 _symmetry_equiv_pos_site_id
 _symmetry_equiv_pos_as_xyz
  1  'x, y, z'
loop_
 _atom_site_type_symbol
 _atom_site_label
 _atom_site_symmetry_multiplicity
 _atom_site_fract_x
 _atom_site_fract_y
 _atom_site_fract_z
 _atom_site_occupancy
  Er  Er0  1  0.750360  0.372223  0.478855  1
  Er  Er1  1  0.249640  0.627777  0.521145  1
  Ta  Ta2  1  0.913504  0.701940  0.810052  1
  Ta  Ta3  1  0.086496  0.298060  0.189948  1
  Ta  Ta4  1  0.910580  0.202085  0.808389  1
  Ta  Ta5  1  0.089420  0.797915  0.191611  1
  Bi  Bi6  1  0.756832  0.865884  0.492738  1
  Bi  Bi7  1  0.243168  0.134116  0.507262  1
  Bi  Bi8  1  0.431324  0.950741  0.815396  1
  Bi  Bi9  1  0.568676  0.049259  0.184604  1
  Bi  Bi10  1  0.388648  0.453159  0.826420  1
  Bi  Bi11  1  0.611352  0.546841  0.173580  1
  O  O12  1  0.215996  0.722600  0.754475  1
  O  O13  1  0.784004  0.277400  0.245525  1
  O  O14  1  0.630112  0.664810  0.844906  1
  O  O15  1  0.369888  0.335190  0.155094  1
  O  O16  1  0.629052  0.254689  0.851109  1
  O  O17  1  0.370948  0.745311  0.148891  1
  O  O18  1  0.879581  0.180165  0.599789  1
  O  O19  1  0.120419  0.819835  0.400211  1
  O  O20  1  0.215052  0.150825  0.757188  1
  O  O21  1  0.784948  0.849175  0.242812  1
  O  O22  1  0.896192  0.625713  0.596911  1
  O  O23  1  0.103808  0.374287  0.403089  1
  O  O24  1  0.020947  0.545526  0.180009  1
  O  O25  1  0.979053  0.454474  0.819991  1
  O  O26  1  0.000932  0.794869  0.999324  1
  O  O27  1  0.999068  0.205131  0.000676  1
  O  O28  1  0.569435  0.596008  0.394630  1
  O  O29  1  0.430565  0.403992  0.605370  1
  O  O30  1  0.164486  0.056950  0.225452  1
  O  O31  1  0.835514  0.943050  0.774548  1
  O  O32  1  0.549824  0.110594  0.402733  1
  O  O33  1  0.450176  0.889406  0.597267  1
