# generated using pymatgen
data_DyHo5Cr2(Co4P3)4
_symmetry_space_group_name_H-M   'P 1'
_cell_length_a   3.69099000
_cell_length_b   10.54601400
_cell_length_c   12.19833500
_cell_angle_alpha   90.00000000
_cell_angle_beta   90.00000000
_cell_angle_gamma   90.00000000
_symmetry_Int_Tables_number   1
_chemical_formula_structural   DyHo5Cr2(Co4P3)4
_chemical_formula_sum   'Dy1 Ho5 Cr2 Co16 P12'
_cell_volume   474.82302250
_cell_formula_units_Z   1
loop_
 _symmetry_equiv_pos_site_id
 _symmetry_equiv_pos_as_xyz
  1  'x, y, z'
loop_
 _atom_site_type_symbol
 _atom_site_label
 _atom_site_symmetry_multiplicity
 _atom_site_fract_x
 _atom_site_fract_y
 _atom_site_fract_z
 _atom_site_occupancy
  Dy  Dy0  1  0.500000  0.000000  0.476828  1
  Ho  Ho1  1  0.000000  0.500000  0.523137  1
  Ho  Ho2  1  0.500000  0.817907  0.204658  1
  Ho  Ho3  1  0.500000  0.182093  0.204658  1
  Ho  Ho4  1  0.000000  0.682133  0.795285  1
  Ho  Ho5  1  0.000000  0.317867  0.795285  1
  Cr  Cr6  1  0.500000  0.500000  0.156187  1
  Cr  Cr7  1  0.000000  0.000000  0.843858  1
  Co  Co8  1  0.500000  0.500000  0.702218  1
  Co  Co9  1  0.000000  0.000000  0.297494  1
  Co  Co10  1  0.000000  0.500000  0.987008  1
  Co  Co11  1  0.500000  0.000000  0.012937  1
  Co  Co12  1  0.500000  0.332594  0.992574  1
  Co  Co13  1  0.500000  0.667406  0.992574  1
  Co  Co14  1  0.000000  0.167315  0.007395  1
  Co  Co15  1  0.000000  0.832685  0.007395  1
  Co  Co16  1  0.500000  0.296375  0.430831  1
  Co  Co17  1  0.500000  0.703625  0.430831  1
  Co  Co18  1  0.000000  0.203947  0.569213  1
  Co  Co19  1  0.000000  0.796053  0.569213  1
  Co  Co20  1  0.500000  0.879208  0.708757  1
  Co  Co21  1  0.500000  0.120792  0.708757  1
  Co  Co22  1  0.000000  0.620774  0.291356  1
  Co  Co23  1  0.000000  0.379226  0.291356  1
  P  P24  1  0.500000  0.500000  0.881994  1
  P  P25  1  0.000000  0.000000  0.117877  1
  P  P26  1  0.500000  0.500000  0.345187  1
  P  P27  1  0.000000  0.000000  0.655485  1
  P  P28  1  0.500000  0.311485  0.616221  1
  P  P29  1  0.500000  0.688515  0.616221  1
  P  P30  1  0.000000  0.188763  0.383682  1
  P  P31  1  0.000000  0.811237  0.383682  1
  P  P32  1  0.500000  0.847684  0.892063  1
  P  P33  1  0.500000  0.152316  0.892063  1
  P  P34  1  0.000000  0.652550  0.107860  1
  P  P35  1  0.000000  0.347450  0.107860  1
