# generated using pymatgen
data_PmCdAgHg
_symmetry_space_group_name_H-M   'P 1'
_cell_length_a   5.09403053
_cell_length_b   5.09403000
_cell_length_c   5.09403100
_cell_angle_alpha   59.99999997
_cell_angle_beta   60.00000344
_cell_angle_gamma   59.99999882
_symmetry_Int_Tables_number   1
_chemical_formula_structural   PmCdAgHg
_chemical_formula_sum   'Pm1 Cd1 Ag1 Hg1'
_cell_volume   93.46943865
_cell_formula_units_Z   1
loop_
 _symmetry_equiv_pos_site_id
 _symmetry_equiv_pos_as_xyz
  1  'x, y, z'
loop_
 _atom_site_type_symbol
 _atom_site_label
 _atom_site_symmetry_multiplicity
 _atom_site_fract_x
 _atom_site_fract_y
 _atom_site_fract_z
 _atom_site_occupancy
  Pm  Pm0  1  0.000000  0.000000  0.000000  1
  Cd  Cd1  1  0.500000  0.500000  0.500000  1
  Ag  Ag2  1  0.750000  0.750000  0.750000  1
  Hg  Hg3  1  0.250000  0.250000  0.250000  1
