# generated using pymatgen
data_Sm4ErP12Pd3Ru16
_symmetry_space_group_name_H-M   'P 1'
_cell_length_a   12.64911700
_cell_length_b   12.64911755
_cell_length_c   3.99331200
_cell_angle_alpha   90.00000000
_cell_angle_beta   90.00000000
_cell_angle_gamma   120.00000119
_symmetry_Int_Tables_number   1
_chemical_formula_structural   Sm4ErP12Pd3Ru16
_chemical_formula_sum   'Sm4 Er1 P12 Pd3 Ru16'
_cell_volume   553.33011563
_cell_formula_units_Z   1
loop_
 _symmetry_equiv_pos_site_id
 _symmetry_equiv_pos_as_xyz
  1  'x, y, z'
loop_
 _atom_site_type_symbol
 _atom_site_label
 _atom_site_symmetry_multiplicity
 _atom_site_fract_x
 _atom_site_fract_y
 _atom_site_fract_z
 _atom_site_occupancy
  Sm  Sm0  1  0.181819  0.181720  0.500000  1
  Sm  Sm1  1  0.818280  0.000099  0.500000  1
  Sm  Sm2  1  0.999901  0.818181  0.500000  1
  Sm  Sm3  1  0.333333  0.666667  0.000000  1
  Er  Er4  1  0.666667  0.333333  0.000000  1
  P  P5  1  0.813028  0.812228  0.000000  1
  P  P6  1  0.187772  0.000800  0.000000  1
  P  P7  1  0.999200  0.186972  0.000000  1
  P  P8  1  0.178528  0.478848  0.500000  1
  P  P9  1  0.521152  0.699679  0.500000  1
  P  P10  1  0.300321  0.821472  0.500000  1
  P  P11  1  0.699367  0.518610  0.500000  1
  P  P12  1  0.819242  0.300633  0.500000  1
  P  P13  1  0.481390  0.180758  0.500000  1
  P  P14  1  0.367680  0.367878  0.000000  1
  P  P15  1  0.632122  0.999801  0.000000  1
  P  P16  1  0.000199  0.632320  0.000000  1
  Pd  Pd17  1  0.553479  0.553600  0.000000  1
  Pd  Pd18  1  0.446400  0.999879  0.000000  1
  Pd  Pd19  1  0.000121  0.446521  0.000000  1
  Ru  Ru20  1  0.711835  0.710848  0.500000  1
  Ru  Ru21  1  0.289152  0.000987  0.500000  1
  Ru  Ru22  1  0.999013  0.288165  0.500000  1
  Ru  Ru23  1  0.185249  0.378951  0.000000  1
  Ru  Ru24  1  0.621049  0.806299  0.000000  1
  Ru  Ru25  1  0.193701  0.814751  0.000000  1
  Ru  Ru26  1  0.805744  0.618822  0.000000  1
  Ru  Ru27  1  0.813078  0.194256  0.000000  1
  Ru  Ru28  1  0.381178  0.186922  0.000000  1
  Ru  Ru29  1  0.369011  0.491733  0.500000  1
  Ru  Ru30  1  0.508267  0.877279  0.500000  1
  Ru  Ru31  1  0.122721  0.630989  0.500000  1
  Ru  Ru32  1  0.875066  0.505389  0.500000  1
  Ru  Ru33  1  0.630324  0.124934  0.500000  1
  Ru  Ru34  1  0.494611  0.369676  0.500000  1
  Ru  Ru35  1  0.000000  0.000000  0.000000  1
