# generated using pymatgen
data_CrBrCl5
_symmetry_space_group_name_H-M   'P 1'
_cell_length_a   8.46199277
_cell_length_b   7.31566360
_cell_length_c   6.86076054
_cell_angle_alpha   85.95038759
_cell_angle_beta   80.31645900
_cell_angle_gamma   130.83695979
_symmetry_Int_Tables_number   1
_chemical_formula_structural   CrBrCl5
_chemical_formula_sum   'Cr1 Br1 Cl5'
_cell_volume   307.32173288
_cell_formula_units_Z   1
loop_
 _symmetry_equiv_pos_site_id
 _symmetry_equiv_pos_as_xyz
  1  'x, y, z'
loop_
 _atom_site_type_symbol
 _atom_site_label
 _atom_site_symmetry_multiplicity
 _atom_site_fract_x
 _atom_site_fract_y
 _atom_site_fract_z
 _atom_site_occupancy
  Cr  Cr0  1  0.346993  0.802194  0.113649  1
  Br  Br1  1  0.996305  0.862746  0.835794  1
  Cl  Cl2  1  0.351691  0.577754  0.940043  1
  Cl  Cl3  1  0.005239  0.040390  0.560865  1
  Cl  Cl4  1  0.020192  0.647550  0.217445  1
  Cl  Cl5  1  0.464757  0.816097  0.365513  1
  Cl  Cl6  1  0.546322  0.167496  0.933532  1
