# generated using pymatgen
data_Li11CdBi6
_symmetry_space_group_name_H-M   'P 1'
_cell_length_a   8.18418300
_cell_length_b   8.18592820
_cell_length_c   6.93531098
_cell_angle_alpha   90.06348230
_cell_angle_beta   90.00000000
_cell_angle_gamma   119.99295993
_symmetry_Int_Tables_number   1
_chemical_formula_structural   Li11CdBi6
_chemical_formula_sum   'Li11 Cd1 Bi6'
_cell_volume   402.41140759
_cell_formula_units_Z   1
loop_
 _symmetry_equiv_pos_site_id
 _symmetry_equiv_pos_as_xyz
  1  'x, y, z'
loop_
 _atom_site_type_symbol
 _atom_site_label
 _atom_site_symmetry_multiplicity
 _atom_site_fract_x
 _atom_site_fract_y
 _atom_site_fract_z
 _atom_site_occupancy
  Li  Li0  1  0.705936  0.699726  0.500023  1
  Li  Li1  1  0.006210  0.300274  0.499977  1
  Li  Li2  1  0.993624  0.284546  0.000279  1
  Li  Li3  1  0.709078  0.715454  0.999721  1
  Li  Li4  1  0.294627  0.000000  0.500000  1
  Li  Li5  1  0.626698  0.001545  0.254929  1
  Li  Li6  1  0.370023  0.362882  0.263073  1
  Li  Li7  1  0.003041  0.634622  0.262121  1
  Li  Li8  1  0.625152  0.998455  0.745071  1
  Li  Li9  1  0.368419  0.365378  0.737879  1
  Li  Li10  1  0.007141  0.637118  0.736927  1
  Cd  Cd11  1  0.292207  0.000000  0.000000  1
  Bi  Bi12  1  0.992539  0.999760  0.258376  1
  Bi  Bi13  1  0.992779  0.000240  0.741624  1
  Bi  Bi14  1  0.329152  0.654824  0.000562  1
  Bi  Bi15  1  0.338378  0.667710  0.498773  1
  Bi  Bi16  1  0.674328  0.345176  0.999438  1
  Bi  Bi17  1  0.670669  0.332290  0.501227  1
