# generated using pymatgen
data_Tb8In2OsRh
_symmetry_space_group_name_H-M   'P 1'
_cell_length_a   9.70881562
_cell_length_b   9.74967539
_cell_length_c   9.70881576
_cell_angle_alpha   59.86068676
_cell_angle_beta   59.66664592
_cell_angle_gamma   59.86068444
_symmetry_Int_Tables_number   1
_chemical_formula_structural   Tb8In2OsRh
_chemical_formula_sum   'Tb16 In4 Os2 Rh2'
_cell_volume   646.82748121
_cell_formula_units_Z   2
loop_
 _symmetry_equiv_pos_site_id
 _symmetry_equiv_pos_as_xyz
  1  'x, y, z'
loop_
 _atom_site_type_symbol
 _atom_site_label
 _atom_site_symmetry_multiplicity
 _atom_site_fract_x
 _atom_site_fract_y
 _atom_site_fract_z
 _atom_site_occupancy
  Tb  Tb0  1  0.810928  0.806781  0.189626  1
  Tb  Tb1  1  0.809435  0.190565  0.809435  1
  Tb  Tb2  1  0.189626  0.192665  0.810928  1
  Tb  Tb3  1  0.651087  0.046998  0.651087  1
  Tb  Tb4  1  0.060168  0.058442  0.444593  1
  Tb  Tb5  1  0.444593  0.436798  0.060168  1
  Tb  Tb6  1  0.651087  0.650828  0.651087  1
  Tb  Tb7  1  0.810928  0.192665  0.189626  1
  Tb  Tb8  1  0.189626  0.806781  0.810928  1
  Tb  Tb9  1  0.044990  0.651700  0.651609  1
  Tb  Tb10  1  0.444593  0.058442  0.060168  1
  Tb  Tb11  1  0.437401  0.062599  0.437401  1
  Tb  Tb12  1  0.056724  0.443276  0.056724  1
  Tb  Tb13  1  0.651609  0.651700  0.044990  1
  Tb  Tb14  1  0.192223  0.807777  0.192223  1
  Tb  Tb15  1  0.060168  0.436798  0.444593  1
  In  In16  1  0.417985  0.417223  0.417985  1
  In  In17  1  0.417854  0.417181  0.747784  1
  In  In18  1  0.417985  0.746807  0.417985  1
  In  In19  1  0.747784  0.417181  0.417854  1
  Os  Os20  1  0.857489  0.421831  0.857489  1
  Os  Os21  1  0.857489  0.863192  0.857489  1
  Rh  Rh22  1  0.857089  0.860886  0.421140  1
  Rh  Rh23  1  0.421140  0.860886  0.857089  1
