# generated using pymatgen
data_Tb6Tm9Th(CdPt)4
_symmetry_space_group_name_H-M   'P 1'
_cell_length_a   9.63445679
_cell_length_b   9.63445737
_cell_length_c   9.63445761
_cell_angle_alpha   60.39582724
_cell_angle_beta   60.39582678
_cell_angle_gamma   60.39583588
_symmetry_Int_Tables_number   1
_chemical_formula_structural   Tb6Tm9Th(CdPt)4
_chemical_formula_sum   'Tb6 Tm9 Th1 Cd4 Pt4'
_cell_volume   638.02423536
_cell_formula_units_Z   1
loop_
 _symmetry_equiv_pos_site_id
 _symmetry_equiv_pos_as_xyz
  1  'x, y, z'
loop_
 _atom_site_type_symbol
 _atom_site_label
 _atom_site_symmetry_multiplicity
 _atom_site_fract_x
 _atom_site_fract_y
 _atom_site_fract_z
 _atom_site_occupancy
  Tb  Tb0  1  0.936751  0.565490  0.565490  1
  Tb  Tb1  1  0.562356  0.938161  0.938161  1
  Tb  Tb2  1  0.565490  0.936751  0.565490  1
  Tb  Tb3  1  0.938161  0.562356  0.938161  1
  Tb  Tb4  1  0.565490  0.565490  0.936751  1
  Tb  Tb5  1  0.938161  0.938161  0.562356  1
  Tm  Tm6  1  0.353709  0.353709  0.939348  1
  Tm  Tm7  1  0.353709  0.939348  0.353709  1
  Tm  Tm8  1  0.939348  0.353709  0.353709  1
  Tm  Tm9  1  0.814636  0.187261  0.187261  1
  Tm  Tm10  1  0.189575  0.811969  0.811969  1
  Tm  Tm11  1  0.187261  0.814636  0.187261  1
  Tm  Tm12  1  0.811969  0.189575  0.811969  1
  Tm  Tm13  1  0.187261  0.187261  0.814636  1
  Tm  Tm14  1  0.811969  0.811969  0.189575  1
  Th  Th15  1  0.349249  0.349249  0.349249  1
  Cd  Cd16  1  0.581160  0.581160  0.581160  1
  Cd  Cd17  1  0.582484  0.582484  0.254609  1
  Cd  Cd18  1  0.582484  0.254609  0.582484  1
  Cd  Cd19  1  0.254609  0.582484  0.582484  1
  Pt  Pt20  1  0.144025  0.144025  0.144025  1
  Pt  Pt21  1  0.139393  0.139393  0.571353  1
  Pt  Pt22  1  0.139393  0.571353  0.139393  1
  Pt  Pt23  1  0.571353  0.139393  0.139393  1
