# generated using pymatgen
data_Li2La6Cd21S
_symmetry_space_group_name_H-M   'P 1'
_cell_length_a   10.06418346
_cell_length_b   10.06418327
_cell_length_c   10.12261600
_cell_angle_alpha   60.19145794
_cell_angle_beta   60.19145855
_cell_angle_gamma   59.99964086
_symmetry_Int_Tables_number   1
_chemical_formula_structural   Li2La6Cd21S
_chemical_formula_sum   'Li2 La6 Cd21 S1'
_cell_volume   727.08371603
_cell_formula_units_Z   1
loop_
 _symmetry_equiv_pos_site_id
 _symmetry_equiv_pos_as_xyz
  1  'x, y, z'
loop_
 _atom_site_type_symbol
 _atom_site_label
 _atom_site_symmetry_multiplicity
 _atom_site_fract_x
 _atom_site_fract_y
 _atom_site_fract_z
 _atom_site_occupancy
  Li  Li0  1  0.821557  0.821557  0.535343  1
  Li  Li1  1  0.499603  0.499603  0.501213  1
  La  La2  1  0.794249  0.794249  0.203537  1
  La  La3  1  0.207865  0.794260  0.203556  1
  La  La4  1  0.794260  0.207865  0.203556  1
  La  La5  1  0.205764  0.205764  0.794142  1
  La  La6  1  0.794340  0.205751  0.794185  1
  La  La7  1  0.205751  0.794340  0.794185  1
  Cd  Cd8  1  0.829784  0.512014  0.828365  1
  Cd  Cd9  1  0.512014  0.829784  0.828365  1
  Cd  Cd10  1  0.829858  0.829858  0.828470  1
  Cd  Cd11  1  0.170152  0.170152  0.489584  1
  Cd  Cd12  1  0.169483  0.490107  0.170963  1
  Cd  Cd13  1  0.490107  0.169483  0.170963  1
  Cd  Cd14  1  0.169422  0.169422  0.170825  1
  Cd  Cd15  1  0.615377  0.615377  0.153928  1
  Cd  Cd16  1  0.619337  0.148125  0.613245  1
  Cd  Cd17  1  0.148125  0.619337  0.613245  1
  Cd  Cd18  1  0.619264  0.619264  0.613261  1
  Cd  Cd19  1  0.385351  0.385351  0.843863  1
  Cd  Cd20  1  0.383743  0.846150  0.386268  1
  Cd  Cd21  1  0.846150  0.383743  0.386268  1
  Cd  Cd22  1  0.383833  0.383833  0.386253  1
  Cd  Cd23  1  0.996251  0.996251  0.496492  1
  Cd  Cd24  1  0.510997  0.996264  0.496511  1
  Cd  Cd25  1  0.996264  0.510997  0.496511  1
  Cd  Cd26  1  0.500164  0.500164  0.998178  1
  Cd  Cd27  1  0.001551  0.500133  0.998205  1
  Cd  Cd28  1  0.500133  0.001551  0.998205  1
  S  S29  1  0.999253  0.999253  0.002315  1
