# generated using pymatgen
data_Sr2Ta3Si7Pt9
_symmetry_space_group_name_H-M   'P 1'
_cell_length_a   9.97082400
_cell_length_b   9.97082274
_cell_length_c   4.05581900
_cell_angle_alpha   90.00000000
_cell_angle_beta   90.00000000
_cell_angle_gamma   119.99999755
_symmetry_Int_Tables_number   1
_chemical_formula_structural   Sr2Ta3Si7Pt9
_chemical_formula_sum   'Sr2 Ta3 Si7 Pt9'
_cell_volume   349.19760271
_cell_formula_units_Z   1
loop_
 _symmetry_equiv_pos_site_id
 _symmetry_equiv_pos_as_xyz
  1  'x, y, z'
loop_
 _atom_site_type_symbol
 _atom_site_label
 _atom_site_symmetry_multiplicity
 _atom_site_fract_x
 _atom_site_fract_y
 _atom_site_fract_z
 _atom_site_occupancy
  Sr  Sr0  1  0.000000  0.000000  0.000000  1
  Sr  Sr1  1  0.333333  0.666667  0.500000  1
  Ta  Ta2  1  0.878537  0.452679  0.500000  1
  Ta  Ta3  1  0.574142  0.121463  0.500000  1
  Ta  Ta4  1  0.547321  0.425858  0.500000  1
  Si  Si5  1  0.259920  0.217563  0.500000  1
  Si  Si6  1  0.782437  0.042358  0.500000  1
  Si  Si7  1  0.957642  0.740080  0.500000  1
  Si  Si8  1  0.554940  0.636061  0.000000  1
  Si  Si9  1  0.363939  0.918878  0.000000  1
  Si  Si10  1  0.081122  0.445060  0.000000  1
  Si  Si11  1  0.666667  0.333333  0.000000  1
  Pt  Pt12  1  0.230496  0.943805  0.500000  1
  Pt  Pt13  1  0.056195  0.286692  0.500000  1
  Pt  Pt14  1  0.713308  0.769504  0.500000  1
  Pt  Pt15  1  0.305329  0.403540  0.000000  1
  Pt  Pt16  1  0.596460  0.901789  0.000000  1
  Pt  Pt17  1  0.098211  0.694671  0.000000  1
  Pt  Pt18  1  0.391658  0.174640  0.000000  1
  Pt  Pt19  1  0.825360  0.217018  0.000000  1
  Pt  Pt20  1  0.782982  0.608342  0.000000  1
