# generated using pymatgen
data_Ni6Sn5
_symmetry_space_group_name_H-M   'P 1'
_cell_length_a   6.54944808
_cell_length_b   6.54944840
_cell_length_c   9.52647991
_cell_angle_alpha   80.44563539
_cell_angle_beta   80.44563447
_cell_angle_gamma   65.19321149
_symmetry_Int_Tables_number   1
_chemical_formula_structural   Ni6Sn5
_chemical_formula_sum   'Ni12 Sn10'
_cell_volume   363.66447795
_cell_formula_units_Z   2
loop_
 _symmetry_equiv_pos_site_id
 _symmetry_equiv_pos_as_xyz
  1  'x, y, z'
loop_
 _atom_site_type_symbol
 _atom_site_label
 _atom_site_symmetry_multiplicity
 _atom_site_fract_x
 _atom_site_fract_y
 _atom_site_fract_z
 _atom_site_occupancy
  Ni  Ni0  1  0.382892  0.418026  0.702007  1
  Ni  Ni1  1  0.581974  0.617108  0.797993  1
  Ni  Ni2  1  0.617108  0.581974  0.297993  1
  Ni  Ni3  1  0.418026  0.382892  0.202007  1
  Ni  Ni4  1  0.200739  0.189824  0.103156  1
  Ni  Ni5  1  0.810176  0.799261  0.396844  1
  Ni  Ni6  1  0.799261  0.810176  0.896844  1
  Ni  Ni7  1  0.189824  0.200739  0.603156  1
  Ni  Ni8  1  0.000000  0.000000  0.500000  1
  Ni  Ni9  1  0.000000  0.000000  0.000000  1
  Ni  Ni10  1  0.157854  0.842146  0.750000  1
  Ni  Ni11  1  0.842146  0.157854  0.250000  1
  Sn  Sn12  1  0.769670  0.446667  0.031662  1
  Sn  Sn13  1  0.553333  0.230330  0.468338  1
  Sn  Sn14  1  0.230330  0.553333  0.968338  1
  Sn  Sn15  1  0.446667  0.769670  0.531662  1
  Sn  Sn16  1  0.367805  0.045159  0.852232  1
  Sn  Sn17  1  0.954841  0.632195  0.647768  1
  Sn  Sn18  1  0.632195  0.954841  0.147768  1
  Sn  Sn19  1  0.045159  0.367805  0.352232  1
  Sn  Sn20  1  0.801341  0.198659  0.750000  1
  Sn  Sn21  1  0.198659  0.801341  0.250000  1
