# generated using pymatgen
data_Li2Sm2Si2Sb
_symmetry_space_group_name_H-M   'P 1'
_cell_length_a   9.65939625
_cell_length_b   9.65939699
_cell_length_c   6.87047500
_cell_angle_alpha   90.00000000
_cell_angle_beta   90.00000000
_cell_angle_gamma   153.22688110
_symmetry_Int_Tables_number   1
_chemical_formula_structural   Li2Sm2Si2Sb
_chemical_formula_sum   'Li4 Sm4 Si4 Sb2'
_cell_volume   288.76314380
_cell_formula_units_Z   2
loop_
 _symmetry_equiv_pos_site_id
 _symmetry_equiv_pos_as_xyz
  1  'x, y, z'
loop_
 _atom_site_type_symbol
 _atom_site_label
 _atom_site_symmetry_multiplicity
 _atom_site_fract_x
 _atom_site_fract_y
 _atom_site_fract_z
 _atom_site_occupancy
  Li  Li0  1  0.813753  0.186247  0.558024  1
  Li  Li1  1  0.186247  0.813753  0.441976  1
  Li  Li2  1  0.186247  0.813753  0.058024  1
  Li  Li3  1  0.813753  0.186247  0.941976  1
  Sm  Sm4  1  0.545621  0.454379  0.250000  1
  Sm  Sm5  1  0.454379  0.545621  0.750000  1
  Sm  Sm6  1  0.352187  0.647813  0.250000  1
  Sm  Sm7  1  0.647813  0.352187  0.750000  1
  Si  Si8  1  0.941968  0.058032  0.073317  1
  Si  Si9  1  0.058032  0.941968  0.926683  1
  Si  Si10  1  0.058032  0.941968  0.573317  1
  Si  Si11  1  0.941968  0.058032  0.426683  1
  Sb  Sb12  1  0.718963  0.281037  0.250000  1
  Sb  Sb13  1  0.281037  0.718963  0.750000  1
