# generated using pymatgen
data_Cs4TbUI12
_symmetry_space_group_name_H-M   'P 1'
_cell_length_a   8.57881000
_cell_length_b   8.57881000
_cell_length_c   12.76776900
_cell_angle_alpha   90.00000000
_cell_angle_beta   90.00000000
_cell_angle_gamma   90.00000000
_symmetry_Int_Tables_number   1
_chemical_formula_structural   Cs4TbUI12
_chemical_formula_sum   'Cs4 Tb1 U1 I12'
_cell_volume   939.65648495
_cell_formula_units_Z   1
loop_
 _symmetry_equiv_pos_site_id
 _symmetry_equiv_pos_as_xyz
  1  'x, y, z'
loop_
 _atom_site_type_symbol
 _atom_site_label
 _atom_site_symmetry_multiplicity
 _atom_site_fract_x
 _atom_site_fract_y
 _atom_site_fract_z
 _atom_site_occupancy
  Cs  Cs0  1  0.500000  0.000000  0.796032  1
  Cs  Cs1  1  0.500000  0.000000  0.203968  1
  Cs  Cs2  1  0.000000  0.500000  0.203968  1
  Cs  Cs3  1  0.000000  0.500000  0.796032  1
  Tb  Tb4  1  0.000000  0.000000  0.000000  1
  U  U5  1  0.500000  0.500000  0.500000  1
  I  I6  1  0.748298  0.251478  0.000000  1
  I  I7  1  0.251702  0.748522  0.000000  1
  I  I8  1  0.500000  0.500000  0.268254  1
  I  I9  1  0.320390  0.208503  0.500000  1
  I  I10  1  0.251478  0.251702  0.000000  1
  I  I11  1  0.791497  0.320390  0.500000  1
  I  I12  1  0.000000  0.000000  0.239450  1
  I  I13  1  0.679610  0.791497  0.500000  1
  I  I14  1  0.208503  0.679610  0.500000  1
  I  I15  1  0.500000  0.500000  0.731746  1
  I  I16  1  0.748522  0.748298  0.000000  1
  I  I17  1  0.000000  0.000000  0.760550  1
