# generated using pymatgen
data_Tb2ErCo8MoP6
_symmetry_space_group_name_H-M   'P 1'
_cell_length_a   3.72897200
_cell_length_b   10.58996600
_cell_length_c   12.27057800
_cell_angle_alpha   90.00000000
_cell_angle_beta   90.00000000
_cell_angle_gamma   90.00000000
_symmetry_Int_Tables_number   1
_chemical_formula_structural   Tb2ErCo8MoP6
_chemical_formula_sum   'Tb4 Er2 Co16 Mo2 P12'
_cell_volume   484.56128079
_cell_formula_units_Z   2
loop_
 _symmetry_equiv_pos_site_id
 _symmetry_equiv_pos_as_xyz
  1  'x, y, z'
loop_
 _atom_site_type_symbol
 _atom_site_label
 _atom_site_symmetry_multiplicity
 _atom_site_fract_x
 _atom_site_fract_y
 _atom_site_fract_z
 _atom_site_occupancy
  Tb  Tb0  1  0.750000  0.250000  0.475300  1
  Tb  Tb1  1  0.250000  0.750000  0.524013  1
  Tb  Tb2  1  0.250000  0.931156  0.795012  1
  Tb  Tb3  1  0.250000  0.568844  0.795012  1
  Er  Er4  1  0.750000  0.069205  0.204919  1
  Er  Er5  1  0.750000  0.430795  0.204919  1
  Co  Co6  1  0.250000  0.250000  0.297475  1
  Co  Co7  1  0.750000  0.750000  0.701686  1
  Co  Co8  1  0.750000  0.250000  0.014352  1
  Co  Co9  1  0.250000  0.750000  0.987455  1
  Co  Co10  1  0.250000  0.417246  0.010722  1
  Co  Co11  1  0.250000  0.082754  0.010722  1
  Co  Co12  1  0.750000  0.581973  0.991294  1
  Co  Co13  1  0.750000  0.918027  0.991294  1
  Co  Co14  1  0.250000  0.454140  0.567945  1
  Co  Co15  1  0.250000  0.045860  0.567945  1
  Co  Co16  1  0.750000  0.545453  0.430314  1
  Co  Co17  1  0.750000  0.954547  0.430314  1
  Co  Co18  1  0.250000  0.872097  0.292558  1
  Co  Co19  1  0.250000  0.627903  0.292558  1
  Co  Co20  1  0.750000  0.128617  0.706691  1
  Co  Co21  1  0.750000  0.371383  0.706691  1
  Mo  Mo22  1  0.250000  0.250000  0.844102  1
  Mo  Mo23  1  0.750000  0.750000  0.156423  1
  P  P24  1  0.250000  0.250000  0.119590  1
  P  P25  1  0.750000  0.750000  0.882247  1
  P  P26  1  0.250000  0.250000  0.651320  1
  P  P27  1  0.750000  0.750000  0.348554  1
  P  P28  1  0.250000  0.438926  0.382918  1
  P  P29  1  0.250000  0.061074  0.382918  1
  P  P30  1  0.750000  0.560391  0.615121  1
  P  P31  1  0.750000  0.939609  0.615121  1
  P  P32  1  0.250000  0.905841  0.107425  1
  P  P33  1  0.250000  0.594159  0.107425  1
  P  P34  1  0.750000  0.095259  0.893821  1
  P  P35  1  0.750000  0.404741  0.893821  1
