# generated using pymatgen
data_La(PPt3)2
_symmetry_space_group_name_H-M   'P 1'
_cell_length_a   8.58410900
_cell_length_b   8.58410900
_cell_length_c   8.58410900
_cell_angle_alpha   90.00000000
_cell_angle_beta   90.00000000
_cell_angle_gamma   90.00000000
_symmetry_Int_Tables_number   1
_chemical_formula_structural   La(PPt3)2
_chemical_formula_sum   'La4 P8 Pt24'
_cell_volume   632.53661602
_cell_formula_units_Z   4
loop_
 _symmetry_equiv_pos_site_id
 _symmetry_equiv_pos_as_xyz
  1  'x, y, z'
loop_
 _atom_site_type_symbol
 _atom_site_label
 _atom_site_symmetry_multiplicity
 _atom_site_fract_x
 _atom_site_fract_y
 _atom_site_fract_z
 _atom_site_occupancy
  La  La0  1  0.500000  0.500000  0.000000  1
  La  La1  1  0.500000  0.000000  0.500000  1
  La  La2  1  0.000000  0.500000  0.500000  1
  La  La3  1  0.000000  0.000000  0.000000  1
  P  P4  1  0.806011  0.306011  0.193989  1
  P  P5  1  0.193989  0.806011  0.306011  1
  P  P6  1  0.693989  0.693989  0.693989  1
  P  P7  1  0.306011  0.193989  0.806011  1
  P  P8  1  0.193989  0.693989  0.806011  1
  P  P9  1  0.806011  0.193989  0.693989  1
  P  P10  1  0.306011  0.306011  0.306011  1
  P  P11  1  0.693989  0.806011  0.193989  1
  Pt  Pt12  1  0.421524  0.843269  0.157429  1
  Pt  Pt13  1  0.578476  0.343269  0.342571  1
  Pt  Pt14  1  0.078476  0.156731  0.657429  1
  Pt  Pt15  1  0.921524  0.656731  0.842571  1
  Pt  Pt16  1  0.157429  0.421524  0.843269  1
  Pt  Pt17  1  0.342571  0.578476  0.343269  1
  Pt  Pt18  1  0.657429  0.078476  0.156731  1
  Pt  Pt19  1  0.842571  0.921524  0.656731  1
  Pt  Pt20  1  0.843269  0.157429  0.421524  1
  Pt  Pt21  1  0.343269  0.342571  0.578476  1
  Pt  Pt22  1  0.156731  0.657429  0.078476  1
  Pt  Pt23  1  0.656731  0.842571  0.921524  1
  Pt  Pt24  1  0.578476  0.156731  0.842571  1
  Pt  Pt25  1  0.421524  0.656731  0.657429  1
  Pt  Pt26  1  0.921524  0.843269  0.342571  1
  Pt  Pt27  1  0.078476  0.343269  0.157429  1
  Pt  Pt28  1  0.842571  0.578476  0.156731  1
  Pt  Pt29  1  0.657429  0.421524  0.656731  1
  Pt  Pt30  1  0.342571  0.921524  0.843269  1
  Pt  Pt31  1  0.157429  0.078476  0.343269  1
  Pt  Pt32  1  0.156731  0.842571  0.578476  1
  Pt  Pt33  1  0.656731  0.657429  0.421524  1
  Pt  Pt34  1  0.843269  0.342571  0.921524  1
  Pt  Pt35  1  0.343269  0.157429  0.078476  1
