# generated using pymatgen
data_Nb8SnSbS16
_symmetry_space_group_name_H-M   'P 1'
_cell_length_a   6.67725800
_cell_length_b   6.67725845
_cell_length_c   14.00628900
_cell_angle_alpha   90.00000000
_cell_angle_beta   90.00000000
_cell_angle_gamma   120.00000767
_symmetry_Int_Tables_number   1
_chemical_formula_structural   Nb8SnSbS16
_chemical_formula_sum   'Nb8 Sn1 Sb1 S16'
_cell_volume   540.81661414
_cell_formula_units_Z   1
loop_
 _symmetry_equiv_pos_site_id
 _symmetry_equiv_pos_as_xyz
  1  'x, y, z'
loop_
 _atom_site_type_symbol
 _atom_site_label
 _atom_site_symmetry_multiplicity
 _atom_site_fract_x
 _atom_site_fract_y
 _atom_site_fract_z
 _atom_site_occupancy
  Nb  Nb0  1  0.000001  0.000000  0.253738  1
  Nb  Nb1  1  0.999999  0.000000  0.746262  1
  Nb  Nb2  1  0.504942  0.495051  0.253964  1
  Nb  Nb3  1  0.504945  0.009891  0.253965  1
  Nb  Nb4  1  0.990110  0.495052  0.253962  1
  Nb  Nb5  1  0.495058  0.504949  0.746036  1
  Nb  Nb6  1  0.495055  0.990109  0.746035  1
  Nb  Nb7  1  0.009890  0.504948  0.746038  1
  Sn  Sn8  1  0.000000  0.000000  0.000000  1
  Sb  Sb9  1  0.000000  0.000000  0.500000  1
  S  S10  1  0.333337  0.666671  0.860981  1
  S  S11  1  0.666663  0.333329  0.139019  1
  S  S12  1  0.666667  0.333335  0.368655  1
  S  S13  1  0.333333  0.666665  0.631345  1
  S  S14  1  0.169649  0.830346  0.365332  1
  S  S15  1  0.169650  0.339300  0.365332  1
  S  S16  1  0.660699  0.830348  0.365331  1
  S  S17  1  0.830351  0.169654  0.634668  1
  S  S18  1  0.830350  0.660700  0.634668  1
  S  S19  1  0.339301  0.169652  0.634669  1
  S  S20  1  0.830872  0.169128  0.857062  1
  S  S21  1  0.830871  0.661747  0.857063  1
  S  S22  1  0.338256  0.169129  0.857061  1
  S  S23  1  0.169128  0.830872  0.142938  1
  S  S24  1  0.169129  0.338253  0.142937  1
  S  S25  1  0.661744  0.830871  0.142939  1
