# generated using pymatgen
data_CsNp2O6
_symmetry_space_group_name_H-M   'P 1'
_cell_length_a   7.89645284
_cell_length_b   7.89645185
_cell_length_c   7.89645300
_cell_angle_alpha   59.99999938
_cell_angle_beta   60.00000351
_cell_angle_gamma   60.00000305
_symmetry_Int_Tables_number   1
_chemical_formula_structural   CsNp2O6
_chemical_formula_sum   'Cs2 Np4 O12'
_cell_volume   348.16179599
_cell_formula_units_Z   2
loop_
 _symmetry_equiv_pos_site_id
 _symmetry_equiv_pos_as_xyz
  1  'x, y, z'
loop_
 _atom_site_type_symbol
 _atom_site_label
 _atom_site_symmetry_multiplicity
 _atom_site_fract_x
 _atom_site_fract_y
 _atom_site_fract_z
 _atom_site_occupancy
  Cs  Cs0  1  0.250000  0.250000  0.250000  1
  Cs  Cs1  1  0.000000  0.000000  0.000000  1
  Np  Np2  1  0.625000  0.625000  0.125000  1
  Np  Np3  1  0.625000  0.125000  0.625000  1
  Np  Np4  1  0.125000  0.625000  0.625000  1
  Np  Np5  1  0.625000  0.625000  0.625000  1
  O  O6  1  0.560022  0.939978  0.939978  1
  O  O7  1  0.310022  0.689978  0.689978  1
  O  O8  1  0.939978  0.560022  0.939978  1
  O  O9  1  0.939978  0.939978  0.560022  1
  O  O10  1  0.560022  0.560022  0.939978  1
  O  O11  1  0.560022  0.939978  0.560022  1
  O  O12  1  0.939978  0.560022  0.560022  1
  O  O13  1  0.310022  0.689978  0.310022  1
  O  O14  1  0.689978  0.310022  0.689978  1
  O  O15  1  0.689978  0.689978  0.310022  1
  O  O16  1  0.310022  0.310022  0.689978  1
  O  O17  1  0.689978  0.310022  0.310022  1
