# generated using pymatgen
data_Sm2Dy2TcB12Ru
_symmetry_space_group_name_H-M   'P 1'
_cell_length_a   3.71299800
_cell_length_b   9.21418242
_cell_length_c   11.63834816
_cell_angle_alpha   89.85060610
_cell_angle_beta   90.00000000
_cell_angle_gamma   90.00000000
_symmetry_Int_Tables_number   1
_chemical_formula_structural   Sm2Dy2TcB12Ru
_chemical_formula_sum   'Sm4 Dy4 Tc2 B24 Ru2'
_cell_volume   398.17261752
_cell_formula_units_Z   2
loop_
 _symmetry_equiv_pos_site_id
 _symmetry_equiv_pos_as_xyz
  1  'x, y, z'
loop_
 _atom_site_type_symbol
 _atom_site_label
 _atom_site_symmetry_multiplicity
 _atom_site_fract_x
 _atom_site_fract_y
 _atom_site_fract_z
 _atom_site_occupancy
  Sm  Sm0  1  0.000000  0.324718  0.415157  1
  Sm  Sm1  1  0.000000  0.675282  0.584843  1
  Sm  Sm2  1  0.000000  0.821726  0.087125  1
  Sm  Sm3  1  0.000000  0.178274  0.912875  1
  Dy  Dy4  1  0.000000  0.941872  0.370098  1
  Dy  Dy5  1  0.000000  0.058128  0.629902  1
  Dy  Dy6  1  0.000000  0.443107  0.130418  1
  Dy  Dy7  1  0.000000  0.556893  0.869582  1
  Tc  Tc8  1  0.000000  0.639083  0.319428  1
  Tc  Tc9  1  0.000000  0.360917  0.680572  1
  B  B10  1  0.500000  0.554208  0.431654  1
  B  B11  1  0.500000  0.445792  0.568346  1
  B  B12  1  0.500000  0.054948  0.068487  1
  B  B13  1  0.500000  0.945052  0.931513  1
  B  B14  1  0.500000  0.748693  0.417512  1
  B  B15  1  0.500000  0.251307  0.582488  1
  B  B16  1  0.500000  0.248775  0.082504  1
  B  B17  1  0.500000  0.751225  0.917496  1
  B  B18  1  0.500000  0.790674  0.265918  1
  B  B19  1  0.500000  0.209326  0.734082  1
  B  B20  1  0.500000  0.289837  0.233586  1
  B  B21  1  0.500000  0.710163  0.766414  1
  B  B22  1  0.500000  0.630717  0.185733  1
  B  B23  1  0.500000  0.369283  0.814267  1
  B  B24  1  0.500000  0.130293  0.313474  1
  B  B25  1  0.500000  0.869707  0.686526  1
  B  B26  1  0.500000  0.984474  0.212384  1
  B  B27  1  0.500000  0.015526  0.787616  1
  B  B28  1  0.500000  0.484229  0.287144  1
  B  B29  1  0.500000  0.515771  0.712856  1
  B  B30  1  0.500000  0.601673  0.027909  1
  B  B31  1  0.500000  0.398327  0.972091  1
  B  B32  1  0.500000  0.101282  0.471869  1
  B  B33  1  0.500000  0.898718  0.528131  1
  Ru  Ru34  1  0.000000  0.138346  0.179412  1
  Ru  Ru35  1  0.000000  0.861654  0.820588  1
