# generated using pymatgen
data_ErFe2PC
_symmetry_space_group_name_H-M   'P 1'
_cell_length_a   5.47366783
_cell_length_b   5.47366923
_cell_length_c   6.65393100
_cell_angle_alpha   90.00000000
_cell_angle_beta   90.00000000
_cell_angle_gamma   141.22868951
_symmetry_Int_Tables_number   1
_chemical_formula_structural   ErFe2PC
_chemical_formula_sum   'Er2 Fe4 P2 C2'
_cell_volume   124.84113435
_cell_formula_units_Z   2
loop_
 _symmetry_equiv_pos_site_id
 _symmetry_equiv_pos_as_xyz
  1  'x, y, z'
loop_
 _atom_site_type_symbol
 _atom_site_label
 _atom_site_symmetry_multiplicity
 _atom_site_fract_x
 _atom_site_fract_y
 _atom_site_fract_z
 _atom_site_occupancy
  Er  Er0  1  0.547554  0.452446  0.250000  1
  Er  Er1  1  0.452446  0.547554  0.750000  1
  Fe  Fe2  1  0.832670  0.167330  0.057065  1
  Fe  Fe3  1  0.167330  0.832670  0.942935  1
  Fe  Fe4  1  0.167330  0.832670  0.557065  1
  Fe  Fe5  1  0.832670  0.167330  0.442935  1
  P  P6  1  0.269506  0.730494  0.250000  1
  P  P7  1  0.730494  0.269506  0.750000  1
  C  C8  1  0.000000  0.000000  0.000000  1
  C  C9  1  0.000000  0.000000  0.500000  1
