# generated using pymatgen
data_Th4PtSe3
_symmetry_space_group_name_H-M   'P 1'
_cell_length_a   7.36307552
_cell_length_b   7.36307519
_cell_length_c   7.36307600
_cell_angle_alpha   132.04752525
_cell_angle_beta   132.04751244
_cell_angle_gamma   70.15398973
_symmetry_Int_Tables_number   1
_chemical_formula_structural   Th4PtSe3
_chemical_formula_sum   'Th4 Pt1 Se3'
_cell_volume   215.77951181
_cell_formula_units_Z   1
loop_
 _symmetry_equiv_pos_site_id
 _symmetry_equiv_pos_as_xyz
  1  'x, y, z'
loop_
 _atom_site_type_symbol
 _atom_site_label
 _atom_site_symmetry_multiplicity
 _atom_site_fract_x
 _atom_site_fract_y
 _atom_site_fract_z
 _atom_site_occupancy
  Th  Th0  1  0.245300  0.245300  0.000000  1
  Th  Th1  1  0.754700  0.754700  0.000000  1
  Th  Th2  1  0.500000  0.000000  0.500000  1
  Th  Th3  1  0.000000  0.500000  0.500000  1
  Pt  Pt4  1  0.000000  0.000000  0.000000  1
  Se  Se5  1  0.750000  0.250000  0.500000  1
  Se  Se6  1  0.250000  0.750000  0.500000  1
  Se  Se7  1  0.500000  0.500000  0.000000  1
