# generated using pymatgen
data_Th5P12Ru13Rh6
_symmetry_space_group_name_H-M   'P 1'
_cell_length_a   12.73337700
_cell_length_b   12.73337679
_cell_length_c   4.00166900
_cell_angle_alpha   90.00000000
_cell_angle_beta   90.00000000
_cell_angle_gamma   119.99999796
_symmetry_Int_Tables_number   1
_chemical_formula_structural   Th5P12Ru13Rh6
_chemical_formula_sum   'Th5 P12 Ru13 Rh6'
_cell_volume   561.89994723
_cell_formula_units_Z   1
loop_
 _symmetry_equiv_pos_site_id
 _symmetry_equiv_pos_as_xyz
  1  'x, y, z'
loop_
 _atom_site_type_symbol
 _atom_site_label
 _atom_site_symmetry_multiplicity
 _atom_site_fract_x
 _atom_site_fract_y
 _atom_site_fract_z
 _atom_site_occupancy
  Th  Th0  1  0.185960  0.185734  0.500000  1
  Th  Th1  1  0.814266  0.000226  0.500000  1
  Th  Th2  1  0.999774  0.814040  0.500000  1
  Th  Th3  1  0.333333  0.666667  0.000000  1
  Th  Th4  1  0.666667  0.333333  0.000000  1
  P  P5  1  0.816302  0.813782  0.000000  1
  P  P6  1  0.186218  0.002520  0.000000  1
  P  P7  1  0.997480  0.183698  0.000000  1
  P  P8  1  0.170254  0.480461  0.500000  1
  P  P9  1  0.519539  0.689794  0.500000  1
  P  P10  1  0.310206  0.829746  0.500000  1
  P  P11  1  0.696960  0.521831  0.500000  1
  P  P12  1  0.824870  0.303040  0.500000  1
  P  P13  1  0.478169  0.175130  0.500000  1
  P  P14  1  0.373817  0.369257  0.000000  1
  P  P15  1  0.630743  0.004560  0.000000  1
  P  P16  1  0.995440  0.626183  0.000000  1
  Ru  Ru17  1  0.711253  0.712125  0.500000  1
  Ru  Ru18  1  0.287875  0.999128  0.500000  1
  Ru  Ru19  1  0.000872  0.288747  0.500000  1
  Ru  Ru20  1  0.802491  0.621116  0.000000  1
  Ru  Ru21  1  0.818625  0.197509  0.000000  1
  Ru  Ru22  1  0.378884  0.181375  0.000000  1
  Ru  Ru23  1  0.361447  0.489263  0.500000  1
  Ru  Ru24  1  0.510737  0.872184  0.500000  1
  Ru  Ru25  1  0.127816  0.638553  0.500000  1
  Ru  Ru26  1  0.876727  0.507785  0.500000  1
  Ru  Ru27  1  0.631058  0.123273  0.500000  1
  Ru  Ru28  1  0.492215  0.368942  0.500000  1
  Ru  Ru29  1  0.000000  0.000000  0.000000  1
  Rh  Rh30  1  0.548505  0.555023  0.000000  1
  Rh  Rh31  1  0.444977  0.993482  0.000000  1
  Rh  Rh32  1  0.006518  0.451495  0.000000  1
  Rh  Rh33  1  0.183342  0.374748  0.000000  1
  Rh  Rh34  1  0.625252  0.808594  0.000000  1
  Rh  Rh35  1  0.191406  0.816658  0.000000  1
