# generated using pymatgen
data_Y8Nb3Si16Mo9
_symmetry_space_group_name_H-M   'P 1'
_cell_length_a   6.80173180
_cell_length_b   7.00338608
_cell_length_c   13.03885300
_cell_angle_alpha   90.00000000
_cell_angle_beta   90.00000000
_cell_angle_gamma   89.90505774
_symmetry_Int_Tables_number   1
_chemical_formula_structural   Y8Nb3Si16Mo9
_chemical_formula_sum   'Y8 Nb3 Si16 Mo9'
_cell_volume   621.10691598
_cell_formula_units_Z   1
loop_
 _symmetry_equiv_pos_site_id
 _symmetry_equiv_pos_as_xyz
  1  'x, y, z'
loop_
 _atom_site_type_symbol
 _atom_site_label
 _atom_site_symmetry_multiplicity
 _atom_site_fract_x
 _atom_site_fract_y
 _atom_site_fract_z
 _atom_site_occupancy
  Y  Y0  1  0.497424  0.331399  0.094581  1
  Y  Y1  1  0.999739  0.168091  0.405446  1
  Y  Y2  1  0.500231  0.669158  0.594060  1
  Y  Y3  1  0.999984  0.829791  0.905827  1
  Y  Y4  1  0.500231  0.669158  0.905940  1
  Y  Y5  1  0.999984  0.829791  0.594173  1
  Y  Y6  1  0.497424  0.331399  0.405419  1
  Y  Y7  1  0.999739  0.168091  0.094554  1
  Nb  Nb8  1  0.661485  0.007455  0.750000  1
  Nb  Nb9  1  0.161456  0.492201  0.750000  1
  Nb  Nb10  1  0.338150  0.995476  0.250000  1
  Si  Si11  1  0.660940  0.043802  0.543284  1
  Si  Si12  1  0.160471  0.456173  0.957086  1
  Si  Si13  1  0.340041  0.957023  0.044693  1
  Si  Si14  1  0.839452  0.543231  0.452168  1
  Si  Si15  1  0.340041  0.957023  0.455307  1
  Si  Si16  1  0.839452  0.543231  0.047832  1
  Si  Si17  1  0.660940  0.043802  0.956716  1
  Si  Si18  1  0.160471  0.456173  0.542914  1
  Si  Si19  1  0.536969  0.372835  0.750000  1
  Si  Si20  1  0.036409  0.127590  0.750000  1
  Si  Si21  1  0.467748  0.629055  0.250000  1
  Si  Si22  1  0.961947  0.866157  0.250000  1
  Si  Si23  1  0.797011  0.625994  0.750000  1
  Si  Si24  1  0.296947  0.873631  0.750000  1
  Si  Si25  1  0.196241  0.376022  0.250000  1
  Si  Si26  1  0.703015  0.130834  0.250000  1
  Mo  Mo27  1  0.834039  0.334192  0.624232  1
  Mo  Mo28  1  0.334321  0.165679  0.874704  1
  Mo  Mo29  1  0.168716  0.664915  0.125603  1
  Mo  Mo30  1  0.668242  0.836500  0.374123  1
  Mo  Mo31  1  0.168716  0.664915  0.374397  1
  Mo  Mo32  1  0.668242  0.836500  0.125877  1
  Mo  Mo33  1  0.834039  0.334192  0.875768  1
  Mo  Mo34  1  0.334321  0.165679  0.625296  1
  Mo  Mo35  1  0.835422  0.502845  0.250000  1
