# generated using pymatgen
data_TmLu2Co8P6Os
_symmetry_space_group_name_H-M   'P 1'
_cell_length_a   3.68297500
_cell_length_b   10.45178800
_cell_length_c   12.17145300
_cell_angle_alpha   90.00000000
_cell_angle_beta   90.00000000
_cell_angle_gamma   90.00000000
_symmetry_Int_Tables_number   1
_chemical_formula_structural   TmLu2Co8P6Os
_chemical_formula_sum   'Tm2 Lu4 Co16 P12 Os2'
_cell_volume   468.52394278
_cell_formula_units_Z   2
loop_
 _symmetry_equiv_pos_site_id
 _symmetry_equiv_pos_as_xyz
  1  'x, y, z'
loop_
 _atom_site_type_symbol
 _atom_site_label
 _atom_site_symmetry_multiplicity
 _atom_site_fract_x
 _atom_site_fract_y
 _atom_site_fract_z
 _atom_site_occupancy
  Tm  Tm0  1  0.000000  0.500000  0.525212  1
  Tm  Tm1  1  0.500000  0.000000  0.474788  1
  Lu  Lu2  1  0.500000  0.817950  0.207306  1
  Lu  Lu3  1  0.500000  0.182050  0.207306  1
  Lu  Lu4  1  0.000000  0.682050  0.792694  1
  Lu  Lu5  1  0.000000  0.317950  0.792694  1
  Co  Co6  1  0.500000  0.500000  0.703593  1
  Co  Co7  1  0.000000  0.000000  0.296407  1
  Co  Co8  1  0.000000  0.500000  0.986621  1
  Co  Co9  1  0.500000  0.000000  0.013379  1
  Co  Co10  1  0.500000  0.332452  0.989462  1
  Co  Co11  1  0.500000  0.667548  0.989462  1
  Co  Co12  1  0.000000  0.167548  0.010538  1
  Co  Co13  1  0.000000  0.832452  0.010538  1
  Co  Co14  1  0.500000  0.297537  0.431119  1
  Co  Co15  1  0.500000  0.702463  0.431119  1
  Co  Co16  1  0.000000  0.202463  0.568881  1
  Co  Co17  1  0.000000  0.797537  0.568881  1
  Co  Co18  1  0.500000  0.878088  0.708398  1
  Co  Co19  1  0.500000  0.121912  0.708398  1
  Co  Co20  1  0.000000  0.621912  0.291602  1
  Co  Co21  1  0.000000  0.378088  0.291602  1
  P  P22  1  0.500000  0.500000  0.879512  1
  P  P23  1  0.000000  0.000000  0.120488  1
  P  P24  1  0.500000  0.500000  0.352313  1
  P  P25  1  0.000000  0.000000  0.647687  1
  P  P26  1  0.500000  0.313026  0.616884  1
  P  P27  1  0.500000  0.686974  0.616884  1
  P  P28  1  0.000000  0.186974  0.383116  1
  P  P29  1  0.000000  0.813026  0.383116  1
  P  P30  1  0.500000  0.845330  0.891851  1
  P  P31  1  0.500000  0.154670  0.891851  1
  P  P32  1  0.000000  0.654670  0.108149  1
  P  P33  1  0.000000  0.345330  0.108149  1
  Os  Os34  1  0.500000  0.500000  0.159214  1
  Os  Os35  1  0.000000  0.000000  0.840786  1
