# generated using pymatgen
data_Dy2Tm3Ru2
_symmetry_space_group_name_H-M   'P 1'
_cell_length_a   6.28813349
_cell_length_b   7.25750588
_cell_length_c   8.39607489
_cell_angle_alpha   96.75777042
_cell_angle_beta   111.99148613
_cell_angle_gamma   89.99999900
_symmetry_Int_Tables_number   1
_chemical_formula_structural   Dy2Tm3Ru2
_chemical_formula_sum   'Dy4 Tm6 Ru4'
_cell_volume   352.41285342
_cell_formula_units_Z   2
loop_
 _symmetry_equiv_pos_site_id
 _symmetry_equiv_pos_as_xyz
  1  'x, y, z'
loop_
 _atom_site_type_symbol
 _atom_site_label
 _atom_site_symmetry_multiplicity
 _atom_site_fract_x
 _atom_site_fract_y
 _atom_site_fract_z
 _atom_site_occupancy
  Dy  Dy0  1  0.790044  0.083776  0.812813  1
  Dy  Dy1  1  0.977231  0.416224  0.187187  1
  Dy  Dy2  1  0.209956  0.916224  0.187187  1
  Dy  Dy3  1  0.022769  0.583776  0.812813  1
  Tm  Tm4  1  0.205595  0.184378  0.565468  1
  Tm  Tm5  1  0.640127  0.315622  0.434532  1
  Tm  Tm6  1  0.794405  0.815622  0.434532  1
  Tm  Tm7  1  0.359873  0.684378  0.565468  1
  Tm  Tm8  1  0.418929  0.250000  0.000000  1
  Tm  Tm9  1  0.581071  0.750000  0.000000  1
  Ru  Ru10  1  0.601481  0.423889  0.779651  1
  Ru  Ru11  1  0.821829  0.076111  0.220349  1
  Ru  Ru12  1  0.398519  0.576111  0.220349  1
  Ru  Ru13  1  0.178171  0.923889  0.779651  1
