# generated using pymatgen
data_La3Pr3Zn4Pd12Rh
_symmetry_space_group_name_H-M   'P 1'
_cell_length_a   8.41917110
_cell_length_b   8.41917297
_cell_length_c   8.41972800
_cell_angle_alpha   109.47255608
_cell_angle_beta   109.47256059
_cell_angle_gamma   109.46988636
_symmetry_Int_Tables_number   1
_chemical_formula_structural   La3Pr3Zn4Pd12Rh
_chemical_formula_sum   'La3 Pr3 Zn4 Pd12 Rh1'
_cell_volume   459.41772833
_cell_formula_units_Z   1
loop_
 _symmetry_equiv_pos_site_id
 _symmetry_equiv_pos_as_xyz
  1  'x, y, z'
loop_
 _atom_site_type_symbol
 _atom_site_label
 _atom_site_symmetry_multiplicity
 _atom_site_fract_x
 _atom_site_fract_y
 _atom_site_fract_z
 _atom_site_occupancy
  La  La0  1  0.298840  0.298840  0.000383  1
  La  La1  1  0.701160  0.000000  0.701544  1
  La  La2  1  0.000000  0.701160  0.701544  1
  Pr  Pr3  1  0.701700  0.701700  0.000583  1
  Pr  Pr4  1  0.298300  0.000000  0.298883  1
  Pr  Pr5  1  0.000000  0.298300  0.298883  1
  Zn  Zn6  1  0.000000  0.000000  0.498223  1
  Zn  Zn7  1  0.000000  0.500865  0.000802  1
  Zn  Zn8  1  0.500865  0.000000  0.000802  1
  Zn  Zn9  1  0.499135  0.499135  0.499937  1
  Pd  Pd10  1  0.331500  0.331500  0.663171  1
  Pd  Pd11  1  0.668500  0.000000  0.331670  1
  Pd  Pd12  1  0.000000  0.668500  0.331670  1
  Pd  Pd13  1  0.668322  0.331679  0.000188  1
  Pd  Pd14  1  0.331678  0.663358  0.331866  1
  Pd  Pd15  1  0.000000  0.331880  0.668328  1
  Pd  Pd16  1  0.331679  0.668322  0.000188  1
  Pd  Pd17  1  0.331880  0.000000  0.668328  1
  Pd  Pd18  1  0.663358  0.331678  0.331866  1
  Pd  Pd19  1  0.668120  0.668120  0.336447  1
  Pd  Pd20  1  0.668321  0.336642  0.668510  1
  Pd  Pd21  1  0.336642  0.668321  0.668510  1
  Rh  Rh22  1  0.000000  0.000000  0.997673  1
