# generated using pymatgen
data_Dy4Tm4Re3OsC8
_symmetry_space_group_name_H-M   'P 1'
_cell_length_a   5.07320800
_cell_length_b   6.54467951
_cell_length_c   9.75777903
_cell_angle_alpha   89.85227576
_cell_angle_beta   90.00000000
_cell_angle_gamma   90.00000000
_symmetry_Int_Tables_number   1
_chemical_formula_structural   Dy4Tm4Re3OsC8
_chemical_formula_sum   'Dy4 Tm4 Re3 Os1 C8'
_cell_volume   323.98178062
_cell_formula_units_Z   1
loop_
 _symmetry_equiv_pos_site_id
 _symmetry_equiv_pos_as_xyz
  1  'x, y, z'
loop_
 _atom_site_type_symbol
 _atom_site_label
 _atom_site_symmetry_multiplicity
 _atom_site_fract_x
 _atom_site_fract_y
 _atom_site_fract_z
 _atom_site_occupancy
  Dy  Dy0  1  0.250000  0.531787  0.215928  1
  Dy  Dy1  1  0.750000  0.466616  0.784891  1
  Dy  Dy2  1  0.750000  0.968957  0.713170  1
  Dy  Dy3  1  0.250000  0.031858  0.285185  1
  Tm  Tm4  1  0.250000  0.673902  0.555823  1
  Tm  Tm5  1  0.750000  0.323084  0.443138  1
  Tm  Tm6  1  0.750000  0.823512  0.056999  1
  Tm  Tm7  1  0.250000  0.176444  0.943080  1
  Re  Re8  1  0.250000  0.721632  0.865865  1
  Re  Re9  1  0.750000  0.278727  0.132463  1
  Re  Re10  1  0.750000  0.777863  0.367105  1
  Os  Os11  1  0.250000  0.222369  0.634351  1
  C  C12  1  0.250000  0.454853  0.760004  1
  C  C13  1  0.750000  0.545779  0.239809  1
  C  C14  1  0.750000  0.045910  0.260091  1
  C  C15  1  0.250000  0.955332  0.741139  1
  C  C16  1  0.250000  0.827426  0.050717  1
  C  C17  1  0.750000  0.172739  0.947757  1
  C  C18  1  0.750000  0.672719  0.552473  1
  C  C19  1  0.250000  0.328494  0.450010  1
