# generated using pymatgen
data_Ti11V8Si16Ir
_symmetry_space_group_name_H-M   'P 1'
_cell_length_a   6.52833032
_cell_length_b   6.52833080
_cell_length_c   12.01904393
_cell_angle_alpha   89.76551555
_cell_angle_beta   90.23448321
_cell_angle_gamma   89.66878406
_symmetry_Int_Tables_number   1
_chemical_formula_structural   Ti11V8Si16Ir
_chemical_formula_sum   'Ti11 V8 Si16 Ir1'
_cell_volume   512.22364616
_cell_formula_units_Z   1
loop_
 _symmetry_equiv_pos_site_id
 _symmetry_equiv_pos_as_xyz
  1  'x, y, z'
loop_
 _atom_site_type_symbol
 _atom_site_label
 _atom_site_symmetry_multiplicity
 _atom_site_fract_x
 _atom_site_fract_y
 _atom_site_fract_z
 _atom_site_occupancy
  Ti  Ti0  1  0.002609  0.343225  0.220066  1
  Ti  Ti1  1  0.160204  0.502744  0.469436  1
  Ti  Ti2  1  0.835505  0.497164  0.969770  1
  Ti  Ti3  1  0.502744  0.160204  0.530564  1
  Ti  Ti4  1  0.497164  0.835505  0.030230  1
  Ti  Ti5  1  0.998272  0.659510  0.720812  1
  Ti  Ti6  1  0.343225  0.002609  0.779934  1
  Ti  Ti7  1  0.659510  0.998272  0.279188  1
  Ti  Ti8  1  0.332543  0.667059  0.248079  1
  Ti  Ti9  1  0.667059  0.332543  0.751921  1
  Ti  Ti10  1  0.834327  0.834327  0.500000  1
  V  V11  1  0.995164  0.153650  0.623361  1
  V  V12  1  0.347209  0.501608  0.869532  1
  V  V13  1  0.653809  0.505735  0.371614  1
  V  V14  1  0.501608  0.347209  0.130468  1
  V  V15  1  0.505735  0.653809  0.628386  1
  V  V16  1  0.003804  0.835574  0.120688  1
  V  V17  1  0.153650  0.995164  0.376639  1
  V  V18  1  0.835574  0.003804  0.879312  1
  Si  Si19  1  0.043910  0.294968  0.816241  1
  Si  Si20  1  0.207442  0.538770  0.059411  1
  Si  Si21  1  0.798688  0.457591  0.563233  1
  Si  Si22  1  0.538770  0.207442  0.940589  1
  Si  Si23  1  0.457591  0.798688  0.436767  1
  Si  Si24  1  0.958323  0.702693  0.312994  1
  Si  Si25  1  0.294968  0.043910  0.183759  1
  Si  Si26  1  0.702693  0.958323  0.687006  1
  Si  Si27  1  0.290196  0.365599  0.673535  1
  Si  Si28  1  0.128829  0.793258  0.923010  1
  Si  Si29  1  0.866743  0.208807  0.423379  1
  Si  Si30  1  0.793258  0.128829  0.076990  1
  Si  Si31  1  0.208807  0.866743  0.576621  1
  Si  Si32  1  0.709445  0.633875  0.173280  1
  Si  Si33  1  0.365599  0.290196  0.326465  1
  Si  Si34  1  0.633875  0.709445  0.826720  1
  Ir  Ir35  1  0.171150  0.171150  0.000000  1
