# generated using pymatgen
data_Dy8HoEr3In20
_symmetry_space_group_name_H-M   'P 1'
_cell_length_a   6.52662432
_cell_length_b   10.42816300
_cell_length_c   12.28214100
_cell_angle_alpha   90.00000000
_cell_angle_beta   90.01807550
_cell_angle_gamma   90.00000000
_symmetry_Int_Tables_number   1
_chemical_formula_structural   Dy8HoEr3In20
_chemical_formula_sum   'Dy8 Ho1 Er3 In20'
_cell_volume   835.93110059
_cell_formula_units_Z   1
loop_
 _symmetry_equiv_pos_site_id
 _symmetry_equiv_pos_as_xyz
  1  'x, y, z'
loop_
 _atom_site_type_symbol
 _atom_site_label
 _atom_site_symmetry_multiplicity
 _atom_site_fract_x
 _atom_site_fract_y
 _atom_site_fract_z
 _atom_site_occupancy
  Dy  Dy0  1  0.890038  0.492151  0.141885  1
  Dy  Dy1  1  0.609785  0.007509  0.642080  1
  Dy  Dy2  1  0.110110  0.991853  0.858316  1
  Dy  Dy3  1  0.389802  0.507465  0.358158  1
  Dy  Dy4  1  0.110110  0.508147  0.858316  1
  Dy  Dy5  1  0.389802  0.992535  0.358158  1
  Dy  Dy6  1  0.890038  0.007849  0.141885  1
  Dy  Dy7  1  0.609785  0.492491  0.642080  1
  Ho  Ho8  1  0.850723  0.250000  0.444138  1
  Er  Er9  1  0.350181  0.750000  0.055242  1
  Er  Er10  1  0.149704  0.750000  0.555462  1
  Er  Er11  1  0.649809  0.250000  0.944745  1
  In  In12  1  0.614015  0.750000  0.505041  1
  In  In13  1  0.885400  0.750000  0.005474  1
  In  In14  1  0.384939  0.250000  0.495239  1
  In  In15  1  0.114712  0.250000  0.994181  1
  In  In16  1  0.651213  0.750000  0.244077  1
  In  In17  1  0.848677  0.750000  0.744428  1
  In  In18  1  0.348725  0.250000  0.756026  1
  In  In19  1  0.152559  0.250000  0.255083  1
  In  In20  1  0.124240  0.750000  0.282638  1
  In  In21  1  0.376296  0.750000  0.782785  1
  In  In22  1  0.875979  0.250000  0.717559  1
  In  In23  1  0.623925  0.250000  0.216493  1
  In  In24  1  0.874596  0.544206  0.401128  1
  In  In25  1  0.625446  0.956352  0.901225  1
  In  In26  1  0.125100  0.043603  0.599267  1
  In  In27  1  0.374576  0.456476  0.098634  1
  In  In28  1  0.125100  0.456397  0.599267  1
  In  In29  1  0.374576  0.043524  0.098634  1
  In  In30  1  0.874596  0.955794  0.401128  1
  In  In31  1  0.625446  0.543648  0.901225  1
