# generated using pymatgen
data_Ho3Zn2GaSi2Pt
_symmetry_space_group_name_H-M   'P 1'
_cell_length_a   6.87155000
_cell_length_b   6.81227356
_cell_length_c   4.24505900
_cell_angle_alpha   90.00000000
_cell_angle_beta   90.00000000
_cell_angle_gamma   119.71504926
_symmetry_Int_Tables_number   1
_chemical_formula_structural   Ho3Zn2GaSi2Pt
_chemical_formula_sum   'Ho3 Zn2 Ga1 Si2 Pt1'
_cell_volume   172.58419362
_cell_formula_units_Z   1
loop_
 _symmetry_equiv_pos_site_id
 _symmetry_equiv_pos_as_xyz
  1  'x, y, z'
loop_
 _atom_site_type_symbol
 _atom_site_label
 _atom_site_symmetry_multiplicity
 _atom_site_fract_x
 _atom_site_fract_y
 _atom_site_fract_z
 _atom_site_occupancy
  Ho  Ho0  1  0.420272  0.003540  0.000000  1
  Ho  Ho1  1  0.000000  0.413787  0.000000  1
  Ho  Ho2  1  0.579727  0.583269  0.000000  1
  Zn  Zn3  1  0.758356  0.001946  0.500001  1
  Zn  Zn4  1  0.241645  0.243591  0.500001  1
  Ga  Ga5  1  0.000000  0.762432  0.500001  1
  Si  Si6  1  0.668235  0.334833  0.500001  1
  Si  Si7  1  0.331765  0.666598  0.500001  1
  Pt  Pt8  1  0.000000  0.990009  0.000000  1
