# generated using pymatgen
data_LuScOsC2
_symmetry_space_group_name_H-M   'P 1'
_cell_length_a   4.88598900
_cell_length_b   6.37727400
_cell_length_c   9.36631800
_cell_angle_alpha   90.00000000
_cell_angle_beta   90.00000000
_cell_angle_gamma   90.00000000
_symmetry_Int_Tables_number   1
_chemical_formula_structural   LuScOsC2
_chemical_formula_sum   'Lu4 Sc4 Os4 C8'
_cell_volume   291.84782455
_cell_formula_units_Z   4
loop_
 _symmetry_equiv_pos_site_id
 _symmetry_equiv_pos_as_xyz
  1  'x, y, z'
loop_
 _atom_site_type_symbol
 _atom_site_label
 _atom_site_symmetry_multiplicity
 _atom_site_fract_x
 _atom_site_fract_y
 _atom_site_fract_z
 _atom_site_occupancy
  Lu  Lu0  1  0.250000  0.465352  0.212326  1
  Lu  Lu1  1  0.250000  0.965352  0.287674  1
  Lu  Lu2  1  0.750000  0.534648  0.787674  1
  Lu  Lu3  1  0.750000  0.034648  0.712326  1
  Sc  Sc4  1  0.250000  0.837296  0.942597  1
  Sc  Sc5  1  0.250000  0.337296  0.557403  1
  Sc  Sc6  1  0.750000  0.162704  0.057403  1
  Sc  Sc7  1  0.750000  0.662704  0.442597  1
  Os  Os8  1  0.250000  0.282873  0.869250  1
  Os  Os9  1  0.250000  0.782873  0.630750  1
  Os  Os10  1  0.750000  0.717127  0.130750  1
  Os  Os11  1  0.750000  0.217127  0.369250  1
  C  C12  1  0.250000  0.050903  0.738579  1
  C  C13  1  0.250000  0.550903  0.761421  1
  C  C14  1  0.750000  0.949097  0.261421  1
  C  C15  1  0.750000  0.449097  0.238579  1
  C  C16  1  0.250000  0.660376  0.439651  1
  C  C17  1  0.250000  0.160376  0.060349  1
  C  C18  1  0.750000  0.339624  0.560349  1
  C  C19  1  0.750000  0.839624  0.939651  1
