# generated using pymatgen
data_Sm6CoNi15(P6W)2
_symmetry_space_group_name_H-M   'P 1'
_cell_length_a   3.80913400
_cell_length_b   10.74107600
_cell_length_c   12.41246500
_cell_angle_alpha   90.00000000
_cell_angle_beta   90.00000000
_cell_angle_gamma   90.00000000
_symmetry_Int_Tables_number   1
_chemical_formula_structural   Sm6CoNi15(P6W)2
_chemical_formula_sum   'Sm6 Co1 Ni15 P12 W2'
_cell_volume   507.84604805
_cell_formula_units_Z   1
loop_
 _symmetry_equiv_pos_site_id
 _symmetry_equiv_pos_as_xyz
  1  'x, y, z'
loop_
 _atom_site_type_symbol
 _atom_site_label
 _atom_site_symmetry_multiplicity
 _atom_site_fract_x
 _atom_site_fract_y
 _atom_site_fract_z
 _atom_site_occupancy
  Sm  Sm0  1  0.000000  0.500000  0.522235  1
  Sm  Sm1  1  0.500000  0.000000  0.477455  1
  Sm  Sm2  1  0.500000  0.818095  0.206364  1
  Sm  Sm3  1  0.500000  0.181905  0.206364  1
  Sm  Sm4  1  0.000000  0.682555  0.793048  1
  Sm  Sm5  1  0.000000  0.317445  0.793048  1
  Co  Co6  1  0.500000  0.000000  0.014579  1
  Ni  Ni7  1  0.500000  0.500000  0.700560  1
  Ni  Ni8  1  0.000000  0.000000  0.298609  1
  Ni  Ni9  1  0.000000  0.500000  0.984793  1
  Ni  Ni10  1  0.500000  0.331690  0.988323  1
  Ni  Ni11  1  0.500000  0.668310  0.988323  1
  Ni  Ni12  1  0.000000  0.165887  0.011704  1
  Ni  Ni13  1  0.000000  0.834113  0.011704  1
  Ni  Ni14  1  0.500000  0.302131  0.426216  1
  Ni  Ni15  1  0.500000  0.697869  0.426216  1
  Ni  Ni16  1  0.000000  0.197731  0.574033  1
  Ni  Ni17  1  0.000000  0.802269  0.574033  1
  Ni  Ni18  1  0.500000  0.881374  0.712313  1
  Ni  Ni19  1  0.500000  0.118626  0.712313  1
  Ni  Ni20  1  0.000000  0.618900  0.288138  1
  Ni  Ni21  1  0.000000  0.381100  0.288138  1
  P  P22  1  0.500000  0.500000  0.879848  1
  P  P23  1  0.000000  0.000000  0.119209  1
  P  P24  1  0.500000  0.500000  0.345029  1
  P  P25  1  0.000000  0.000000  0.655094  1
  P  P26  1  0.500000  0.311817  0.612676  1
  P  P27  1  0.500000  0.688183  0.612676  1
  P  P28  1  0.000000  0.187960  0.387337  1
  P  P29  1  0.000000  0.812040  0.387337  1
  P  P30  1  0.500000  0.847279  0.895568  1
  P  P31  1  0.500000  0.152721  0.895568  1
  P  P32  1  0.000000  0.653702  0.105512  1
  P  P33  1  0.000000  0.346298  0.105512  1
  W  W34  1  0.500000  0.500000  0.150546  1
  W  W35  1  0.000000  0.000000  0.849579  1
