# generated using pymatgen
data_La2Nd4Cd23As
_symmetry_space_group_name_H-M   'P 1'
_cell_length_a   10.11620567
_cell_length_b   10.12351442
_cell_length_c   10.12351496
_cell_angle_alpha   59.94668370
_cell_angle_beta   60.02387819
_cell_angle_gamma   60.02388145
_symmetry_Int_Tables_number   1
_chemical_formula_structural   La2Nd4Cd23As
_chemical_formula_sum   'La2 Nd4 Cd23 As1'
_cell_volume   733.07181674
_cell_formula_units_Z   1
loop_
 _symmetry_equiv_pos_site_id
 _symmetry_equiv_pos_as_xyz
  1  'x, y, z'
loop_
 _atom_site_type_symbol
 _atom_site_label
 _atom_site_symmetry_multiplicity
 _atom_site_fract_x
 _atom_site_fract_y
 _atom_site_fract_z
 _atom_site_occupancy
  La  La0  1  0.791796  0.792271  0.207729  1
  La  La1  1  0.208204  0.792271  0.207729  1
  Nd  Nd2  1  0.792763  0.207663  0.206811  1
  Nd  Nd3  1  0.207298  0.207697  0.792303  1
  Nd  Nd4  1  0.792702  0.207697  0.792303  1
  Nd  Nd5  1  0.207237  0.793189  0.792337  1
  Cd  Cd6  1  0.832770  0.833732  0.500729  1
  Cd  Cd7  1  0.833811  0.498731  0.833647  1
  Cd  Cd8  1  0.499743  0.833851  0.832723  1
  Cd  Cd9  1  0.833684  0.833851  0.832723  1
  Cd  Cd10  1  0.166189  0.166353  0.501269  1
  Cd  Cd11  1  0.167230  0.499271  0.166268  1
  Cd  Cd12  1  0.500257  0.167277  0.166149  1
  Cd  Cd13  1  0.166316  0.167277  0.166149  1
  Cd  Cd14  1  0.622478  0.620837  0.134207  1
  Cd  Cd15  1  0.621746  0.134687  0.621821  1
  Cd  Cd16  1  0.134441  0.621253  0.622977  1
  Cd  Cd17  1  0.621328  0.621253  0.622977  1
  Cd  Cd18  1  0.378254  0.378179  0.865313  1
  Cd  Cd19  1  0.377522  0.865793  0.379163  1
  Cd  Cd20  1  0.865559  0.377023  0.378747  1
  Cd  Cd21  1  0.378672  0.377023  0.378747  1
  Cd  Cd22  1  0.999770  0.000481  0.500119  1
  Cd  Cd23  1  0.499630  0.000481  0.500119  1
  Cd  Cd24  1  0.000000  0.499525  0.500475  1
  Cd  Cd25  1  0.500370  0.499881  0.999519  1
  Cd  Cd26  1  0.000230  0.499881  0.999519  1
  Cd  Cd27  1  0.500000  0.000703  0.999297  1
  Cd  Cd28  1  0.500000  0.499966  0.500034  1
  As  As29  1  0.000000  0.001902  0.998098  1
