# generated using pymatgen
data_Hf7Nb5(Ga5Sb)2
_symmetry_space_group_name_H-M   'P 1'
_cell_length_a   5.56447600
_cell_length_b   8.50538252
_cell_length_c   9.23826463
_cell_angle_alpha   89.90562580
_cell_angle_beta   90.00000000
_cell_angle_gamma   90.00000000
_symmetry_Int_Tables_number   1
_chemical_formula_structural   Hf7Nb5(Ga5Sb)2
_chemical_formula_sum   'Hf7 Nb5 Ga10 Sb2'
_cell_volume   437.22796634
_cell_formula_units_Z   1
loop_
 _symmetry_equiv_pos_site_id
 _symmetry_equiv_pos_as_xyz
  1  'x, y, z'
loop_
 _atom_site_type_symbol
 _atom_site_label
 _atom_site_symmetry_multiplicity
 _atom_site_fract_x
 _atom_site_fract_y
 _atom_site_fract_z
 _atom_site_occupancy
  Hf  Hf0  1  0.250000  0.529584  0.373456  1
  Hf  Hf1  1  0.750000  0.968978  0.387005  1
  Hf  Hf2  1  0.250000  0.026279  0.623421  1
  Hf  Hf3  1  0.750000  0.372621  0.190895  1
  Hf  Hf4  1  0.250000  0.633430  0.815777  1
  Hf  Hf5  1  0.750000  0.876655  0.804555  1
  Hf  Hf6  1  0.250000  0.132691  0.189315  1
  Nb  Nb7  1  0.006355  0.746117  0.114742  1
  Nb  Nb8  1  0.493009  0.247725  0.884436  1
  Nb  Nb9  1  0.006991  0.247725  0.884436  1
  Nb  Nb10  1  0.493645  0.746117  0.114742  1
  Nb  Nb11  1  0.750000  0.470652  0.614452  1
  Ga  Ga12  1  0.000600  0.744977  0.572547  1
  Ga  Ga13  1  0.500165  0.251790  0.430416  1
  Ga  Ga14  1  0.999835  0.251790  0.430416  1
  Ga  Ga15  1  0.499400  0.744977  0.572547  1
  Ga  Ga16  1  0.250000  0.951311  0.920761  1
  Ga  Ga17  1  0.250000  0.449004  0.080356  1
  Ga  Ga18  1  0.750000  0.145193  0.649363  1
  Ga  Ga19  1  0.250000  0.865309  0.350556  1
  Ga  Ga20  1  0.750000  0.636404  0.350999  1
  Ga  Ga21  1  0.250000  0.368022  0.649133  1
  Sb  Sb22  1  0.750000  0.045500  0.080397  1
  Sb  Sb23  1  0.750000  0.547150  0.915276  1
