# generated using pymatgen
data_Dy2Lu2Ta5TiSi8
_symmetry_space_group_name_H-M   'P 1'
_cell_length_a   7.02164815
_cell_length_b   7.02110630
_cell_length_c   12.91127007
_cell_angle_alpha   89.95517908
_cell_angle_beta   90.05190125
_cell_angle_gamma   90.03043651
_symmetry_Int_Tables_number   1
_chemical_formula_structural   Dy2Lu2Ta5TiSi8
_chemical_formula_sum   'Dy4 Lu4 Ta10 Ti2 Si16'
_cell_volume   636.52168742
_cell_formula_units_Z   2
loop_
 _symmetry_equiv_pos_site_id
 _symmetry_equiv_pos_as_xyz
  1  'x, y, z'
loop_
 _atom_site_type_symbol
 _atom_site_label
 _atom_site_symmetry_multiplicity
 _atom_site_fract_x
 _atom_site_fract_y
 _atom_site_fract_z
 _atom_site_occupancy
  Dy  Dy0  1  0.841400  0.497791  0.281645  1
  Dy  Dy1  1  0.503327  0.159400  0.217338  1
  Dy  Dy2  1  0.497763  0.841018  0.718613  1
  Dy  Dy3  1  0.340720  0.002019  0.468455  1
  Lu  Lu4  1  0.999724  0.657777  0.031923  1
  Lu  Lu5  1  0.000948  0.341781  0.531985  1
  Lu  Lu6  1  0.657722  0.999478  0.967629  1
  Lu  Lu7  1  0.158704  0.502058  0.782377  1
  Ta  Ta8  1  0.345939  0.507513  0.376424  1
  Ta  Ta9  1  0.847746  0.992170  0.374571  1
  Ta  Ta10  1  0.007778  0.152202  0.125694  1
  Ta  Ta11  1  0.993066  0.847396  0.626352  1
  Ta  Ta12  1  0.508359  0.346877  0.624563  1
  Ta  Ta13  1  0.151842  0.008118  0.873747  1
  Ta  Ta14  1  0.672329  0.671667  0.500344  1
  Ta  Ta15  1  0.829519  0.170825  0.750398  1
  Ta  Ta16  1  0.170147  0.829093  0.249491  1
  Ta  Ta17  1  0.326352  0.326749  0.999582  1
  Ti  Ti18  1  0.493324  0.652994  0.123063  1
  Ti  Ti19  1  0.652638  0.493764  0.876356  1
  Si  Si20  1  0.045251  0.703573  0.436684  1
  Si  Si21  1  0.952860  0.297677  0.935535  1
  Si  Si22  1  0.706201  0.046128  0.564094  1
  Si  Si23  1  0.207073  0.456670  0.184425  1
  Si  Si24  1  0.796730  0.544379  0.687460  1
  Si  Si25  1  0.455386  0.207937  0.815468  1
  Si  Si26  1  0.545284  0.793500  0.312376  1
  Si  Si27  1  0.296218  0.951530  0.063458  1
  Si  Si28  1  0.794991  0.863856  0.179269  1
  Si  Si29  1  0.294532  0.632092  0.569750  1
  Si  Si30  1  0.703174  0.368373  0.066236  1
  Si  Si31  1  0.634919  0.296364  0.431755  1
  Si  Si32  1  0.366411  0.701583  0.932210  1
  Si  Si33  1  0.133399  0.205156  0.318427  1
  Si  Si34  1  0.203263  0.136853  0.681465  1
  Si  Si35  1  0.864966  0.793642  0.820837  1
