# generated using pymatgen
data_Nd8Be(Si4Au)3
_symmetry_space_group_name_H-M   'P 1'
_cell_length_a   8.21683200
_cell_length_b   8.21682702
_cell_length_c   8.62427800
_cell_angle_alpha   89.99986367
_cell_angle_beta   90.00001428
_cell_angle_gamma   119.99982475
_symmetry_Int_Tables_number   1
_chemical_formula_structural   Nd8Be(Si4Au)3
_chemical_formula_sum   'Nd8 Be1 Si12 Au3'
_cell_volume   504.26949575
_cell_formula_units_Z   1
loop_
 _symmetry_equiv_pos_site_id
 _symmetry_equiv_pos_as_xyz
  1  'x, y, z'
loop_
 _atom_site_type_symbol
 _atom_site_label
 _atom_site_symmetry_multiplicity
 _atom_site_fract_x
 _atom_site_fract_y
 _atom_site_fract_z
 _atom_site_occupancy
  Nd  Nd0  1  0.000001  0.000000  0.752266  1
  Nd  Nd1  1  0.000001  0.000001  0.247726  1
  Nd  Nd2  1  0.496970  0.503027  0.754513  1
  Nd  Nd3  1  0.496973  0.993944  0.754513  1
  Nd  Nd4  1  0.006058  0.503027  0.754514  1
  Nd  Nd5  1  0.498533  0.501466  0.245533  1
  Nd  Nd6  1  0.002932  0.501465  0.245534  1
  Nd  Nd7  1  0.498533  0.997068  0.245534  1
  Be  Be8  1  0.333330  0.666668  0.001940  1
  Si  Si9  1  0.836811  0.163189  0.999269  1
  Si  Si10  1  0.836811  0.673622  0.999269  1
  Si  Si11  1  0.326378  0.163189  0.999269  1
  Si  Si12  1  0.835713  0.164286  0.500662  1
  Si  Si13  1  0.835713  0.671427  0.500661  1
  Si  Si14  1  0.328573  0.164286  0.500662  1
  Si  Si15  1  0.163287  0.836714  0.499375  1
  Si  Si16  1  0.673428  0.836714  0.499375  1
  Si  Si17  1  0.163286  0.326572  0.499375  1
  Si  Si18  1  0.172862  0.827139  0.001014  1
  Si  Si19  1  0.654277  0.827138  0.001016  1
  Si  Si20  1  0.172862  0.345724  0.001015  1
  Au  Au21  1  0.666667  0.333333  0.997170  1
  Au  Au22  1  0.666667  0.333333  0.502505  1
  Au  Au23  1  0.333334  0.666666  0.497288  1
