# generated using pymatgen
data_Yb2Os3Ru
_symmetry_space_group_name_H-M   'P 1'
_cell_length_a   5.22521354
_cell_length_b   5.22521355
_cell_length_c   8.94819500
_cell_angle_alpha   90.00000000
_cell_angle_beta   90.00000000
_cell_angle_gamma   119.99614148
_symmetry_Int_Tables_number   1
_chemical_formula_structural   Yb2Os3Ru
_chemical_formula_sum   'Yb4 Os6 Ru2'
_cell_volume   211.58800502
_cell_formula_units_Z   2
loop_
 _symmetry_equiv_pos_site_id
 _symmetry_equiv_pos_as_xyz
  1  'x, y, z'
loop_
 _atom_site_type_symbol
 _atom_site_label
 _atom_site_symmetry_multiplicity
 _atom_site_fract_x
 _atom_site_fract_y
 _atom_site_fract_z
 _atom_site_occupancy
  Yb  Yb0  1  0.666671  0.333329  0.564094  1
  Yb  Yb1  1  0.333329  0.666671  0.435906  1
  Yb  Yb2  1  0.333329  0.666671  0.064094  1
  Yb  Yb3  1  0.666671  0.333329  0.935906  1
  Os  Os4  1  0.171592  0.343234  0.750000  1
  Os  Os5  1  0.171572  0.828428  0.750000  1
  Os  Os6  1  0.656766  0.828408  0.750000  1
  Os  Os7  1  0.828408  0.656766  0.250000  1
  Os  Os8  1  0.828428  0.171572  0.250000  1
  Os  Os9  1  0.343234  0.171592  0.250000  1
  Ru  Ru10  1  0.000000  0.000000  0.500000  1
  Ru  Ru11  1  0.000000  0.000000  0.000000  1
