# generated using pymatgen
data_Sm8Si13Rh3
_symmetry_space_group_name_H-M   'P 1'
_cell_length_a   8.19143100
_cell_length_b   8.19143046
_cell_length_c   8.28607000
_cell_angle_alpha   90.00000000
_cell_angle_beta   90.00000000
_cell_angle_gamma   119.99999816
_symmetry_Int_Tables_number   1
_chemical_formula_structural   Sm8Si13Rh3
_chemical_formula_sum   'Sm8 Si13 Rh3'
_cell_volume   481.50274073
_cell_formula_units_Z   1
loop_
 _symmetry_equiv_pos_site_id
 _symmetry_equiv_pos_as_xyz
  1  'x, y, z'
loop_
 _atom_site_type_symbol
 _atom_site_label
 _atom_site_symmetry_multiplicity
 _atom_site_fract_x
 _atom_site_fract_y
 _atom_site_fract_z
 _atom_site_occupancy
  Sm  Sm0  1  0.000000  0.000000  0.748434  1
  Sm  Sm1  1  0.000000  0.000000  0.251899  1
  Sm  Sm2  1  0.499718  0.500282  0.748070  1
  Sm  Sm3  1  0.499718  0.999437  0.748070  1
  Sm  Sm4  1  0.000563  0.500282  0.748070  1
  Sm  Sm5  1  0.500765  0.499235  0.251795  1
  Sm  Sm6  1  0.998470  0.499235  0.251795  1
  Sm  Sm7  1  0.500765  0.001530  0.251795  1
  Si  Si8  1  0.666667  0.333333  0.997736  1
  Si  Si9  1  0.836691  0.163309  0.000148  1
  Si  Si10  1  0.836691  0.673383  0.000148  1
  Si  Si11  1  0.326617  0.163309  0.000148  1
  Si  Si12  1  0.832693  0.167307  0.500521  1
  Si  Si13  1  0.832693  0.665387  0.500521  1
  Si  Si14  1  0.334613  0.167307  0.500521  1
  Si  Si15  1  0.167502  0.832498  0.499513  1
  Si  Si16  1  0.664995  0.832498  0.499513  1
  Si  Si17  1  0.167502  0.335005  0.499513  1
  Si  Si18  1  0.169378  0.830622  0.000184  1
  Si  Si19  1  0.661246  0.830622  0.000184  1
  Si  Si20  1  0.169378  0.338754  0.000184  1
  Rh  Rh21  1  0.666667  0.333333  0.500314  1
  Rh  Rh22  1  0.333333  0.666667  0.499217  1
  Rh  Rh23  1  0.333333  0.666667  0.001710  1
