# generated using pymatgen
data_DyY2ZnIn3AgRu
_symmetry_space_group_name_H-M   'P 1'
_cell_length_a   7.72922000
_cell_length_b   7.74205725
_cell_length_c   3.89865500
_cell_angle_alpha   90.00000000
_cell_angle_beta   90.00000000
_cell_angle_gamma   120.14196815
_symmetry_Int_Tables_number   1
_chemical_formula_structural   DyY2ZnIn3AgRu
_chemical_formula_sum   'Dy1 Y2 Zn1 In3 Ag1 Ru1'
_cell_volume   201.75040644
_cell_formula_units_Z   1
loop_
 _symmetry_equiv_pos_site_id
 _symmetry_equiv_pos_as_xyz
  1  'x, y, z'
loop_
 _atom_site_type_symbol
 _atom_site_label
 _atom_site_symmetry_multiplicity
 _atom_site_fract_x
 _atom_site_fract_y
 _atom_site_fract_z
 _atom_site_occupancy
  Dy  Dy0  1  0.030061  0.420291  0.000000  1
  Y  Y1  1  0.581345  0.609787  0.000000  1
  Y  Y2  1  0.390498  0.971582  0.000000  1
  Zn  Zn3  1  0.000026  0.000372  0.000000  1
  In  In4  1  0.999545  0.738482  0.500000  1
  In  In5  1  0.261471  0.261130  0.500000  1
  In  In6  1  0.738804  0.000548  0.500000  1
  Ag  Ag7  1  0.667324  0.333280  0.500000  1
  Ru  Ru8  1  0.330926  0.664529  0.500000  1
