# generated using pymatgen
data_CrFe4Mo(P2Ru)2
_symmetry_space_group_name_H-M   'P 1'
_cell_length_a   3.68569200
_cell_length_b   5.80524195
_cell_length_c   6.60071954
_cell_angle_alpha   90.09920984
_cell_angle_beta   90.00000000
_cell_angle_gamma   90.00000000
_symmetry_Int_Tables_number   1
_chemical_formula_structural   CrFe4Mo(P2Ru)2
_chemical_formula_sum   'Cr1 Fe4 Mo1 P4 Ru2'
_cell_volume   141.23098693
_cell_formula_units_Z   1
loop_
 _symmetry_equiv_pos_site_id
 _symmetry_equiv_pos_as_xyz
  1  'x, y, z'
loop_
 _atom_site_type_symbol
 _atom_site_label
 _atom_site_symmetry_multiplicity
 _atom_site_fract_x
 _atom_site_fract_y
 _atom_site_fract_z
 _atom_site_occupancy
  Cr  Cr0  1  0.250000  0.523569  0.671988  1
  Fe  Fe1  1  0.250000  0.640674  0.064485  1
  Fe  Fe2  1  0.750000  0.359669  0.931398  1
  Fe  Fe3  1  0.250000  0.143022  0.436068  1
  Fe  Fe4  1  0.750000  0.859711  0.563295  1
  Mo  Mo5  1  0.750000  0.975304  0.168931  1
  P  P6  1  0.250000  0.270450  0.117333  1
  P  P7  1  0.750000  0.733704  0.878010  1
  P  P8  1  0.250000  0.765789  0.380738  1
  P  P9  1  0.750000  0.231897  0.621224  1
  Ru  Ru10  1  0.250000  0.028552  0.832547  1
  Ru  Ru11  1  0.750000  0.467660  0.333983  1
