# generated using pymatgen
data_Pr3Er2Cr3(P3Ir4)4
_symmetry_space_group_name_H-M   'P 1'
_cell_length_a   12.61606900
_cell_length_b   12.61606817
_cell_length_c   4.02577200
_cell_angle_alpha   90.00000000
_cell_angle_beta   90.00000000
_cell_angle_gamma   120.00000480
_symmetry_Int_Tables_number   1
_chemical_formula_structural   Pr3Er2Cr3(P3Ir4)4
_chemical_formula_sum   'Pr3 Er2 Cr3 P12 Ir16'
_cell_volume   554.91679350
_cell_formula_units_Z   1
loop_
 _symmetry_equiv_pos_site_id
 _symmetry_equiv_pos_as_xyz
  1  'x, y, z'
loop_
 _atom_site_type_symbol
 _atom_site_label
 _atom_site_symmetry_multiplicity
 _atom_site_fract_x
 _atom_site_fract_y
 _atom_site_fract_z
 _atom_site_occupancy
  Pr  Pr0  1  0.816749  0.816749  0.500000  1
  Pr  Pr1  1  0.183251  0.000000  0.500000  1
  Pr  Pr2  1  0.000000  0.183251  0.500000  1
  Er  Er3  1  0.666667  0.333333  0.000000  1
  Er  Er4  1  0.333333  0.666667  0.000000  1
  Cr  Cr5  1  0.295795  0.295795  0.500000  1
  Cr  Cr6  1  0.704205  0.000000  0.500000  1
  Cr  Cr7  1  0.000000  0.704205  0.500000  1
  P  P8  1  0.691322  0.169633  0.500000  1
  P  P9  1  0.830367  0.521689  0.500000  1
  P  P10  1  0.478311  0.308678  0.500000  1
  P  P11  1  0.169633  0.691322  0.500000  1
  P  P12  1  0.521689  0.830367  0.500000  1
  P  P13  1  0.308678  0.478311  0.500000  1
  P  P14  1  0.636738  0.636738  0.000000  1
  P  P15  1  0.363262  0.000000  0.000000  1
  P  P16  1  0.000000  0.363262  0.000000  1
  P  P17  1  0.186418  0.186418  0.000000  1
  P  P18  1  0.813582  0.000000  0.000000  1
  P  P19  1  0.000000  0.813582  0.000000  1
  Ir  Ir20  1  0.801675  0.181725  0.000000  1
  Ir  Ir21  1  0.818275  0.619951  0.000000  1
  Ir  Ir22  1  0.380049  0.198325  0.000000  1
  Ir  Ir23  1  0.181725  0.801675  0.000000  1
  Ir  Ir24  1  0.619951  0.818275  0.000000  1
  Ir  Ir25  1  0.198325  0.380049  0.000000  1
  Ir  Ir26  1  0.454036  0.454036  0.000000  1
  Ir  Ir27  1  0.545964  0.000000  0.000000  1
  Ir  Ir28  1  0.000000  0.545964  0.000000  1
  Ir  Ir29  1  0.869114  0.363604  0.500000  1
  Ir  Ir30  1  0.636396  0.505511  0.500000  1
  Ir  Ir31  1  0.494489  0.130886  0.500000  1
  Ir  Ir32  1  0.363604  0.869114  0.500000  1
  Ir  Ir33  1  0.505511  0.636396  0.500000  1
  Ir  Ir34  1  0.130886  0.494489  0.500000  1
  Ir  Ir35  1  0.000000  0.000000  0.000000  1
