# generated using pymatgen
data_Ca2ErTaN4
_symmetry_space_group_name_H-M   'P 1'
_cell_length_a   5.84364478
_cell_length_b   5.86329846
_cell_length_c   4.89501827
_cell_angle_alpha   65.30745193
_cell_angle_beta   65.49199154
_cell_angle_gamma   49.44408126
_symmetry_Int_Tables_number   1
_chemical_formula_structural   Ca2ErTaN4
_chemical_formula_sum   'Ca2 Er1 Ta1 N4'
_cell_volume   113.25719323
_cell_formula_units_Z   1
loop_
 _symmetry_equiv_pos_site_id
 _symmetry_equiv_pos_as_xyz
  1  'x, y, z'
loop_
 _atom_site_type_symbol
 _atom_site_label
 _atom_site_symmetry_multiplicity
 _atom_site_fract_x
 _atom_site_fract_y
 _atom_site_fract_z
 _atom_site_occupancy
  Ca  Ca0  1  0.250781  0.249225  0.249173  1
  Ca  Ca1  1  0.506102  0.493908  0.493861  1
  Er  Er2  1  0.755477  0.744564  0.744349  1
  Ta  Ta3  1  0.044350  0.955660  0.955745  1
  N  N4  1  0.999574  0.986342  0.565632  1
  N  N5  1  0.195963  0.235439  0.793307  1
  N  N6  1  0.448449  0.565557  0.986475  1
  N  N7  1  0.775237  0.793370  0.235526  1
