# generated using pymatgen
data_Yb12Ag11Ge12Au
_symmetry_space_group_name_H-M   'P 1'
_cell_length_a   4.57456800
_cell_length_b   7.83996329
_cell_length_c   21.30555077
_cell_angle_alpha   90.03099920
_cell_angle_beta   90.00000000
_cell_angle_gamma   90.00000000
_symmetry_Int_Tables_number   1
_chemical_formula_structural   Yb12Ag11Ge12Au
_chemical_formula_sum   'Yb12 Ag11 Ge12 Au1'
_cell_volume   764.11164599
_cell_formula_units_Z   1
loop_
 _symmetry_equiv_pos_site_id
 _symmetry_equiv_pos_as_xyz
  1  'x, y, z'
loop_
 _atom_site_type_symbol
 _atom_site_label
 _atom_site_symmetry_multiplicity
 _atom_site_fract_x
 _atom_site_fract_y
 _atom_site_fract_z
 _atom_site_occupancy
  Yb  Yb0  1  0.250000  0.787926  0.166015  1
  Yb  Yb1  1  0.250000  0.777390  0.500259  1
  Yb  Yb2  1  0.250000  0.712739  0.333029  1
  Yb  Yb3  1  0.750000  0.222580  0.499839  1
  Yb  Yb4  1  0.750000  0.289865  0.667103  1
  Yb  Yb5  1  0.750000  0.277618  0.999815  1
  Yb  Yb6  1  0.250000  0.785352  0.832547  1
  Yb  Yb7  1  0.250000  0.722438  0.000237  1
  Yb  Yb8  1  0.750000  0.212956  0.166982  1
  Yb  Yb9  1  0.750000  0.288101  0.334007  1
  Yb  Yb10  1  0.250000  0.710514  0.666539  1
  Yb  Yb11  1  0.750000  0.213295  0.834202  1
  Ag  Ag12  1  0.750000  0.582557  0.906494  1
  Ag  Ag13  1  0.250000  0.416527  0.433319  1
  Ag  Ag14  1  0.750000  0.583537  0.566395  1
  Ag  Ag15  1  0.750000  0.917479  0.406594  1
  Ag  Ag16  1  0.250000  0.417441  0.093372  1
  Ag  Ag17  1  0.250000  0.413128  0.238627  1
  Ag  Ag18  1  0.750000  0.913175  0.261261  1
  Ag  Ag19  1  0.250000  0.086794  0.738688  1
  Ag  Ag20  1  0.250000  0.083302  0.933318  1
  Ag  Ag21  1  0.750000  0.916423  0.066593  1
  Ag  Ag22  1  0.250000  0.082665  0.593529  1
  Ge  Ge23  1  0.250000  0.413313  0.897525  1
  Ge  Ge24  1  0.750000  0.917512  0.729018  1
  Ge  Ge25  1  0.750000  0.582233  0.229053  1
  Ge  Ge26  1  0.250000  0.088406  0.071074  1
  Ge  Ge27  1  0.750000  0.911526  0.928919  1
  Ge  Ge28  1  0.750000  0.913394  0.602899  1
  Ge  Ge29  1  0.250000  0.411348  0.571233  1
  Ge  Ge30  1  0.250000  0.086646  0.397182  1
  Ge  Ge31  1  0.250000  0.082158  0.270959  1
  Ge  Ge32  1  0.750000  0.588574  0.428834  1
  Ge  Ge33  1  0.250000  0.418345  0.771715  1
  Ge  Ge34  1  0.750000  0.586618  0.102815  1
  Au  Au35  1  0.750000  0.586123  0.760010  1
