# generated using pymatgen
data_LaPrC2Se
_symmetry_space_group_name_H-M   'P 1'
_cell_length_a   7.45798846
_cell_length_b   7.45798816
_cell_length_c   7.13556000
_cell_angle_alpha   78.49799060
_cell_angle_beta   78.49799106
_cell_angle_gamma   33.27391441
_symmetry_Int_Tables_number   1
_chemical_formula_structural   LaPrC2Se
_chemical_formula_sum   'La2 Pr2 C4 Se2'
_cell_volume   212.98349691
_cell_formula_units_Z   2
loop_
 _symmetry_equiv_pos_site_id
 _symmetry_equiv_pos_as_xyz
  1  'x, y, z'
loop_
 _atom_site_type_symbol
 _atom_site_label
 _atom_site_symmetry_multiplicity
 _atom_site_fract_x
 _atom_site_fract_y
 _atom_site_fract_z
 _atom_site_occupancy
  La  La0  1  0.444084  0.836198  0.859581  1
  La  La1  1  0.836198  0.444084  0.359581  1
  Pr  Pr2  1  0.552551  0.163375  0.140687  1
  Pr  Pr3  1  0.163375  0.552551  0.640687  1
  C  C4  1  0.359413  0.100509  0.468413  1
  C  C5  1  0.905603  0.640664  0.030342  1
  C  C6  1  0.640664  0.905603  0.530342  1
  C  C7  1  0.100509  0.359413  0.968413  1
  Se  Se8  1  0.789294  0.208308  0.750978  1
  Se  Se9  1  0.208308  0.789294  0.250978  1
