# generated using pymatgen
data_Ca2AlSiPd13
_symmetry_space_group_name_H-M   'P 1'
_cell_length_a   8.91771016
_cell_length_b   8.90167600
_cell_length_c   7.07466101
_cell_angle_alpha   90.00000000
_cell_angle_beta   90.44952481
_cell_angle_gamma   90.00000000
_symmetry_Int_Tables_number   1
_chemical_formula_structural   Ca2AlSiPd13
_chemical_formula_sum   'Ca4 Al2 Si2 Pd26'
_cell_volume   561.58746308
_cell_formula_units_Z   2
loop_
 _symmetry_equiv_pos_site_id
 _symmetry_equiv_pos_as_xyz
  1  'x, y, z'
loop_
 _atom_site_type_symbol
 _atom_site_label
 _atom_site_symmetry_multiplicity
 _atom_site_fract_x
 _atom_site_fract_y
 _atom_site_fract_z
 _atom_site_occupancy
  Ca  Ca0  1  0.518369  0.000000  0.933317  1
  Ca  Ca1  1  0.981631  0.500000  0.066683  1
  Ca  Ca2  1  0.004960  0.000000  0.497465  1
  Ca  Ca3  1  0.495040  0.500000  0.502535  1
  Al  Al4  1  0.250000  0.750000  0.000000  1
  Al  Al5  1  0.250000  0.250000  0.000000  1
  Si  Si6  1  0.505072  0.000000  0.442579  1
  Si  Si7  1  0.994928  0.500000  0.557421  1
  Pd  Pd8  1  0.335753  0.835091  0.613370  1
  Pd  Pd9  1  0.335753  0.164909  0.613370  1
  Pd  Pd10  1  0.667375  0.832420  0.618209  1
  Pd  Pd11  1  0.667375  0.167580  0.618209  1
  Pd  Pd12  1  0.164247  0.664909  0.386630  1
  Pd  Pd13  1  0.164247  0.335091  0.386630  1
  Pd  Pd14  1  0.832625  0.667580  0.381791  1
  Pd  Pd15  1  0.832625  0.332420  0.381791  1
  Pd  Pd16  1  0.494602  0.768313  0.251617  1
  Pd  Pd17  1  0.494602  0.231687  0.251617  1
  Pd  Pd18  1  0.273811  0.000000  0.249993  1
  Pd  Pd19  1  0.735029  0.000000  0.255303  1
  Pd  Pd20  1  0.005398  0.731687  0.748383  1
  Pd  Pd21  1  0.005398  0.268313  0.748383  1
  Pd  Pd22  1  0.226189  0.500000  0.750007  1
  Pd  Pd23  1  0.764971  0.500000  0.744697  1
  Pd  Pd24  1  0.487962  0.341859  0.865445  1
  Pd  Pd25  1  0.487962  0.658141  0.865445  1
  Pd  Pd26  1  0.858856  0.000000  0.853264  1
  Pd  Pd27  1  0.172472  0.000000  0.866772  1
  Pd  Pd28  1  0.012038  0.158141  0.134555  1
  Pd  Pd29  1  0.012038  0.841859  0.134555  1
  Pd  Pd30  1  0.641144  0.500000  0.146736  1
  Pd  Pd31  1  0.327528  0.500000  0.133228  1
  Pd  Pd32  1  0.750000  0.750000  0.000000  1
  Pd  Pd33  1  0.750000  0.250000  0.000000  1
