# generated using pymatgen
data_K6Rb12Ga2BiSb7
_symmetry_space_group_name_H-M   'P 1'
_cell_length_a   10.94402771
_cell_length_b   10.93070057
_cell_length_c   11.44252300
_cell_angle_alpha   90.00000000
_cell_angle_beta   90.00000000
_cell_angle_gamma   119.95964980
_symmetry_Int_Tables_number   1
_chemical_formula_structural   K6Rb12Ga2BiSb7
_chemical_formula_sum   'K6 Rb12 Ga2 Bi1 Sb7'
_cell_volume   1185.91632040
_cell_formula_units_Z   1
loop_
 _symmetry_equiv_pos_site_id
 _symmetry_equiv_pos_as_xyz
  1  'x, y, z'
loop_
 _atom_site_type_symbol
 _atom_site_label
 _atom_site_symmetry_multiplicity
 _atom_site_fract_x
 _atom_site_fract_y
 _atom_site_fract_z
 _atom_site_occupancy
  K  K0  1  0.237547  0.118770  0.750000  1
  K  K1  1  0.881150  0.118812  0.750000  1
  K  K2  1  0.762581  0.881293  0.250000  1
  K  K3  1  0.119162  0.236440  0.250000  1
  K  K4  1  0.119155  0.882719  0.250000  1
  K  K5  1  0.881155  0.762343  0.750000  1
  Rb  Rb6  1  0.208137  0.792225  0.957238  1
  Rb  Rb7  1  0.208136  0.415909  0.957236  1
  Rb  Rb8  1  0.583941  0.791971  0.957557  1
  Rb  Rb9  1  0.416159  0.208081  0.457685  1
  Rb  Rb10  1  0.791349  0.584117  0.041791  1
  Rb  Rb11  1  0.791352  0.207234  0.458208  1
  Rb  Rb12  1  0.791349  0.584117  0.458209  1
  Rb  Rb13  1  0.208137  0.792225  0.542762  1
  Rb  Rb14  1  0.583941  0.791971  0.542443  1
  Rb  Rb15  1  0.416159  0.208081  0.042315  1
  Rb  Rb16  1  0.791352  0.207234  0.041792  1
  Rb  Rb17  1  0.208136  0.415909  0.542764  1
  Ga  Ga18  1  0.338079  0.669038  0.250000  1
  Ga  Ga19  1  0.667291  0.333645  0.750000  1
  Bi  Bi20  1  0.043009  0.521504  0.250000  1
  Sb  Sb21  1  0.000033  0.000016  0.999964  1
  Sb  Sb22  1  0.476663  0.952955  0.250000  1
  Sb  Sb23  1  0.524028  0.048155  0.750000  1
  Sb  Sb24  1  0.524028  0.475872  0.750000  1
  Sb  Sb25  1  0.000033  0.000016  0.500036  1
  Sb  Sb26  1  0.476662  0.523708  0.250000  1
  Sb  Sb27  1  0.951277  0.475638  0.750000  1
