# generated using pymatgen
data_Ti5Be15NbCu8
_symmetry_space_group_name_H-M   'P 1'
_cell_length_a   7.61375590
_cell_length_b   7.60762046
_cell_length_c   7.60761848
_cell_angle_alpha   60.05336641
_cell_angle_beta   59.97331558
_cell_angle_gamma   59.97331609
_symmetry_Int_Tables_number   1
_chemical_formula_structural   Ti5Be15NbCu8
_chemical_formula_sum   'Ti5 Be15 Nb1 Cu8'
_cell_volume   311.58815652
_cell_formula_units_Z   1
loop_
 _symmetry_equiv_pos_site_id
 _symmetry_equiv_pos_as_xyz
  1  'x, y, z'
loop_
 _atom_site_type_symbol
 _atom_site_label
 _atom_site_symmetry_multiplicity
 _atom_site_fract_x
 _atom_site_fract_y
 _atom_site_fract_z
 _atom_site_occupancy
  Ti  Ti0  1  0.303647  0.696353  0.696353  1
  Ti  Ti1  1  0.303645  0.696355  0.301491  1
  Ti  Ti2  1  0.698509  0.301491  0.696355  1
  Ti  Ti3  1  0.303645  0.301491  0.696355  1
  Ti  Ti4  1  0.698509  0.696355  0.301491  1
  Be  Be5  1  0.325207  0.326712  0.326712  1
  Be  Be6  1  0.673456  0.672584  0.672584  1
  Be  Be7  1  0.327416  0.326544  0.018625  1
  Be  Be8  1  0.327416  0.018625  0.326544  1
  Be  Be9  1  0.673288  0.674793  0.978630  1
  Be  Be10  1  0.673288  0.978630  0.674793  1
  Be  Be11  1  0.021370  0.326712  0.326712  1
  Be  Be12  1  0.981375  0.672584  0.672584  1
  Be  Be13  1  0.499432  0.000568  0.000568  1
  Be  Be14  1  0.999432  0.500568  0.500568  1
  Be  Be15  1  0.000069  0.499479  0.999931  1
  Be  Be16  1  0.500521  0.999931  0.499479  1
  Be  Be17  1  0.000069  0.999931  0.499479  1
  Be  Be18  1  0.500521  0.499479  0.999931  1
  Be  Be19  1  0.999645  0.000355  0.000355  1
  Nb  Nb20  1  0.689118  0.310882  0.310882  1
  Cu  Cu21  1  0.122800  0.121810  0.121810  1
  Cu  Cu22  1  0.878163  0.878085  0.878085  1
  Cu  Cu23  1  0.121915  0.121837  0.634333  1
  Cu  Cu24  1  0.121915  0.634333  0.121837  1
  Cu  Cu25  1  0.878190  0.877200  0.366419  1
  Cu  Cu26  1  0.878190  0.366419  0.877200  1
  Cu  Cu27  1  0.633581  0.121810  0.121810  1
  Cu  Cu28  1  0.365667  0.878085  0.878085  1
