# generated using pymatgen
data_LaPr9(Al2Os3)2
_symmetry_space_group_name_H-M   'P 1'
_cell_length_a   8.66991496
_cell_length_b   8.61969569
_cell_length_c   8.61969623
_cell_angle_alpha   109.14479074
_cell_angle_beta   109.63003698
_cell_angle_gamma   109.40268541
_symmetry_Int_Tables_number   1
_chemical_formula_structural   LaPr9(Al2Os3)2
_chemical_formula_sum   'La1 Pr9 Al4 Os6'
_cell_volume   497.31352136
_cell_formula_units_Z   1
loop_
 _symmetry_equiv_pos_site_id
 _symmetry_equiv_pos_as_xyz
  1  'x, y, z'
loop_
 _atom_site_type_symbol
 _atom_site_label
 _atom_site_symmetry_multiplicity
 _atom_site_fract_x
 _atom_site_fract_y
 _atom_site_fract_z
 _atom_site_occupancy
  La  La0  1  0.250000  0.686842  0.436842  1
  Pr  Pr1  1  0.750000  0.817157  0.067157  1
  Pr  Pr2  1  0.432860  0.252917  0.683318  1
  Pr  Pr3  1  0.680731  0.431583  0.249093  1
  Pr  Pr4  1  0.067140  0.750456  0.820057  1
  Pr  Pr5  1  0.819269  0.068360  0.750852  1
  Pr  Pr6  1  0.213041  0.212213  0.214503  1
  Pr  Pr7  1  0.502836  0.001065  0.288566  1
  Pr  Pr8  1  0.286959  0.501461  0.999171  1
  Pr  Pr9  1  0.997164  0.285730  0.498229  1
  Al  Al10  1  0.590653  0.590199  0.587828  1
  Al  Al11  1  0.499247  0.000827  0.911741  1
  Al  Al12  1  0.909347  0.497175  0.999546  1
  Al  Al13  1  0.000753  0.912493  0.501579  1
  Os  Os14  1  0.250000  0.116668  0.866668  1
  Os  Os15  1  0.750000  0.383904  0.633904  1
  Os  Os16  1  0.862689  0.245123  0.114191  1
  Os  Os17  1  0.118861  0.860811  0.252372  1
  Os  Os18  1  0.637310  0.751501  0.382433  1
  Os  Os19  1  0.381139  0.633512  0.741951  1
