# generated using pymatgen
data_Ho2Si7(Ir3Rh)3
_symmetry_space_group_name_H-M   'P 1'
_cell_length_a   9.75068300
_cell_length_b   9.75068199
_cell_length_c   3.87708300
_cell_angle_alpha   90.00000000
_cell_angle_beta   90.00000000
_cell_angle_gamma   120.00000366
_symmetry_Int_Tables_number   1
_chemical_formula_structural   Ho2Si7(Ir3Rh)3
_chemical_formula_sum   'Ho2 Si7 Ir9 Rh3'
_cell_volume   319.23150424
_cell_formula_units_Z   1
loop_
 _symmetry_equiv_pos_site_id
 _symmetry_equiv_pos_as_xyz
  1  'x, y, z'
loop_
 _atom_site_type_symbol
 _atom_site_label
 _atom_site_symmetry_multiplicity
 _atom_site_fract_x
 _atom_site_fract_y
 _atom_site_fract_z
 _atom_site_occupancy
  Ho  Ho0  1  0.333333  0.666667  0.742426  1
  Ho  Ho1  1  0.666667  0.333333  0.241273  1
  Si  Si2  1  0.000000  0.000000  0.675821  1
  Si  Si3  1  0.405575  0.290476  0.741977  1
  Si  Si4  1  0.709524  0.115098  0.741977  1
  Si  Si5  1  0.884902  0.594425  0.741977  1
  Si  Si6  1  0.597036  0.710267  0.240232  1
  Si  Si7  1  0.289733  0.886770  0.240232  1
  Si  Si8  1  0.113230  0.402964  0.240232  1
  Ir  Ir9  1  0.443065  0.066147  0.741431  1
  Ir  Ir10  1  0.933853  0.376918  0.741431  1
  Ir  Ir11  1  0.623082  0.556935  0.741431  1
  Ir  Ir12  1  0.556325  0.940314  0.240322  1
  Ir  Ir13  1  0.059686  0.616011  0.240322  1
  Ir  Ir14  1  0.383989  0.443675  0.240322  1
  Ir  Ir15  1  0.151612  0.272620  0.739025  1
  Ir  Ir16  1  0.727380  0.878992  0.739025  1
  Ir  Ir17  1  0.121008  0.848388  0.739025  1
  Rh  Rh18  1  0.863086  0.753091  0.243840  1
  Rh  Rh19  1  0.246909  0.109995  0.243840  1
  Rh  Rh20  1  0.890005  0.136914  0.243840  1
