# generated using pymatgen
data_ErHf3ZrSn3
_symmetry_space_group_name_H-M   'P 1'
_cell_length_a   8.54810492
_cell_length_b   8.61931154
_cell_length_c   5.84876700
_cell_angle_alpha   90.00000000
_cell_angle_beta   90.00000000
_cell_angle_gamma   120.27594986
_symmetry_Int_Tables_number   1
_chemical_formula_structural   ErHf3ZrSn3
_chemical_formula_sum   'Er2 Hf6 Zr2 Sn6'
_cell_volume   372.15428461
_cell_formula_units_Z   2
loop_
 _symmetry_equiv_pos_site_id
 _symmetry_equiv_pos_as_xyz
  1  'x, y, z'
loop_
 _atom_site_type_symbol
 _atom_site_label
 _atom_site_symmetry_multiplicity
 _atom_site_fract_x
 _atom_site_fract_y
 _atom_site_fract_z
 _atom_site_occupancy
  Er  Er0  1  0.237261  0.237865  0.750000  1
  Er  Er1  1  0.237261  0.999395  0.250000  1
  Hf  Hf2  1  0.998069  0.747005  0.750000  1
  Hf  Hf3  1  0.998069  0.251063  0.250000  1
  Hf  Hf4  1  0.336409  0.668206  0.500000  1
  Hf  Hf5  1  0.668479  0.334239  0.000000  1
  Hf  Hf6  1  0.668479  0.334239  0.500000  1
  Hf  Hf7  1  0.336409  0.668206  0.000000  1
  Zr  Zr8  1  0.756177  0.756598  0.250000  1
  Zr  Zr9  1  0.756177  0.999580  0.750000  1
  Sn  Sn10  1  0.394719  0.996948  0.750000  1
  Sn  Sn11  1  0.394719  0.397771  0.250000  1
  Sn  Sn12  1  0.998994  0.603904  0.250000  1
  Sn  Sn13  1  0.998994  0.395091  0.750000  1
  Sn  Sn14  1  0.609892  0.609016  0.750000  1
  Sn  Sn15  1  0.609892  0.000876  0.250000  1
