# generated using pymatgen
data_Tb6MgCo16MoP12
_symmetry_space_group_name_H-M   'P 1'
_cell_length_a   3.73005200
_cell_length_b   10.60567400
_cell_length_c   12.29590500
_cell_angle_alpha   90.00000000
_cell_angle_beta   90.00000000
_cell_angle_gamma   90.00000000
_symmetry_Int_Tables_number   1
_chemical_formula_structural   Tb6MgCo16MoP12
_chemical_formula_sum   'Tb6 Mg1 Co16 Mo1 P12'
_cell_volume   486.42250380
_cell_formula_units_Z   1
loop_
 _symmetry_equiv_pos_site_id
 _symmetry_equiv_pos_as_xyz
  1  'x, y, z'
loop_
 _atom_site_type_symbol
 _atom_site_label
 _atom_site_symmetry_multiplicity
 _atom_site_fract_x
 _atom_site_fract_y
 _atom_site_fract_z
 _atom_site_occupancy
  Tb  Tb0  1  0.000000  0.500000  0.524349  1
  Tb  Tb1  1  0.500000  0.000000  0.474780  1
  Tb  Tb2  1  0.500000  0.818762  0.205782  1
  Tb  Tb3  1  0.500000  0.181238  0.205782  1
  Tb  Tb4  1  0.000000  0.678295  0.794400  1
  Tb  Tb5  1  0.000000  0.321705  0.794400  1
  Mg  Mg6  1  0.000000  0.000000  0.845061  1
  Co  Co7  1  0.500000  0.500000  0.703180  1
  Co  Co8  1  0.000000  0.000000  0.295377  1
  Co  Co9  1  0.000000  0.500000  0.989456  1
  Co  Co10  1  0.500000  0.000000  0.013166  1
  Co  Co11  1  0.500000  0.334505  0.994633  1
  Co  Co12  1  0.500000  0.665495  0.994633  1
  Co  Co13  1  0.000000  0.169790  0.005790  1
  Co  Co14  1  0.000000  0.830210  0.005790  1
  Co  Co15  1  0.500000  0.296339  0.430657  1
  Co  Co16  1  0.500000  0.703661  0.430657  1
  Co  Co17  1  0.000000  0.204770  0.567332  1
  Co  Co18  1  0.000000  0.795230  0.567332  1
  Co  Co19  1  0.500000  0.877334  0.705693  1
  Co  Co20  1  0.500000  0.122666  0.705693  1
  Co  Co21  1  0.000000  0.620910  0.293690  1
  Co  Co22  1  0.000000  0.379090  0.293690  1
  Mo  Mo23  1  0.500000  0.500000  0.158481  1
  P  P24  1  0.500000  0.500000  0.883708  1
  P  P25  1  0.000000  0.000000  0.115284  1
  P  P26  1  0.500000  0.500000  0.350676  1
  P  P27  1  0.000000  0.000000  0.645896  1
  P  P28  1  0.500000  0.309886  0.614903  1
  P  P29  1  0.500000  0.690114  0.614903  1
  P  P30  1  0.000000  0.190371  0.383828  1
  P  P31  1  0.000000  0.809629  0.383828  1
  P  P32  1  0.500000  0.839441  0.894655  1
  P  P33  1  0.500000  0.160559  0.894655  1
  P  P34  1  0.000000  0.655455  0.108931  1
  P  P35  1  0.000000  0.344545  0.108931  1
