# generated using pymatgen
data_YPa2As4Pd7
_symmetry_space_group_name_H-M   'P 1'
_cell_length_a   8.06928811
_cell_length_b   8.06928921
_cell_length_c   9.65772801
_cell_angle_alpha   55.85766356
_cell_angle_beta   55.85765889
_cell_angle_gamma   29.89965471
_symmetry_Int_Tables_number   1
_chemical_formula_structural   YPa2As4Pd7
_chemical_formula_sum   'Y1 Pa2 As4 Pd7'
_cell_volume   255.15337472
_cell_formula_units_Z   1
loop_
 _symmetry_equiv_pos_site_id
 _symmetry_equiv_pos_as_xyz
  1  'x, y, z'
loop_
 _atom_site_type_symbol
 _atom_site_label
 _atom_site_symmetry_multiplicity
 _atom_site_fract_x
 _atom_site_fract_y
 _atom_site_fract_z
 _atom_site_occupancy
  Y  Y0  1  0.182719  0.182719  0.820016  1
  Pa  Pa1  1  0.498350  0.498350  0.502607  1
  Pa  Pa2  1  0.820854  0.820854  0.172860  1
  As  As3  1  0.394493  0.394493  0.324742  1
  As  As4  1  0.605643  0.605643  0.673497  1
  As  As5  1  0.845478  0.845478  0.742743  1
  As  As6  1  0.153030  0.153030  0.259125  1
  Pd  Pd7  1  0.669241  0.669241  0.067623  1
  Pd  Pd8  1  0.012251  0.012251  0.195670  1
  Pd  Pd9  1  0.985870  0.985870  0.807713  1
  Pd  Pd10  1  0.499004  0.499004  0.998152  1
  Pd  Pd11  1  0.190147  0.190147  0.480204  1
  Pd  Pd12  1  0.809406  0.809406  0.516739  1
  Pd  Pd13  1  0.333514  0.333514  0.938309  1
