# generated using pymatgen
data_TmHf2Zr7Sn6
_symmetry_space_group_name_H-M   'P 1'
_cell_length_a   8.61156285
_cell_length_b   8.61156334
_cell_length_c   5.82685879
_cell_angle_alpha   89.97060609
_cell_angle_beta   89.97061163
_cell_angle_gamma   120.85330112
_symmetry_Int_Tables_number   1
_chemical_formula_structural   TmHf2Zr7Sn6
_chemical_formula_sum   'Tm1 Hf2 Zr7 Sn6'
_cell_volume   370.96251422
_cell_formula_units_Z   1
loop_
 _symmetry_equiv_pos_site_id
 _symmetry_equiv_pos_as_xyz
  1  'x, y, z'
loop_
 _atom_site_type_symbol
 _atom_site_label
 _atom_site_symmetry_multiplicity
 _atom_site_fract_x
 _atom_site_fract_y
 _atom_site_fract_z
 _atom_site_occupancy
  Tm  Tm0  1  0.765201  0.765201  0.751062  1
  Hf  Hf1  1  0.332927  0.665335  0.499369  1
  Hf  Hf2  1  0.665335  0.332927  0.499369  1
  Zr  Zr3  1  0.251400  0.001559  0.751207  1
  Zr  Zr4  1  0.001559  0.251400  0.751207  1
  Zr  Zr5  1  0.239674  0.239674  0.248976  1
  Zr  Zr6  1  0.749768  0.999451  0.248821  1
  Zr  Zr7  1  0.999451  0.749768  0.248821  1
  Zr  Zr8  1  0.665464  0.332956  0.000845  1
  Zr  Zr9  1  0.332956  0.665464  0.000845  1
  Sn  Sn10  1  0.391688  0.391688  0.748461  1
  Sn  Sn11  1  0.606598  0.002221  0.748566  1
  Sn  Sn12  1  0.002221  0.606598  0.748566  1
  Sn  Sn13  1  0.605807  0.605807  0.251179  1
  Sn  Sn14  1  0.390767  0.999187  0.251354  1
  Sn  Sn15  1  0.999187  0.390767  0.251354  1
