# generated using pymatgen
data_NaCa(LaCo)4
_symmetry_space_group_name_H-M   'P 1'
_cell_length_a   3.99809400
_cell_length_b   3.99809489
_cell_length_c   20.86263500
_cell_angle_alpha   90.00000000
_cell_angle_beta   90.00000000
_cell_angle_gamma   119.99999262
_symmetry_Int_Tables_number   1
_chemical_formula_structural   NaCa(LaCo)4
_chemical_formula_sum   'Na1 Ca1 La4 Co4'
_cell_volume   288.80580755
_cell_formula_units_Z   1
loop_
 _symmetry_equiv_pos_site_id
 _symmetry_equiv_pos_as_xyz
  1  'x, y, z'
loop_
 _atom_site_type_symbol
 _atom_site_label
 _atom_site_symmetry_multiplicity
 _atom_site_fract_x
 _atom_site_fract_y
 _atom_site_fract_z
 _atom_site_occupancy
  Na  Na0  1  0.666667  0.333333  0.750000  1
  Ca  Ca1  1  0.333333  0.666667  0.250000  1
  La  La2  1  0.000000  0.000000  0.087346  1
  La  La3  1  0.000000  0.000000  0.908901  1
  La  La4  1  0.000000  0.000000  0.591099  1
  La  La5  1  0.000000  0.000000  0.412654  1
  Co  Co6  1  0.333333  0.666667  0.502763  1
  Co  Co7  1  0.666667  0.333333  0.502806  1
  Co  Co8  1  0.666667  0.333333  0.997194  1
  Co  Co9  1  0.333333  0.666667  0.997237  1
