# generated using pymatgen
data_Dy3Cd3Hg2Pt
_symmetry_space_group_name_H-M   'P 1'
_cell_length_a   8.03252900
_cell_length_b   8.03252997
_cell_length_c   3.83383800
_cell_angle_alpha   90.00000000
_cell_angle_beta   90.00000000
_cell_angle_gamma   120.00000013
_symmetry_Int_Tables_number   1
_chemical_formula_structural   Dy3Cd3Hg2Pt
_chemical_formula_sum   'Dy3 Cd3 Hg2 Pt1'
_cell_volume   214.22445444
_cell_formula_units_Z   1
loop_
 _symmetry_equiv_pos_site_id
 _symmetry_equiv_pos_as_xyz
  1  'x, y, z'
loop_
 _atom_site_type_symbol
 _atom_site_label
 _atom_site_symmetry_multiplicity
 _atom_site_fract_x
 _atom_site_fract_y
 _atom_site_fract_z
 _atom_site_occupancy
  Dy  Dy0  1  0.579110  0.967854  0.000000  1
  Dy  Dy1  1  0.032146  0.611255  0.000000  1
  Dy  Dy2  1  0.388745  0.420890  0.000000  1
  Cd  Cd3  1  0.276555  0.003033  0.500000  1
  Cd  Cd4  1  0.996967  0.273522  0.500000  1
  Cd  Cd5  1  0.726478  0.723445  0.500000  1
  Hg  Hg6  1  0.666667  0.333333  0.500000  1
  Hg  Hg7  1  0.000000  0.000000  0.000000  1
  Pt  Pt8  1  0.333333  0.666667  0.500000  1
