# generated using pymatgen
data_Nd10Pb6AuBr
_symmetry_space_group_name_H-M   'P 1'
_cell_length_a   9.61747600
_cell_length_b   9.61747640
_cell_length_c   6.86202100
_cell_angle_alpha   90.00000000
_cell_angle_beta   90.00000000
_cell_angle_gamma   119.99999862
_symmetry_Int_Tables_number   1
_chemical_formula_structural   Nd10Pb6AuBr
_chemical_formula_sum   'Nd10 Pb6 Au1 Br1'
_cell_volume   549.67365336
_cell_formula_units_Z   1
loop_
 _symmetry_equiv_pos_site_id
 _symmetry_equiv_pos_as_xyz
  1  'x, y, z'
loop_
 _atom_site_type_symbol
 _atom_site_label
 _atom_site_symmetry_multiplicity
 _atom_site_fract_x
 _atom_site_fract_y
 _atom_site_fract_z
 _atom_site_occupancy
  Nd  Nd0  1  0.736415  0.000000  0.748121  1
  Nd  Nd1  1  0.000000  0.263585  0.251879  1
  Nd  Nd2  1  0.736415  0.736415  0.251879  1
  Nd  Nd3  1  0.333333  0.666667  0.500000  1
  Nd  Nd4  1  0.333333  0.666667  0.000000  1
  Nd  Nd5  1  0.666667  0.333333  0.500000  1
  Nd  Nd6  1  0.666667  0.333333  0.000000  1
  Nd  Nd7  1  0.263585  0.000000  0.251879  1
  Nd  Nd8  1  0.263585  0.263585  0.748121  1
  Nd  Nd9  1  0.000000  0.736415  0.748121  1
  Pb  Pb10  1  0.386860  0.000000  0.750317  1
  Pb  Pb11  1  0.613140  0.000000  0.249683  1
  Pb  Pb12  1  0.000000  0.613140  0.249683  1
  Pb  Pb13  1  0.613140  0.613140  0.750317  1
  Pb  Pb14  1  0.000000  0.386860  0.750317  1
  Pb  Pb15  1  0.386860  0.386860  0.249683  1
  Au  Au16  1  0.000000  0.000000  0.500000  1
  Br  Br17  1  0.000000  0.000000  0.000000  1
