# generated using pymatgen
data_Ba2LiPuO4
_symmetry_space_group_name_H-M   'P 1'
_cell_length_a   12.02558600
_cell_length_b   3.58781100
_cell_length_c   11.81818000
_cell_angle_alpha   90.00000000
_cell_angle_beta   90.00000000
_cell_angle_gamma   90.00000000
_symmetry_Int_Tables_number   1
_chemical_formula_structural   Ba2LiPuO4
_chemical_formula_sum   'Ba8 Li4 Pu4 O16'
_cell_volume   509.90163657
_cell_formula_units_Z   4
loop_
 _symmetry_equiv_pos_site_id
 _symmetry_equiv_pos_as_xyz
  1  'x, y, z'
loop_
 _atom_site_type_symbol
 _atom_site_label
 _atom_site_symmetry_multiplicity
 _atom_site_fract_x
 _atom_site_fract_y
 _atom_site_fract_z
 _atom_site_occupancy
  Ba  Ba0  1  0.635019  0.499999  0.072129  1
  Ba  Ba1  1  0.091776  0.000000  0.124118  1
  Ba  Ba2  1  0.591776  0.000000  0.375882  1
  Ba  Ba3  1  0.135020  0.499999  0.427871  1
  Ba  Ba4  1  0.864980  0.000000  0.572129  1
  Ba  Ba5  1  0.408223  0.499999  0.624117  1
  Ba  Ba6  1  0.908223  0.499999  0.875882  1
  Ba  Ba7  1  0.364979  0.000000  0.927870  1
  Li  Li8  1  0.841921  0.000000  0.086999  1
  Li  Li9  1  0.341921  0.000000  0.413001  1
  Li  Li10  1  0.658079  0.499999  0.586998  1
  Li  Li11  1  0.158078  0.499999  0.913001  1
  Pu  Pu12  1  0.356480  0.499999  0.209314  1
  Pu  Pu13  1  0.856481  0.499999  0.290685  1
  Pu  Pu14  1  0.143519  0.000000  0.709315  1
  Pu  Pu15  1  0.643519  0.000000  0.790684  1
  O  O16  1  0.247306  0.499999  0.051332  1
  O  O17  1  0.920052  0.499999  0.107468  1
  O  O18  1  0.467380  0.000000  0.143827  1
  O  O19  1  0.750182  0.000000  0.220381  1
  O  O20  1  0.250182  0.000000  0.279618  1
  O  O21  1  0.967380  0.000000  0.356172  1
  O  O22  1  0.420051  0.499999  0.392531  1
  O  O23  1  0.747306  0.499999  0.448667  1
  O  O24  1  0.252693  0.000000  0.551332  1
  O  O25  1  0.579948  0.000000  0.607469  1
  O  O26  1  0.032619  0.499999  0.643827  1
  O  O27  1  0.749817  0.499999  0.720382  1
  O  O28  1  0.249818  0.499999  0.779618  1
  O  O29  1  0.532618  0.499999  0.856172  1
  O  O30  1  0.079948  0.000000  0.892531  1
  O  O31  1  0.752693  0.000000  0.948667  1
