# generated using pymatgen
data_Pr20Bi12P
_symmetry_space_group_name_H-M   'P 1'
_cell_length_a   6.66633900
_cell_length_b   9.64346616
_cell_length_c   16.58950400
_cell_angle_alpha   90.00000594
_cell_angle_beta   90.00000000
_cell_angle_gamma   89.93525051
_symmetry_Int_Tables_number   1
_chemical_formula_structural   Pr20Bi12P
_chemical_formula_sum   'Pr20 Bi12 P1'
_cell_volume   1066.48236811
_cell_formula_units_Z   1
loop_
 _symmetry_equiv_pos_site_id
 _symmetry_equiv_pos_as_xyz
  1  'x, y, z'
loop_
 _atom_site_type_symbol
 _atom_site_label
 _atom_site_symmetry_multiplicity
 _atom_site_fract_x
 _atom_site_fract_y
 _atom_site_fract_z
 _atom_site_occupancy
  Pr  Pr0  1  0.499996  0.000002  0.333634  1
  Pr  Pr1  1  0.500016  0.500011  0.832907  1
  Pr  Pr2  1  0.500017  0.500011  0.167102  1
  Pr  Pr3  1  0.499996  0.000002  0.666354  1
  Pr  Pr4  1  0.999978  0.499999  0.167169  1
  Pr  Pr5  1  0.999998  0.000001  0.666454  1
  Pr  Pr6  1  0.999998  0.000001  0.333532  1
  Pr  Pr7  1  0.999980  0.499999  0.832844  1
  Pr  Pr8  1  0.747780  0.247637  0.000014  1
  Pr  Pr9  1  0.750440  0.750719  0.499988  1
  Pr  Pr10  1  0.749909  0.378619  0.377260  1
  Pr  Pr11  1  0.748237  0.877242  0.876516  1
  Pr  Pr12  1  0.748243  0.877238  0.123502  1
  Pr  Pr13  1  0.749911  0.378613  0.622726  1
  Pr  Pr14  1  0.252228  0.752368  0.000014  1
  Pr  Pr15  1  0.249564  0.249246  0.499988  1
  Pr  Pr16  1  0.251750  0.122770  0.123504  1
  Pr  Pr17  1  0.250090  0.621378  0.622729  1
  Pr  Pr18  1  0.250092  0.621373  0.377257  1
  Pr  Pr19  1  0.251756  0.122766  0.876514  1
  Bi  Bi20  1  0.750566  0.611275  0.999999  1
  Bi  Bi21  1  0.750300  0.115371  0.500000  1
  Bi  Bi22  1  0.751600  0.195390  0.196324  1
  Bi  Bi23  1  0.749376  0.693766  0.693008  1
  Bi  Bi24  1  0.749376  0.693767  0.306991  1
  Bi  Bi25  1  0.751599  0.195391  0.803674  1
  Bi  Bi26  1  0.249434  0.388736  0.999999  1
  Bi  Bi27  1  0.249696  0.884617  0.500000  1
  Bi  Bi28  1  0.250626  0.306223  0.306995  1
  Bi  Bi29  1  0.248396  0.804625  0.803671  1
  Bi  Bi30  1  0.248395  0.804626  0.196327  1
  Bi  Bi31  1  0.250626  0.306223  0.693004  1
  P  P32  1  0.500027  0.000000  0.999998  1
