# generated using pymatgen
data_Y12ZnSi4Sn
_symmetry_space_group_name_H-M   'P 1'
_cell_length_a   8.49881512
_cell_length_b   8.49881497
_cell_length_c   8.49881510
_cell_angle_alpha   112.17151068
_cell_angle_beta   111.56272365
_cell_angle_gamma   104.77952250
_symmetry_Int_Tables_number   1
_chemical_formula_structural   Y12ZnSi4Sn
_chemical_formula_sum   'Y12 Zn1 Si4 Sn1'
_cell_volume   470.19068018
_cell_formula_units_Z   1
loop_
 _symmetry_equiv_pos_site_id
 _symmetry_equiv_pos_as_xyz
  1  'x, y, z'
loop_
 _atom_site_type_symbol
 _atom_site_label
 _atom_site_symmetry_multiplicity
 _atom_site_fract_x
 _atom_site_fract_y
 _atom_site_fract_z
 _atom_site_occupancy
  Y  Y0  1  0.433460  0.235268  0.198193  1
  Y  Y1  1  0.566540  0.764732  0.801807  1
  Y  Y2  1  0.037077  0.235268  0.801807  1
  Y  Y3  1  0.962923  0.764732  0.198193  1
  Y  Y4  1  0.180225  0.271358  0.451583  1
  Y  Y5  1  0.819775  0.728642  0.548417  1
  Y  Y6  1  0.180225  0.728642  0.908867  1
  Y  Y7  1  0.819775  0.271358  0.091133  1
  Y  Y8  1  0.320129  0.619601  0.299471  1
  Y  Y9  1  0.679871  0.380399  0.700529  1
  Y  Y10  1  0.320129  0.020658  0.700529  1
  Y  Y11  1  0.679871  0.979342  0.299471  1
  Zn  Zn12  1  0.000000  0.000000  0.000000  1
  Si  Si13  1  0.365075  0.000000  0.365075  1
  Si  Si14  1  0.634925  0.000000  0.634925  1
  Si  Si15  1  0.115504  0.615504  0.500000  1
  Si  Si16  1  0.884496  0.384496  0.500000  1
  Sn  Sn17  1  0.500000  0.500000  0.000000  1
