# generated using pymatgen
data_Pm2Ni3Ru
_symmetry_space_group_name_H-M   'P 1'
_cell_length_a   5.15014750
_cell_length_b   5.25728769
_cell_length_c   5.15014700
_cell_angle_alpha   60.67189436
_cell_angle_beta   60.00000963
_cell_angle_gamma   60.67189845
_symmetry_Int_Tables_number   1
_chemical_formula_structural   Pm2Ni3Ru
_chemical_formula_sum   'Pm2 Ni3 Ru1'
_cell_volume   99.59161615
_cell_formula_units_Z   1
loop_
 _symmetry_equiv_pos_site_id
 _symmetry_equiv_pos_as_xyz
  1  'x, y, z'
loop_
 _atom_site_type_symbol
 _atom_site_label
 _atom_site_symmetry_multiplicity
 _atom_site_fract_x
 _atom_site_fract_y
 _atom_site_fract_z
 _atom_site_occupancy
  Pm  Pm0  1  0.750203  0.749393  0.750203  1
  Pm  Pm1  1  0.499797  0.500607  0.499797  1
  Ni  Ni2  1  0.125000  0.125000  0.125000  1
  Ni  Ni3  1  0.625000  0.125000  0.125000  1
  Ni  Ni4  1  0.125000  0.125000  0.625000  1
  Ru  Ru5  1  0.125000  0.625000  0.125000  1
