# generated using pymatgen
data_TbYbTaIr3
_symmetry_space_group_name_H-M   'P 1'
_cell_length_a   5.23566496
_cell_length_b   5.65811412
_cell_length_c   5.65811300
_cell_angle_alpha   60.00000071
_cell_angle_beta   57.29298147
_cell_angle_gamma   57.29298876
_symmetry_Int_Tables_number   1
_chemical_formula_structural   TbYbTaIr3
_chemical_formula_sum   'Tb1 Yb1 Ta1 Ir3'
_cell_volume   113.43881742
_cell_formula_units_Z   1
loop_
 _symmetry_equiv_pos_site_id
 _symmetry_equiv_pos_as_xyz
  1  'x, y, z'
loop_
 _atom_site_type_symbol
 _atom_site_label
 _atom_site_symmetry_multiplicity
 _atom_site_fract_x
 _atom_site_fract_y
 _atom_site_fract_z
 _atom_site_occupancy
  Tb  Tb0  1  0.497804  0.500732  0.500732  1
  Yb  Yb1  1  0.749515  0.750162  0.750162  1
  Ta  Ta2  1  0.623171  0.125610  0.125610  1
  Ir  Ir3  1  0.126504  0.123567  0.123567  1
  Ir  Ir4  1  0.126504  0.123567  0.626363  1
  Ir  Ir5  1  0.126504  0.626363  0.123567  1
