# generated using pymatgen
data_PrTh7(Si3Rh)4
_symmetry_space_group_name_H-M   'P 1'
_cell_length_a   8.24612000
_cell_length_b   8.24611965
_cell_length_c   8.45709500
_cell_angle_alpha   90.00000000
_cell_angle_beta   90.00000000
_cell_angle_gamma   120.00000140
_symmetry_Int_Tables_number   1
_chemical_formula_structural   PrTh7(Si3Rh)4
_chemical_formula_sum   'Pr1 Th7 Si12 Rh4'
_cell_volume   498.02496924
_cell_formula_units_Z   1
loop_
 _symmetry_equiv_pos_site_id
 _symmetry_equiv_pos_as_xyz
  1  'x, y, z'
loop_
 _atom_site_type_symbol
 _atom_site_label
 _atom_site_symmetry_multiplicity
 _atom_site_fract_x
 _atom_site_fract_y
 _atom_site_fract_z
 _atom_site_occupancy
  Pr  Pr0  1  0.000000  0.000000  0.250000  1
  Th  Th1  1  0.499672  0.500328  0.750000  1
  Th  Th2  1  0.500327  0.499673  0.250000  1
  Th  Th3  1  0.000654  0.500328  0.750000  1
  Th  Th4  1  0.999344  0.499673  0.250000  1
  Th  Th5  1  0.499672  0.999346  0.750000  1
  Th  Th6  1  0.500327  0.000656  0.250000  1
  Th  Th7  1  0.000000  0.000000  0.750000  1
  Si  Si8  1  0.833551  0.166449  0.999421  1
  Si  Si9  1  0.166458  0.833542  0.999880  1
  Si  Si10  1  0.332898  0.166449  0.999421  1
  Si  Si11  1  0.166458  0.833542  0.500120  1
  Si  Si12  1  0.667083  0.833542  0.999880  1
  Si  Si13  1  0.833551  0.166449  0.500579  1
  Si  Si14  1  0.833551  0.667102  0.999421  1
  Si  Si15  1  0.667083  0.833542  0.500120  1
  Si  Si16  1  0.166458  0.332917  0.999880  1
  Si  Si17  1  0.332898  0.166449  0.500579  1
  Si  Si18  1  0.166458  0.332917  0.500120  1
  Si  Si19  1  0.833551  0.667102  0.500579  1
  Rh  Rh20  1  0.666667  0.333333  0.997797  1
  Rh  Rh21  1  0.333333  0.666667  0.001326  1
  Rh  Rh22  1  0.333333  0.666667  0.498674  1
  Rh  Rh23  1  0.666667  0.333333  0.502203  1
