# generated using pymatgen
data_Tb4Y16Cd3Ag3Ru2
_symmetry_space_group_name_H-M   'P 1'
_cell_length_a   9.64697292
_cell_length_b   9.64277105
_cell_length_c   9.70198518
_cell_angle_alpha   89.99999951
_cell_angle_beta   89.93354636
_cell_angle_gamma   119.98558815
_symmetry_Int_Tables_number   1
_chemical_formula_structural   Tb4Y16Cd3Ag3Ru2
_chemical_formula_sum   'Tb4 Y16 Cd3 Ag3 Ru2'
_cell_volume   781.71206631
_cell_formula_units_Z   1
loop_
 _symmetry_equiv_pos_site_id
 _symmetry_equiv_pos_as_xyz
  1  'x, y, z'
loop_
 _atom_site_type_symbol
 _atom_site_label
 _atom_site_symmetry_multiplicity
 _atom_site_fract_x
 _atom_site_fract_y
 _atom_site_fract_z
 _atom_site_occupancy
  Tb  Tb0  1  0.000189  0.000095  0.477147  1
  Tb  Tb1  1  0.000034  0.000017  0.022634  1
  Tb  Tb2  1  0.210412  0.789546  0.440123  1
  Tb  Tb3  1  0.210412  0.420867  0.440123  1
  Y  Y4  1  0.580099  0.790050  0.441046  1
  Y  Y5  1  0.790866  0.209065  0.559626  1
  Y  Y6  1  0.790866  0.581801  0.559626  1
  Y  Y7  1  0.418341  0.209171  0.559670  1
  Y  Y8  1  0.790979  0.209108  0.940414  1
  Y  Y9  1  0.790979  0.581871  0.940414  1
  Y  Y10  1  0.418053  0.209027  0.940302  1
  Y  Y11  1  0.210062  0.790106  0.058997  1
  Y  Y12  1  0.210062  0.419957  0.058997  1
  Y  Y13  1  0.579902  0.789951  0.059008  1
  Y  Y14  1  0.540898  0.459160  0.250030  1
  Y  Y15  1  0.540898  0.081737  0.250030  1
  Y  Y16  1  0.918143  0.459072  0.250050  1
  Y  Y17  1  0.458922  0.541219  0.750001  1
  Y  Y18  1  0.458922  0.917701  0.750001  1
  Y  Y19  1  0.082319  0.541159  0.749954  1
  Cd  Cd20  1  0.111437  0.888578  0.750256  1
  Cd  Cd21  1  0.111437  0.222858  0.750256  1
  Cd  Cd22  1  0.776962  0.888480  0.750042  1
  Ag  Ag23  1  0.876548  0.123433  0.249998  1
  Ag  Ag24  1  0.876548  0.753117  0.249998  1
  Ag  Ag25  1  0.246822  0.123412  0.249943  1
  Ru  Ru26  1  0.332248  0.666125  0.251474  1
  Ru  Ru27  1  0.666638  0.333319  0.749840  1
