# generated using pymatgen
data_NdErNpO6
_symmetry_space_group_name_H-M   'P 1'
_cell_length_a   5.64801000
_cell_length_b   7.93663251
_cell_length_c   11.84411679
_cell_angle_alpha   74.70642216
_cell_angle_beta   90.00000000
_cell_angle_gamma   90.00000000
_symmetry_Int_Tables_number   1
_chemical_formula_structural   NdErNpO6
_chemical_formula_sum   'Nd4 Er4 Np4 O24'
_cell_volume   512.12480217
_cell_formula_units_Z   4
loop_
 _symmetry_equiv_pos_site_id
 _symmetry_equiv_pos_as_xyz
  1  'x, y, z'
loop_
 _atom_site_type_symbol
 _atom_site_label
 _atom_site_symmetry_multiplicity
 _atom_site_fract_x
 _atom_site_fract_y
 _atom_site_fract_z
 _atom_site_occupancy
  Nd  Nd0  1  0.694678  0.500000  0.250000  1
  Nd  Nd1  1  0.305322  0.500000  0.750000  1
  Nd  Nd2  1  0.748362  0.000000  0.250000  1
  Nd  Nd3  1  0.251638  0.000000  0.750000  1
  Er  Er4  1  0.185140  0.208237  0.419284  1
  Er  Er5  1  0.185140  0.791763  0.080716  1
  Er  Er6  1  0.814860  0.791763  0.580716  1
  Er  Er7  1  0.814860  0.208237  0.919284  1
  Np  Np8  1  0.256097  0.277110  0.112227  1
  Np  Np9  1  0.256097  0.722890  0.387773  1
  Np  Np10  1  0.743903  0.722890  0.887773  1
  Np  Np11  1  0.743903  0.277110  0.612227  1
  O  O12  1  0.442479  0.202726  0.273285  1
  O  O13  1  0.442479  0.797274  0.226715  1
  O  O14  1  0.557521  0.797274  0.726715  1
  O  O15  1  0.557521  0.202726  0.773285  1
  O  O16  1  0.056812  0.055292  0.099821  1
  O  O17  1  0.056812  0.944708  0.400179  1
  O  O18  1  0.943188  0.944708  0.900179  1
  O  O19  1  0.943188  0.055292  0.599821  1
  O  O20  1  0.972593  0.283171  0.233269  1
  O  O21  1  0.972593  0.716829  0.266731  1
  O  O22  1  0.027407  0.716829  0.766731  1
  O  O23  1  0.027407  0.283171  0.733269  1
  O  O24  1  0.878701  0.368318  0.447132  1
  O  O25  1  0.878701  0.631682  0.052868  1
  O  O26  1  0.121299  0.631682  0.552868  1
  O  O27  1  0.121299  0.368318  0.947132  1
  O  O28  1  0.624672  0.516970  0.613812  1
  O  O29  1  0.624672  0.483030  0.886188  1
  O  O30  1  0.375328  0.483030  0.386188  1
  O  O31  1  0.375328  0.516970  0.113812  1
  O  O32  1  0.443709  0.159666  0.563585  1
  O  O33  1  0.443709  0.840334  0.936415  1
  O  O34  1  0.556291  0.840334  0.436415  1
  O  O35  1  0.556291  0.159666  0.063585  1
