# generated using pymatgen
data_BaFe2Sn4O11
_symmetry_space_group_name_H-M   'P 1'
_cell_length_a   6.22828195
_cell_length_b   6.22828259
_cell_length_c   14.24311520
_cell_angle_alpha   89.99824801
_cell_angle_beta   89.99824595
_cell_angle_gamma   120.12680769
_symmetry_Int_Tables_number   1
_chemical_formula_structural   BaFe2Sn4O11
_chemical_formula_sum   'Ba2 Fe4 Sn8 O22'
_cell_volume   477.87667263
_cell_formula_units_Z   2
loop_
 _symmetry_equiv_pos_site_id
 _symmetry_equiv_pos_as_xyz
  1  'x, y, z'
loop_
 _atom_site_type_symbol
 _atom_site_label
 _atom_site_symmetry_multiplicity
 _atom_site_fract_x
 _atom_site_fract_y
 _atom_site_fract_z
 _atom_site_occupancy
  Ba  Ba0  1  0.331077  0.668923  0.750000  1
  Ba  Ba1  1  0.668923  0.331077  0.250000  1
  Fe  Fe2  1  0.336655  0.663345  0.250000  1
  Fe  Fe3  1  0.663345  0.336655  0.750000  1
  Fe  Fe4  1  0.000000  0.500000  0.000000  1
  Fe  Fe5  1  0.500000  0.000000  0.500000  1
  Sn  Sn6  1  0.500000  0.000000  0.000000  1
  Sn  Sn7  1  0.500000  0.500000  0.000000  1
  Sn  Sn8  1  0.000000  0.500000  0.500000  1
  Sn  Sn9  1  0.500000  0.500000  0.500000  1
  Sn  Sn10  1  0.011582  0.007183  0.853462  1
  Sn  Sn11  1  0.988418  0.992817  0.146538  1
  Sn  Sn12  1  0.007183  0.011582  0.353462  1
  Sn  Sn13  1  0.992817  0.988418  0.646538  1
  O  O14  1  0.292703  0.141747  0.746324  1
  O  O15  1  0.858253  0.707297  0.753676  1
  O  O16  1  0.856681  0.143319  0.750000  1
  O  O17  1  0.707297  0.858253  0.253676  1
  O  O18  1  0.141747  0.292703  0.246324  1
  O  O19  1  0.143319  0.856681  0.250000  1
  O  O20  1  0.326113  0.651405  0.421685  1
  O  O21  1  0.673887  0.348595  0.578315  1
  O  O22  1  0.651405  0.326113  0.921685  1
  O  O23  1  0.348595  0.673887  0.078315  1
  O  O24  1  0.654994  0.827971  0.917109  1
  O  O25  1  0.179039  0.349091  0.918054  1
  O  O26  1  0.178357  0.832191  0.918768  1
  O  O27  1  0.345006  0.172029  0.082891  1
  O  O28  1  0.820961  0.650909  0.081946  1
  O  O29  1  0.821643  0.167809  0.081232  1
  O  O30  1  0.349091  0.179039  0.418054  1
  O  O31  1  0.827971  0.654994  0.417109  1
  O  O32  1  0.832191  0.178357  0.418768  1
  O  O33  1  0.650909  0.820961  0.581946  1
  O  O34  1  0.172029  0.345006  0.582891  1
  O  O35  1  0.167809  0.821643  0.581232  1
