# generated using pymatgen
data_Tb5GaTe4
_symmetry_space_group_name_H-M   'P 1'
_cell_length_a   7.53236769
_cell_length_b   7.53236655
_cell_length_c   10.68364393
_cell_angle_alpha   61.90785951
_cell_angle_beta   61.90785384
_cell_angle_gamma   33.45019846
_symmetry_Int_Tables_number   1
_chemical_formula_structural   Tb5GaTe4
_chemical_formula_sum   'Tb5 Ga1 Te4'
_cell_volume   290.94057060
_cell_formula_units_Z   1
loop_
 _symmetry_equiv_pos_site_id
 _symmetry_equiv_pos_as_xyz
  1  'x, y, z'
loop_
 _atom_site_type_symbol
 _atom_site_label
 _atom_site_symmetry_multiplicity
 _atom_site_fract_x
 _atom_site_fract_y
 _atom_site_fract_z
 _atom_site_occupancy
  Tb  Tb0  1  0.000000  0.000000  0.500000  1
  Tb  Tb1  1  0.586796  0.586796  0.091187  1
  Tb  Tb2  1  0.186524  0.186524  0.726708  1
  Tb  Tb3  1  0.813476  0.813476  0.273292  1
  Tb  Tb4  1  0.413204  0.413204  0.908813  1
  Ga  Ga5  1  0.000000  0.000000  0.000000  1
  Te  Te6  1  0.608338  0.608338  0.589689  1
  Te  Te7  1  0.194868  0.194868  0.195728  1
  Te  Te8  1  0.805132  0.805132  0.804272  1
  Te  Te9  1  0.391662  0.391662  0.410311  1
