# generated using pymatgen
data_Tb8Dy7Ho5Sn16
_symmetry_space_group_name_H-M   'P 1'
_cell_length_a   8.03302702
_cell_length_b   8.18079734
_cell_length_c   15.46287801
_cell_angle_alpha   90.00334109
_cell_angle_beta   90.00107854
_cell_angle_gamma   90.01397234
_symmetry_Int_Tables_number   1
_chemical_formula_structural   Tb8Dy7Ho5Sn16
_chemical_formula_sum   'Tb8 Dy7 Ho5 Sn16'
_cell_volume   1016.16721270
_cell_formula_units_Z   1
loop_
 _symmetry_equiv_pos_site_id
 _symmetry_equiv_pos_as_xyz
  1  'x, y, z'
loop_
 _atom_site_type_symbol
 _atom_site_label
 _atom_site_symmetry_multiplicity
 _atom_site_fract_x
 _atom_site_fract_y
 _atom_site_fract_z
 _atom_site_occupancy
  Tb  Tb0  1  0.520161  0.319805  0.902304  1
  Tb  Tb1  1  0.020217  0.180076  0.597775  1
  Tb  Tb2  1  0.479826  0.680137  0.402294  1
  Tb  Tb3  1  0.979703  0.819830  0.097737  1
  Tb  Tb4  1  0.479770  0.680182  0.097555  1
  Tb  Tb5  1  0.979821  0.819912  0.402270  1
  Tb  Tb6  1  0.520161  0.319905  0.597805  1
  Tb  Tb7  1  0.020257  0.180045  0.902249  1
  Dy  Dy8  1  0.867514  0.664127  0.621856  1
  Dy  Dy9  1  0.632410  0.164069  0.378256  1
  Dy  Dy10  1  0.132531  0.335859  0.121541  1
  Dy  Dy11  1  0.632437  0.164140  0.121773  1
  Dy  Dy12  1  0.132410  0.335906  0.378254  1
  Dy  Dy13  1  0.367598  0.835907  0.621802  1
  Dy  Dy14  1  0.867665  0.664066  0.878319  1
  Ho  Ho15  1  0.367508  0.836067  0.878066  1
  Ho  Ho16  1  0.198466  0.502661  0.750101  1
  Ho  Ho17  1  0.698321  0.997341  0.750056  1
  Ho  Ho18  1  0.801646  0.497447  0.250022  1
  Ho  Ho19  1  0.301649  0.002536  0.249938  1
  Sn  Sn20  1  0.292632  0.034449  0.041743  1
  Sn  Sn21  1  0.792638  0.465114  0.457838  1
  Sn  Sn22  1  0.707390  0.965074  0.542236  1
  Sn  Sn23  1  0.207922  0.535620  0.957636  1
  Sn  Sn24  1  0.706596  0.964886  0.957677  1
  Sn  Sn25  1  0.207343  0.534921  0.542238  1
  Sn  Sn26  1  0.292636  0.034927  0.457813  1
  Sn  Sn27  1  0.792625  0.465126  0.042215  1
  Sn  Sn28  1  0.564823  0.619265  0.750208  1
  Sn  Sn29  1  0.065340  0.880971  0.750263  1
  Sn  Sn30  1  0.434955  0.381058  0.249985  1
  Sn  Sn31  1  0.934999  0.118950  0.249984  1
  Sn  Sn32  1  0.328283  0.146071  0.750161  1
  Sn  Sn33  1  0.828214  0.353651  0.750029  1
  Sn  Sn34  1  0.671772  0.853575  0.249995  1
  Sn  Sn35  1  0.171759  0.646323  0.250004  1
