# generated using pymatgen
data_KMo(PO3)4
_symmetry_space_group_name_H-M   'P 1'
_cell_length_a   10.76346514
_cell_length_b   10.76346501
_cell_length_c   5.41297600
_cell_angle_alpha   80.14937934
_cell_angle_beta   80.14938487
_cell_angle_gamma   71.45164170
_symmetry_Int_Tables_number   1
_chemical_formula_structural   KMo(PO3)4
_chemical_formula_sum   'K2 Mo2 P8 O24'
_cell_volume   581.17902508
_cell_formula_units_Z   2
loop_
 _symmetry_equiv_pos_site_id
 _symmetry_equiv_pos_as_xyz
  1  'x, y, z'
loop_
 _atom_site_type_symbol
 _atom_site_label
 _atom_site_symmetry_multiplicity
 _atom_site_fract_x
 _atom_site_fract_y
 _atom_site_fract_z
 _atom_site_occupancy
  K  K0  1  0.410396  0.410396  0.722475  1
  K  K1  1  0.589604  0.589604  0.277525  1
  Mo  Mo2  1  0.500000  0.000000  0.000000  1
  Mo  Mo3  1  0.000000  0.500000  0.000000  1
  P  P4  1  0.794476  0.354946  0.833972  1
  P  P5  1  0.066107  0.300880  0.543332  1
  P  P6  1  0.300880  0.066107  0.543332  1
  P  P7  1  0.645054  0.205524  0.166028  1
  P  P8  1  0.354946  0.794476  0.833972  1
  P  P9  1  0.699120  0.933893  0.456668  1
  P  P10  1  0.933893  0.699120  0.456668  1
  P  P11  1  0.205524  0.645054  0.166028  1
  O  O12  1  0.430326  0.835730  0.002575  1
  O  O13  1  0.389257  0.101419  0.691675  1
  O  O14  1  0.425004  0.676957  0.703005  1
  O  O15  1  0.164270  0.569674  0.997425  1
  O  O16  1  0.569674  0.164270  0.997425  1
  O  O17  1  0.915315  0.668495  0.739254  1
  O  O18  1  0.218233  0.781767  0.000000  1
  O  O19  1  0.574996  0.323043  0.296995  1
  O  O20  1  0.610743  0.898581  0.308325  1
  O  O21  1  0.709619  0.079019  0.364666  1
  O  O22  1  0.323043  0.574996  0.296995  1
  O  O23  1  0.898581  0.610743  0.308325  1
  O  O24  1  0.835730  0.430326  0.002575  1
  O  O25  1  0.079019  0.709619  0.364666  1
  O  O26  1  0.150166  0.150166  0.617998  1
  O  O27  1  0.101419  0.389257  0.691675  1
  O  O28  1  0.676957  0.425004  0.703005  1
  O  O29  1  0.290381  0.920981  0.635334  1
  O  O30  1  0.781767  0.218233  0.000000  1
  O  O31  1  0.331505  0.084685  0.260746  1
  O  O32  1  0.668495  0.915315  0.739254  1
  O  O33  1  0.849834  0.849834  0.382002  1
  O  O34  1  0.920981  0.290381  0.635334  1
  O  O35  1  0.084685  0.331505  0.260746  1
