# generated using pymatgen
data_Tm8Th4Tc3Os
_symmetry_space_group_name_H-M   'P 1'
_cell_length_a   7.29413271
_cell_length_b   9.35470700
_cell_length_c   6.33075194
_cell_angle_alpha   90.00000000
_cell_angle_beta   89.95958628
_cell_angle_gamma   90.00000000
_symmetry_Int_Tables_number   1
_chemical_formula_structural   Tm8Th4Tc3Os
_chemical_formula_sum   'Tm8 Th4 Tc3 Os1'
_cell_volume   431.97542358
_cell_formula_units_Z   1
loop_
 _symmetry_equiv_pos_site_id
 _symmetry_equiv_pos_as_xyz
  1  'x, y, z'
loop_
 _atom_site_type_symbol
 _atom_site_label
 _atom_site_symmetry_multiplicity
 _atom_site_fract_x
 _atom_site_fract_y
 _atom_site_fract_z
 _atom_site_occupancy
  Tm  Tm0  1  0.172335  0.066695  0.163226  1
  Tm  Tm1  1  0.826277  0.933571  0.833323  1
  Tm  Tm2  1  0.325758  0.932264  0.664920  1
  Tm  Tm3  1  0.826277  0.566429  0.833323  1
  Tm  Tm4  1  0.674643  0.067434  0.333812  1
  Tm  Tm5  1  0.172335  0.433305  0.163226  1
  Tm  Tm6  1  0.674643  0.432566  0.333812  1
  Tm  Tm7  1  0.325758  0.567736  0.664920  1
  Th  Th8  1  0.049246  0.250000  0.642774  1
  Th  Th9  1  0.951952  0.750000  0.358740  1
  Th  Th10  1  0.453765  0.750000  0.139849  1
  Th  Th11  1  0.543821  0.250000  0.854973  1
  Tc  Tc12  1  0.368802  0.250000  0.476654  1
  Tc  Tc13  1  0.630460  0.750000  0.521149  1
  Tc  Tc14  1  0.130468  0.750000  0.977969  1
  Os  Os15  1  0.873460  0.250000  0.037333  1
