# generated using pymatgen
data_SrCaAl20(IrOs)2
_symmetry_space_group_name_H-M   'P 1'
_cell_length_a   6.90753503
_cell_length_b   6.91141879
_cell_length_c   9.21126100
_cell_angle_alpha   90.00000000
_cell_angle_beta   90.00000000
_cell_angle_gamma   96.47878542
_symmetry_Int_Tables_number   1
_chemical_formula_structural   SrCaAl20(IrOs)2
_chemical_formula_sum   'Sr1 Ca1 Al20 Ir2 Os2'
_cell_volume   436.94519317
_cell_formula_units_Z   1
loop_
 _symmetry_equiv_pos_site_id
 _symmetry_equiv_pos_as_xyz
  1  'x, y, z'
loop_
 _atom_site_type_symbol
 _atom_site_label
 _atom_site_symmetry_multiplicity
 _atom_site_fract_x
 _atom_site_fract_y
 _atom_site_fract_z
 _atom_site_occupancy
  Sr  Sr0  1  0.124667  0.877476  0.250000  1
  Ca  Ca1  1  0.871893  0.124073  0.750000  1
  Al  Al2  1  0.620590  0.375778  0.549756  1
  Al  Al3  1  0.380616  0.623264  0.451110  1
  Al  Al4  1  0.380616  0.623264  0.048890  1
  Al  Al5  1  0.620590  0.375778  0.950244  1
  Al  Al6  1  0.224201  0.222590  0.500667  1
  Al  Al7  1  0.775480  0.778198  0.503420  1
  Al  Al8  1  0.775480  0.778198  0.996580  1
  Al  Al9  1  0.224201  0.222590  0.999333  1
  Al  Al10  1  0.838856  0.160262  0.100393  1
  Al  Al11  1  0.160161  0.841002  0.897434  1
  Al  Al12  1  0.160161  0.841002  0.602566  1
  Al  Al13  1  0.838856  0.160262  0.399607  1
  Al  Al14  1  0.854384  0.584475  0.750000  1
  Al  Al15  1  0.143977  0.411093  0.250000  1
  Al  Al16  1  0.415309  0.143843  0.750000  1
  Al  Al17  1  0.588887  0.857453  0.250000  1
  Al  Al18  1  0.221563  0.480539  0.750000  1
  Al  Al19  1  0.776453  0.517937  0.250000  1
  Al  Al20  1  0.519564  0.781917  0.750000  1
  Al  Al21  1  0.482146  0.219906  0.250000  1
  Ir  Ir22  1  0.999895  0.499328  0.500917  1
  Ir  Ir23  1  0.999895  0.499328  0.999083  1
  Os  Os24  1  0.500780  0.000223  0.999048  1
  Os  Os25  1  0.500780  0.000223  0.500952  1
