# generated using pymatgen
data_Tb2Al2CoPd
_symmetry_space_group_name_H-M   'P 1'
_cell_length_a   4.25242100
_cell_length_b   6.83015202
_cell_length_c   7.90707857
_cell_angle_alpha   89.55140184
_cell_angle_beta   90.00000000
_cell_angle_gamma   90.00000000
_symmetry_Int_Tables_number   1
_chemical_formula_structural   Tb2Al2CoPd
_chemical_formula_sum   'Tb4 Al4 Co2 Pd2'
_cell_volume   229.65154227
_cell_formula_units_Z   2
loop_
 _symmetry_equiv_pos_site_id
 _symmetry_equiv_pos_as_xyz
  1  'x, y, z'
loop_
 _atom_site_type_symbol
 _atom_site_label
 _atom_site_symmetry_multiplicity
 _atom_site_fract_x
 _atom_site_fract_y
 _atom_site_fract_z
 _atom_site_occupancy
  Tb  Tb0  1  0.250000  0.540956  0.813899  1
  Tb  Tb1  1  0.750000  0.459044  0.186101  1
  Tb  Tb2  1  0.250000  0.029692  0.670167  1
  Tb  Tb3  1  0.750000  0.970308  0.329833  1
  Al  Al4  1  0.250000  0.631748  0.445079  1
  Al  Al5  1  0.750000  0.368252  0.554921  1
  Al  Al6  1  0.250000  0.141812  0.067814  1
  Al  Al7  1  0.750000  0.858188  0.932186  1
  Co  Co8  1  0.750000  0.731654  0.624065  1
  Co  Co9  1  0.250000  0.268346  0.375935  1
  Pd  Pd10  1  0.750000  0.231148  0.876900  1
  Pd  Pd11  1  0.250000  0.768852  0.123100  1
