# generated using pymatgen
data_Lu7Zr9(Si4W)4
_symmetry_space_group_name_H-M   'P 1'
_cell_length_a   7.09415107
_cell_length_b   7.09143634
_cell_length_c   12.91829500
_cell_angle_alpha   90.09628432
_cell_angle_beta   90.00784226
_cell_angle_gamma   89.96494571
_symmetry_Int_Tables_number   1
_chemical_formula_structural   Lu7Zr9(Si4W)4
_chemical_formula_sum   'Lu7 Zr9 Si16 W4'
_cell_volume   649.88893111
_cell_formula_units_Z   1
loop_
 _symmetry_equiv_pos_site_id
 _symmetry_equiv_pos_as_xyz
  1  'x, y, z'
loop_
 _atom_site_type_symbol
 _atom_site_label
 _atom_site_symmetry_multiplicity
 _atom_site_fract_x
 _atom_site_fract_y
 _atom_site_fract_z
 _atom_site_occupancy
  Lu  Lu0  1  0.499105  0.153572  0.533579  1
  Lu  Lu1  1  0.500983  0.847245  0.034817  1
  Lu  Lu2  1  0.654866  0.001753  0.283389  1
  Lu  Lu3  1  0.346832  0.998707  0.784721  1
  Lu  Lu4  1  0.846150  0.501203  0.966165  1
  Lu  Lu5  1  0.153083  0.499137  0.466652  1
  Lu  Lu6  1  0.001110  0.653602  0.715608  1
  Zr  Zr7  1  0.002134  0.348339  0.215859  1
  Zr  Zr8  1  0.494419  0.355049  0.125444  1
  Zr  Zr9  1  0.504372  0.644523  0.624148  1
  Zr  Zr10  1  0.854800  0.005785  0.875632  1
  Zr  Zr11  1  0.143419  0.995117  0.373358  1
  Zr  Zr12  1  0.645099  0.503726  0.374358  1
  Zr  Zr13  1  0.354742  0.495419  0.876225  1
  Zr  Zr14  1  0.004325  0.855765  0.126324  1
  Zr  Zr15  1  0.994502  0.145031  0.624737  1
  Si  Si16  1  0.800485  0.146718  0.070981  1
  Si  Si17  1  0.201587  0.855988  0.567958  1
  Si  Si18  1  0.644322  0.701262  0.817915  1
  Si  Si19  1  0.352509  0.299675  0.317976  1
  Si  Si20  1  0.856405  0.203117  0.429638  1
  Si  Si21  1  0.144128  0.798321  0.932485  1
  Si  Si22  1  0.704886  0.642240  0.180752  1
  Si  Si23  1  0.298901  0.354958  0.681951  1
  Si  Si24  1  0.550412  0.201748  0.933768  1
  Si  Si25  1  0.449560  0.798189  0.432611  1
  Si  Si26  1  0.701128  0.949994  0.683208  1
  Si  Si27  1  0.298068  0.050877  0.183195  1
  Si  Si28  1  0.798400  0.450060  0.566290  1
  Si  Si29  1  0.200663  0.549870  0.067309  1
  Si  Si30  1  0.950869  0.698184  0.316336  1
  Si  Si31  1  0.050275  0.298580  0.816713  1
  W  W32  1  0.676439  0.323070  0.749871  1
  W  W33  1  0.321730  0.674202  0.250001  1
  W  W34  1  0.823696  0.822109  0.499162  1
  W  W35  1  0.175598  0.176866  0.000863  1
