# generated using pymatgen
data_Y5Zr3As9P3Rh16
_symmetry_space_group_name_H-M   'P 1'
_cell_length_a   13.24382900
_cell_length_b   13.24382894
_cell_length_c   3.99297100
_cell_angle_alpha   90.00000000
_cell_angle_beta   90.00000000
_cell_angle_gamma   120.00000265
_symmetry_Int_Tables_number   1
_chemical_formula_structural   Y5Zr3As9P3Rh16
_chemical_formula_sum   'Y5 Zr3 As9 P3 Rh16'
_cell_volume   606.53225802
_cell_formula_units_Z   1
loop_
 _symmetry_equiv_pos_site_id
 _symmetry_equiv_pos_as_xyz
  1  'x, y, z'
loop_
 _atom_site_type_symbol
 _atom_site_label
 _atom_site_symmetry_multiplicity
 _atom_site_fract_x
 _atom_site_fract_y
 _atom_site_fract_z
 _atom_site_occupancy
  Y  Y0  1  0.181603  0.181603  0.500000  1
  Y  Y1  1  0.818397  0.000000  0.500000  1
  Y  Y2  1  0.000000  0.818397  0.500000  1
  Y  Y3  1  0.333333  0.666667  0.000000  1
  Y  Y4  1  0.666667  0.333333  0.000000  1
  Zr  Zr5  1  0.556696  0.556696  0.000000  1
  Zr  Zr6  1  0.443304  0.000000  0.000000  1
  Zr  Zr7  1  0.000000  0.443304  0.000000  1
  As  As8  1  0.168754  0.482685  0.500000  1
  As  As9  1  0.517315  0.686069  0.500000  1
  As  As10  1  0.313931  0.831246  0.500000  1
  As  As11  1  0.686069  0.517315  0.500000  1
  As  As12  1  0.831246  0.313931  0.500000  1
  As  As13  1  0.482685  0.168754  0.500000  1
  As  As14  1  0.352098  0.352098  0.000000  1
  As  As15  1  0.647902  0.000000  0.000000  1
  As  As16  1  0.000000  0.647902  0.000000  1
  P  P17  1  0.826067  0.826067  0.000000  1
  P  P18  1  0.173933  0.000000  0.000000  1
  P  P19  1  0.000000  0.173933  0.000000  1
  Rh  Rh20  1  0.730138  0.730138  0.500000  1
  Rh  Rh21  1  0.269862  0.000000  0.500000  1
  Rh  Rh22  1  0.000000  0.269862  0.500000  1
  Rh  Rh23  1  0.172013  0.366642  0.000000  1
  Rh  Rh24  1  0.633358  0.805372  0.000000  1
  Rh  Rh25  1  0.194628  0.827987  0.000000  1
  Rh  Rh26  1  0.805372  0.633358  0.000000  1
  Rh  Rh27  1  0.827987  0.194628  0.000000  1
  Rh  Rh28  1  0.366642  0.172013  0.000000  1
  Rh  Rh29  1  0.354135  0.481892  0.500000  1
  Rh  Rh30  1  0.518108  0.872244  0.500000  1
  Rh  Rh31  1  0.127756  0.645865  0.500000  1
  Rh  Rh32  1  0.872244  0.518108  0.500000  1
  Rh  Rh33  1  0.645865  0.127756  0.500000  1
  Rh  Rh34  1  0.481892  0.354135  0.500000  1
  Rh  Rh35  1  0.000000  0.000000  0.000000  1
