# generated using pymatgen
data_Er16AlCd2InPdPt3
_symmetry_space_group_name_H-M   'P 1'
_cell_length_a   9.55854615
_cell_length_b   9.55854503
_cell_length_c   9.55854500
_cell_angle_alpha   60.43237933
_cell_angle_beta   60.43237625
_cell_angle_gamma   60.43237733
_symmetry_Int_Tables_number   1
_chemical_formula_structural   Er16AlCd2InPdPt3
_chemical_formula_sum   'Er16 Al1 Cd2 In1 Pd1 Pt3'
_cell_volume   623.57036180
_cell_formula_units_Z   1
loop_
 _symmetry_equiv_pos_site_id
 _symmetry_equiv_pos_as_xyz
  1  'x, y, z'
loop_
 _atom_site_type_symbol
 _atom_site_label
 _atom_site_symmetry_multiplicity
 _atom_site_fract_x
 _atom_site_fract_y
 _atom_site_fract_z
 _atom_site_occupancy
  Er  Er0  1  0.347885  0.347885  0.348478  1
  Er  Er1  1  0.357477  0.357477  0.935240  1
  Er  Er2  1  0.357555  0.935180  0.357633  1
  Er  Er3  1  0.935180  0.357555  0.357633  1
  Er  Er4  1  0.808462  0.190599  0.190038  1
  Er  Er5  1  0.195663  0.808571  0.808551  1
  Er  Er6  1  0.190599  0.808462  0.190038  1
  Er  Er7  1  0.808571  0.195663  0.808551  1
  Er  Er8  1  0.189793  0.189793  0.809268  1
  Er  Er9  1  0.808147  0.808147  0.195988  1
  Er  Er10  1  0.932710  0.567574  0.567116  1
  Er  Er11  1  0.565590  0.938012  0.936396  1
  Er  Er12  1  0.567574  0.932710  0.567116  1
  Er  Er13  1  0.938012  0.565590  0.936396  1
  Er  Er14  1  0.567301  0.567301  0.931554  1
  Er  Er15  1  0.937434  0.937434  0.565158  1
  Al  Al16  1  0.582271  0.582271  0.582279  1
  Cd  Cd17  1  0.579814  0.254888  0.580927  1
  Cd  Cd18  1  0.254888  0.579814  0.580927  1
  In  In19  1  0.580073  0.580073  0.255617  1
  Pd  Pd20  1  0.145624  0.145624  0.145546  1
  Pt  Pt21  1  0.139143  0.139143  0.571167  1
  Pt  Pt22  1  0.139214  0.571019  0.139191  1
  Pt  Pt23  1  0.571019  0.139214  0.139191  1
