# generated using pymatgen
data_Tb2Y4Al24Os7Au
_symmetry_space_group_name_H-M   'P 1'
_cell_length_a   8.87303580
_cell_length_b   8.86901406
_cell_length_c   9.56797721
_cell_angle_alpha   89.81499184
_cell_angle_beta   90.18387800
_cell_angle_gamma   119.98021664
_symmetry_Int_Tables_number   1
_chemical_formula_structural   Tb2Y4Al24Os7Au
_chemical_formula_sum   'Tb2 Y4 Al24 Os7 Au1'
_cell_volume   652.20163321
_cell_formula_units_Z   1
loop_
 _symmetry_equiv_pos_site_id
 _symmetry_equiv_pos_as_xyz
  1  'x, y, z'
loop_
 _atom_site_type_symbol
 _atom_site_label
 _atom_site_symmetry_multiplicity
 _atom_site_fract_x
 _atom_site_fract_y
 _atom_site_fract_z
 _atom_site_occupancy
  Tb  Tb0  1  0.190605  0.385719  0.250765  1
  Tb  Tb1  1  0.809395  0.614281  0.749235  1
  Y  Y2  1  0.614096  0.809313  0.250763  1
  Y  Y3  1  0.385904  0.190687  0.749237  1
  Y  Y4  1  0.194442  0.805540  0.253753  1
  Y  Y5  1  0.805558  0.194460  0.746247  1
  Al  Al6  1  0.328571  0.671461  0.020724  1
  Al  Al7  1  0.671429  0.328539  0.979276  1
  Al  Al8  1  0.666080  0.333843  0.517697  1
  Al  Al9  1  0.333920  0.666157  0.482303  1
  Al  Al10  1  0.162762  0.326018  0.574834  1
  Al  Al11  1  0.837238  0.673982  0.425166  1
  Al  Al12  1  0.674004  0.837286  0.574844  1
  Al  Al13  1  0.848491  0.677474  0.079130  1
  Al  Al14  1  0.325996  0.162714  0.425156  1
  Al  Al15  1  0.151509  0.322526  0.920870  1
  Al  Al16  1  0.163241  0.836812  0.574996  1
  Al  Al17  1  0.322491  0.151473  0.079160  1
  Al  Al18  1  0.836759  0.163188  0.425004  1
  Al  Al19  1  0.677509  0.848527  0.920840  1
  Al  Al20  1  0.836702  0.163239  0.075350  1
  Al  Al21  1  0.163298  0.836761  0.924650  1
  Al  Al22  1  0.561062  0.121202  0.249318  1
  Al  Al23  1  0.438938  0.878798  0.750682  1
  Al  Al24  1  0.878728  0.438945  0.249323  1
  Al  Al25  1  0.121272  0.561055  0.750677  1
  Al  Al26  1  0.563777  0.436251  0.255903  1
  Al  Al27  1  0.436223  0.563749  0.744097  1
  Al  Al28  1  0.999599  0.000482  0.250406  1
  Al  Al29  1  0.000401  0.999518  0.749594  1
  Os  Os30  1  0.500000  0.000000  0.000000  1
  Os  Os31  1  0.000000  0.500000  0.000000  1
  Os  Os32  1  0.500000  0.000000  0.500000  1
  Os  Os33  1  0.000000  0.500000  0.500000  1
  Os  Os34  1  0.500000  0.500000  0.500000  1
  Os  Os35  1  0.000000  0.000000  0.000000  1
  Os  Os36  1  0.000000  0.000000  0.500000  1
  Au  Au37  1  0.500000  0.500000  0.000000  1
