# generated using pymatgen
data_Rb2Tb3Y3F20
_symmetry_space_group_name_H-M   'P 1'
_cell_length_a   8.32210278
_cell_length_b   8.32189428
_cell_length_c   8.32167700
_cell_angle_alpha   60.00251460
_cell_angle_beta   60.00003551
_cell_angle_gamma   59.99744753
_symmetry_Int_Tables_number   1
_chemical_formula_structural   Rb2Tb3Y3F20
_chemical_formula_sum   'Rb2 Tb3 Y3 F20'
_cell_volume   407.52205490
_cell_formula_units_Z   1
loop_
 _symmetry_equiv_pos_site_id
 _symmetry_equiv_pos_as_xyz
  1  'x, y, z'
loop_
 _atom_site_type_symbol
 _atom_site_label
 _atom_site_symmetry_multiplicity
 _atom_site_fract_x
 _atom_site_fract_y
 _atom_site_fract_z
 _atom_site_occupancy
  Rb  Rb0  1  0.250001  0.249999  0.250001  1
  Rb  Rb1  1  0.750001  0.749999  0.750001  1
  Tb  Tb2  1  0.759609  0.240391  0.759609  1
  Tb  Tb3  1  0.240396  0.240427  0.759573  1
  Tb  Tb4  1  0.759573  0.759604  0.240396  1
  Y  Y5  1  0.759426  0.240574  0.240552  1
  Y  Y6  1  0.240552  0.759448  0.759426  1
  Y  Y7  1  0.240582  0.759418  0.240582  1
  F  F8  1  0.829350  0.500006  0.499994  1
  F  F9  1  0.170674  0.500237  0.499763  1
  F  F10  1  0.499763  0.829326  0.170674  1
  F  F11  1  0.499994  0.170650  0.829350  1
  F  F12  1  0.499774  0.829307  0.500236  1
  F  F13  1  0.170693  0.500226  0.829317  1
  F  F14  1  0.500236  0.170683  0.499774  1
  F  F15  1  0.829317  0.499764  0.170693  1
  F  F16  1  0.499764  0.500236  0.829298  1
  F  F17  1  0.499995  0.500005  0.170724  1
  F  F18  1  0.170724  0.829276  0.499995  1
  F  F19  1  0.829298  0.170702  0.499764  1
  F  F20  1  0.110417  0.110410  0.110648  1
  F  F21  1  0.889653  0.889410  0.889421  1
  F  F22  1  0.110590  0.110347  0.668484  1
  F  F23  1  0.110648  0.668525  0.110417  1
  F  F24  1  0.889590  0.889583  0.331475  1
  F  F25  1  0.889421  0.331516  0.889653  1
  F  F26  1  0.668484  0.110579  0.110590  1
  F  F27  1  0.331475  0.889352  0.889590  1
