# generated using pymatgen
data_Na3In3PtAu2
_symmetry_space_group_name_H-M   'P 1'
_cell_length_a   7.60807700
_cell_length_b   7.60807679
_cell_length_c   4.07151700
_cell_angle_alpha   90.00000000
_cell_angle_beta   90.00000000
_cell_angle_gamma   119.99999657
_symmetry_Int_Tables_number   1
_chemical_formula_structural   Na3In3PtAu2
_chemical_formula_sum   'Na3 In3 Pt1 Au2'
_cell_volume   204.09703040
_cell_formula_units_Z   1
loop_
 _symmetry_equiv_pos_site_id
 _symmetry_equiv_pos_as_xyz
  1  'x, y, z'
loop_
 _atom_site_type_symbol
 _atom_site_label
 _atom_site_symmetry_multiplicity
 _atom_site_fract_x
 _atom_site_fract_y
 _atom_site_fract_z
 _atom_site_occupancy
  Na  Na0  1  0.402524  0.402524  0.500000  1
  Na  Na1  1  0.597476  0.000000  0.500000  1
  Na  Na2  1  0.000000  0.597476  0.500000  1
  In  In3  1  0.745051  0.745051  0.000000  1
  In  In4  1  0.254949  0.000000  0.000000  1
  In  In5  1  0.000000  0.254949  0.000000  1
  Pt  Pt6  1  0.000000  0.000000  0.500000  1
  Au  Au7  1  0.666667  0.333333  0.000000  1
  Au  Au8  1  0.333333  0.666667  0.000000  1
