# generated using pymatgen
data_LaPr7(ErBi)12
_symmetry_space_group_name_H-M   'P 1'
_cell_length_a   8.37397600
_cell_length_b   9.54528800
_cell_length_c   12.30666200
_cell_angle_alpha   90.00000000
_cell_angle_beta   90.00045158
_cell_angle_gamma   90.00000000
_symmetry_Int_Tables_number   1
_chemical_formula_structural   LaPr7(ErBi)12
_chemical_formula_sum   'La1 Pr7 Er12 Bi12'
_cell_volume   983.69626236
_cell_formula_units_Z   1
loop_
 _symmetry_equiv_pos_site_id
 _symmetry_equiv_pos_as_xyz
  1  'x, y, z'
loop_
 _atom_site_type_symbol
 _atom_site_label
 _atom_site_symmetry_multiplicity
 _atom_site_fract_x
 _atom_site_fract_y
 _atom_site_fract_z
 _atom_site_occupancy
  La  La0  1  0.146881  0.250000  0.715370  1
  Pr  Pr1  1  0.184382  0.750000  0.720612  1
  Pr  Pr2  1  0.684294  0.750000  0.779314  1
  Pr  Pr3  1  0.815426  0.250000  0.279071  1
  Pr  Pr4  1  0.315404  0.250000  0.220458  1
  Pr  Pr5  1  0.352542  0.750000  0.215808  1
  Pr  Pr6  1  0.852324  0.750000  0.283944  1
  Pr  Pr7  1  0.647865  0.250000  0.784319  1
  Er  Er8  1  0.024851  0.750000  0.988553  1
  Er  Er9  1  0.525155  0.750000  0.511609  1
  Er  Er10  1  0.974938  0.250000  0.012121  1
  Er  Er11  1  0.475346  0.250000  0.488105  1
  Er  Er12  1  0.309398  0.435019  0.942675  1
  Er  Er13  1  0.808707  0.064962  0.557047  1
  Er  Er14  1  0.690792  0.935019  0.057632  1
  Er  Er15  1  0.191050  0.565084  0.442296  1
  Er  Er16  1  0.690792  0.564981  0.057632  1
  Er  Er17  1  0.191050  0.934916  0.442296  1
  Er  Er18  1  0.309398  0.064981  0.942675  1
  Er  Er19  1  0.808707  0.435038  0.557047  1
  Bi  Bi20  1  0.435638  0.004220  0.667148  1
  Bi  Bi21  1  0.934462  0.495856  0.834131  1
  Bi  Bi22  1  0.564779  0.504701  0.332996  1
  Bi  Bi23  1  0.064954  0.995069  0.167257  1
  Bi  Bi24  1  0.564779  0.995299  0.332996  1
  Bi  Bi25  1  0.064954  0.504931  0.167257  1
  Bi  Bi26  1  0.435638  0.495780  0.667148  1
  Bi  Bi27  1  0.934462  0.004144  0.834131  1
  Bi  Bi28  1  0.405224  0.750000  0.957149  1
  Bi  Bi29  1  0.905273  0.750000  0.542642  1
  Bi  Bi30  1  0.595379  0.250000  0.043066  1
  Bi  Bi31  1  0.095159  0.250000  0.455499  1
