# generated using pymatgen
data_Re2N2F3
_symmetry_space_group_name_H-M   'P 1'
_cell_length_a   5.03985124
_cell_length_b   5.58036637
_cell_length_c   6.87917272
_cell_angle_alpha   105.68468401
_cell_angle_beta   111.48837334
_cell_angle_gamma   90.00000349
_symmetry_Int_Tables_number   1
_chemical_formula_structural   Re2N2F3
_chemical_formula_sum   'Re4 N4 F6'
_cell_volume   172.25793631
_cell_formula_units_Z   2
loop_
 _symmetry_equiv_pos_site_id
 _symmetry_equiv_pos_as_xyz
  1  'x, y, z'
loop_
 _atom_site_type_symbol
 _atom_site_label
 _atom_site_symmetry_multiplicity
 _atom_site_fract_x
 _atom_site_fract_y
 _atom_site_fract_z
 _atom_site_occupancy
  Re  Re0  1  0.398030  0.820667  0.328376  1
  Re  Re1  1  0.069654  0.679333  0.671624  1
  Re  Re2  1  0.601970  0.179333  0.671624  1
  Re  Re3  1  0.930346  0.320667  0.328376  1
  N  N4  1  0.752067  0.859300  0.590383  1
  N  N5  1  0.161684  0.640700  0.409617  1
  N  N6  1  0.247933  0.140700  0.409617  1
  N  N7  1  0.838316  0.359300  0.590383  1
  F  F8  1  0.544328  0.486493  0.202072  1
  F  F9  1  0.342257  0.013507  0.797928  1
  F  F10  1  0.455672  0.513507  0.797928  1
  F  F11  1  0.657743  0.986493  0.202072  1
  F  F12  1  0.116403  0.750000  0.000000  1
  F  F13  1  0.883597  0.250000  0.000000  1
