# generated using pymatgen
data_Y3PaV3ReB16
_symmetry_space_group_name_H-M   'P 1'
_cell_length_a   3.54929000
_cell_length_b   5.97976850
_cell_length_c   11.56143550
_cell_angle_alpha   89.88651326
_cell_angle_beta   90.00000000
_cell_angle_gamma   90.00000000
_symmetry_Int_Tables_number   1
_chemical_formula_structural   Y3PaV3ReB16
_chemical_formula_sum   'Y3 Pa1 V3 Re1 B16'
_cell_volume   245.37864567
_cell_formula_units_Z   1
loop_
 _symmetry_equiv_pos_site_id
 _symmetry_equiv_pos_as_xyz
  1  'x, y, z'
loop_
 _atom_site_type_symbol
 _atom_site_label
 _atom_site_symmetry_multiplicity
 _atom_site_fract_x
 _atom_site_fract_y
 _atom_site_fract_z
 _atom_site_occupancy
  Y  Y0  1  0.000000  0.374531  0.651086  1
  Y  Y1  1  0.000000  0.125238  0.150650  1
  Y  Y2  1  0.000000  0.875172  0.847572  1
  Pa  Pa3  1  0.000000  0.625576  0.351534  1
  V  V4  1  0.000000  0.370879  0.918230  1
  V  V5  1  0.000000  0.126364  0.415928  1
  V  V6  1  0.000000  0.873327  0.580473  1
  Re  Re7  1  0.000000  0.626549  0.084709  1
  B  B8  1  0.500000  0.783574  0.185569  1
  B  B9  1  0.500000  0.215320  0.814465  1
  B  B10  1  0.500000  0.285043  0.315489  1
  B  B11  1  0.500000  0.716690  0.685706  1
  B  B12  1  0.500000  0.864837  0.031758  1
  B  B13  1  0.500000  0.135147  0.967416  1
  B  B14  1  0.500000  0.364111  0.466534  1
  B  B15  1  0.500000  0.637588  0.532672  1
  B  B16  1  0.500000  0.888368  0.453653  1
  B  B17  1  0.500000  0.114047  0.546944  1
  B  B18  1  0.500000  0.386087  0.046575  1
  B  B19  1  0.500000  0.614150  0.952629  1
  B  B20  1  0.500000  0.974253  0.308657  1
  B  B21  1  0.500000  0.023259  0.692369  1
  B  B22  1  0.500000  0.476289  0.191875  1
  B  B23  1  0.500000  0.523601  0.807507  1
