# generated using pymatgen
data_Rb12Na8Ti(SnAs4)3
_symmetry_space_group_name_H-M   'P 1'
_cell_length_a   10.95577000
_cell_length_b   10.95576988
_cell_length_c   16.11899701
_cell_angle_alpha   90.00269962
_cell_angle_beta   90.00269917
_cell_angle_gamma   142.95358324
_symmetry_Int_Tables_number   1
_chemical_formula_structural   Rb12Na8Ti(SnAs4)3
_chemical_formula_sum   'Rb12 Na8 Ti1 Sn3 As12'
_cell_volume   1165.61022249
_cell_formula_units_Z   1
loop_
 _symmetry_equiv_pos_site_id
 _symmetry_equiv_pos_as_xyz
  1  'x, y, z'
loop_
 _atom_site_type_symbol
 _atom_site_label
 _atom_site_symmetry_multiplicity
 _atom_site_fract_x
 _atom_site_fract_y
 _atom_site_fract_z
 _atom_site_occupancy
  Rb  Rb0  1  0.602654  0.935583  0.827737  1
  Rb  Rb1  1  0.267485  0.267550  0.320020  1
  Rb  Rb2  1  0.227771  0.229337  0.820753  1
  Rb  Rb3  1  0.732450  0.732515  0.679980  1
  Rb  Rb4  1  0.437827  0.103319  0.676036  1
  Rb  Rb5  1  0.896681  0.562173  0.323964  1
  Rb  Rb6  1  0.064417  0.397346  0.172263  1
  Rb  Rb7  1  0.392760  0.057081  0.171815  1
  Rb  Rb8  1  0.561486  0.895800  0.326284  1
  Rb  Rb9  1  0.104200  0.438514  0.673716  1
  Rb  Rb10  1  0.942919  0.607240  0.828185  1
  Rb  Rb11  1  0.770663  0.772229  0.179247  1
  Na  Na12  1  0.080915  0.919085  0.000000  1
  Na  Na13  1  0.581118  0.418882  0.500000  1
  Na  Na14  1  0.919854  0.080146  0.000000  1
  Na  Na15  1  0.753287  0.246713  0.000000  1
  Na  Na16  1  0.745563  0.254437  0.500000  1
  Na  Na17  1  0.245887  0.754113  0.000000  1
  Na  Na18  1  0.254207  0.745793  0.500000  1
  Na  Na19  1  0.419027  0.580973  0.500000  1
  Ti  Ti20  1  0.582944  0.417056  0.000000  1
  Sn  Sn21  1  0.088721  0.911279  0.500000  1
  Sn  Sn22  1  0.416435  0.583565  0.000000  1
  Sn  Sn23  1  0.911289  0.088711  0.500000  1
  As  As24  1  0.062692  0.380342  0.398304  1
  As  As25  1  0.857672  0.552649  0.092789  1
  As  As26  1  0.447351  0.142328  0.907211  1
  As  As27  1  0.619658  0.937308  0.601696  1
  As  As28  1  0.937462  0.619906  0.601811  1
  As  As29  1  0.123035  0.436965  0.900120  1
  As  As30  1  0.563035  0.876965  0.099880  1
  As  As31  1  0.380094  0.062538  0.398189  1
  As  As32  1  0.203691  0.203612  0.591173  1
  As  As33  1  0.706757  0.698393  0.909562  1
  As  As34  1  0.301607  0.293243  0.090438  1
  As  As35  1  0.796388  0.796309  0.408827  1
