# generated using pymatgen
data_NdScP7Ru11Rh
_symmetry_space_group_name_H-M   'P 1'
_cell_length_a   9.39893928
_cell_length_b   9.44930047
_cell_length_c   3.93839800
_cell_angle_alpha   90.00000000
_cell_angle_beta   90.00000000
_cell_angle_gamma   119.75810337
_symmetry_Int_Tables_number   1
_chemical_formula_structural   NdScP7Ru11Rh
_chemical_formula_sum   'Nd1 Sc1 P7 Ru11 Rh1'
_cell_volume   303.65622056
_cell_formula_units_Z   1
loop_
 _symmetry_equiv_pos_site_id
 _symmetry_equiv_pos_as_xyz
  1  'x, y, z'
loop_
 _atom_site_type_symbol
 _atom_site_label
 _atom_site_symmetry_multiplicity
 _atom_site_fract_x
 _atom_site_fract_y
 _atom_site_fract_z
 _atom_site_occupancy
  Nd  Nd0  1  0.331673  0.662973  0.000000  1
  Sc  Sc1  1  0.668981  0.334998  0.500000  1
  P  P2  1  0.603635  0.713431  0.500000  1
  P  P3  1  0.997534  0.999365  0.000000  1
  P  P4  1  0.278013  0.883833  0.500000  1
  P  P5  1  0.114354  0.396308  0.500000  1
  P  P6  1  0.885299  0.572535  0.000000  1
  P  P7  1  0.430474  0.312719  0.000000  1
  P  P8  1  0.692288  0.120964  0.000000  1
  Ru  Ru9  1  0.395147  0.438246  0.500000  1
  Ru  Ru10  1  0.912214  0.122404  0.500000  1
  Ru  Ru11  1  0.207845  0.086504  0.500000  1
  Ru  Ru12  1  0.879953  0.796524  0.500000  1
  Ru  Ru13  1  0.724389  0.891871  0.000000  1
  Ru  Ru14  1  0.109151  0.837408  0.000000  1
  Ru  Ru15  1  0.163789  0.270180  0.000000  1
  Ru  Ru16  1  0.428744  0.071671  0.000000  1
  Ru  Ru17  1  0.930872  0.356933  0.000000  1
  Ru  Ru18  1  0.646058  0.574985  0.000000  1
  Ru  Ru19  1  0.044885  0.605007  0.500000  1
  Rh  Rh20  1  0.554702  0.951141  0.500000  1
