# generated using pymatgen
data_TbEr4Tm3Au4
_symmetry_space_group_name_H-M   'P 1'
_cell_length_a   4.89060500
_cell_length_b   7.10168311
_cell_length_c   8.87530006
_cell_angle_alpha   90.01382754
_cell_angle_beta   90.00000000
_cell_angle_gamma   90.00000000
_symmetry_Int_Tables_number   1
_chemical_formula_structural   TbEr4Tm3Au4
_chemical_formula_sum   'Tb1 Er4 Tm3 Au4'
_cell_volume   308.25271417
_cell_formula_units_Z   1
loop_
 _symmetry_equiv_pos_site_id
 _symmetry_equiv_pos_as_xyz
  1  'x, y, z'
loop_
 _atom_site_type_symbol
 _atom_site_label
 _atom_site_symmetry_multiplicity
 _atom_site_fract_x
 _atom_site_fract_y
 _atom_site_fract_z
 _atom_site_occupancy
  Tb  Tb0  1  0.250000  0.986938  0.322998  1
  Er  Er1  1  0.750000  0.648203  0.419737  1
  Er  Er2  1  0.250000  0.484992  0.176391  1
  Er  Er3  1  0.750000  0.514355  0.823024  1
  Er  Er4  1  0.750000  0.014947  0.677784  1
  Tm  Tm5  1  0.250000  0.851199  0.920672  1
  Tm  Tm6  1  0.250000  0.351950  0.580463  1
  Tm  Tm7  1  0.750000  0.149085  0.078393  1
  Au  Au8  1  0.250000  0.254147  0.899848  1
  Au  Au9  1  0.250000  0.754587  0.602667  1
  Au  Au10  1  0.750000  0.745486  0.097715  1
  Au  Au11  1  0.750000  0.244110  0.400309  1
