# generated using pymatgen
data_LaTb3(Tm4Bi3)4
_symmetry_space_group_name_H-M   'P 1'
_cell_length_a   8.20122301
_cell_length_b   9.43977000
_cell_length_c   11.94253200
_cell_angle_alpha   90.00000000
_cell_angle_beta   89.99721249
_cell_angle_gamma   90.00000000
_symmetry_Int_Tables_number   1
_chemical_formula_structural   LaTb3(Tm4Bi3)4
_chemical_formula_sum   'La1 Tb3 Tm16 Bi12'
_cell_volume   924.56286805
_cell_formula_units_Z   1
loop_
 _symmetry_equiv_pos_site_id
 _symmetry_equiv_pos_as_xyz
  1  'x, y, z'
loop_
 _atom_site_type_symbol
 _atom_site_label
 _atom_site_symmetry_multiplicity
 _atom_site_fract_x
 _atom_site_fract_y
 _atom_site_fract_z
 _atom_site_occupancy
  La  La0  1  0.184272  0.750000  0.720666  1
  Tb  Tb1  1  0.314086  0.250000  0.218127  1
  Tb  Tb2  1  0.814161  0.250000  0.281986  1
  Tb  Tb3  1  0.685426  0.750000  0.781535  1
  Tm  Tm4  1  0.353063  0.750000  0.218249  1
  Tm  Tm5  1  0.852416  0.750000  0.281000  1
  Tm  Tm6  1  0.648387  0.250000  0.782862  1
  Tm  Tm7  1  0.147351  0.250000  0.717897  1
  Tm  Tm8  1  0.692361  0.565397  0.060569  1
  Tm  Tm9  1  0.191290  0.934166  0.438869  1
  Tm  Tm10  1  0.307917  0.066115  0.940538  1
  Tm  Tm11  1  0.809154  0.434055  0.560165  1
  Tm  Tm12  1  0.307917  0.433885  0.940538  1
  Tm  Tm13  1  0.809154  0.065945  0.560165  1
  Tm  Tm14  1  0.692361  0.934603  0.060569  1
  Tm  Tm15  1  0.191290  0.565834  0.438869  1
  Tm  Tm16  1  0.477787  0.250000  0.487833  1
  Tm  Tm17  1  0.976457  0.250000  0.011671  1
  Tm  Tm18  1  0.522421  0.750000  0.510094  1
  Tm  Tm19  1  0.022249  0.750000  0.989109  1
  Bi  Bi20  1  0.406444  0.750000  0.961983  1
  Bi  Bi21  1  0.899845  0.750000  0.537055  1
  Bi  Bi22  1  0.595750  0.250000  0.040749  1
  Bi  Bi23  1  0.096155  0.250000  0.459564  1
  Bi  Bi24  1  0.565755  0.994791  0.326215  1
  Bi  Bi25  1  0.066163  0.505480  0.173188  1
  Bi  Bi26  1  0.438693  0.491233  0.672399  1
  Bi  Bi27  1  0.930532  0.008593  0.827866  1
  Bi  Bi28  1  0.438693  0.008767  0.672399  1
  Bi  Bi29  1  0.930532  0.491407  0.827866  1
  Bi  Bi30  1  0.565755  0.505209  0.326215  1
  Bi  Bi31  1  0.066163  0.994520  0.173188  1
