# generated using pymatgen
data_Sc3Si2GeRu3
_symmetry_space_group_name_H-M   'P 1'
_cell_length_a   6.95536700
_cell_length_b   6.95536804
_cell_length_c   3.39479200
_cell_angle_alpha   90.00000000
_cell_angle_beta   90.00000000
_cell_angle_gamma   119.99999032
_symmetry_Int_Tables_number   1
_chemical_formula_structural   Sc3Si2GeRu3
_chemical_formula_sum   'Sc3 Si2 Ge1 Ru3'
_cell_volume   142.22764197
_cell_formula_units_Z   1
loop_
 _symmetry_equiv_pos_site_id
 _symmetry_equiv_pos_as_xyz
  1  'x, y, z'
loop_
 _atom_site_type_symbol
 _atom_site_label
 _atom_site_symmetry_multiplicity
 _atom_site_fract_x
 _atom_site_fract_y
 _atom_site_fract_z
 _atom_site_occupancy
  Sc  Sc0  1  0.399180  0.403657  0.500000  1
  Sc  Sc1  1  0.596343  0.995523  0.500000  1
  Sc  Sc2  1  0.004477  0.600820  0.500000  1
  Si  Si3  1  0.333333  0.666667  0.000000  1
  Si  Si4  1  0.000000  0.000000  0.500000  1
  Ge  Ge5  1  0.666667  0.333333  0.000000  1
  Ru  Ru6  1  0.747630  0.752253  0.000000  1
  Ru  Ru7  1  0.247747  0.995376  0.000000  1
  Ru  Ru8  1  0.004624  0.252370  0.000000  1
