# generated using pymatgen
data_Nd3Dy(MoO4)6
_symmetry_space_group_name_H-M   'P 1'
_cell_length_a   7.59779011
_cell_length_b   7.59779011
_cell_length_c   10.90386441
_cell_angle_alpha   89.86842417
_cell_angle_beta   90.13157583
_cell_angle_gamma   89.84343163
_symmetry_Int_Tables_number   1
_chemical_formula_structural   Nd3Dy(MoO4)6
_chemical_formula_sum   'Nd3 Dy1 Mo6 O24'
_cell_volume   629.43531840
_cell_formula_units_Z   1
loop_
 _symmetry_equiv_pos_site_id
 _symmetry_equiv_pos_as_xyz
  1  'x, y, z'
loop_
 _atom_site_type_symbol
 _atom_site_label
 _atom_site_symmetry_multiplicity
 _atom_site_fract_x
 _atom_site_fract_y
 _atom_site_fract_z
 _atom_site_occupancy
  Nd  Nd0  1  0.189120  0.688858  0.738330  1
  Nd  Nd1  1  0.811142  0.310880  0.738330  1
  Nd  Nd2  1  0.685800  0.814200  0.260604  1
  Dy  Dy3  1  0.308812  0.191188  0.264483  1
  Mo  Mo4  1  0.209112  0.707018  0.353644  1
  Mo  Mo5  1  0.792982  0.290888  0.353644  1
  Mo  Mo6  1  0.708205  0.791795  0.644990  1
  Mo  Mo7  1  0.291423  0.208577  0.638853  1
  Mo  Mo8  1  0.005486  0.004500  0.003638  1
  Mo  Mo9  1  0.495500  0.494514  0.003638  1
  O  O10  1  0.003599  0.222813  0.297353  1
  O  O11  1  0.998836  0.769136  0.295475  1
  O  O12  1  0.226014  0.000111  0.698138  1
  O  O13  1  0.500428  0.725198  0.704323  1
  O  O14  1  0.774802  0.999572  0.704323  1
  O  O15  1  0.499889  0.273986  0.698138  1
  O  O16  1  0.277187  0.496401  0.297353  1
  O  O17  1  0.730864  0.501164  0.295475  1
  O  O18  1  0.188418  0.050666  0.102700  1
  O  O19  1  0.814245  0.960839  0.094547  1
  O  O20  1  0.052606  0.817481  0.909238  1
  O  O21  1  0.310318  0.536508  0.905891  1
  O  O22  1  0.963492  0.189682  0.905891  1
  O  O23  1  0.682519  0.447394  0.909238  1
  O  O24  1  0.449334  0.311582  0.102700  1
  O  O25  1  0.539161  0.685755  0.094547  1
  O  O26  1  0.622628  0.132382  0.307881  1
  O  O27  1  0.367618  0.877372  0.307881  1
  O  O28  1  0.127811  0.372189  0.686004  1
  O  O29  1  0.872567  0.627433  0.691736  1
  O  O30  1  0.198141  0.696486  0.516662  1
  O  O31  1  0.803514  0.301859  0.516662  1
  O  O32  1  0.695463  0.804537  0.482160  1
  O  O33  1  0.302964  0.197036  0.475525  1
