# generated using pymatgen
data_LiHf8Rh11
_symmetry_space_group_name_H-M   'P 1'
_cell_length_a   6.96417880
_cell_length_b   7.74996798
_cell_length_c   7.74996681
_cell_angle_alpha   78.35344400
_cell_angle_beta   63.30098225
_cell_angle_gamma   63.30097651
_symmetry_Int_Tables_number   1
_chemical_formula_structural   LiHf8Rh11
_chemical_formula_sum   'Li1 Hf8 Rh11'
_cell_volume   333.84218144
_cell_formula_units_Z   1
loop_
 _symmetry_equiv_pos_site_id
 _symmetry_equiv_pos_as_xyz
  1  'x, y, z'
loop_
 _atom_site_type_symbol
 _atom_site_label
 _atom_site_symmetry_multiplicity
 _atom_site_fract_x
 _atom_site_fract_y
 _atom_site_fract_z
 _atom_site_occupancy
  Li  Li0  1  0.000000  0.000000  0.000000  1
  Hf  Hf1  1  0.699677  0.391810  0.208839  1
  Hf  Hf2  1  0.300323  0.608190  0.791161  1
  Hf  Hf3  1  0.091484  0.208839  0.608190  1
  Hf  Hf4  1  0.908516  0.791161  0.391810  1
  Hf  Hf5  1  0.765026  0.646080  0.823868  1
  Hf  Hf6  1  0.234974  0.353920  0.176132  1
  Hf  Hf7  1  0.411106  0.823868  0.353920  1
  Hf  Hf8  1  0.588894  0.176132  0.646080  1
  Rh  Rh9  1  0.500000  0.000000  0.000000  1
  Rh  Rh10  1  0.250000  0.500000  0.500000  1
  Rh  Rh11  1  0.750000  0.500000  0.500000  1
  Rh  Rh12  1  0.666810  0.306983  0.899807  1
  Rh  Rh13  1  0.873601  0.693017  0.100193  1
  Rh  Rh14  1  0.973794  0.899807  0.693017  1
  Rh  Rh15  1  0.566618  0.100193  0.306983  1
  Rh  Rh16  1  0.333190  0.693017  0.100193  1
  Rh  Rh17  1  0.126399  0.306983  0.899807  1
  Rh  Rh18  1  0.026206  0.100193  0.306983  1
  Rh  Rh19  1  0.433382  0.899807  0.693017  1
