# generated using pymatgen
data_Tb5NdAl14(Si5Os4)2
_symmetry_space_group_name_H-M   'P 1'
_cell_length_a   8.74744318
_cell_length_b   8.74327940
_cell_length_c   9.35053300
_cell_angle_alpha   90.00000000
_cell_angle_beta   90.00000000
_cell_angle_gamma   120.09654675
_symmetry_Int_Tables_number   1
_chemical_formula_structural   Tb5NdAl14(Si5Os4)2
_chemical_formula_sum   'Tb5 Nd1 Al14 Si10 Os8'
_cell_volume   618.72711861
_cell_formula_units_Z   1
loop_
 _symmetry_equiv_pos_site_id
 _symmetry_equiv_pos_as_xyz
  1  'x, y, z'
loop_
 _atom_site_type_symbol
 _atom_site_label
 _atom_site_symmetry_multiplicity
 _atom_site_fract_x
 _atom_site_fract_y
 _atom_site_fract_z
 _atom_site_occupancy
  Tb  Tb0  1  0.809977  0.617209  0.750000  1
  Tb  Tb1  1  0.614862  0.808998  0.250000  1
  Tb  Tb2  1  0.383858  0.190782  0.750000  1
  Tb  Tb3  1  0.193372  0.806421  0.250000  1
  Tb  Tb4  1  0.807203  0.193025  0.750000  1
  Nd  Nd5  1  0.188477  0.379361  0.250000  1
  Al  Al6  1  0.165616  0.332188  0.580204  1
  Al  Al7  1  0.834645  0.671432  0.422760  1
  Al  Al8  1  0.668618  0.834913  0.578464  1
  Al  Al9  1  0.834645  0.671432  0.077240  1
  Al  Al10  1  0.329780  0.164919  0.423328  1
  Al  Al11  1  0.165616  0.332188  0.919796  1
  Al  Al12  1  0.166345  0.834038  0.577252  1
  Al  Al13  1  0.329780  0.164919  0.076672  1
  Al  Al14  1  0.834382  0.163927  0.423433  1
  Al  Al15  1  0.668618  0.834913  0.921536  1
  Al  Al16  1  0.834382  0.163927  0.076567  1
  Al  Al17  1  0.166345  0.834038  0.922748  1
  Al  Al18  1  0.566385  0.435234  0.250000  1
  Al  Al19  1  0.997558  0.993539  0.250000  1
  Si  Si20  1  0.334704  0.667095  0.039947  1
  Si  Si21  1  0.665711  0.335204  0.958851  1
  Si  Si22  1  0.665711  0.335204  0.541149  1
  Si  Si23  1  0.334704  0.667095  0.460053  1
  Si  Si24  1  0.564091  0.124089  0.250000  1
  Si  Si25  1  0.438773  0.875920  0.750000  1
  Si  Si26  1  0.873595  0.436207  0.250000  1
  Si  Si27  1  0.123763  0.562118  0.750000  1
  Si  Si28  1  0.438533  0.563676  0.750000  1
  Si  Si29  1  0.999061  0.001921  0.750000  1
  Os  Os30  1  0.500057  0.999513  0.999173  1
  Os  Os31  1  0.999977  0.500676  0.998409  1
  Os  Os32  1  0.500057  0.999513  0.500827  1
  Os  Os33  1  0.500102  0.501467  0.992435  1
  Os  Os34  1  0.999977  0.500676  0.501591  1
  Os  Os35  1  0.500102  0.501467  0.507565  1
  Os  Os36  1  0.000308  0.000381  0.991854  1
  Os  Os37  1  0.000308  0.000381  0.508146  1
