# generated using pymatgen
data_Cs2Sn(BrCl)2
_symmetry_space_group_name_H-M   'P 1'
_cell_length_a   9.99504834
_cell_length_b   9.99504776
_cell_length_c   7.94472800
_cell_angle_alpha   90.00000000
_cell_angle_beta   90.00000000
_cell_angle_gamma   133.01024046
_symmetry_Int_Tables_number   1
_chemical_formula_structural   Cs2Sn(BrCl)2
_chemical_formula_sum   'Cs4 Sn2 Br4 Cl4'
_cell_volume   580.36855433
_cell_formula_units_Z   2
loop_
 _symmetry_equiv_pos_site_id
 _symmetry_equiv_pos_as_xyz
  1  'x, y, z'
loop_
 _atom_site_type_symbol
 _atom_site_label
 _atom_site_symmetry_multiplicity
 _atom_site_fract_x
 _atom_site_fract_y
 _atom_site_fract_z
 _atom_site_occupancy
  Cs  Cs0  1  0.137874  0.862126  0.500000  1
  Cs  Cs1  1  0.637874  0.362126  0.000000  1
  Cs  Cs2  1  0.862126  0.137874  0.500000  1
  Cs  Cs3  1  0.362126  0.637874  0.000000  1
  Sn  Sn4  1  0.500000  0.500000  0.500000  1
  Sn  Sn5  1  0.000000  0.000000  0.000000  1
  Br  Br6  1  0.336335  0.663665  0.500000  1
  Br  Br7  1  0.836335  0.163665  0.000000  1
  Br  Br8  1  0.663665  0.336335  0.500000  1
  Br  Br9  1  0.163665  0.836335  0.000000  1
  Cl  Cl10  1  0.250462  0.250462  0.249615  1
  Cl  Cl11  1  0.749538  0.749538  0.750385  1
  Cl  Cl12  1  0.249538  0.249538  0.749615  1
  Cl  Cl13  1  0.750462  0.750462  0.250385  1
