# generated using pymatgen
data_Hf12Th8Si15Ag
_symmetry_space_group_name_H-M   'P 1'
_cell_length_a   7.43957884
_cell_length_b   7.38211335
_cell_length_c   13.66344660
_cell_angle_alpha   90.17104034
_cell_angle_beta   90.08199195
_cell_angle_gamma   90.11885847
_symmetry_Int_Tables_number   1
_chemical_formula_structural   Hf12Th8Si15Ag
_chemical_formula_sum   'Hf12 Th8 Si15 Ag1'
_cell_volume   750.38821633
_cell_formula_units_Z   1
loop_
 _symmetry_equiv_pos_site_id
 _symmetry_equiv_pos_as_xyz
  1  'x, y, z'
loop_
 _atom_site_type_symbol
 _atom_site_label
 _atom_site_symmetry_multiplicity
 _atom_site_fract_x
 _atom_site_fract_y
 _atom_site_fract_z
 _atom_site_occupancy
  Hf  Hf0  1  0.673244  0.327786  0.748879  1
  Hf  Hf1  1  0.326448  0.673489  0.250527  1
  Hf  Hf2  1  0.825450  0.826828  0.500466  1
  Hf  Hf3  1  0.181337  0.171584  0.998272  1
  Hf  Hf4  1  0.490867  0.349588  0.126233  1
  Hf  Hf5  1  0.502291  0.655681  0.623974  1
  Hf  Hf6  1  0.846667  0.002417  0.868840  1
  Hf  Hf7  1  0.154326  0.995626  0.374771  1
  Hf  Hf8  1  0.654138  0.502121  0.375304  1
  Hf  Hf9  1  0.345683  0.498627  0.873721  1
  Hf  Hf10  1  0.012577  0.838603  0.129554  1
  Hf  Hf11  1  0.997089  0.155243  0.625227  1
  Th  Th12  1  0.496900  0.157149  0.534000  1
  Th  Th13  1  0.497971  0.839701  0.033578  1
  Th  Th14  1  0.656176  0.001768  0.287898  1
  Th  Th15  1  0.342373  0.997053  0.782625  1
  Th  Th16  1  0.841690  0.507762  0.965100  1
  Th  Th17  1  0.156350  0.496505  0.465867  1
  Th  Th18  1  0.004281  0.658499  0.716246  1
  Th  Th19  1  0.000626  0.344127  0.219488  1
  Si  Si20  1  0.200881  0.867092  0.565497  1
  Si  Si21  1  0.632050  0.702156  0.814358  1
  Si  Si22  1  0.368466  0.297208  0.316575  1
  Si  Si23  1  0.868205  0.202009  0.435440  1
  Si  Si24  1  0.132483  0.800179  0.933883  1
  Si  Si25  1  0.702319  0.631804  0.184559  1
  Si  Si26  1  0.298116  0.368709  0.684007  1
  Si  Si27  1  0.544775  0.212112  0.933433  1
  Si  Si28  1  0.452226  0.788534  0.435393  1
  Si  Si29  1  0.709636  0.955043  0.683605  1
  Si  Si30  1  0.292191  0.047168  0.185269  1
  Si  Si31  1  0.789974  0.454950  0.565061  1
  Si  Si32  1  0.207640  0.543729  0.064023  1
  Si  Si33  1  0.952216  0.710315  0.316504  1
  Si  Si34  1  0.046481  0.291022  0.815584  1
  Ag  Ag35  1  0.795857  0.127811  0.066238  1
