# generated using pymatgen
data_LaTm6CoI12
_symmetry_space_group_name_H-M   'P 1'
_cell_length_a   9.71014071
_cell_length_b   9.71014111
_cell_length_c   9.71014180
_cell_angle_alpha   106.15132007
_cell_angle_beta   106.15132514
_cell_angle_gamma   106.15133451
_symmetry_Int_Tables_number   1
_chemical_formula_structural   LaTm6CoI12
_chemical_formula_sum   'La1 Tm6 Co1 I12'
_cell_volume   779.44783455
_cell_formula_units_Z   1
loop_
 _symmetry_equiv_pos_site_id
 _symmetry_equiv_pos_as_xyz
  1  'x, y, z'
loop_
 _atom_site_type_symbol
 _atom_site_label
 _atom_site_symmetry_multiplicity
 _atom_site_fract_x
 _atom_site_fract_y
 _atom_site_fract_z
 _atom_site_occupancy
  La  La0  1  0.997928  0.997928  0.997928  1
  Tm  Tm1  1  0.515026  0.586042  0.778905  1
  Tm  Tm2  1  0.778905  0.515026  0.586042  1
  Tm  Tm3  1  0.586042  0.778905  0.515026  1
  Tm  Tm4  1  0.482825  0.411750  0.219127  1
  Tm  Tm5  1  0.219127  0.482825  0.411750  1
  Tm  Tm6  1  0.411750  0.219127  0.482825  1
  Co  Co7  1  0.499081  0.499081  0.499081  1
  I  I8  1  0.277094  0.823883  0.426374  1
  I  I9  1  0.426374  0.277094  0.823883  1
  I  I10  1  0.823883  0.426374  0.277094  1
  I  I11  1  0.721112  0.174260  0.571239  1
  I  I12  1  0.571239  0.721112  0.174260  1
  I  I13  1  0.174260  0.571239  0.721112  1
  I  I14  1  0.047509  0.125679  0.354772  1
  I  I15  1  0.354772  0.047509  0.125679  1
  I  I16  1  0.125679  0.354772  0.047509  1
  I  I17  1  0.949594  0.871814  0.641356  1
  I  I18  1  0.641356  0.949594  0.871814  1
  I  I19  1  0.871814  0.641356  0.949594  1
