# generated using pymatgen
data_CeLu2Fe(Co4P3)2
_symmetry_space_group_name_H-M   'P 1'
_cell_length_a   3.68076600
_cell_length_b   10.50492200
_cell_length_c   12.11418700
_cell_angle_alpha   90.00000000
_cell_angle_beta   90.00000000
_cell_angle_gamma   90.00000000
_symmetry_Int_Tables_number   1
_chemical_formula_structural   CeLu2Fe(Co4P3)2
_chemical_formula_sum   'Ce2 Lu4 Fe2 Co16 P12'
_cell_volume   468.40908954
_cell_formula_units_Z   2
loop_
 _symmetry_equiv_pos_site_id
 _symmetry_equiv_pos_as_xyz
  1  'x, y, z'
loop_
 _atom_site_type_symbol
 _atom_site_label
 _atom_site_symmetry_multiplicity
 _atom_site_fract_x
 _atom_site_fract_y
 _atom_site_fract_z
 _atom_site_occupancy
  Ce  Ce0  1  0.000000  0.500000  0.526069  1
  Ce  Ce1  1  0.500000  0.000000  0.473931  1
  Lu  Lu2  1  0.500000  0.816408  0.203699  1
  Lu  Lu3  1  0.500000  0.183592  0.203699  1
  Lu  Lu4  1  0.000000  0.683592  0.796301  1
  Lu  Lu5  1  0.000000  0.316408  0.796301  1
  Fe  Fe6  1  0.500000  0.500000  0.155083  1
  Fe  Fe7  1  0.000000  0.000000  0.844917  1
  Co  Co8  1  0.500000  0.500000  0.701032  1
  Co  Co9  1  0.000000  0.000000  0.298968  1
  Co  Co10  1  0.000000  0.500000  0.984155  1
  Co  Co11  1  0.500000  0.000000  0.015845  1
  Co  Co12  1  0.500000  0.333199  0.993816  1
  Co  Co13  1  0.500000  0.666801  0.993816  1
  Co  Co14  1  0.000000  0.166801  0.006184  1
  Co  Co15  1  0.000000  0.833199  0.006184  1
  Co  Co16  1  0.500000  0.298476  0.430135  1
  Co  Co17  1  0.500000  0.701524  0.430135  1
  Co  Co18  1  0.000000  0.201524  0.569865  1
  Co  Co19  1  0.000000  0.798476  0.569865  1
  Co  Co20  1  0.500000  0.878696  0.712231  1
  Co  Co21  1  0.500000  0.121304  0.712231  1
  Co  Co22  1  0.000000  0.621304  0.287769  1
  Co  Co23  1  0.000000  0.378696  0.287769  1
  P  P24  1  0.500000  0.500000  0.880127  1
  P  P25  1  0.000000  0.000000  0.119873  1
  P  P26  1  0.500000  0.500000  0.340612  1
  P  P27  1  0.000000  0.000000  0.659388  1
  P  P28  1  0.500000  0.306873  0.618464  1
  P  P29  1  0.500000  0.693127  0.618464  1
  P  P30  1  0.000000  0.193127  0.381536  1
  P  P31  1  0.000000  0.806873  0.381536  1
  P  P32  1  0.500000  0.846682  0.893393  1
  P  P33  1  0.500000  0.153318  0.893393  1
  P  P34  1  0.000000  0.653318  0.106607  1
  P  P35  1  0.000000  0.346682  0.106607  1
