# generated using pymatgen
data_TbEr4Lu(Sb4Au3)2
_symmetry_space_group_name_H-M   'P 1'
_cell_length_a   8.57830663
_cell_length_b   8.57830667
_cell_length_c   8.57830600
_cell_angle_alpha   109.47028254
_cell_angle_beta   109.47308513
_cell_angle_gamma   109.47029021
_symmetry_Int_Tables_number   1
_chemical_formula_structural   TbEr4Lu(Sb4Au3)2
_chemical_formula_sum   'Tb1 Er4 Lu1 Sb8 Au6'
_cell_volume   485.94016718
_cell_formula_units_Z   1
loop_
 _symmetry_equiv_pos_site_id
 _symmetry_equiv_pos_as_xyz
  1  'x, y, z'
loop_
 _atom_site_type_symbol
 _atom_site_label
 _atom_site_symmetry_multiplicity
 _atom_site_fract_x
 _atom_site_fract_y
 _atom_site_fract_z
 _atom_site_occupancy
  Tb  Tb0  1  0.875000  0.250000  0.125000  1
  Er  Er1  1  0.249764  0.124922  0.874778  1
  Er  Er2  1  0.749855  0.375078  0.624842  1
  Er  Er3  1  0.125222  0.874987  0.250145  1
  Er  Er4  1  0.375158  0.625013  0.750236  1
  Lu  Lu5  1  0.625000  0.750000  0.375000  1
  Sb  Sb6  1  0.678392  0.498937  0.999687  1
  Sb  Sb7  1  0.500749  0.001063  0.679456  1
  Sb  Sb8  1  0.000518  0.679479  0.499758  1
  Sb  Sb9  1  0.820279  0.820521  0.821038  1
  Sb  Sb10  1  0.500242  0.000760  0.179721  1
  Sb  Sb11  1  0.178962  0.499240  0.999482  1
  Sb  Sb12  1  0.000313  0.178705  0.499251  1
  Sb  Sb13  1  0.320544  0.321295  0.321608  1
  Au  Au14  1  0.375000  0.250000  0.625000  1
  Au  Au15  1  0.125000  0.750000  0.875000  1
  Au  Au16  1  0.255045  0.628664  0.376629  1
  Au  Au17  1  0.747965  0.871336  0.126381  1
  Au  Au18  1  0.623371  0.378416  0.252035  1
  Au  Au19  1  0.873619  0.121584  0.744955  1
