# generated using pymatgen
data_Yb3Dy(Si5Os3)2
_symmetry_space_group_name_H-M   'P 1'
_cell_length_a   8.27064541
_cell_length_b   8.27285462
_cell_length_c   5.65115879
_cell_angle_alpha   70.05567310
_cell_angle_beta   70.00057521
_cell_angle_gamma   95.25536941
_symmetry_Int_Tables_number   1
_chemical_formula_structural   Yb3Dy(Si5Os3)2
_chemical_formula_sum   'Yb3 Dy1 Si10 Os6'
_cell_volume   331.92552089
_cell_formula_units_Z   1
loop_
 _symmetry_equiv_pos_site_id
 _symmetry_equiv_pos_as_xyz
  1  'x, y, z'
loop_
 _atom_site_type_symbol
 _atom_site_label
 _atom_site_symmetry_multiplicity
 _atom_site_fract_x
 _atom_site_fract_y
 _atom_site_fract_z
 _atom_site_occupancy
  Yb  Yb0  1  0.402436  0.131381  0.732919  1
  Yb  Yb1  1  0.131568  0.401864  0.232833  1
  Yb  Yb2  1  0.597870  0.868737  0.267323  1
  Dy  Dy3  1  0.868953  0.597819  0.766670  1
  Si  Si4  1  0.074862  0.267159  0.828196  1
  Si  Si5  1  0.733061  0.926404  0.671594  1
  Si  Si6  1  0.925853  0.734325  0.170485  1
  Si  Si7  1  0.265301  0.073813  0.329867  1
  Si  Si8  1  0.209404  0.792023  0.751613  1
  Si  Si9  1  0.792817  0.209838  0.244831  1
  Si  Si10  1  0.498314  0.498203  0.750513  1
  Si  Si11  1  0.498668  0.497887  0.252415  1
  Si  Si12  1  0.793200  0.209624  0.752150  1
  Si  Si13  1  0.209286  0.792161  0.246956  1
  Os  Os14  1  0.260105  0.555008  0.591744  1
  Os  Os15  1  0.448015  0.738126  0.907622  1
  Os  Os16  1  0.740907  0.446564  0.407392  1
  Os  Os17  1  0.551853  0.260771  0.092589  1
  Os  Os18  1  0.999666  0.998300  0.750682  1
  Os  Os19  1  0.997862  0.999989  0.251609  1
