# generated using pymatgen
data_Nd6Ho10Cd4OsPt3
_symmetry_space_group_name_H-M   'P 1'
_cell_length_a   9.77288795
_cell_length_b   9.77288822
_cell_length_c   9.77288893
_cell_angle_alpha   59.82389817
_cell_angle_beta   59.82390441
_cell_angle_gamma   59.82390232
_symmetry_Int_Tables_number   1
_chemical_formula_structural   Nd6Ho10Cd4OsPt3
_chemical_formula_sum   'Nd6 Ho10 Cd4 Os1 Pt3'
_cell_volume   657.37694160
_cell_formula_units_Z   1
loop_
 _symmetry_equiv_pos_site_id
 _symmetry_equiv_pos_as_xyz
  1  'x, y, z'
loop_
 _atom_site_type_symbol
 _atom_site_label
 _atom_site_symmetry_multiplicity
 _atom_site_fract_x
 _atom_site_fract_y
 _atom_site_fract_z
 _atom_site_occupancy
  Nd  Nd0  1  0.938647  0.561802  0.561802  1
  Nd  Nd1  1  0.555615  0.940545  0.940545  1
  Nd  Nd2  1  0.561802  0.938647  0.561802  1
  Nd  Nd3  1  0.940545  0.555615  0.940545  1
  Nd  Nd4  1  0.561802  0.561802  0.938647  1
  Nd  Nd5  1  0.940545  0.940545  0.555615  1
  Ho  Ho6  1  0.351046  0.351046  0.351046  1
  Ho  Ho7  1  0.347301  0.347301  0.954885  1
  Ho  Ho8  1  0.347301  0.954885  0.347301  1
  Ho  Ho9  1  0.954885  0.347301  0.347301  1
  Ho  Ho10  1  0.816804  0.186793  0.186793  1
  Ho  Ho11  1  0.184204  0.811479  0.811479  1
  Ho  Ho12  1  0.186793  0.816804  0.186793  1
  Ho  Ho13  1  0.811479  0.184204  0.811479  1
  Ho  Ho14  1  0.186793  0.186793  0.816804  1
  Ho  Ho15  1  0.811479  0.811479  0.184204  1
  Cd  Cd16  1  0.579310  0.579310  0.579310  1
  Cd  Cd17  1  0.579672  0.579672  0.260645  1
  Cd  Cd18  1  0.579672  0.260645  0.579672  1
  Cd  Cd19  1  0.260645  0.579672  0.579672  1
  Os  Os20  1  0.142568  0.142568  0.142568  1
  Pt  Pt21  1  0.143466  0.143466  0.574162  1
  Pt  Pt22  1  0.143466  0.574162  0.143466  1
  Pt  Pt23  1  0.574162  0.143466  0.143466  1
