# generated using pymatgen
data_LaDyHoIrO7
_symmetry_space_group_name_H-M   'P 1'
_cell_length_a   6.48244983
_cell_length_b   6.48245093
_cell_length_c   7.52101300
_cell_angle_alpha   90.00000000
_cell_angle_beta   90.00000000
_cell_angle_gamma   109.50006146
_symmetry_Int_Tables_number   1
_chemical_formula_structural   LaDyHoIrO7
_chemical_formula_sum   'La2 Dy2 Ho2 Ir2 O14'
_cell_volume   297.92100785
_cell_formula_units_Z   2
loop_
 _symmetry_equiv_pos_site_id
 _symmetry_equiv_pos_as_xyz
  1  'x, y, z'
loop_
 _atom_site_type_symbol
 _atom_site_label
 _atom_site_symmetry_multiplicity
 _atom_site_fract_x
 _atom_site_fract_y
 _atom_site_fract_z
 _atom_site_occupancy
  La  La0  1  0.000051  0.999949  0.500000  1
  La  La1  1  0.000051  0.999949  0.000000  1
  Dy  Dy2  1  0.515290  0.062984  0.250000  1
  Dy  Dy3  1  0.937016  0.484710  0.750000  1
  Ho  Ho4  1  0.484965  0.937776  0.750000  1
  Ho  Ho5  1  0.062224  0.515035  0.250000  1
  Ir  Ir6  1  0.500099  0.499901  0.500000  1
  Ir  Ir7  1  0.500099  0.499901  0.000000  1
  O  O8  1  0.442945  0.181402  0.535016  1
  O  O9  1  0.818598  0.557055  0.464984  1
  O  O10  1  0.442945  0.181402  0.964984  1
  O  O11  1  0.818598  0.557055  0.035016  1
  O  O12  1  0.557007  0.818438  0.466068  1
  O  O13  1  0.181562  0.442993  0.533932  1
  O  O14  1  0.557007  0.818438  0.033932  1
  O  O15  1  0.181562  0.442993  0.966068  1
  O  O16  1  0.160718  0.876754  0.250000  1
  O  O17  1  0.123246  0.839282  0.750000  1
  O  O18  1  0.837894  0.121208  0.750000  1
  O  O19  1  0.878792  0.162106  0.250000  1
  O  O20  1  0.407942  0.408613  0.250000  1
  O  O21  1  0.591387  0.592058  0.750000  1
