# generated using pymatgen
data_Sr2CaSm(Al3Pd)6
_symmetry_space_group_name_H-M   'P 1'
_cell_length_a   7.72389900
_cell_length_b   7.71987109
_cell_length_c   9.64751100
_cell_angle_alpha   90.00000000
_cell_angle_beta   90.00000000
_cell_angle_gamma   119.46738521
_symmetry_Int_Tables_number   1
_chemical_formula_structural   Sr2CaSm(Al3Pd)6
_chemical_formula_sum   'Sr2 Ca1 Sm1 Al18 Pd6'
_cell_volume   500.83937836
_cell_formula_units_Z   1
loop_
 _symmetry_equiv_pos_site_id
 _symmetry_equiv_pos_as_xyz
  1  'x, y, z'
loop_
 _atom_site_type_symbol
 _atom_site_label
 _atom_site_symmetry_multiplicity
 _atom_site_fract_x
 _atom_site_fract_y
 _atom_site_fract_z
 _atom_site_occupancy
  Sr  Sr0  1  0.993372  0.669399  0.250000  1
  Sr  Sr1  1  0.671556  0.995637  0.250000  1
  Ca  Ca2  1  0.003709  0.329707  0.750000  1
  Sm  Sm3  1  0.330139  0.002551  0.750000  1
  Al  Al4  1  0.137372  0.137649  0.250000  1
  Al  Al5  1  0.871871  0.869696  0.750000  1
  Al  Al6  1  0.005755  0.335209  0.067679  1
  Al  Al7  1  0.999100  0.663908  0.918150  1
  Al  Al8  1  0.999100  0.663908  0.581850  1
  Al  Al9  1  0.334871  0.004524  0.431415  1
  Al  Al10  1  0.005755  0.335209  0.432321  1
  Al  Al11  1  0.665978  0.000425  0.581697  1
  Al  Al12  1  0.665978  0.000425  0.918303  1
  Al  Al13  1  0.334871  0.004524  0.068585  1
  Al  Al14  1  0.331989  0.331606  0.563006  1
  Al  Al15  1  0.662879  0.663053  0.458167  1
  Al  Al16  1  0.662879  0.663053  0.041833  1
  Al  Al17  1  0.331989  0.331606  0.936994  1
  Al  Al18  1  0.339830  0.542737  0.250000  1
  Al  Al19  1  0.655509  0.451783  0.750000  1
  Al  Al20  1  0.540511  0.340402  0.250000  1
  Al  Al21  1  0.455103  0.663741  0.750000  1
  Pd  Pd22  1  0.670667  0.328219  0.996932  1
  Pd  Pd23  1  0.328179  0.670413  0.996437  1
  Pd  Pd24  1  0.328179  0.670413  0.503563  1
  Pd  Pd25  1  0.670667  0.328219  0.503068  1
  Pd  Pd26  1  0.001097  0.000990  0.996402  1
  Pd  Pd27  1  0.001097  0.000990  0.503598  1
