# generated using pymatgen
data_Dy7Ho5Os4
_symmetry_space_group_name_H-M   'P 1'
_cell_length_a   7.40345620
_cell_length_b   9.02994249
_cell_length_c   6.29531047
_cell_angle_alpha   90.03653281
_cell_angle_beta   90.02477918
_cell_angle_gamma   90.01019258
_symmetry_Int_Tables_number   1
_chemical_formula_structural   Dy7Ho5Os4
_chemical_formula_sum   'Dy7 Ho5 Os4'
_cell_volume   420.85889783
_cell_formula_units_Z   1
loop_
 _symmetry_equiv_pos_site_id
 _symmetry_equiv_pos_as_xyz
  1  'x, y, z'
loop_
 _atom_site_type_symbol
 _atom_site_label
 _atom_site_symmetry_multiplicity
 _atom_site_fract_x
 _atom_site_fract_y
 _atom_site_fract_z
 _atom_site_occupancy
  Dy  Dy0  1  0.038309  0.749887  0.128888  1
  Dy  Dy1  1  0.325199  0.062721  0.166310  1
  Dy  Dy2  1  0.325164  0.437299  0.166367  1
  Dy  Dy3  1  0.825160  0.062899  0.333753  1
  Dy  Dy4  1  0.538467  0.749896  0.371163  1
  Dy  Dy5  1  0.461709  0.250079  0.629293  1
  Dy  Dy6  1  0.961547  0.250122  0.870696  1
  Ho  Ho7  1  0.825342  0.437193  0.333785  1
  Ho  Ho8  1  0.174641  0.563115  0.666319  1
  Ho  Ho9  1  0.174773  0.936809  0.666418  1
  Ho  Ho10  1  0.674865  0.563092  0.833532  1
  Ho  Ho11  1  0.674793  0.936798  0.833541  1
  Os  Os12  1  0.618502  0.250145  0.040192  1
  Os  Os13  1  0.118141  0.250129  0.459946  1
  Os  Os14  1  0.881645  0.749756  0.540743  1
  Os  Os15  1  0.381742  0.750058  0.959057  1
