# generated using pymatgen
data_Ho7TmRe(B8Ru)3
_symmetry_space_group_name_H-M   'P 1'
_cell_length_a   3.65406900
_cell_length_b   9.11756373
_cell_length_c   11.50054010
_cell_angle_alpha   90.13544620
_cell_angle_beta   90.00000000
_cell_angle_gamma   90.00000000
_symmetry_Int_Tables_number   1
_chemical_formula_structural   Ho7TmRe(B8Ru)3
_chemical_formula_sum   'Ho7 Tm1 Re1 B24 Ru3'
_cell_volume   383.15330373
_cell_formula_units_Z   1
loop_
 _symmetry_equiv_pos_site_id
 _symmetry_equiv_pos_as_xyz
  1  'x, y, z'
loop_
 _atom_site_type_symbol
 _atom_site_label
 _atom_site_symmetry_multiplicity
 _atom_site_fract_x
 _atom_site_fract_y
 _atom_site_fract_z
 _atom_site_occupancy
  Ho  Ho0  1  0.000000  0.322847  0.415178  1
  Ho  Ho1  1  0.000000  0.680104  0.588108  1
  Ho  Ho2  1  0.000000  0.822342  0.083321  1
  Ho  Ho3  1  0.000000  0.176528  0.913426  1
  Ho  Ho4  1  0.000000  0.943029  0.370993  1
  Ho  Ho5  1  0.000000  0.056562  0.627884  1
  Ho  Ho6  1  0.000000  0.442639  0.128377  1
  Tm  Tm7  1  0.000000  0.556074  0.872260  1
  Re  Re8  1  0.000000  0.861798  0.821319  1
  B  B9  1  0.500000  0.554044  0.433389  1
  B  B10  1  0.500000  0.446298  0.567060  1
  B  B11  1  0.500000  0.053747  0.067350  1
  B  B12  1  0.500000  0.946949  0.933362  1
  B  B13  1  0.500000  0.748455  0.419452  1
  B  B14  1  0.500000  0.251970  0.580340  1
  B  B15  1  0.500000  0.248250  0.080726  1
  B  B16  1  0.500000  0.750529  0.919334  1
  B  B17  1  0.500000  0.790350  0.265586  1
  B  B18  1  0.500000  0.209487  0.733480  1
  B  B19  1  0.500000  0.290859  0.234433  1
  B  B20  1  0.500000  0.707684  0.765841  1
  B  B21  1  0.500000  0.630835  0.185052  1
  B  B22  1  0.500000  0.368983  0.814761  1
  B  B23  1  0.500000  0.131664  0.315046  1
  B  B24  1  0.500000  0.868731  0.685317  1
  B  B25  1  0.500000  0.983310  0.212346  1
  B  B26  1  0.500000  0.017987  0.787500  1
  B  B27  1  0.500000  0.483087  0.288142  1
  B  B28  1  0.500000  0.517106  0.712900  1
  B  B29  1  0.500000  0.604685  0.029248  1
  B  B30  1  0.500000  0.393686  0.970604  1
  B  B31  1  0.500000  0.106953  0.469989  1
  B  B32  1  0.500000  0.893939  0.528655  1
  Ru  Ru33  1  0.000000  0.637610  0.321063  1
  Ru  Ru34  1  0.000000  0.362931  0.678810  1
  Ru  Ru35  1  0.000000  0.137945  0.179352  1
