# generated using pymatgen
data_Nd5Th3(SiBr6)2
_symmetry_space_group_name_H-M   'P 1'
_cell_length_a   4.23034700
_cell_length_b   13.62262483
_cell_length_c   14.51722765
_cell_angle_alpha   89.79167936
_cell_angle_beta   90.00000000
_cell_angle_gamma   90.00000000
_symmetry_Int_Tables_number   1
_chemical_formula_structural   Nd5Th3(SiBr6)2
_chemical_formula_sum   'Nd5 Th3 Si2 Br12'
_cell_volume   836.59950888
_cell_formula_units_Z   1
loop_
 _symmetry_equiv_pos_site_id
 _symmetry_equiv_pos_as_xyz
  1  'x, y, z'
loop_
 _atom_site_type_symbol
 _atom_site_label
 _atom_site_symmetry_multiplicity
 _atom_site_fract_x
 _atom_site_fract_y
 _atom_site_fract_z
 _atom_site_occupancy
  Nd  Nd0  1  0.500000  0.118857  0.342140  1
  Nd  Nd1  1  0.500000  0.883378  0.655287  1
  Nd  Nd2  1  0.500000  0.617636  0.157760  1
  Nd  Nd3  1  0.500000  0.382475  0.841895  1
  Nd  Nd4  1  0.000000  0.381479  0.079026  1
  Th  Th5  1  0.000000  0.114204  0.575251  1
  Th  Th6  1  0.000000  0.885847  0.424657  1
  Th  Th7  1  0.000000  0.615551  0.923448  1
  Si  Si8  1  0.500000  0.000915  0.498869  1
  Si  Si9  1  0.500000  0.500480  0.999516  1
  Br  Br10  1  0.500000  0.242837  0.162143  1
  Br  Br11  1  0.500000  0.755570  0.839892  1
  Br  Br12  1  0.500000  0.745556  0.338721  1
  Br  Br13  1  0.500000  0.255162  0.660803  1
  Br  Br14  1  0.000000  0.256110  0.413018  1
  Br  Br15  1  0.000000  0.743986  0.587603  1
  Br  Br16  1  0.000000  0.755323  0.087631  1
  Br  Br17  1  0.000000  0.244520  0.911431  1
  Br  Br18  1  0.000000  0.000069  0.244559  1
  Br  Br19  1  0.000000  0.999013  0.755445  1
  Br  Br20  1  0.000000  0.501630  0.256917  1
  Br  Br21  1  0.000000  0.499400  0.743987  1
