# generated using pymatgen
data_Sm5RuPt2
_symmetry_space_group_name_H-M   'P 1'
_cell_length_a   11.19934300
_cell_length_b   11.19934300
_cell_length_c   6.54038200
_cell_angle_alpha   90.00000000
_cell_angle_beta   90.00000000
_cell_angle_gamma   90.00000000
_symmetry_Int_Tables_number   1
_chemical_formula_structural   Sm5RuPt2
_chemical_formula_sum   'Sm20 Ru4 Pt8'
_cell_volume   820.32926741
_cell_formula_units_Z   4
loop_
 _symmetry_equiv_pos_site_id
 _symmetry_equiv_pos_as_xyz
  1  'x, y, z'
loop_
 _atom_site_type_symbol
 _atom_site_label
 _atom_site_symmetry_multiplicity
 _atom_site_fract_x
 _atom_site_fract_y
 _atom_site_fract_z
 _atom_site_occupancy
  Sm  Sm0  1  0.296979  0.088042  0.373978  1
  Sm  Sm1  1  0.296979  0.911958  0.873978  1
  Sm  Sm2  1  0.703021  0.088042  0.873978  1
  Sm  Sm3  1  0.703021  0.911958  0.373978  1
  Sm  Sm4  1  0.588042  0.796979  0.873978  1
  Sm  Sm5  1  0.588042  0.203021  0.373978  1
  Sm  Sm6  1  0.411958  0.796979  0.373978  1
  Sm  Sm7  1  0.411958  0.203021  0.873978  1
  Sm  Sm8  1  0.203021  0.411958  0.626022  1
  Sm  Sm9  1  0.203021  0.588042  0.126022  1
  Sm  Sm10  1  0.796979  0.411958  0.126022  1
  Sm  Sm11  1  0.796979  0.588042  0.626022  1
  Sm  Sm12  1  0.911958  0.703021  0.126022  1
  Sm  Sm13  1  0.911958  0.296979  0.626022  1
  Sm  Sm14  1  0.088042  0.703021  0.626022  1
  Sm  Sm15  1  0.088042  0.296979  0.126022  1
  Sm  Sm16  1  0.000000  0.000000  0.500000  1
  Sm  Sm17  1  0.000000  0.000000  0.000000  1
  Sm  Sm18  1  0.500000  0.500000  0.000000  1
  Sm  Sm19  1  0.500000  0.500000  0.500000  1
  Ru  Ru20  1  0.500000  0.000000  0.117889  1
  Ru  Ru21  1  0.500000  0.000000  0.617889  1
  Ru  Ru22  1  0.000000  0.500000  0.882111  1
  Ru  Ru23  1  0.000000  0.500000  0.382111  1
  Pt  Pt24  1  0.846689  0.153311  0.250000  1
  Pt  Pt25  1  0.846689  0.846689  0.750000  1
  Pt  Pt26  1  0.153311  0.153311  0.750000  1
  Pt  Pt27  1  0.153311  0.846689  0.250000  1
  Pt  Pt28  1  0.653311  0.346689  0.750000  1
  Pt  Pt29  1  0.653311  0.653311  0.250000  1
  Pt  Pt30  1  0.346689  0.346689  0.250000  1
  Pt  Pt31  1  0.346689  0.653311  0.750000  1
