# generated using pymatgen
data_Rb2MnCrS4
_symmetry_space_group_name_H-M   'P 1'
_cell_length_a   13.72122986
_cell_length_b   12.19845008
_cell_length_c   7.41405239
_cell_angle_alpha   85.08474070
_cell_angle_beta   62.34405388
_cell_angle_gamma   32.57120661
_symmetry_Int_Tables_number   1
_chemical_formula_structural   Rb2MnCrS4
_chemical_formula_sum   'Rb4 Mn2 Cr2 S8'
_cell_volume   454.36585032
_cell_formula_units_Z   2
loop_
 _symmetry_equiv_pos_site_id
 _symmetry_equiv_pos_as_xyz
  1  'x, y, z'
loop_
 _atom_site_type_symbol
 _atom_site_label
 _atom_site_symmetry_multiplicity
 _atom_site_fract_x
 _atom_site_fract_y
 _atom_site_fract_z
 _atom_site_occupancy
  Rb  Rb0  1  0.572402  0.572402  0.927598  1
  Rb  Rb1  1  0.927598  0.927598  0.572402  1
  Rb  Rb2  1  0.322402  0.322402  0.677598  1
  Rb  Rb3  1  0.677598  0.677598  0.322402  1
  Mn  Mn4  1  0.000000  0.000000  0.000000  1
  Mn  Mn5  1  0.250000  0.250000  0.250000  1
  Cr  Cr6  1  0.750000  0.750000  0.750000  1
  Cr  Cr7  1  0.500000  0.500000  0.500000  1
  S  S8  1  0.230804  0.873202  0.583161  1
  S  S9  1  0.312834  0.583161  0.873202  1
  S  S10  1  0.583161  0.312834  0.230804  1
  S  S11  1  0.873202  0.230804  0.312834  1
  S  S12  1  0.376798  0.019196  0.937166  1
  S  S13  1  0.937166  0.666839  0.376798  1
  S  S14  1  0.666839  0.937166  0.019196  1
  S  S15  1  0.019196  0.376798  0.666839  1
