# generated using pymatgen
data_Tb5Nb3(Si3Ni4)4
_symmetry_space_group_name_H-M   'P 1'
_cell_length_a   12.47130000
_cell_length_b   12.47130033
_cell_length_c   3.84458600
_cell_angle_alpha   90.00000000
_cell_angle_beta   90.00000000
_cell_angle_gamma   119.99999912
_symmetry_Int_Tables_number   1
_chemical_formula_structural   Tb5Nb3(Si3Ni4)4
_chemical_formula_sum   'Tb5 Nb3 Si12 Ni16'
_cell_volume   517.84964158
_cell_formula_units_Z   1
loop_
 _symmetry_equiv_pos_site_id
 _symmetry_equiv_pos_as_xyz
  1  'x, y, z'
loop_
 _atom_site_type_symbol
 _atom_site_label
 _atom_site_symmetry_multiplicity
 _atom_site_fract_x
 _atom_site_fract_y
 _atom_site_fract_z
 _atom_site_occupancy
  Tb  Tb0  1  0.813263  0.000000  0.500000  1
  Tb  Tb1  1  0.000000  0.813263  0.500000  1
  Tb  Tb2  1  0.186737  0.186737  0.500000  1
  Tb  Tb3  1  0.333333  0.666667  0.000000  1
  Tb  Tb4  1  0.666667  0.333333  0.000000  1
  Nb  Nb5  1  0.434281  0.000000  0.000000  1
  Nb  Nb6  1  0.000000  0.434281  0.000000  1
  Nb  Nb7  1  0.565719  0.565719  0.000000  1
  Si  Si8  1  0.182261  0.000000  0.000000  1
  Si  Si9  1  0.000000  0.182261  0.000000  1
  Si  Si10  1  0.817739  0.817739  0.000000  1
  Si  Si11  1  0.523650  0.691898  0.500000  1
  Si  Si12  1  0.308102  0.831752  0.500000  1
  Si  Si13  1  0.168248  0.476350  0.500000  1
  Si  Si14  1  0.476350  0.168248  0.500000  1
  Si  Si15  1  0.691898  0.523650  0.500000  1
  Si  Si16  1  0.831752  0.308102  0.500000  1
  Si  Si17  1  0.637426  0.000000  0.000000  1
  Si  Si18  1  0.000000  0.637426  0.000000  1
  Si  Si19  1  0.362574  0.362574  0.000000  1
  Ni  Ni20  1  0.275961  0.000000  0.500000  1
  Ni  Ni21  1  0.000000  0.275961  0.500000  1
  Ni  Ni22  1  0.724039  0.724039  0.500000  1
  Ni  Ni23  1  0.621929  0.806241  0.000000  1
  Ni  Ni24  1  0.193759  0.815687  0.000000  1
  Ni  Ni25  1  0.184313  0.378071  0.000000  1
  Ni  Ni26  1  0.378071  0.184313  0.000000  1
  Ni  Ni27  1  0.806241  0.621929  0.000000  1
  Ni  Ni28  1  0.815687  0.193759  0.000000  1
  Ni  Ni29  1  0.519481  0.878755  0.500000  1
  Ni  Ni30  1  0.121245  0.640726  0.500000  1
  Ni  Ni31  1  0.359274  0.480519  0.500000  1
  Ni  Ni32  1  0.480519  0.359274  0.500000  1
  Ni  Ni33  1  0.878755  0.519481  0.500000  1
  Ni  Ni34  1  0.640726  0.121245  0.500000  1
  Ni  Ni35  1  0.000000  0.000000  0.000000  1
