# generated using pymatgen
data_Zr16Co4Os3Ru
_symmetry_space_group_name_H-M   'P 1'
_cell_length_a   8.70734497
_cell_length_b   8.70678048
_cell_length_c   8.70660675
_cell_angle_alpha   59.97275987
_cell_angle_beta   59.97465227
_cell_angle_gamma   59.97443238
_symmetry_Int_Tables_number   1
_chemical_formula_structural   Zr16Co4Os3Ru
_chemical_formula_sum   'Zr16 Co4 Os3 Ru1'
_cell_volume   466.46669272
_cell_formula_units_Z   1
loop_
 _symmetry_equiv_pos_site_id
 _symmetry_equiv_pos_as_xyz
  1  'x, y, z'
loop_
 _atom_site_type_symbol
 _atom_site_label
 _atom_site_symmetry_multiplicity
 _atom_site_fract_x
 _atom_site_fract_y
 _atom_site_fract_z
 _atom_site_occupancy
  Zr  Zr0  1  0.053156  0.649091  0.649203  1
  Zr  Zr1  1  0.649130  0.053265  0.649136  1
  Zr  Zr2  1  0.649193  0.649082  0.053189  1
  Zr  Zr3  1  0.649228  0.649101  0.649215  1
  Zr  Zr4  1  0.797568  0.797543  0.202131  1
  Zr  Zr5  1  0.203023  0.203196  0.797687  1
  Zr  Zr6  1  0.797591  0.202174  0.797575  1
  Zr  Zr7  1  0.203123  0.797648  0.203156  1
  Zr  Zr8  1  0.202111  0.797554  0.797564  1
  Zr  Zr9  1  0.797680  0.203185  0.203042  1
  Zr  Zr10  1  0.434895  0.434855  0.063597  1
  Zr  Zr11  1  0.064743  0.064728  0.435193  1
  Zr  Zr12  1  0.434894  0.063592  0.434866  1
  Zr  Zr13  1  0.064751  0.435179  0.064733  1
  Zr  Zr14  1  0.063624  0.434864  0.434875  1
  Zr  Zr15  1  0.435207  0.064741  0.064741  1
  Co  Co16  1  0.419756  0.860087  0.860072  1
  Co  Co17  1  0.860056  0.419803  0.860093  1
  Co  Co18  1  0.860059  0.860116  0.419770  1
  Co  Co19  1  0.859620  0.859626  0.859615  1
  Os  Os20  1  0.744545  0.419030  0.419026  1
  Os  Os21  1  0.419033  0.744522  0.419036  1
  Os  Os22  1  0.419033  0.419039  0.744521  1
  Ru  Ru23  1  0.417984  0.417978  0.417965  1
