# generated using pymatgen
data_La(ZrAu2)2
_symmetry_space_group_name_H-M   'P 1'
_cell_length_a   5.91204829
_cell_length_b   5.91204791
_cell_length_c   5.91204773
_cell_angle_alpha   102.89474195
_cell_angle_beta   102.89473584
_cell_angle_gamma   123.61975329
_symmetry_Int_Tables_number   1
_chemical_formula_structural   La(ZrAu2)2
_chemical_formula_sum   'La1 Zr2 Au4'
_cell_volume   151.66448880
_cell_formula_units_Z   1
loop_
 _symmetry_equiv_pos_site_id
 _symmetry_equiv_pos_as_xyz
  1  'x, y, z'
loop_
 _atom_site_type_symbol
 _atom_site_label
 _atom_site_symmetry_multiplicity
 _atom_site_fract_x
 _atom_site_fract_y
 _atom_site_fract_z
 _atom_site_occupancy
  La  La0  1  0.000000  0.000000  0.000000  1
  Zr  Zr1  1  0.250000  0.750000  0.500000  1
  Zr  Zr2  1  0.750000  0.250000  0.500000  1
  Au  Au3  1  0.302332  0.302332  0.604665  1
  Au  Au4  1  0.697668  0.697668  0.395335  1
  Au  Au5  1  0.697668  0.302332  0.000000  1
  Au  Au6  1  0.302332  0.697668  0.000000  1
