# generated using pymatgen
data_Ca2TmZr(NiAs)4
_symmetry_space_group_name_H-M   'P 1'
_cell_length_a   4.01870300
_cell_length_b   4.01870421
_cell_length_c   15.73384900
_cell_angle_alpha   90.00000000
_cell_angle_beta   90.00000000
_cell_angle_gamma   119.99999825
_symmetry_Int_Tables_number   1
_chemical_formula_structural   Ca2TmZr(NiAs)4
_chemical_formula_sum   'Ca2 Tm1 Zr1 Ni4 As4'
_cell_volume   220.05820720
_cell_formula_units_Z   1
loop_
 _symmetry_equiv_pos_site_id
 _symmetry_equiv_pos_as_xyz
  1  'x, y, z'
loop_
 _atom_site_type_symbol
 _atom_site_label
 _atom_site_symmetry_multiplicity
 _atom_site_fract_x
 _atom_site_fract_y
 _atom_site_fract_z
 _atom_site_occupancy
  Ca  Ca0  1  0.000000  0.000000  0.005566  1
  Ca  Ca1  1  0.000000  0.000000  0.494434  1
  Tm  Tm2  1  0.000000  0.000000  0.750000  1
  Zr  Zr3  1  0.000000  0.000000  0.250000  1
  Ni  Ni4  1  0.333333  0.666667  0.162023  1
  Ni  Ni5  1  0.666667  0.333333  0.865746  1
  Ni  Ni6  1  0.666667  0.333333  0.634254  1
  Ni  Ni7  1  0.333333  0.666667  0.337977  1
  As  As8  1  0.333333  0.666667  0.623803  1
  As  As9  1  0.666667  0.333333  0.370963  1
  As  As10  1  0.666667  0.333333  0.129037  1
  As  As11  1  0.333333  0.666667  0.876197  1
