# generated using pymatgen
data_LiBr37
_symmetry_space_group_name_H-M   'P 1'
_cell_length_a   14.20848141
_cell_length_b   15.29732181
_cell_length_c   14.42416200
_cell_angle_alpha   103.00376457
_cell_angle_beta   48.80056783
_cell_angle_gamma   81.50743146
_symmetry_Int_Tables_number   1
_chemical_formula_structural   LiBr37
_chemical_formula_sum   'Li1 Br37'
_cell_volume   2102.91272627
_cell_formula_units_Z   1
loop_
 _symmetry_equiv_pos_site_id
 _symmetry_equiv_pos_as_xyz
  1  'x, y, z'
loop_
 _atom_site_type_symbol
 _atom_site_label
 _atom_site_symmetry_multiplicity
 _atom_site_fract_x
 _atom_site_fract_y
 _atom_site_fract_z
 _atom_site_occupancy
  Li  Li0  1  0.500000  0.000000  0.000000  1
  Br  Br1  1  0.790462  0.298994  0.133418  1
  Br  Br2  1  0.209538  0.701006  0.866582  1
  Br  Br3  1  0.742142  0.083708  0.362648  1
  Br  Br4  1  0.257858  0.916292  0.637352  1
  Br  Br5  1  0.113554  0.351860  0.174206  1
  Br  Br6  1  0.886446  0.648140  0.825794  1
  Br  Br7  1  0.866892  0.532993  0.247464  1
  Br  Br8  1  0.133108  0.467007  0.752536  1
  Br  Br9  1  0.682855  0.275916  0.523721  1
  Br  Br10  1  0.317145  0.724084  0.476279  1
  Br  Br11  1  0.031226  0.150248  0.516353  1
  Br  Br12  1  0.968774  0.849752  0.483647  1
  Br  Br13  1  0.975722  0.012223  0.287113  1
  Br  Br14  1  0.024278  0.987777  0.712887  1
  Br  Br15  1  0.944100  0.342932  0.610951  1
  Br  Br16  1  0.055900  0.657068  0.389049  1
  Br  Br17  1  0.581372  0.428318  0.232508  1
  Br  Br18  1  0.418628  0.571682  0.767492  1
  Br  Br19  1  0.171491  0.474895  0.286237  1
  Br  Br20  1  0.828509  0.525105  0.713763  1
  Br  Br21  1  0.000000  0.500000  0.000000  1
  Br  Br22  1  0.546576  0.942364  0.144714  1
  Br  Br23  1  0.453424  0.057636  0.855286  1
  Br  Br24  1  0.289573  0.052396  0.333768  1
  Br  Br25  1  0.710427  0.947604  0.666232  1
  Br  Br26  1  0.529859  0.130240  0.412196  1
  Br  Br27  1  0.470141  0.869760  0.587804  1
  Br  Br28  1  0.088731  0.223224  0.068561  1
  Br  Br29  1  0.911269  0.776776  0.931439  1
  Br  Br30  1  0.665829  0.693126  0.403384  1
  Br  Br31  1  0.334171  0.306874  0.596616  1
  Br  Br32  1  0.901713  0.144757  0.920578  1
  Br  Br33  1  0.098287  0.855243  0.079422  1
  Br  Br34  1  0.450927  0.172588  0.048217  1
  Br  Br35  1  0.549073  0.827412  0.951783  1
  Br  Br36  1  0.648795  0.429975  0.651407  1
  Br  Br37  1  0.351205  0.570025  0.348593  1
