# generated using pymatgen
data_Sm6Sn(P3Rh5)4
_symmetry_space_group_name_H-M   'P 1'
_cell_length_a   13.58314400
_cell_length_b   13.58314284
_cell_length_c   3.93333900
_cell_angle_alpha   90.00000000
_cell_angle_beta   90.00000000
_cell_angle_gamma   119.99999797
_symmetry_Int_Tables_number   1
_chemical_formula_structural   Sm6Sn(P3Rh5)4
_chemical_formula_sum   'Sm6 Sn1 P12 Rh20'
_cell_volume   628.48163458
_cell_formula_units_Z   1
loop_
 _symmetry_equiv_pos_site_id
 _symmetry_equiv_pos_as_xyz
  1  'x, y, z'
loop_
 _atom_site_type_symbol
 _atom_site_label
 _atom_site_symmetry_multiplicity
 _atom_site_fract_x
 _atom_site_fract_y
 _atom_site_fract_z
 _atom_site_occupancy
  Sm  Sm0  1  0.530148  0.717180  0.250742  1
  Sm  Sm1  1  0.282820  0.812968  0.250742  1
  Sm  Sm2  1  0.187032  0.469852  0.250742  1
  Sm  Sm3  1  0.469852  0.282820  0.749258  1
  Sm  Sm4  1  0.717180  0.187032  0.749258  1
  Sm  Sm5  1  0.812968  0.530148  0.749258  1
  Sn  Sn6  1  0.000000  0.000000  0.000000  1
  P  P7  1  0.525329  0.137009  0.249679  1
  P  P8  1  0.862991  0.388319  0.249679  1
  P  P9  1  0.611681  0.474671  0.249679  1
  P  P10  1  0.948409  0.717140  0.247109  1
  P  P11  1  0.282860  0.231269  0.247109  1
  P  P12  1  0.768731  0.051591  0.247109  1
  P  P13  1  0.388319  0.525329  0.750321  1
  P  P14  1  0.474671  0.862991  0.750321  1
  P  P15  1  0.137009  0.611681  0.750321  1
  P  P16  1  0.717140  0.768731  0.752891  1
  P  P17  1  0.231269  0.948409  0.752891  1
  P  P18  1  0.051591  0.282860  0.752891  1
  Rh  Rh19  1  0.333333  0.666667  0.752747  1
  Rh  Rh20  1  0.920654  0.253138  0.245320  1
  Rh  Rh21  1  0.746862  0.667516  0.245320  1
  Rh  Rh22  1  0.332484  0.079346  0.245320  1
  Rh  Rh23  1  0.443211  0.026599  0.749046  1
  Rh  Rh24  1  0.973401  0.416611  0.749046  1
  Rh  Rh25  1  0.583389  0.556789  0.749046  1
  Rh  Rh26  1  0.666667  0.333333  0.247253  1
  Rh  Rh27  1  0.099056  0.205213  0.263575  1
  Rh  Rh28  1  0.794787  0.893843  0.263575  1
  Rh  Rh29  1  0.106157  0.900944  0.263575  1
  Rh  Rh30  1  0.026599  0.583389  0.250954  1
  Rh  Rh31  1  0.416611  0.443211  0.250954  1
  Rh  Rh32  1  0.556789  0.973401  0.250954  1
  Rh  Rh33  1  0.667516  0.920654  0.754680  1
  Rh  Rh34  1  0.079346  0.746862  0.754680  1
  Rh  Rh35  1  0.253138  0.332484  0.754680  1
  Rh  Rh36  1  0.900944  0.794787  0.736425  1
  Rh  Rh37  1  0.205213  0.106157  0.736425  1
  Rh  Rh38  1  0.893843  0.099056  0.736425  1
