# generated using pymatgen
data_Li3Ca8Si12Hg
_symmetry_space_group_name_H-M   'P 1'
_cell_length_a   4.40794400
_cell_length_b   10.52770117
_cell_length_c   11.21551542
_cell_angle_alpha   89.89814824
_cell_angle_beta   90.00000000
_cell_angle_gamma   90.00000000
_symmetry_Int_Tables_number   1
_chemical_formula_structural   Li3Ca8Si12Hg
_chemical_formula_sum   'Li3 Ca8 Si12 Hg1'
_cell_volume   520.46097136
_cell_formula_units_Z   1
loop_
 _symmetry_equiv_pos_site_id
 _symmetry_equiv_pos_as_xyz
  1  'x, y, z'
loop_
 _atom_site_type_symbol
 _atom_site_label
 _atom_site_symmetry_multiplicity
 _atom_site_fract_x
 _atom_site_fract_y
 _atom_site_fract_z
 _atom_site_occupancy
  Li  Li0  1  0.500000  0.138939  0.718140  1
  Li  Li1  1  0.000000  0.362370  0.218625  1
  Li  Li2  1  0.000000  0.637740  0.782810  1
  Ca  Ca3  1  0.500000  0.549559  0.349504  1
  Ca  Ca4  1  0.500000  0.449393  0.649680  1
  Ca  Ca5  1  0.000000  0.052764  0.152219  1
  Ca  Ca6  1  0.000000  0.949082  0.851873  1
  Ca  Ca7  1  0.500000  0.823139  0.577418  1
  Ca  Ca8  1  0.500000  0.177248  0.424068  1
  Ca  Ca9  1  0.000000  0.323356  0.925742  1
  Ca  Ca10  1  0.000000  0.675817  0.074273  1
  Si  Si11  1  0.500000  0.895297  0.033922  1
  Si  Si12  1  0.500000  0.111354  0.960019  1
  Si  Si13  1  0.000000  0.391167  0.459508  1
  Si  Si14  1  0.000000  0.607726  0.542366  1
  Si  Si15  1  0.000000  0.968738  0.403946  1
  Si  Si16  1  0.000000  0.034985  0.602022  1
  Si  Si17  1  0.500000  0.465234  0.099718  1
  Si  Si18  1  0.500000  0.533656  0.900949  1
  Si  Si19  1  0.000000  0.256538  0.634182  1
  Si  Si20  1  0.000000  0.742865  0.370325  1
  Si  Si21  1  0.500000  0.754009  0.865436  1
  Si  Si22  1  0.500000  0.244870  0.134318  1
  Hg  Hg23  1  0.500000  0.854156  0.268937  1
