# generated using pymatgen
data_PtCl24
_symmetry_space_group_name_H-M   'P 1'
_cell_length_a   12.52458388
_cell_length_b   9.18799287
_cell_length_c   8.92811598
_cell_angle_alpha   82.05312478
_cell_angle_beta   88.05033552
_cell_angle_gamma   75.92786542
_symmetry_Int_Tables_number   1
_chemical_formula_structural   PtCl24
_chemical_formula_sum   'Pt1 Cl24'
_cell_volume   987.00725586
_cell_formula_units_Z   1
loop_
 _symmetry_equiv_pos_site_id
 _symmetry_equiv_pos_as_xyz
  1  'x, y, z'
loop_
 _atom_site_type_symbol
 _atom_site_label
 _atom_site_symmetry_multiplicity
 _atom_site_fract_x
 _atom_site_fract_y
 _atom_site_fract_z
 _atom_site_occupancy
  Pt  Pt0  1  0.001256  0.992848  0.997809  1
  Cl  Cl1  1  0.564610  0.525175  0.265390  1
  Cl  Cl2  1  0.521429  0.285859  0.657675  1
  Cl  Cl3  1  0.480457  0.715348  0.343266  1
  Cl  Cl4  1  0.851101  0.509361  0.416324  1
  Cl  Cl5  1  0.155041  0.491661  0.590445  1
  Cl  Cl6  1  0.960853  0.953881  0.262592  1
  Cl  Cl7  1  0.438357  0.474352  0.739140  1
  Cl  Cl8  1  0.814145  0.108711  0.944646  1
  Cl  Cl9  1  0.034822  0.217311  0.051630  1
  Cl  Cl10  1  0.959657  0.763514  0.952435  1
  Cl  Cl11  1  0.186903  0.873777  0.054765  1
  Cl  Cl12  1  0.043704  0.044159  0.745014  1
  Cl  Cl13  1  0.924036  0.367694  0.260974  1
  Cl  Cl14  1  0.738868  0.439310  0.902035  1
  Cl  Cl15  1  0.649328  0.089432  0.296595  1
  Cl  Cl16  1  0.335620  0.323516  0.127489  1
  Cl  Cl17  1  0.342598  0.988009  0.483323  1
  Cl  Cl18  1  0.659536  0.013042  0.517176  1
  Cl  Cl19  1  0.673062  0.665621  0.877292  1
  Cl  Cl20  1  0.266399  0.549214  0.098867  1
  Cl  Cl21  1  0.910266  0.747445  0.329447  1
  Cl  Cl22  1  0.056462  0.649548  0.778700  1
  Cl  Cl23  1  0.361444  0.908064  0.702459  1
  Cl  Cl24  1  0.107547  0.292754  0.666613  1
