# generated using pymatgen
data_Sc3Mn4NbP4
_symmetry_space_group_name_H-M   'P 1'
_cell_length_a   3.58712900
_cell_length_b   6.39518991
_cell_length_c   7.42479543
_cell_angle_alpha   89.74453504
_cell_angle_beta   90.00000000
_cell_angle_gamma   90.00000000
_symmetry_Int_Tables_number   1
_chemical_formula_structural   Sc3Mn4NbP4
_chemical_formula_sum   'Sc3 Mn4 Nb1 P4'
_cell_volume   170.32587009
_cell_formula_units_Z   1
loop_
 _symmetry_equiv_pos_site_id
 _symmetry_equiv_pos_as_xyz
  1  'x, y, z'
loop_
 _atom_site_type_symbol
 _atom_site_label
 _atom_site_symmetry_multiplicity
 _atom_site_fract_x
 _atom_site_fract_y
 _atom_site_fract_z
 _atom_site_occupancy
  Sc  Sc0  1  0.250000  0.532014  0.673314  1
  Sc  Sc1  1  0.750000  0.468790  0.324990  1
  Sc  Sc2  1  0.250000  0.029685  0.828117  1
  Mn  Mn3  1  0.750000  0.866317  0.556361  1
  Mn  Mn4  1  0.250000  0.134159  0.438509  1
  Mn  Mn5  1  0.750000  0.361733  0.942943  1
  Mn  Mn6  1  0.250000  0.637381  0.061003  1
  Nb  Nb7  1  0.750000  0.971018  0.173255  1
  P  P8  1  0.250000  0.265766  0.130011  1
  P  P9  1  0.750000  0.731103  0.874254  1
  P  P10  1  0.250000  0.771219  0.369636  1
  P  P11  1  0.750000  0.230816  0.627607  1
