# generated using pymatgen
data_Rb6GaBiSb2
_symmetry_space_group_name_H-M   'P 1'
_cell_length_a   6.29904200
_cell_length_b   10.96475685
_cell_length_c   12.98142694
_cell_angle_alpha   79.04619110
_cell_angle_beta   90.00000000
_cell_angle_gamma   90.00000000
_symmetry_Int_Tables_number   1
_chemical_formula_structural   Rb6GaBiSb2
_chemical_formula_sum   'Rb12 Ga2 Bi2 Sb4'
_cell_volume   880.25891011
_cell_formula_units_Z   2
loop_
 _symmetry_equiv_pos_site_id
 _symmetry_equiv_pos_as_xyz
  1  'x, y, z'
loop_
 _atom_site_type_symbol
 _atom_site_label
 _atom_site_symmetry_multiplicity
 _atom_site_fract_x
 _atom_site_fract_y
 _atom_site_fract_z
 _atom_site_occupancy
  Rb  Rb0  1  0.750000  0.454465  0.081042  1
  Rb  Rb1  1  0.250000  0.545535  0.918958  1
  Rb  Rb2  1  0.750000  0.738966  0.230282  1
  Rb  Rb3  1  0.250000  0.261034  0.769718  1
  Rb  Rb4  1  0.250000  0.562906  0.541295  1
  Rb  Rb5  1  0.750000  0.437094  0.458705  1
  Rb  Rb6  1  0.250000  0.862586  0.024080  1
  Rb  Rb7  1  0.750000  0.137414  0.975920  1
  Rb  Rb8  1  0.250000  0.873414  0.676333  1
  Rb  Rb9  1  0.750000  0.126586  0.323667  1
  Rb  Rb10  1  0.250000  0.918765  0.373750  1
  Rb  Rb11  1  0.750000  0.081235  0.626250  1
  Ga  Ga12  1  0.750000  0.678697  0.714712  1
  Ga  Ga13  1  0.250000  0.321303  0.285288  1
  Bi  Bi14  1  0.750000  0.821810  0.873654  1
  Bi  Bi15  1  0.250000  0.178190  0.126346  1
  Sb  Sb16  1  0.250000  0.214606  0.487107  1
  Sb  Sb17  1  0.750000  0.785394  0.512893  1
  Sb  Sb18  1  0.250000  0.565256  0.225735  1
  Sb  Sb19  1  0.750000  0.434744  0.774265  1
