# generated using pymatgen
data_La3Co(P3Rh4)2
_symmetry_space_group_name_H-M   'P 1'
_cell_length_a   3.97773600
_cell_length_b   11.42680700
_cell_length_c   12.88187900
_cell_angle_alpha   90.00000000
_cell_angle_beta   90.00000000
_cell_angle_gamma   90.00000000
_symmetry_Int_Tables_number   1
_chemical_formula_structural   La3Co(P3Rh4)2
_chemical_formula_sum   'La6 Co2 P12 Rh16'
_cell_volume   585.51774766
_cell_formula_units_Z   2
loop_
 _symmetry_equiv_pos_site_id
 _symmetry_equiv_pos_as_xyz
  1  'x, y, z'
loop_
 _atom_site_type_symbol
 _atom_site_label
 _atom_site_symmetry_multiplicity
 _atom_site_fract_x
 _atom_site_fract_y
 _atom_site_fract_z
 _atom_site_occupancy
  La  La0  1  0.000000  0.500000  0.521240  1
  La  La1  1  0.500000  0.000000  0.478760  1
  La  La2  1  0.500000  0.820531  0.201681  1
  La  La3  1  0.500000  0.179469  0.201681  1
  La  La4  1  0.000000  0.679469  0.798319  1
  La  La5  1  0.000000  0.320531  0.798319  1
  Co  Co6  1  0.000000  0.500000  0.989718  1
  Co  Co7  1  0.500000  0.000000  0.010282  1
  P  P8  1  0.500000  0.500000  0.891046  1
  P  P9  1  0.000000  0.000000  0.108954  1
  P  P10  1  0.500000  0.500000  0.343883  1
  P  P11  1  0.000000  0.000000  0.656117  1
  P  P12  1  0.500000  0.309446  0.617682  1
  P  P13  1  0.500000  0.690554  0.617682  1
  P  P14  1  0.000000  0.190554  0.382318  1
  P  P15  1  0.000000  0.809446  0.382318  1
  P  P16  1  0.500000  0.851626  0.896460  1
  P  P17  1  0.500000  0.148374  0.896460  1
  P  P18  1  0.000000  0.648374  0.103540  1
  P  P19  1  0.000000  0.351626  0.103540  1
  Rh  Rh20  1  0.500000  0.500000  0.164629  1
  Rh  Rh21  1  0.000000  0.000000  0.835371  1
  Rh  Rh22  1  0.500000  0.500000  0.704235  1
  Rh  Rh23  1  0.000000  0.000000  0.295765  1
  Rh  Rh24  1  0.500000  0.336087  0.998260  1
  Rh  Rh25  1  0.500000  0.663913  0.998260  1
  Rh  Rh26  1  0.000000  0.163913  0.001740  1
  Rh  Rh27  1  0.000000  0.836087  0.001740  1
  Rh  Rh28  1  0.500000  0.293055  0.429341  1
  Rh  Rh29  1  0.500000  0.706945  0.429341  1
  Rh  Rh30  1  0.000000  0.206945  0.570659  1
  Rh  Rh31  1  0.000000  0.793055  0.570659  1
  Rh  Rh32  1  0.500000  0.876288  0.712719  1
  Rh  Rh33  1  0.500000  0.123712  0.712719  1
  Rh  Rh34  1  0.000000  0.623712  0.287281  1
  Rh  Rh35  1  0.000000  0.376288  0.287281  1
