# generated using pymatgen
data_Tb4SmDy2FeI12
_symmetry_space_group_name_H-M   'P 1'
_cell_length_a   9.81111712
_cell_length_b   9.81741439
_cell_length_c   9.75141432
_cell_angle_alpha   107.05539243
_cell_angle_beta   106.67771179
_cell_angle_gamma   107.02436101
_symmetry_Int_Tables_number   1
_chemical_formula_structural   Tb4SmDy2FeI12
_chemical_formula_sum   'Tb4 Sm1 Dy2 Fe1 I12'
_cell_volume   783.93052577
_cell_formula_units_Z   1
loop_
 _symmetry_equiv_pos_site_id
 _symmetry_equiv_pos_as_xyz
  1  'x, y, z'
loop_
 _atom_site_type_symbol
 _atom_site_label
 _atom_site_symmetry_multiplicity
 _atom_site_fract_x
 _atom_site_fract_y
 _atom_site_fract_z
 _atom_site_occupancy
  Tb  Tb0  1  0.292609  0.021875  0.091973  1
  Tb  Tb1  1  0.905957  0.705937  0.977558  1
  Tb  Tb2  1  0.979255  0.911282  0.721078  1
  Tb  Tb3  1  0.707151  0.977425  0.906138  1
  Sm  Sm4  1  0.021461  0.090845  0.282745  1
  Dy  Dy5  1  0.499926  0.500042  0.499653  1
  Dy  Dy6  1  0.093450  0.291720  0.020898  1
  Fe  Fe7  1  0.999940  0.000273  0.000753  1
  I  I8  1  0.462634  0.386350  0.160429  1
  I  I9  1  0.162835  0.464377  0.385122  1
  I  I10  1  0.386069  0.161993  0.462459  1
  I  I11  1  0.536257  0.613544  0.838720  1
  I  I12  1  0.838434  0.539025  0.613900  1
  I  I13  1  0.616934  0.838696  0.538331  1
  I  I14  1  0.775656  0.320668  0.927911  1
  I  I15  1  0.927741  0.772793  0.319482  1
  I  I16  1  0.318591  0.926659  0.772521  1
  I  I17  1  0.225255  0.678761  0.072092  1
  I  I18  1  0.071705  0.224842  0.682388  1
  I  I19  1  0.678141  0.072894  0.225849  1
