# generated using pymatgen
data_Er5Mn2O12
_symmetry_space_group_name_H-M   'P 1'
_cell_length_a   6.75717881
_cell_length_b   6.75717906
_cell_length_c   7.16595806
_cell_angle_alpha   74.55147321
_cell_angle_beta   74.55147016
_cell_angle_gamma   50.14112025
_symmetry_Int_Tables_number   1
_chemical_formula_structural   Er5Mn2O12
_chemical_formula_sum   'Er5 Mn2 O12'
_cell_volume   240.05616877
_cell_formula_units_Z   1
loop_
 _symmetry_equiv_pos_site_id
 _symmetry_equiv_pos_as_xyz
  1  'x, y, z'
loop_
 _atom_site_type_symbol
 _atom_site_label
 _atom_site_symmetry_multiplicity
 _atom_site_fract_x
 _atom_site_fract_y
 _atom_site_fract_z
 _atom_site_occupancy
  Er  Er0  1  0.304629  0.304629  0.356786  1
  Er  Er1  1  0.695371  0.695371  0.643214  1
  Er  Er2  1  0.307645  0.307645  0.835337  1
  Er  Er3  1  0.692355  0.692355  0.164663  1
  Er  Er4  1  0.000000  0.000000  0.500000  1
  Mn  Mn5  1  0.753882  0.246118  0.000000  1
  Mn  Mn6  1  0.246118  0.753882  0.000000  1
  O  O7  1  0.901925  0.423498  0.917638  1
  O  O8  1  0.423498  0.901925  0.917638  1
  O  O9  1  0.098075  0.576502  0.082362  1
  O  O10  1  0.576502  0.098075  0.082362  1
  O  O11  1  0.097156  0.598227  0.574175  1
  O  O12  1  0.598227  0.097156  0.574175  1
  O  O13  1  0.902844  0.401773  0.425825  1
  O  O14  1  0.401773  0.902844  0.425825  1
  O  O15  1  0.999725  0.999725  0.819560  1
  O  O16  1  0.000275  0.000275  0.180440  1
  O  O17  1  0.500010  0.500010  0.817612  1
  O  O18  1  0.499990  0.499990  0.182388  1
