# generated using pymatgen
data_Cs2Ho(PdO2)3
_symmetry_space_group_name_H-M   'P 1'
_cell_length_a   10.15192594
_cell_length_b   8.84124873
_cell_length_c   8.02170078
_cell_angle_alpha   73.85020333
_cell_angle_beta   56.77510203
_cell_angle_gamma   49.37467747
_symmetry_Int_Tables_number   1
_chemical_formula_structural   Cs2Ho(PdO2)3
_chemical_formula_sum   'Cs4 Ho2 Pd6 O12'
_cell_volume   453.61338662
_cell_formula_units_Z   2
loop_
 _symmetry_equiv_pos_site_id
 _symmetry_equiv_pos_as_xyz
  1  'x, y, z'
loop_
 _atom_site_type_symbol
 _atom_site_label
 _atom_site_symmetry_multiplicity
 _atom_site_fract_x
 _atom_site_fract_y
 _atom_site_fract_z
 _atom_site_occupancy
  Cs  Cs0  1  0.750000  0.750000  0.750000  1
  Cs  Cs1  1  0.250000  0.250000  0.250000  1
  Cs  Cs2  1  0.222287  0.777713  0.222287  1
  Cs  Cs3  1  0.777713  0.222287  0.777713  1
  Ho  Ho4  1  0.670215  0.670215  0.329785  1
  Ho  Ho5  1  0.329785  0.329785  0.670215  1
  Pd  Pd6  1  0.687826  0.005503  0.312174  1
  Pd  Pd7  1  0.994497  0.312174  0.005503  1
  Pd  Pd8  1  0.005503  0.687826  0.994497  1
  Pd  Pd9  1  0.312174  0.994497  0.687826  1
  Pd  Pd10  1  0.323738  0.676262  0.676262  1
  Pd  Pd11  1  0.676262  0.323738  0.323738  1
  O  O12  1  0.310054  0.481717  0.883004  1
  O  O13  1  0.325225  0.883004  0.481717  1
  O  O14  1  0.883004  0.325225  0.310054  1
  O  O15  1  0.481717  0.310054  0.325225  1
  O  O16  1  0.689946  0.518283  0.116996  1
  O  O17  1  0.674775  0.116996  0.518283  1
  O  O18  1  0.701266  0.893502  0.106498  1
  O  O19  1  0.518283  0.689946  0.674775  1
  O  O20  1  0.893502  0.701266  0.298734  1
  O  O21  1  0.106498  0.298734  0.701266  1
  O  O22  1  0.298734  0.106498  0.893502  1
  O  O23  1  0.116996  0.674775  0.689946  1
