# generated using pymatgen
data_TbHoEr2Fe5Os3
_symmetry_space_group_name_H-M   'P 1'
_cell_length_a   5.24740477
_cell_length_b   5.22993120
_cell_length_c   9.02424104
_cell_angle_alpha   72.82625622
_cell_angle_beta   90.82256724
_cell_angle_gamma   120.25907970
_symmetry_Int_Tables_number   1
_chemical_formula_structural   TbHoEr2Fe5Os3
_chemical_formula_sum   'Tb1 Ho1 Er2 Fe5 Os3'
_cell_volume   201.64773413
_cell_formula_units_Z   1
loop_
 _symmetry_equiv_pos_site_id
 _symmetry_equiv_pos_as_xyz
  1  'x, y, z'
loop_
 _atom_site_type_symbol
 _atom_site_label
 _atom_site_symmetry_multiplicity
 _atom_site_fract_x
 _atom_site_fract_y
 _atom_site_fract_z
 _atom_site_occupancy
  Tb  Tb0  1  0.876073  0.750581  0.376373  1
  Ho  Ho1  1  0.498897  0.000061  0.501601  1
  Er  Er2  1  0.375902  0.749868  0.873584  1
  Er  Er3  1  0.998921  0.999610  0.998563  1
  Fe  Fe4  1  0.937428  0.874612  0.688596  1
  Fe  Fe5  1  0.183838  0.369661  0.443604  1
  Fe  Fe6  1  0.691318  0.380412  0.931641  1
  Fe  Fe7  1  0.937763  0.375760  0.186334  1
  Fe  Fe8  1  0.436846  0.373962  0.688643  1
  Os  Os9  1  0.437640  0.376287  0.186147  1
  Os  Os10  1  0.937656  0.373582  0.688794  1
  Os  Os11  1  0.437716  0.875606  0.186122  1
