# generated using pymatgen
data_YbDy6IrI12
_symmetry_space_group_name_H-M   'P 1'
_cell_length_a   9.81425833
_cell_length_b   9.81425849
_cell_length_c   9.81425833
_cell_angle_alpha   107.19567333
_cell_angle_beta   107.19567569
_cell_angle_gamma   107.19567210
_symmetry_Int_Tables_number   1
_chemical_formula_structural   YbDy6IrI12
_chemical_formula_sum   'Yb1 Dy6 Ir1 I12'
_cell_volume   783.01976440
_cell_formula_units_Z   1
loop_
 _symmetry_equiv_pos_site_id
 _symmetry_equiv_pos_as_xyz
  1  'x, y, z'
loop_
 _atom_site_type_symbol
 _atom_site_label
 _atom_site_symmetry_multiplicity
 _atom_site_fract_x
 _atom_site_fract_y
 _atom_site_fract_z
 _atom_site_occupancy
  Yb  Yb0  1  0.500000  0.500000  0.500000  1
  Dy  Dy1  1  0.094940  0.022464  0.298741  1
  Dy  Dy2  1  0.298741  0.094940  0.022464  1
  Dy  Dy3  1  0.022464  0.298741  0.094940  1
  Dy  Dy4  1  0.905060  0.977536  0.701259  1
  Dy  Dy5  1  0.701259  0.905060  0.977536  1
  Dy  Dy6  1  0.977536  0.701259  0.905060  1
  Ir  Ir7  1  0.000000  0.000000  0.000000  1
  I  I8  1  0.071363  0.677587  0.224139  1
  I  I9  1  0.224139  0.071363  0.677587  1
  I  I10  1  0.677587  0.224139  0.071363  1
  I  I11  1  0.928637  0.322413  0.775861  1
  I  I12  1  0.775861  0.928637  0.322413  1
  I  I13  1  0.322413  0.775861  0.928637  1
  I  I14  1  0.456617  0.151752  0.379166  1
  I  I15  1  0.379166  0.456617  0.151752  1
  I  I16  1  0.151752  0.379166  0.456617  1
  I  I17  1  0.543383  0.848248  0.620834  1
  I  I18  1  0.620834  0.543383  0.848248  1
  I  I19  1  0.848248  0.620834  0.543383  1
