# generated using pymatgen
data_Zr3Ti5Nb2(SiSn3)2
_symmetry_space_group_name_H-M   'P 1'
_cell_length_a   8.41442800
_cell_length_b   8.41442765
_cell_length_c   5.65368300
_cell_angle_alpha   90.00000000
_cell_angle_beta   90.00000000
_cell_angle_gamma   120.00000138
_symmetry_Int_Tables_number   1
_chemical_formula_structural   Zr3Ti5Nb2(SiSn3)2
_chemical_formula_sum   'Zr3 Ti5 Nb2 Si2 Sn6'
_cell_volume   346.66600755
_cell_formula_units_Z   1
loop_
 _symmetry_equiv_pos_site_id
 _symmetry_equiv_pos_as_xyz
  1  'x, y, z'
loop_
 _atom_site_type_symbol
 _atom_site_label
 _atom_site_symmetry_multiplicity
 _atom_site_fract_x
 _atom_site_fract_y
 _atom_site_fract_z
 _atom_site_occupancy
  Zr  Zr0  1  0.249715  0.249715  0.247339  1
  Zr  Zr1  1  0.750285  0.000000  0.247339  1
  Zr  Zr2  1  0.000000  0.750285  0.247339  1
  Ti  Ti3  1  0.333333  0.666667  0.501656  1
  Ti  Ti4  1  0.666667  0.333333  0.501656  1
  Ti  Ti5  1  0.730336  0.730336  0.751878  1
  Ti  Ti6  1  0.269664  0.000000  0.751878  1
  Ti  Ti7  1  0.000000  0.269664  0.751878  1
  Nb  Nb8  1  0.666667  0.333333  0.998156  1
  Nb  Nb9  1  0.333333  0.666667  0.998156  1
  Si  Si10  1  0.000000  0.000000  0.962521  1
  Si  Si11  1  0.000000  0.000000  0.536842  1
  Sn  Sn12  1  0.391809  0.391809  0.746425  1
  Sn  Sn13  1  0.608191  0.000000  0.746425  1
  Sn  Sn14  1  0.000000  0.608191  0.746425  1
  Sn  Sn15  1  0.599794  0.599794  0.254696  1
  Sn  Sn16  1  0.400206  0.000000  0.254696  1
  Sn  Sn17  1  0.000000  0.400206  0.254696  1
