# generated using pymatgen
data_Sc2Si2Ru5W
_symmetry_space_group_name_H-M   'P 1'
_cell_length_a   9.77121400
_cell_length_b   9.77121400
_cell_length_c   3.16557700
_cell_angle_alpha   90.00000000
_cell_angle_beta   90.00000000
_cell_angle_gamma   90.00000000
_symmetry_Int_Tables_number   1
_chemical_formula_structural   Sc2Si2Ru5W
_chemical_formula_sum   'Sc4 Si4 Ru10 W2'
_cell_volume   302.23860191
_cell_formula_units_Z   2
loop_
 _symmetry_equiv_pos_site_id
 _symmetry_equiv_pos_as_xyz
  1  'x, y, z'
loop_
 _atom_site_type_symbol
 _atom_site_label
 _atom_site_symmetry_multiplicity
 _atom_site_fract_x
 _atom_site_fract_y
 _atom_site_fract_z
 _atom_site_occupancy
  Sc  Sc0  1  0.672281  0.172281  0.000000  1
  Sc  Sc1  1  0.327719  0.827719  0.000000  1
  Sc  Sc2  1  0.172281  0.327719  0.000000  1
  Sc  Sc3  1  0.827719  0.672281  0.000000  1
  Si  Si4  1  0.127244  0.627244  0.000000  1
  Si  Si5  1  0.872756  0.372756  0.000000  1
  Si  Si6  1  0.627244  0.872756  0.000000  1
  Si  Si7  1  0.372756  0.127244  0.000000  1
  Ru  Ru8  1  0.204640  0.069347  0.500000  1
  Ru  Ru9  1  0.795360  0.930653  0.500000  1
  Ru  Ru10  1  0.069347  0.795360  0.500000  1
  Ru  Ru11  1  0.704640  0.430653  0.500000  1
  Ru  Ru12  1  0.930653  0.204640  0.500000  1
  Ru  Ru13  1  0.295360  0.569347  0.500000  1
  Ru  Ru14  1  0.569347  0.704640  0.500000  1
  Ru  Ru15  1  0.430653  0.295360  0.500000  1
  Ru  Ru16  1  0.500000  0.000000  0.500000  1
  Ru  Ru17  1  0.000000  0.500000  0.500000  1
  W  W18  1  0.000000  0.000000  0.000000  1
  W  W19  1  0.500000  0.500000  0.000000  1
