# generated using pymatgen
data_Pr2SiRhCl2
_symmetry_space_group_name_H-M   'P 1'
_cell_length_a   4.11037100
_cell_length_b   4.11037187
_cell_length_c   11.25905000
_cell_angle_alpha   90.00000000
_cell_angle_beta   90.00000000
_cell_angle_gamma   119.99998494
_symmetry_Int_Tables_number   1
_chemical_formula_structural   Pr2SiRhCl2
_chemical_formula_sum   'Pr2 Si1 Rh1 Cl2'
_cell_volume   164.73830120
_cell_formula_units_Z   1
loop_
 _symmetry_equiv_pos_site_id
 _symmetry_equiv_pos_as_xyz
  1  'x, y, z'
loop_
 _atom_site_type_symbol
 _atom_site_label
 _atom_site_symmetry_multiplicity
 _atom_site_fract_x
 _atom_site_fract_y
 _atom_site_fract_z
 _atom_site_occupancy
  Pr  Pr0  1  0.000000  0.000000  0.180414  1
  Pr  Pr1  1  0.000000  0.000000  0.818318  1
  Si  Si2  1  0.666667  0.333333  0.991483  1
  Rh  Rh3  1  0.333333  0.666667  0.010036  1
  Cl  Cl4  1  0.333333  0.666667  0.664095  1
  Cl  Cl5  1  0.666667  0.333333  0.335653  1
