# generated using pymatgen
data_CaAg2PbO4
_symmetry_space_group_name_H-M   'P 1'
_cell_length_a   6.69657946
_cell_length_b   6.69657882
_cell_length_c   6.11198126
_cell_angle_alpha   80.89325258
_cell_angle_beta   80.89325294
_cell_angle_gamma   30.36078367
_symmetry_Int_Tables_number   1
_chemical_formula_structural   CaAg2PbO4
_chemical_formula_sum   'Ca1 Ag2 Pb1 O4'
_cell_volume   136.65965677
_cell_formula_units_Z   1
loop_
 _symmetry_equiv_pos_site_id
 _symmetry_equiv_pos_as_xyz
  1  'x, y, z'
loop_
 _atom_site_type_symbol
 _atom_site_label
 _atom_site_symmetry_multiplicity
 _atom_site_fract_x
 _atom_site_fract_y
 _atom_site_fract_z
 _atom_site_occupancy
  Ca  Ca0  1  0.000000  0.000000  0.500000  1
  Ag  Ag1  1  0.746188  0.746188  0.214565  1
  Ag  Ag2  1  0.253812  0.253812  0.785435  1
  Pb  Pb3  1  0.500000  0.500000  0.000000  1
  O  O4  1  0.910357  0.910357  0.181830  1
  O  O5  1  0.417655  0.417655  0.718476  1
  O  O6  1  0.582345  0.582345  0.281524  1
  O  O7  1  0.089643  0.089643  0.818170  1
