# generated using pymatgen
data_Pr3ThAl16(SiIr3)2
_symmetry_space_group_name_H-M   'P 1'
_cell_length_a   7.63159504
_cell_length_b   7.60927775
_cell_length_c   9.57370319
_cell_angle_alpha   90.00405915
_cell_angle_beta   89.86759298
_cell_angle_gamma   119.63699854
_symmetry_Int_Tables_number   1
_chemical_formula_structural   Pr3ThAl16(SiIr3)2
_chemical_formula_sum   'Pr3 Th1 Al16 Si2 Ir6'
_cell_volume   483.21993470
_cell_formula_units_Z   1
loop_
 _symmetry_equiv_pos_site_id
 _symmetry_equiv_pos_as_xyz
  1  'x, y, z'
loop_
 _atom_site_type_symbol
 _atom_site_label
 _atom_site_symmetry_multiplicity
 _atom_site_fract_x
 _atom_site_fract_y
 _atom_site_fract_z
 _atom_site_occupancy
  Pr  Pr0  1  0.004791  0.334136  0.755332  1
  Pr  Pr1  1  0.674114  0.998860  0.248135  1
  Pr  Pr2  1  0.326562  0.000612  0.752122  1
  Th  Th3  1  0.995491  0.665189  0.244439  1
  Al  Al4  1  0.133330  0.131833  0.250639  1
  Al  Al5  1  0.868182  0.870362  0.749095  1
  Al  Al6  1  0.997473  0.665629  0.569242  1
  Al  Al7  1  0.337169  0.003321  0.428388  1
  Al  Al8  1  0.002535  0.331858  0.433943  1
  Al  Al9  1  0.665254  0.999371  0.572058  1
  Al  Al10  1  0.661178  0.994387  0.924214  1
  Al  Al11  1  0.342306  0.009310  0.075082  1
  Al  Al12  1  0.333894  0.332898  0.550013  1
  Al  Al13  1  0.663850  0.666273  0.452377  1
  Al  Al14  1  0.659292  0.665154  0.049518  1
  Al  Al15  1  0.337200  0.334287  0.947978  1
  Al  Al16  1  0.342368  0.546720  0.250190  1
  Al  Al17  1  0.658522  0.452023  0.749775  1
  Al  Al18  1  0.544539  0.341639  0.250354  1
  Al  Al19  1  0.452844  0.658413  0.749184  1
  Si  Si20  1  0.004195  0.326520  0.073490  1
  Si  Si21  1  0.995604  0.671571  0.924828  1
  Ir  Ir22  1  0.689458  0.339842  0.002663  1
  Ir  Ir23  1  0.310486  0.662306  0.000697  1
  Ir  Ir24  1  0.326567  0.669833  0.498389  1
  Ir  Ir25  1  0.673515  0.331794  0.498048  1
  Ir  Ir26  1  0.999562  0.998026  0.001733  1
  Ir  Ir27  1  0.999726  0.997833  0.498076  1
