# generated using pymatgen
data_LuFeP3(IrRu)2
_symmetry_space_group_name_H-M   'P 1'
_cell_length_a   3.86342300
_cell_length_b   10.72636000
_cell_length_c   12.23115200
_cell_angle_alpha   90.00000000
_cell_angle_beta   90.00000000
_cell_angle_gamma   90.00000000
_symmetry_Int_Tables_number   1
_chemical_formula_structural   LuFeP3(IrRu)2
_chemical_formula_sum   'Lu4 Fe4 P12 Ir8 Ru8'
_cell_volume   506.86463774
_cell_formula_units_Z   4
loop_
 _symmetry_equiv_pos_site_id
 _symmetry_equiv_pos_as_xyz
  1  'x, y, z'
loop_
 _atom_site_type_symbol
 _atom_site_label
 _atom_site_symmetry_multiplicity
 _atom_site_fract_x
 _atom_site_fract_y
 _atom_site_fract_z
 _atom_site_occupancy
  Lu  Lu0  1  0.250000  0.582701  0.706913  1
  Lu  Lu1  1  0.250000  0.917299  0.206913  1
  Lu  Lu2  1  0.750000  0.417299  0.293087  1
  Lu  Lu3  1  0.750000  0.082701  0.793087  1
  Fe  Fe4  1  0.250000  0.459490  0.935232  1
  Fe  Fe5  1  0.250000  0.040510  0.435232  1
  Fe  Fe6  1  0.750000  0.540510  0.064768  1
  Fe  Fe7  1  0.750000  0.959490  0.564768  1
  P  P8  1  0.250000  0.429810  0.108231  1
  P  P9  1  0.250000  0.070190  0.608231  1
  P  P10  1  0.750000  0.570190  0.891769  1
  P  P11  1  0.750000  0.929810  0.391769  1
  P  P12  1  0.250000  0.266528  0.873776  1
  P  P13  1  0.250000  0.233472  0.373776  1
  P  P14  1  0.750000  0.733472  0.126224  1
  P  P15  1  0.750000  0.766528  0.626224  1
  P  P16  1  0.250000  0.595136  0.395515  1
  P  P17  1  0.250000  0.904864  0.895515  1
  P  P18  1  0.750000  0.404864  0.604485  1
  P  P19  1  0.750000  0.095136  0.104485  1
  Ir  Ir20  1  0.250000  0.237577  0.181322  1
  Ir  Ir21  1  0.250000  0.262423  0.681322  1
  Ir  Ir22  1  0.750000  0.762423  0.818678  1
  Ir  Ir23  1  0.750000  0.737577  0.318678  1
  Ir  Ir24  1  0.250000  0.888132  0.704965  1
  Ir  Ir25  1  0.250000  0.611868  0.204965  1
  Ir  Ir26  1  0.750000  0.111868  0.295035  1
  Ir  Ir27  1  0.750000  0.388132  0.795035  1
  Ru  Ru28  1  0.250000  0.707570  0.984253  1
  Ru  Ru29  1  0.250000  0.792430  0.484253  1
  Ru  Ru30  1  0.750000  0.292430  0.015747  1
  Ru  Ru31  1  0.750000  0.207570  0.515747  1
  Ru  Ru32  1  0.250000  0.403713  0.488239  1
  Ru  Ru33  1  0.250000  0.096287  0.988239  1
  Ru  Ru34  1  0.750000  0.596287  0.511761  1
  Ru  Ru35  1  0.750000  0.903713  0.011761  1
