# generated using pymatgen
data_Er8Tm4Co4TcBi
_symmetry_space_group_name_H-M   'P 1'
_cell_length_a   8.25721761
_cell_length_b   8.25715609
_cell_length_c   8.25721800
_cell_angle_alpha   110.61897154
_cell_angle_beta   111.66538893
_cell_angle_gamma   106.18071270
_symmetry_Int_Tables_number   1
_chemical_formula_structural   Er8Tm4Co4TcBi
_chemical_formula_sum   'Er8 Tm4 Co4 Tc1 Bi1'
_cell_volume   432.28303166
_cell_formula_units_Z   1
loop_
 _symmetry_equiv_pos_site_id
 _symmetry_equiv_pos_as_xyz
  1  'x, y, z'
loop_
 _atom_site_type_symbol
 _atom_site_label
 _atom_site_symmetry_multiplicity
 _atom_site_fract_x
 _atom_site_fract_y
 _atom_site_fract_z
 _atom_site_occupancy
  Er  Er0  1  0.280155  0.182145  0.462300  1
  Er  Er1  1  0.719845  0.817855  0.537700  1
  Er  Er2  1  0.280156  0.817855  0.098009  1
  Er  Er3  1  0.719844  0.182145  0.901991  1
  Er  Er4  1  0.619433  0.310481  0.308950  1
  Er  Er5  1  0.380567  0.689519  0.691050  1
  Er  Er6  1  0.001530  0.310481  0.691048  1
  Er  Er7  1  0.998470  0.689519  0.308952  1
  Tm  Tm8  1  0.216580  0.413796  0.197217  1
  Tm  Tm9  1  0.783420  0.586204  0.802783  1
  Tm  Tm10  1  0.216582  0.019368  0.802786  1
  Tm  Tm11  1  0.783418  0.980632  0.197214  1
  Co  Co12  1  0.000001  0.376237  0.376236  1
  Co  Co13  1  0.999999  0.623763  0.623764  1
  Co  Co14  1  0.388776  0.888776  0.500000  1
  Co  Co15  1  0.611224  0.111224  0.500000  1
  Tc  Tc16  1  0.000000  0.000000  0.000000  1
  Bi  Bi17  1  0.500000  0.500000  0.000000  1
