# generated using pymatgen
data_Y7HoLu2(SiB4)4
_symmetry_space_group_name_H-M   'P 1'
_cell_length_a   7.21261907
_cell_length_b   7.21261907
_cell_length_c   8.03196801
_cell_angle_alpha   90.00370586
_cell_angle_beta   89.99629414
_cell_angle_gamma   90.01556996
_symmetry_Int_Tables_number   1
_chemical_formula_structural   Y7HoLu2(SiB4)4
_chemical_formula_sum   'Y7 Ho1 Lu2 Si4 B16'
_cell_volume   417.83800936
_cell_formula_units_Z   1
loop_
 _symmetry_equiv_pos_site_id
 _symmetry_equiv_pos_as_xyz
  1  'x, y, z'
loop_
 _atom_site_type_symbol
 _atom_site_label
 _atom_site_symmetry_multiplicity
 _atom_site_fract_x
 _atom_site_fract_y
 _atom_site_fract_z
 _atom_site_occupancy
  Y  Y0  1  0.680296  0.180365  0.225860  1
  Y  Y1  1  0.319696  0.819679  0.774129  1
  Y  Y2  1  0.319635  0.819704  0.225860  1
  Y  Y3  1  0.819803  0.680197  0.225851  1
  Y  Y4  1  0.819733  0.680267  0.774116  1
  Y  Y5  1  0.680321  0.180304  0.774129  1
  Y  Y6  1  0.180285  0.319715  0.774175  1
  Ho  Ho7  1  0.180289  0.319711  0.225121  1
  Lu  Lu8  1  0.000082  0.000123  0.499903  1
  Lu  Lu9  1  0.499877  0.499918  0.499903  1
  Si  Si10  1  0.116056  0.615788  0.499802  1
  Si  Si11  1  0.884212  0.383944  0.499802  1
  Si  Si12  1  0.383882  0.116118  0.499752  1
  Si  Si13  1  0.615919  0.884081  0.500007  1
  B  B14  1  0.172434  0.039404  0.000132  1
  B  B15  1  0.827637  0.960862  0.000003  1
  B  B16  1  0.961069  0.172511  0.000199  1
  B  B17  1  0.327489  0.538931  0.000199  1
  B  B18  1  0.039202  0.827672  0.000037  1
  B  B19  1  0.672328  0.460798  0.000037  1
  B  B20  1  0.539138  0.672363  0.000003  1
  B  B21  1  0.460596  0.327566  0.000132  1
  B  B22  1  0.089802  0.589525  0.000243  1
  B  B23  1  0.910475  0.410198  0.000243  1
  B  B24  1  0.410201  0.089799  0.000097  1
  B  B25  1  0.589700  0.910300  0.000009  1
  B  B26  1  0.000186  0.000344  0.164019  1
  B  B27  1  0.999997  0.999995  0.836109  1
  B  B28  1  0.500005  0.500003  0.836109  1
  B  B29  1  0.499656  0.499814  0.164019  1
