# generated using pymatgen
data_Tb10Y6Cd4IrRu3
_symmetry_space_group_name_H-M   'P 1'
_cell_length_a   9.64530177
_cell_length_b   9.67450051
_cell_length_c   9.67450100
_cell_angle_alpha   60.00000173
_cell_angle_beta   59.89981049
_cell_angle_gamma   59.89981663
_symmetry_Int_Tables_number   1
_chemical_formula_structural   Tb10Y6Cd4IrRu3
_chemical_formula_sum   'Tb10 Y6 Cd4 Ir1 Ru3'
_cell_volume   637.38029194
_cell_formula_units_Z   1
loop_
 _symmetry_equiv_pos_site_id
 _symmetry_equiv_pos_as_xyz
  1  'x, y, z'
loop_
 _atom_site_type_symbol
 _atom_site_label
 _atom_site_symmetry_multiplicity
 _atom_site_fract_x
 _atom_site_fract_y
 _atom_site_fract_z
 _atom_site_occupancy
  Tb  Tb0  1  0.346443  0.348409  0.348409  1
  Tb  Tb1  1  0.346443  0.348409  0.956740  1
  Tb  Tb2  1  0.346443  0.956740  0.348409  1
  Tb  Tb3  1  0.962641  0.345786  0.345786  1
  Tb  Tb4  1  0.810731  0.189907  0.189907  1
  Tb  Tb5  1  0.188646  0.810573  0.810573  1
  Tb  Tb6  1  0.188646  0.810573  0.190208  1
  Tb  Tb7  1  0.810731  0.189907  0.809456  1
  Tb  Tb8  1  0.188646  0.190208  0.810573  1
  Tb  Tb9  1  0.810731  0.809456  0.189907  1
  Y  Y10  1  0.937476  0.561999  0.561999  1
  Y  Y11  1  0.561219  0.938482  0.938482  1
  Y  Y12  1  0.561219  0.938482  0.561817  1
  Y  Y13  1  0.937476  0.561999  0.938525  1
  Y  Y14  1  0.561219  0.561817  0.938482  1
  Y  Y15  1  0.937476  0.938525  0.561999  1
  Cd  Cd16  1  0.580573  0.579662  0.579662  1
  Cd  Cd17  1  0.580573  0.579662  0.260104  1
  Cd  Cd18  1  0.580573  0.260104  0.579662  1
  Cd  Cd19  1  0.258372  0.580543  0.580543  1
  Ir  Ir20  1  0.576716  0.141094  0.141094  1
  Ru  Ru21  1  0.142336  0.138200  0.138200  1
  Ru  Ru22  1  0.142336  0.138200  0.581264  1
  Ru  Ru23  1  0.142336  0.581264  0.138200  1
