# generated using pymatgen
data_La2Yb(Si3Pd10)2
_symmetry_space_group_name_H-M   'P 1'
_cell_length_a   8.77355207
_cell_length_b   8.77355256
_cell_length_c   8.77355200
_cell_angle_alpha   60.00000210
_cell_angle_beta   60.00000028
_cell_angle_gamma   60.00000418
_symmetry_Int_Tables_number   1
_chemical_formula_structural   La2Yb(Si3Pd10)2
_chemical_formula_sum   'La2 Yb1 Si6 Pd20'
_cell_volume   477.54182886
_cell_formula_units_Z   1
loop_
 _symmetry_equiv_pos_site_id
 _symmetry_equiv_pos_as_xyz
  1  'x, y, z'
loop_
 _atom_site_type_symbol
 _atom_site_label
 _atom_site_symmetry_multiplicity
 _atom_site_fract_x
 _atom_site_fract_y
 _atom_site_fract_z
 _atom_site_occupancy
  La  La0  1  0.250000  0.250000  0.250000  1
  La  La1  1  0.750000  0.750000  0.750000  1
  Yb  Yb2  1  0.000000  0.000000  0.000000  1
  Si  Si3  1  0.733804  0.266196  0.266196  1
  Si  Si4  1  0.266196  0.733804  0.733804  1
  Si  Si5  1  0.266196  0.733804  0.266196  1
  Si  Si6  1  0.733804  0.266196  0.733804  1
  Si  Si7  1  0.266196  0.266196  0.733804  1
  Si  Si8  1  0.733804  0.733804  0.266196  1
  Pd  Pd9  1  0.384939  0.384939  0.384939  1
  Pd  Pd10  1  0.615061  0.615061  0.615061  1
  Pd  Pd11  1  0.384939  0.384939  0.845185  1
  Pd  Pd12  1  0.384939  0.845185  0.384939  1
  Pd  Pd13  1  0.615061  0.615061  0.154815  1
  Pd  Pd14  1  0.615061  0.154815  0.615061  1
  Pd  Pd15  1  0.845185  0.384939  0.384939  1
  Pd  Pd16  1  0.154815  0.615061  0.615061  1
  Pd  Pd17  1  0.344883  0.000000  0.000000  1
  Pd  Pd18  1  0.655117  0.000000  0.000000  1
  Pd  Pd19  1  0.000000  0.344883  0.655117  1
  Pd  Pd20  1  0.000000  0.655117  0.344883  1
  Pd  Pd21  1  0.000000  0.344883  0.000000  1
  Pd  Pd22  1  0.655117  0.000000  0.344883  1
  Pd  Pd23  1  0.000000  0.655117  0.000000  1
  Pd  Pd24  1  0.344883  0.000000  0.655117  1
  Pd  Pd25  1  0.000000  0.000000  0.344883  1
  Pd  Pd26  1  0.000000  0.000000  0.655117  1
  Pd  Pd27  1  0.655117  0.344883  0.000000  1
  Pd  Pd28  1  0.344883  0.655117  0.000000  1
