# generated using pymatgen
data_TbHo3Mg3ZnIr4
_symmetry_space_group_name_H-M   'P 1'
_cell_length_a   4.07816200
_cell_length_b   7.03607094
_cell_length_c   8.43486009
_cell_angle_alpha   89.83304326
_cell_angle_beta   90.00000000
_cell_angle_gamma   90.00000000
_symmetry_Int_Tables_number   1
_chemical_formula_structural   TbHo3Mg3ZnIr4
_chemical_formula_sum   'Tb1 Ho3 Mg3 Zn1 Ir4'
_cell_volume   242.03084805
_cell_formula_units_Z   1
loop_
 _symmetry_equiv_pos_site_id
 _symmetry_equiv_pos_as_xyz
  1  'x, y, z'
loop_
 _atom_site_type_symbol
 _atom_site_label
 _atom_site_symmetry_multiplicity
 _atom_site_fract_x
 _atom_site_fract_y
 _atom_site_fract_z
 _atom_site_occupancy
  Tb  Tb0  1  0.250000  0.535892  0.180917  1
  Ho  Ho1  1  0.750000  0.458331  0.821832  1
  Ho  Ho2  1  0.250000  0.047077  0.328929  1
  Ho  Ho3  1  0.750000  0.962492  0.673511  1
  Mg  Mg4  1  0.250000  0.135609  0.938501  1
  Mg  Mg5  1  0.750000  0.864166  0.060654  1
  Mg  Mg6  1  0.250000  0.631264  0.557191  1
  Zn  Zn7  1  0.750000  0.365608  0.438514  1
  Ir  Ir8  1  0.750000  0.748330  0.372736  1
  Ir  Ir9  1  0.250000  0.254411  0.625673  1
  Ir  Ir10  1  0.750000  0.247481  0.132388  1
  Ir  Ir11  1  0.250000  0.749339  0.869157  1
