# generated using pymatgen
data_Na4Sn4Pd3Au
_symmetry_space_group_name_H-M   'P 1'
_cell_length_a   4.39194000
_cell_length_b   7.65279306
_cell_length_c   8.14623393
_cell_angle_alpha   89.13445211
_cell_angle_beta   90.00000000
_cell_angle_gamma   90.00000000
_symmetry_Int_Tables_number   1
_chemical_formula_structural   Na4Sn4Pd3Au
_chemical_formula_sum   'Na4 Sn4 Pd3 Au1'
_cell_volume   273.76863316
_cell_formula_units_Z   1
loop_
 _symmetry_equiv_pos_site_id
 _symmetry_equiv_pos_as_xyz
  1  'x, y, z'
loop_
 _atom_site_type_symbol
 _atom_site_label
 _atom_site_symmetry_multiplicity
 _atom_site_fract_x
 _atom_site_fract_y
 _atom_site_fract_z
 _atom_site_occupancy
  Na  Na0  1  0.250000  0.016035  0.833883  1
  Na  Na1  1  0.250000  0.514259  0.669421  1
  Na  Na2  1  0.750000  0.484897  0.331457  1
  Na  Na3  1  0.750000  0.980603  0.161687  1
  Sn  Sn4  1  0.250000  0.655104  0.063838  1
  Sn  Sn5  1  0.250000  0.147204  0.427922  1
  Sn  Sn6  1  0.750000  0.837724  0.561639  1
  Sn  Sn7  1  0.750000  0.353625  0.944201  1
  Pd  Pd8  1  0.750000  0.706598  0.872989  1
  Pd  Pd9  1  0.250000  0.298826  0.127455  1
  Pd  Pd10  1  0.250000  0.796828  0.371159  1
  Au  Au11  1  0.750000  0.208296  0.634347  1
