# generated using pymatgen
data_Ho12Si11Pt
_symmetry_space_group_name_H-M   'P 1'
_cell_length_a   3.84562600
_cell_length_b   5.67400145
_cell_length_c   23.63716200
_cell_angle_alpha   82.68027769
_cell_angle_beta   90.00000000
_cell_angle_gamma   90.00000000
_symmetry_Int_Tables_number   1
_chemical_formula_structural   Ho12Si11Pt
_chemical_formula_sum   'Ho12 Si11 Pt1'
_cell_volume   511.56179167
_cell_formula_units_Z   1
loop_
 _symmetry_equiv_pos_site_id
 _symmetry_equiv_pos_as_xyz
  1  'x, y, z'
loop_
 _atom_site_type_symbol
 _atom_site_label
 _atom_site_symmetry_multiplicity
 _atom_site_fract_x
 _atom_site_fract_y
 _atom_site_fract_z
 _atom_site_occupancy
  Ho  Ho0  1  0.500000  0.081764  0.059315  1
  Ho  Ho1  1  0.500000  0.090076  0.562155  1
  Ho  Ho2  1  0.000000  0.924766  0.439836  1
  Ho  Ho3  1  0.000000  0.915371  0.939961  1
  Ho  Ho4  1  0.500000  0.449654  0.392887  1
  Ho  Ho5  1  0.500000  0.439997  0.893309  1
  Ho  Ho6  1  0.000000  0.556361  0.106256  1
  Ho  Ho7  1  0.000000  0.551942  0.607514  1
  Ho  Ho8  1  0.500000  0.257106  0.226148  1
  Ho  Ho9  1  0.500000  0.248155  0.724447  1
  Ho  Ho10  1  0.000000  0.747351  0.273414  1
  Ho  Ho11  1  0.000000  0.735990  0.775379  1
  Si  Si12  1  0.500000  0.622301  0.012103  1
  Si  Si13  1  0.500000  0.626694  0.512245  1
  Si  Si14  1  0.000000  0.385020  0.486905  1
  Si  Si15  1  0.000000  0.376175  0.986924  1
  Si  Si16  1  0.500000  0.769833  0.179074  1
  Si  Si17  1  0.500000  0.761744  0.680919  1
  Si  Si18  1  0.000000  0.235672  0.320420  1
  Si  Si19  1  0.000000  0.222273  0.820757  1
  Si  Si20  1  0.500000  0.960527  0.345974  1
  Si  Si21  1  0.500000  0.952689  0.845922  1
  Si  Si22  1  0.000000  0.044140  0.153465  1
  Pt  Pt23  1  0.000000  0.044400  0.654668  1
