# generated using pymatgen
data_Sc2UMn2Fe
_symmetry_space_group_name_H-M   'P 1'
_cell_length_a   5.31673411
_cell_length_b   5.29910358
_cell_length_c   7.71550600
_cell_angle_alpha   90.00000000
_cell_angle_beta   90.00000000
_cell_angle_gamma   120.10747706
_symmetry_Int_Tables_number   1
_chemical_formula_structural   Sc2UMn2Fe
_chemical_formula_sum   'Sc4 U2 Mn4 Fe2'
_cell_volume   188.04900101
_cell_formula_units_Z   2
loop_
 _symmetry_equiv_pos_site_id
 _symmetry_equiv_pos_as_xyz
  1  'x, y, z'
loop_
 _atom_site_type_symbol
 _atom_site_label
 _atom_site_symmetry_multiplicity
 _atom_site_fract_x
 _atom_site_fract_y
 _atom_site_fract_z
 _atom_site_occupancy
  Sc  Sc0  1  0.667967  0.335873  0.061670  1
  Sc  Sc1  1  0.334697  0.669286  0.941118  1
  Sc  Sc2  1  0.334697  0.669286  0.558882  1
  Sc  Sc3  1  0.667967  0.335873  0.438330  1
  U  U4  1  0.002029  0.004007  0.501639  1
  U  U5  1  0.002029  0.004007  0.998361  1
  Mn  Mn6  1  0.831702  0.663341  0.750000  1
  Mn  Mn7  1  0.838412  0.163478  0.750000  1
  Mn  Mn8  1  0.324797  0.163283  0.750000  1
  Mn  Mn9  1  0.163766  0.327569  0.250000  1
  Fe  Fe10  1  0.166494  0.832023  0.250000  1
  Fe  Fe11  1  0.665444  0.831976  0.250000  1
