# generated using pymatgen
data_Ca2Pr8Si5Hg
_symmetry_space_group_name_H-M   'P 1'
_cell_length_a   7.78542814
_cell_length_b   7.78542870
_cell_length_c   9.19293252
_cell_angle_alpha   115.05235687
_cell_angle_beta   115.05236029
_cell_angle_gamma   90.00000433
_symmetry_Int_Tables_number   1
_chemical_formula_structural   Ca2Pr8Si5Hg
_chemical_formula_sum   'Ca2 Pr8 Si5 Hg1'
_cell_volume   446.25078389
_cell_formula_units_Z   1
loop_
 _symmetry_equiv_pos_site_id
 _symmetry_equiv_pos_as_xyz
  1  'x, y, z'
loop_
 _atom_site_type_symbol
 _atom_site_label
 _atom_site_symmetry_multiplicity
 _atom_site_fract_x
 _atom_site_fract_y
 _atom_site_fract_z
 _atom_site_occupancy
  Ca  Ca0  1  0.508738  0.508738  0.017475  1
  Ca  Ca1  1  0.991262  0.991262  0.982525  1
  Pr  Pr2  1  0.971742  0.827315  0.284017  1
  Pr  Pr3  1  0.312275  0.456701  0.284017  1
  Pr  Pr4  1  0.827315  0.312275  0.284017  1
  Pr  Pr5  1  0.456701  0.971742  0.284017  1
  Pr  Pr6  1  0.043299  0.187725  0.715983  1
  Pr  Pr7  1  0.672685  0.528258  0.715983  1
  Pr  Pr8  1  0.187725  0.672685  0.715983  1
  Pr  Pr9  1  0.528258  0.043299  0.715983  1
  Si  Si10  1  0.250000  0.250000  0.500000  1
  Si  Si11  1  0.613252  0.886748  0.000000  1
  Si  Si12  1  0.386748  0.113252  0.000000  1
  Si  Si13  1  0.886748  0.386748  0.000000  1
  Si  Si14  1  0.113252  0.613252  0.000000  1
  Hg  Hg15  1  0.750000  0.750000  0.500000  1
