# generated using pymatgen
data_Tb3Mg2CdSi2Pd
_symmetry_space_group_name_H-M   'P 1'
_cell_length_a   7.28814100
_cell_length_b   7.21555770
_cell_length_c   4.30915100
_cell_angle_alpha   90.00000000
_cell_angle_beta   90.00000000
_cell_angle_gamma   120.33332446
_symmetry_Int_Tables_number   1
_chemical_formula_structural   Tb3Mg2CdSi2Pd
_chemical_formula_sum   'Tb3 Mg2 Cd1 Si2 Pd1'
_cell_volume   195.58722553
_cell_formula_units_Z   1
loop_
 _symmetry_equiv_pos_site_id
 _symmetry_equiv_pos_as_xyz
  1  'x, y, z'
loop_
 _atom_site_type_symbol
 _atom_site_label
 _atom_site_symmetry_multiplicity
 _atom_site_fract_x
 _atom_site_fract_y
 _atom_site_fract_z
 _atom_site_occupancy
  Tb  Tb0  1  0.582474  0.000000  0.000000  1
  Tb  Tb1  1  0.999244  0.584191  0.000000  1
  Tb  Tb2  1  0.415053  0.415809  0.000000  1
  Mg  Mg3  1  0.000347  0.241653  0.500000  1
  Mg  Mg4  1  0.758694  0.758347  0.500000  1
  Cd  Cd5  1  0.249544  0.000000  0.500000  1
  Si  Si6  1  0.333822  0.662924  0.500000  1
  Si  Si7  1  0.670898  0.337076  0.500000  1
  Pd  Pd8  1  0.989924  0.000000  0.000000  1
