# generated using pymatgen
data_Li3Sm4ScPt4
_symmetry_space_group_name_H-M   'P 1'
_cell_length_a   4.13102400
_cell_length_b   7.21184879
_cell_length_c   8.66315580
_cell_angle_alpha   91.01677711
_cell_angle_beta   90.00000000
_cell_angle_gamma   90.00000000
_symmetry_Int_Tables_number   1
_chemical_formula_structural   Li3Sm4ScPt4
_chemical_formula_sum   'Li3 Sm4 Sc1 Pt4'
_cell_volume   258.05487459
_cell_formula_units_Z   1
loop_
 _symmetry_equiv_pos_site_id
 _symmetry_equiv_pos_as_xyz
  1  'x, y, z'
loop_
 _atom_site_type_symbol
 _atom_site_label
 _atom_site_symmetry_multiplicity
 _atom_site_fract_x
 _atom_site_fract_y
 _atom_site_fract_z
 _atom_site_occupancy
  Li  Li0  1  0.250000  0.131147  0.056875  1
  Li  Li1  1  0.250000  0.639548  0.431904  1
  Li  Li2  1  0.750000  0.873652  0.945253  1
  Sm  Sm3  1  0.250000  0.023856  0.692356  1
  Sm  Sm4  1  0.250000  0.549533  0.829639  1
  Sm  Sm5  1  0.750000  0.953151  0.314500  1
  Sm  Sm6  1  0.750000  0.462830  0.177245  1
  Sc  Sc7  1  0.750000  0.371771  0.557579  1
  Pt  Pt8  1  0.250000  0.245919  0.388913  1
  Pt  Pt9  1  0.250000  0.754537  0.119434  1
  Pt  Pt10  1  0.750000  0.739616  0.617045  1
  Pt  Pt11  1  0.750000  0.254439  0.869254  1
