# generated using pymatgen
data_Sc8Ta12Si15Ge
_symmetry_space_group_name_H-M   'P 1'
_cell_length_a   6.71055852
_cell_length_b   6.89202256
_cell_length_c   13.14584801
_cell_angle_alpha   90.06489099
_cell_angle_beta   90.09798894
_cell_angle_gamma   89.99402531
_symmetry_Int_Tables_number   1
_chemical_formula_structural   Sc8Ta12Si15Ge
_chemical_formula_sum   'Sc8 Ta12 Si15 Ge1'
_cell_volume   607.98525841
_cell_formula_units_Z   1
loop_
 _symmetry_equiv_pos_site_id
 _symmetry_equiv_pos_as_xyz
  1  'x, y, z'
loop_
 _atom_site_type_symbol
 _atom_site_label
 _atom_site_symmetry_multiplicity
 _atom_site_fract_x
 _atom_site_fract_y
 _atom_site_fract_z
 _atom_site_occupancy
  Sc  Sc0  1  0.500491  0.675292  0.596494  1
  Sc  Sc1  1  0.999405  0.826250  0.905141  1
  Sc  Sc2  1  0.500313  0.326882  0.094945  1
  Sc  Sc3  1  0.000204  0.171971  0.404537  1
  Sc  Sc4  1  0.504842  0.323889  0.403749  1
  Sc  Sc5  1  0.000485  0.173768  0.094717  1
  Sc  Sc6  1  0.499358  0.673171  0.904773  1
  Sc  Sc7  1  0.997912  0.827402  0.595706  1
  Ta  Ta8  1  0.661127  0.174267  0.625244  1
  Ta  Ta9  1  0.161476  0.325037  0.875375  1
  Ta  Ta10  1  0.338681  0.825512  0.124531  1
  Ta  Ta11  1  0.837304  0.674963  0.374892  1
  Ta  Ta12  1  0.341173  0.829408  0.373771  1
  Ta  Ta13  1  0.838391  0.675079  0.124518  1
  Ta  Ta14  1  0.660243  0.175242  0.875486  1
  Ta  Ta15  1  0.158800  0.322354  0.626477  1
  Ta  Ta16  1  0.835966  0.493635  0.750177  1
  Ta  Ta17  1  0.335701  0.005898  0.750200  1
  Ta  Ta18  1  0.163689  0.507142  0.247997  1
  Ta  Ta19  1  0.663885  0.994086  0.249789  1
  Si  Si20  1  0.671167  0.967143  0.461371  1
  Si  Si21  1  0.170097  0.532356  0.038932  1
  Si  Si22  1  0.329275  0.031916  0.960839  1
  Si  Si23  1  0.825156  0.467465  0.539512  1
  Si  Si24  1  0.329055  0.032505  0.539073  1
  Si  Si25  1  0.829743  0.467942  0.960652  1
  Si  Si26  1  0.670295  0.968000  0.039076  1
  Si  Si27  1  0.457299  0.386632  0.750004  1
  Si  Si28  1  0.956708  0.112472  0.751185  1
  Si  Si29  1  0.542174  0.613122  0.249619  1
  Si  Si30  1  0.042045  0.886593  0.249907  1
  Si  Si31  1  0.703348  0.861881  0.750639  1
  Si  Si32  1  0.203246  0.638037  0.750324  1
  Si  Si33  1  0.295936  0.139333  0.249293  1
  Si  Si34  1  0.797190  0.361869  0.249751  1
  Ge  Ge35  1  0.177819  0.531488  0.461304  1
