# generated using pymatgen
data_Hf18Re7SiWSe
_symmetry_space_group_name_H-M   'P 1'
_cell_length_a   8.64763500
_cell_length_b   8.64763716
_cell_length_c   8.62719000
_cell_angle_alpha   89.99998675
_cell_angle_beta   89.99998675
_cell_angle_gamma   119.99992669
_symmetry_Int_Tables_number   1
_chemical_formula_structural   Hf18Re7SiWSe
_chemical_formula_sum   'Hf18 Re7 Si1 W1 Se1'
_cell_volume   558.72116755
_cell_formula_units_Z   1
loop_
 _symmetry_equiv_pos_site_id
 _symmetry_equiv_pos_as_xyz
  1  'x, y, z'
loop_
 _atom_site_type_symbol
 _atom_site_label
 _atom_site_symmetry_multiplicity
 _atom_site_fract_x
 _atom_site_fract_y
 _atom_site_fract_z
 _atom_site_occupancy
  Hf  Hf0  1  0.194206  0.805795  0.453534  1
  Hf  Hf1  1  0.194207  0.388412  0.453533  1
  Hf  Hf2  1  0.611588  0.805795  0.453535  1
  Hf  Hf3  1  0.804908  0.195092  0.548644  1
  Hf  Hf4  1  0.804909  0.609815  0.548643  1
  Hf  Hf5  1  0.390185  0.195092  0.548643  1
  Hf  Hf6  1  0.806614  0.193386  0.951251  1
  Hf  Hf7  1  0.806613  0.613228  0.951251  1
  Hf  Hf8  1  0.386771  0.193386  0.951250  1
  Hf  Hf9  1  0.192563  0.807436  0.046901  1
  Hf  Hf10  1  0.192564  0.385126  0.046902  1
  Hf  Hf11  1  0.614873  0.807436  0.046900  1
  Hf  Hf12  1  0.544236  0.455764  0.248942  1
  Hf  Hf13  1  0.544235  0.088471  0.248943  1
  Hf  Hf14  1  0.911529  0.455764  0.248943  1
  Hf  Hf15  1  0.460625  0.539376  0.750978  1
  Hf  Hf16  1  0.460625  0.921251  0.750978  1
  Hf  Hf17  1  0.078748  0.539375  0.750978  1
  Re  Re18  1  0.890023  0.109977  0.250820  1
  Re  Re19  1  0.890022  0.780044  0.250820  1
  Re  Re20  1  0.219955  0.109979  0.250819  1
  Re  Re21  1  0.109581  0.890416  0.748987  1
  Re  Re22  1  0.109583  0.219167  0.748988  1
  Re  Re23  1  0.780834  0.890418  0.748986  1
  Re  Re24  1  0.000000  0.000000  0.000006  1
  Si  Si25  1  0.666667  0.333334  0.751529  1
  W  W26  1  0.000001  0.999999  0.499763  1
  Se  Se27  1  0.333333  0.666666  0.248532  1
