# generated using pymatgen
data_Nd9YIr5Au
_symmetry_space_group_name_H-M   'P 1'
_cell_length_a   11.44218407
_cell_length_b   11.33846400
_cell_length_c   6.50746487
_cell_angle_alpha   90.00000000
_cell_angle_beta   89.96155034
_cell_angle_gamma   90.00000000
_symmetry_Int_Tables_number   1
_chemical_formula_structural   Nd9YIr5Au
_chemical_formula_sum   'Nd18 Y2 Ir10 Au2'
_cell_volume   844.25742706
_cell_formula_units_Z   2
loop_
 _symmetry_equiv_pos_site_id
 _symmetry_equiv_pos_as_xyz
  1  'x, y, z'
loop_
 _atom_site_type_symbol
 _atom_site_label
 _atom_site_symmetry_multiplicity
 _atom_site_fract_x
 _atom_site_fract_y
 _atom_site_fract_z
 _atom_site_occupancy
  Nd  Nd0  1  0.291383  0.089608  0.374757  1
  Nd  Nd1  1  0.291383  0.910392  0.874757  1
  Nd  Nd2  1  0.696865  0.093387  0.864828  1
  Nd  Nd3  1  0.696865  0.906613  0.364828  1
  Nd  Nd4  1  0.578134  0.787245  0.879918  1
  Nd  Nd5  1  0.578134  0.212755  0.379918  1
  Nd  Nd6  1  0.406818  0.789399  0.378884  1
  Nd  Nd7  1  0.406818  0.210601  0.878884  1
  Nd  Nd8  1  0.212951  0.410309  0.618501  1
  Nd  Nd9  1  0.212951  0.589691  0.118501  1
  Nd  Nd10  1  0.788330  0.419040  0.121116  1
  Nd  Nd11  1  0.788330  0.580960  0.621116  1
  Nd  Nd12  1  0.917423  0.705081  0.137740  1
  Nd  Nd13  1  0.917423  0.294919  0.637740  1
  Nd  Nd14  1  0.097717  0.701455  0.622799  1
  Nd  Nd15  1  0.097717  0.298545  0.122799  1
  Nd  Nd16  1  0.008424  0.996730  0.499008  1
  Nd  Nd17  1  0.008424  0.003270  0.999008  1
  Y  Y18  1  0.500348  0.497738  0.001110  1
  Y  Y19  1  0.500348  0.502262  0.501110  1
  Ir  Ir20  1  0.153903  0.154977  0.750446  1
  Ir  Ir21  1  0.153903  0.845023  0.250446  1
  Ir  Ir22  1  0.653050  0.351179  0.748337  1
  Ir  Ir23  1  0.653050  0.648821  0.248337  1
  Ir  Ir24  1  0.352302  0.349067  0.252054  1
  Ir  Ir25  1  0.352302  0.650933  0.752054  1
  Ir  Ir26  1  0.499348  0.999763  0.116074  1
  Ir  Ir27  1  0.499348  0.000237  0.616074  1
  Ir  Ir28  1  0.000002  0.501579  0.883864  1
  Ir  Ir29  1  0.000002  0.498421  0.383864  1
  Au  Au30  1  0.843002  0.155513  0.250560  1
  Au  Au31  1  0.843002  0.844487  0.750560  1
