# generated using pymatgen
data_Ho10Si5Ge
_symmetry_space_group_name_H-M   'P 1'
_cell_length_a   8.42466000
_cell_length_b   8.42646819
_cell_length_c   6.32890900
_cell_angle_alpha   90.00000000
_cell_angle_beta   90.00000000
_cell_angle_gamma   119.99289400
_symmetry_Int_Tables_number   1
_chemical_formula_structural   Ho10Si5Ge
_chemical_formula_sum   'Ho10 Si5 Ge1'
_cell_volume   389.12447210
_cell_formula_units_Z   1
loop_
 _symmetry_equiv_pos_site_id
 _symmetry_equiv_pos_as_xyz
  1  'x, y, z'
loop_
 _atom_site_type_symbol
 _atom_site_label
 _atom_site_symmetry_multiplicity
 _atom_site_fract_x
 _atom_site_fract_y
 _atom_site_fract_z
 _atom_site_occupancy
  Ho  Ho0  1  0.998827  0.756348  0.750000  1
  Ho  Ho1  1  0.999928  0.242724  0.250000  1
  Ho  Ho2  1  0.757205  0.757276  0.250000  1
  Ho  Ho3  1  0.758129  0.000000  0.750000  1
  Ho  Ho4  1  0.242478  0.243652  0.750000  1
  Ho  Ho5  1  0.242402  0.000000  0.250000  1
  Ho  Ho6  1  0.333179  0.665731  0.499298  1
  Ho  Ho7  1  0.667449  0.334269  0.000702  1
  Ho  Ho8  1  0.667449  0.334269  0.499298  1
  Ho  Ho9  1  0.333179  0.665731  0.000702  1
  Si  Si10  1  0.394428  0.394360  0.250000  1
  Si  Si11  1  0.000068  0.605640  0.250000  1
  Si  Si12  1  0.999954  0.394423  0.750000  1
  Si  Si13  1  0.605531  0.605577  0.750000  1
  Si  Si14  1  0.605723  0.000000  0.250000  1
  Ge  Ge15  1  0.394075  0.000000  0.750000  1
