# generated using pymatgen
data_CsNd2(CoH6)2
_symmetry_space_group_name_H-M   'P 1'
_cell_length_a   5.01554600
_cell_length_b   5.01554665
_cell_length_c   9.38665400
_cell_angle_alpha   90.00000000
_cell_angle_beta   90.00000000
_cell_angle_gamma   119.99999572
_symmetry_Int_Tables_number   1
_chemical_formula_structural   CsNd2(CoH6)2
_chemical_formula_sum   'Cs1 Nd2 Co2 H12'
_cell_volume   204.49276736
_cell_formula_units_Z   1
loop_
 _symmetry_equiv_pos_site_id
 _symmetry_equiv_pos_as_xyz
  1  'x, y, z'
loop_
 _atom_site_type_symbol
 _atom_site_label
 _atom_site_symmetry_multiplicity
 _atom_site_fract_x
 _atom_site_fract_y
 _atom_site_fract_z
 _atom_site_occupancy
  Cs  Cs0  1  0.000000  0.000000  0.000000  1
  Nd  Nd1  1  0.666667  0.333333  0.370751  1
  Nd  Nd2  1  0.333333  0.666667  0.629249  1
  Co  Co3  1  0.666667  0.333333  0.701549  1
  Co  Co4  1  0.333333  0.666667  0.298451  1
  H  H5  1  0.182724  0.817276  0.392185  1
  H  H6  1  0.634553  0.817276  0.392185  1
  H  H7  1  0.182724  0.365447  0.392185  1
  H  H8  1  0.817276  0.182724  0.607815  1
  H  H9  1  0.365447  0.182724  0.607815  1
  H  H10  1  0.817276  0.634553  0.607815  1
  H  H11  1  0.527501  0.055002  0.804790  1
  H  H12  1  0.527501  0.472499  0.804790  1
  H  H13  1  0.944998  0.472499  0.804790  1
  H  H14  1  0.472499  0.944998  0.195210  1
  H  H15  1  0.472499  0.527501  0.195210  1
  H  H16  1  0.055002  0.527501  0.195210  1
