# generated using pymatgen
data_Li3Eu2DyPt3
_symmetry_space_group_name_H-M   'P 1'
_cell_length_a   7.29685900
_cell_length_b   7.30277155
_cell_length_c   4.12667300
_cell_angle_alpha   90.00000000
_cell_angle_beta   90.00000000
_cell_angle_gamma   120.02678835
_symmetry_Int_Tables_number   1
_chemical_formula_structural   Li3Eu2DyPt3
_chemical_formula_sum   'Li3 Eu2 Dy1 Pt3'
_cell_volume   190.38689986
_cell_formula_units_Z   1
loop_
 _symmetry_equiv_pos_site_id
 _symmetry_equiv_pos_as_xyz
  1  'x, y, z'
loop_
 _atom_site_type_symbol
 _atom_site_label
 _atom_site_symmetry_multiplicity
 _atom_site_fract_x
 _atom_site_fract_y
 _atom_site_fract_z
 _atom_site_occupancy
  Li  Li0  1  0.770583  0.766053  0.500000  1
  Li  Li1  1  0.229417  0.995470  0.500000  1
  Li  Li2  1  0.000000  0.233014  0.500000  1
  Eu  Eu3  1  0.413752  0.415056  0.000000  1
  Eu  Eu4  1  0.586248  0.001304  0.000000  1
  Dy  Dy5  1  0.000000  0.592833  0.000000  1
  Pt  Pt6  1  0.000000  0.986515  0.000000  1
  Pt  Pt7  1  0.687249  0.348501  0.500000  1
  Pt  Pt8  1  0.312751  0.661253  0.500000  1
