# generated using pymatgen
data_Hg6BiIO12
_symmetry_space_group_name_H-M   'P 1'
_cell_length_a   6.85579105
_cell_length_b   6.85579201
_cell_length_c   6.85579100
_cell_angle_alpha   91.84601649
_cell_angle_beta   91.84600839
_cell_angle_gamma   91.84600264
_symmetry_Int_Tables_number   1
_chemical_formula_structural   Hg6BiIO12
_chemical_formula_sum   'Hg6 Bi1 I1 O12'
_cell_volume   321.72229392
_cell_formula_units_Z   1
loop_
 _symmetry_equiv_pos_site_id
 _symmetry_equiv_pos_as_xyz
  1  'x, y, z'
loop_
 _atom_site_type_symbol
 _atom_site_label
 _atom_site_symmetry_multiplicity
 _atom_site_fract_x
 _atom_site_fract_y
 _atom_site_fract_z
 _atom_site_occupancy
  Hg  Hg0  1  0.080379  0.240841  0.565904  1
  Hg  Hg1  1  0.434096  0.919621  0.759159  1
  Hg  Hg2  1  0.759159  0.434096  0.919621  1
  Hg  Hg3  1  0.240841  0.565904  0.080379  1
  Hg  Hg4  1  0.565904  0.080379  0.240841  1
  Hg  Hg5  1  0.919621  0.759159  0.434096  1
  Bi  Bi6  1  0.000000  0.000000  0.000000  1
  I  I7  1  0.500000  0.500000  0.500000  1
  O  O8  1  0.053406  0.304143  0.933058  1
  O  O9  1  0.066942  0.946594  0.695857  1
  O  O10  1  0.482895  0.526242  0.780438  1
  O  O11  1  0.695857  0.066942  0.946594  1
  O  O12  1  0.219562  0.517105  0.473758  1
  O  O13  1  0.473758  0.219562  0.517105  1
  O  O14  1  0.526242  0.780438  0.482895  1
  O  O15  1  0.780438  0.482895  0.526242  1
  O  O16  1  0.304143  0.933058  0.053406  1
  O  O17  1  0.517105  0.473758  0.219562  1
  O  O18  1  0.933058  0.053406  0.304143  1
  O  O19  1  0.946594  0.695857  0.066942  1
