# generated using pymatgen
data_MoRu5RhW
_symmetry_space_group_name_H-M   'P 1'
_cell_length_a   5.51507106
_cell_length_b   5.51507101
_cell_length_c   4.37464300
_cell_angle_alpha   90.00000000
_cell_angle_beta   90.00000000
_cell_angle_gamma   120.00596228
_symmetry_Int_Tables_number   1
_chemical_formula_structural   MoRu5RhW
_chemical_formula_sum   'Mo1 Ru5 Rh1 W1'
_cell_volume   115.22570515
_cell_formula_units_Z   1
loop_
 _symmetry_equiv_pos_site_id
 _symmetry_equiv_pos_as_xyz
  1  'x, y, z'
loop_
 _atom_site_type_symbol
 _atom_site_label
 _atom_site_symmetry_multiplicity
 _atom_site_fract_x
 _atom_site_fract_y
 _atom_site_fract_z
 _atom_site_occupancy
  Mo  Mo0  1  0.335900  0.664100  0.750000  1
  Ru  Ru1  1  0.333729  0.172007  0.750000  1
  Ru  Ru2  1  0.827993  0.666271  0.750000  1
  Ru  Ru3  1  0.167145  0.832855  0.250000  1
  Ru  Ru4  1  0.666861  0.830676  0.250000  1
  Ru  Ru5  1  0.169324  0.333139  0.250000  1
  Rh  Rh6  1  0.834198  0.165802  0.750000  1
  W  W7  1  0.664850  0.335150  0.250000  1
