# generated using pymatgen
data_Y3Ho13(In3Fe)2
_symmetry_space_group_name_H-M   'P 1'
_cell_length_a   10.30316600
_cell_length_b   10.30315947
_cell_length_c   7.02215100
_cell_angle_alpha   90.00004898
_cell_angle_beta   89.99998035
_cell_angle_gamma   119.99995932
_symmetry_Int_Tables_number   1
_chemical_formula_structural   Y3Ho13(In3Fe)2
_chemical_formula_sum   'Y3 Ho13 In6 Fe2'
_cell_volume   645.56814549
_cell_formula_units_Z   1
loop_
 _symmetry_equiv_pos_site_id
 _symmetry_equiv_pos_as_xyz
  1  'x, y, z'
loop_
 _atom_site_type_symbol
 _atom_site_label
 _atom_site_symmetry_multiplicity
 _atom_site_fract_x
 _atom_site_fract_y
 _atom_site_fract_z
 _atom_site_occupancy
  Y  Y0  1  0.666667  0.333333  0.593698  1
  Y  Y1  1  0.000000  0.000000  0.494896  1
  Y  Y2  1  0.000000  0.000000  0.994986  1
  Ho  Ho3  1  0.463891  0.536109  0.482022  1
  Ho  Ho4  1  0.072218  0.536109  0.482022  1
  Ho  Ho5  1  0.463891  0.927782  0.482022  1
  Ho  Ho6  1  0.535608  0.464392  0.982556  1
  Ho  Ho7  1  0.928785  0.464392  0.982555  1
  Ho  Ho8  1  0.535608  0.071215  0.982556  1
  Ho  Ho9  1  0.821437  0.178563  0.276407  1
  Ho  Ho10  1  0.357127  0.178563  0.276407  1
  Ho  Ho11  1  0.821437  0.642874  0.276407  1
  Ho  Ho12  1  0.178641  0.821360  0.776620  1
  Ho  Ho13  1  0.642719  0.821360  0.776619  1
  Ho  Ho14  1  0.178641  0.357281  0.776620  1
  Ho  Ho15  1  0.333333  0.666667  0.091998  1
  In  In16  1  0.163227  0.836773  0.233999  1
  In  In17  1  0.673546  0.836773  0.233998  1
  In  In18  1  0.163227  0.326453  0.233998  1
  In  In19  1  0.836943  0.163056  0.734286  1
  In  In20  1  0.326112  0.163056  0.734286  1
  In  In21  1  0.836944  0.673888  0.734286  1
  Fe  Fe22  1  0.333333  0.666667  0.707044  1
  Fe  Fe23  1  0.666667  0.333333  0.204264  1
