# generated using pymatgen
data_Pr2Ga3PtO10
_symmetry_space_group_name_H-M   'P 1'
_cell_length_a   5.96920500
_cell_length_b   7.63472500
_cell_length_c   8.82427700
_cell_angle_alpha   90.00000000
_cell_angle_beta   90.00000000
_cell_angle_gamma   90.00000000
_symmetry_Int_Tables_number   1
_chemical_formula_structural   Pr2Ga3PtO10
_chemical_formula_sum   'Pr4 Ga6 Pt2 O20'
_cell_volume   402.15088158
_cell_formula_units_Z   2
loop_
 _symmetry_equiv_pos_site_id
 _symmetry_equiv_pos_as_xyz
  1  'x, y, z'
loop_
 _atom_site_type_symbol
 _atom_site_label
 _atom_site_symmetry_multiplicity
 _atom_site_fract_x
 _atom_site_fract_y
 _atom_site_fract_z
 _atom_site_occupancy
  Pr  Pr0  1  0.006759  0.364198  0.669914  1
  Pr  Pr1  1  0.006759  0.635802  0.330086  1
  Pr  Pr2  1  0.993241  0.864198  0.830086  1
  Pr  Pr3  1  0.993241  0.135802  0.169914  1
  Ga  Ga4  1  0.485299  0.107263  0.858431  1
  Ga  Ga5  1  0.485299  0.892737  0.141569  1
  Ga  Ga6  1  0.514701  0.607263  0.641569  1
  Ga  Ga7  1  0.514701  0.392737  0.358431  1
  Ga  Ga8  1  0.746626  0.500000  0.000000  1
  Ga  Ga9  1  0.253374  0.000000  0.500000  1
  Pt  Pt10  1  0.256047  0.500000  0.000000  1
  Pt  Pt11  1  0.743953  0.000000  0.500000  1
  O  O12  1  0.248140  0.899067  0.289637  1
  O  O13  1  0.248140  0.100933  0.710363  1
  O  O14  1  0.751860  0.399067  0.210363  1
  O  O15  1  0.751860  0.600933  0.789637  1
  O  O16  1  0.749219  0.101249  0.711613  1
  O  O17  1  0.749219  0.898751  0.288387  1
  O  O18  1  0.250781  0.601249  0.788387  1
  O  O19  1  0.250781  0.398751  0.211613  1
  O  O20  1  0.505146  0.342134  0.933220  1
  O  O21  1  0.505146  0.657866  0.066780  1
  O  O22  1  0.494854  0.842134  0.566780  1
  O  O23  1  0.494854  0.157866  0.433220  1
  O  O24  1  0.270169  0.000000  0.000000  1
  O  O25  1  0.729831  0.500000  0.500000  1
  O  O26  1  0.709048  0.000000  0.000000  1
  O  O27  1  0.290952  0.500000  0.500000  1
  O  O28  1  0.998215  0.162008  0.445389  1
  O  O29  1  0.998215  0.837992  0.554611  1
  O  O30  1  0.001785  0.662008  0.054611  1
  O  O31  1  0.001785  0.337992  0.945389  1
