# generated using pymatgen
data_Ti6AlTc3Os2
_symmetry_space_group_name_H-M   'P 1'
_cell_length_a   4.38350700
_cell_length_b   6.26821100
_cell_length_c   13.20433800
_cell_angle_alpha   90.00000000
_cell_angle_beta   89.99846513
_cell_angle_gamma   90.00000000
_symmetry_Int_Tables_number   1
_chemical_formula_structural   Ti6AlTc3Os2
_chemical_formula_sum   'Ti12 Al2 Tc6 Os4'
_cell_volume   362.81225177
_cell_formula_units_Z   2
loop_
 _symmetry_equiv_pos_site_id
 _symmetry_equiv_pos_as_xyz
  1  'x, y, z'
loop_
 _atom_site_type_symbol
 _atom_site_label
 _atom_site_symmetry_multiplicity
 _atom_site_fract_x
 _atom_site_fract_y
 _atom_site_fract_z
 _atom_site_occupancy
  Ti  Ti0  1  0.499986  0.242441  0.994956  1
  Ti  Ti1  1  0.499986  0.757560  0.994956  1
  Ti  Ti2  1  0.000058  0.257568  0.171710  1
  Ti  Ti3  1  0.000058  0.742431  0.171710  1
  Ti  Ti4  1  0.500026  0.254415  0.338401  1
  Ti  Ti5  1  0.500026  0.745585  0.338401  1
  Ti  Ti6  1  0.999993  0.249234  0.501089  1
  Ti  Ti7  1  0.999993  0.750766  0.501089  1
  Ti  Ti8  1  0.499970  0.250756  0.665573  1
  Ti  Ti9  1  0.499970  0.749244  0.665573  1
  Ti  Ti10  1  0.999960  0.245596  0.828257  1
  Ti  Ti11  1  0.999960  0.754403  0.828257  1
  Al  Al12  1  0.999975  0.499999  0.998783  1
  Al  Al13  1  0.500107  0.000000  0.167887  1
  Tc  Tc14  1  0.999985  0.000000  0.003550  1
  Tc  Tc15  1  0.500052  0.499999  0.163073  1
  Tc  Tc16  1  0.000031  0.000000  0.328954  1
  Tc  Tc17  1  0.499995  0.499999  0.501127  1
  Tc  Tc18  1  0.999968  0.000000  0.665594  1
  Tc  Tc19  1  0.499961  0.499999  0.837716  1
  Os  Os20  1  0.000031  0.499999  0.334354  1
  Os  Os21  1  0.499993  0.000000  0.499257  1
  Os  Os22  1  0.999966  0.499999  0.667419  1
  Os  Os23  1  0.499956  0.000000  0.832318  1
