# generated using pymatgen
data_Y3Er(HfIr)4
_symmetry_space_group_name_H-M   'P 1'
_cell_length_a   4.52539400
_cell_length_b   7.06677503
_cell_length_c   8.34207479
_cell_angle_alpha   90.10205319
_cell_angle_beta   90.00000000
_cell_angle_gamma   90.00000000
_symmetry_Int_Tables_number   1
_chemical_formula_structural   Y3Er(HfIr)4
_chemical_formula_sum   'Y3 Er1 Hf4 Ir4'
_cell_volume   266.77863918
_cell_formula_units_Z   1
loop_
 _symmetry_equiv_pos_site_id
 _symmetry_equiv_pos_as_xyz
  1  'x, y, z'
loop_
 _atom_site_type_symbol
 _atom_site_label
 _atom_site_symmetry_multiplicity
 _atom_site_fract_x
 _atom_site_fract_y
 _atom_site_fract_z
 _atom_site_occupancy
  Y  Y0  1  0.250000  0.486626  0.177717  1
  Y  Y1  1  0.750000  0.013569  0.676739  1
  Y  Y2  1  0.750000  0.515115  0.822530  1
  Er  Er3  1  0.250000  0.983139  0.323557  1
  Hf  Hf4  1  0.250000  0.357166  0.570686  1
  Hf  Hf5  1  0.250000  0.860928  0.928867  1
  Hf  Hf6  1  0.750000  0.639831  0.427457  1
  Hf  Hf7  1  0.750000  0.142841  0.073773  1
  Ir  Ir8  1  0.250000  0.232135  0.907660  1
  Ir  Ir9  1  0.250000  0.730430  0.590982  1
  Ir  Ir10  1  0.750000  0.771250  0.094084  1
  Ir  Ir11  1  0.750000  0.266970  0.405948  1
