# generated using pymatgen
data_NdLu2(Ir2Rh)3
_symmetry_space_group_name_H-M   'P 1'
_cell_length_a   5.29833496
_cell_length_b   5.30554993
_cell_length_c   17.40210579
_cell_angle_alpha   89.99999972
_cell_angle_beta   90.08098549
_cell_angle_gamma   120.04505378
_symmetry_Int_Tables_number   1
_chemical_formula_structural   NdLu2(Ir2Rh)3
_chemical_formula_sum   'Nd2 Lu4 Ir12 Rh6'
_cell_volume   423.45213726
_cell_formula_units_Z   2
loop_
 _symmetry_equiv_pos_site_id
 _symmetry_equiv_pos_as_xyz
  1  'x, y, z'
loop_
 _atom_site_type_symbol
 _atom_site_label
 _atom_site_symmetry_multiplicity
 _atom_site_fract_x
 _atom_site_fract_y
 _atom_site_fract_z
 _atom_site_occupancy
  Nd  Nd0  1  0.333647  0.666824  0.750223  1
  Nd  Nd1  1  0.665566  0.332782  0.249275  1
  Lu  Lu2  1  0.332499  0.666250  0.540333  1
  Lu  Lu3  1  0.666534  0.333266  0.039646  1
  Lu  Lu4  1  0.664105  0.332052  0.460514  1
  Lu  Lu5  1  0.334252  0.667126  0.959995  1
  Ir  Ir6  1  0.166615  0.335004  0.124968  1
  Ir  Ir7  1  0.832271  0.664110  0.623366  1
  Ir  Ir8  1  0.661987  0.830993  0.122613  1
  Ir  Ir9  1  0.166615  0.831609  0.124968  1
  Ir  Ir10  1  0.832271  0.168162  0.623366  1
  Ir  Ir11  1  0.335769  0.167885  0.624288  1
  Ir  Ir12  1  0.832255  0.664464  0.876131  1
  Ir  Ir13  1  0.832255  0.167792  0.876131  1
  Ir  Ir14  1  0.337121  0.168561  0.875627  1
  Ir  Ir15  1  0.666920  0.833459  0.376976  1
  Ir  Ir16  1  0.004173  0.002087  0.999817  1
  Ir  Ir17  1  0.996784  0.998392  0.499600  1
  Rh  Rh18  1  0.169799  0.833116  0.376161  1
  Rh  Rh19  1  0.169799  0.336682  0.376161  1
  Rh  Rh20  1  0.988622  0.994311  0.250028  1
  Rh  Rh21  1  0.998961  0.999481  0.749883  1
  Rh  Rh22  1  0.342265  0.671133  0.250259  1
  Rh  Rh23  1  0.668918  0.334458  0.749672  1
