# generated using pymatgen
data_Zr10Sn5BiSe
_symmetry_space_group_name_H-M   'P 1'
_cell_length_a   5.88465100
_cell_length_b   8.66092762
_cell_length_c   8.65224238
_cell_angle_alpha   120.03097069
_cell_angle_beta   90.00092889
_cell_angle_gamma   89.99939298
_symmetry_Int_Tables_number   1
_chemical_formula_structural   Zr10Sn5BiSe
_chemical_formula_sum   'Zr10 Sn5 Bi1 Se1'
_cell_volume   381.77616364
_cell_formula_units_Z   1
loop_
 _symmetry_equiv_pos_site_id
 _symmetry_equiv_pos_as_xyz
  1  'x, y, z'
loop_
 _atom_site_type_symbol
 _atom_site_label
 _atom_site_symmetry_multiplicity
 _atom_site_fract_x
 _atom_site_fract_y
 _atom_site_fract_z
 _atom_site_occupancy
  Zr  Zr0  1  0.498769  0.331441  0.664393  1
  Zr  Zr1  1  0.498762  0.667068  0.335607  1
  Zr  Zr2  1  0.001481  0.667099  0.335624  1
  Zr  Zr3  1  0.001488  0.331479  0.664376  1
  Zr  Zr4  1  0.764741  0.253868  0.999989  1
  Zr  Zr5  1  0.763923  0.744958  0.739790  1
  Zr  Zr6  1  0.763937  0.005157  0.260187  1
  Zr  Zr7  1  0.237088  0.743689  0.000008  1
  Zr  Zr8  1  0.235962  0.256764  0.257445  1
  Zr  Zr9  1  0.235935  0.999334  0.742583  1
  Sn  Sn10  1  0.748581  0.392944  0.392446  1
  Sn  Sn11  1  0.748571  0.000492  0.607543  1
  Sn  Sn12  1  0.250893  0.390274  0.000005  1
  Sn  Sn13  1  0.251026  0.607779  0.608251  1
  Sn  Sn14  1  0.251023  0.999539  0.391761  1
  Bi  Bi15  1  0.748059  0.608601  0.999992  1
  Se  Se16  1  0.499761  0.999515  0.999999  1
