# generated using pymatgen
data_ZnSb12(RuPt)2
_symmetry_space_group_name_H-M   'P 1'
_cell_length_a   8.17959557
_cell_length_b   8.17163873
_cell_length_c   8.17959639
_cell_angle_alpha   109.44828457
_cell_angle_beta   109.52291569
_cell_angle_gamma   109.48188516
_symmetry_Int_Tables_number   1
_chemical_formula_structural   ZnSb12(RuPt)2
_chemical_formula_sum   'Zn1 Sb12 Ru2 Pt2'
_cell_volume   420.66788039
_cell_formula_units_Z   1
loop_
 _symmetry_equiv_pos_site_id
 _symmetry_equiv_pos_as_xyz
  1  'x, y, z'
loop_
 _atom_site_type_symbol
 _atom_site_label
 _atom_site_symmetry_multiplicity
 _atom_site_fract_x
 _atom_site_fract_y
 _atom_site_fract_z
 _atom_site_occupancy
  Zn  Zn0  1  0.000000  0.000000  0.000000  1
  Sb  Sb1  1  0.156935  0.489411  0.332475  1
  Sb  Sb2  1  0.506388  0.655571  0.841098  1
  Sb  Sb3  1  0.334932  0.841810  0.185639  1
  Sb  Sb4  1  0.814472  0.655571  0.149183  1
  Sb  Sb5  1  0.656172  0.841810  0.506878  1
  Sb  Sb6  1  0.185528  0.344429  0.850817  1
  Sb  Sb7  1  0.665068  0.158190  0.814361  1
  Sb  Sb8  1  0.343828  0.158190  0.493122  1
  Sb  Sb9  1  0.493612  0.344429  0.158902  1
  Sb  Sb10  1  0.843065  0.510589  0.667525  1
  Sb  Sb11  1  0.848975  0.194018  0.345041  1
  Sb  Sb12  1  0.151025  0.805982  0.654959  1
  Ru  Ru13  1  0.500000  0.500000  0.500000  1
  Ru  Ru14  1  0.000000  0.500000  0.000000  1
  Pt  Pt15  1  0.500000  0.000000  0.000000  1
  Pt  Pt16  1  0.000000  0.000000  0.500000  1
