# generated using pymatgen
data_Rb2Na2PtO4
_symmetry_space_group_name_H-M   'P 1'
_cell_length_a   6.62792147
_cell_length_b   6.62792212
_cell_length_c   9.54140097
_cell_angle_alpha   77.63666418
_cell_angle_beta   77.63666321
_cell_angle_gamma   52.49251983
_symmetry_Int_Tables_number   1
_chemical_formula_structural   Rb2Na2PtO4
_chemical_formula_sum   'Rb4 Na4 Pt2 O8'
_cell_volume   322.88553178
_cell_formula_units_Z   2
loop_
 _symmetry_equiv_pos_site_id
 _symmetry_equiv_pos_as_xyz
  1  'x, y, z'
loop_
 _atom_site_type_symbol
 _atom_site_label
 _atom_site_symmetry_multiplicity
 _atom_site_fract_x
 _atom_site_fract_y
 _atom_site_fract_z
 _atom_site_occupancy
  Rb  Rb0  1  0.669825  0.669825  0.137853  1
  Rb  Rb1  1  0.330175  0.330175  0.862147  1
  Rb  Rb2  1  0.673584  0.673584  0.753863  1
  Rb  Rb3  1  0.326416  0.326416  0.246137  1
  Na  Na4  1  0.975598  0.975598  0.657024  1
  Na  Na5  1  0.782167  0.782167  0.425593  1
  Na  Na6  1  0.024402  0.024402  0.342976  1
  Na  Na7  1  0.217833  0.217833  0.574407  1
  Pt  Pt8  1  0.000000  0.000000  0.000000  1
  Pt  Pt9  1  0.500000  0.500000  0.500000  1
  O  O10  1  0.385347  0.856450  0.463737  1
  O  O11  1  0.143550  0.614653  0.536263  1
  O  O12  1  0.870790  0.870790  0.904863  1
  O  O13  1  0.890453  0.890453  0.191099  1
  O  O14  1  0.614653  0.143550  0.536263  1
  O  O15  1  0.129210  0.129210  0.095137  1
  O  O16  1  0.109547  0.109547  0.808901  1
  O  O17  1  0.856450  0.385347  0.463737  1
