# generated using pymatgen
data_TbNdY2(Ir2O7)2
_symmetry_space_group_name_H-M   'P 1'
_cell_length_a   7.32446031
_cell_length_b   7.27977034
_cell_length_c   7.27977091
_cell_angle_alpha   59.93234173
_cell_angle_beta   60.13398981
_cell_angle_gamma   60.13398849
_symmetry_Int_Tables_number   1
_chemical_formula_structural   TbNdY2(Ir2O7)2
_chemical_formula_sum   'Tb1 Nd1 Y2 Ir4 O14'
_cell_volume   274.88380958
_cell_formula_units_Z   1
loop_
 _symmetry_equiv_pos_site_id
 _symmetry_equiv_pos_as_xyz
  1  'x, y, z'
loop_
 _atom_site_type_symbol
 _atom_site_label
 _atom_site_symmetry_multiplicity
 _atom_site_fract_x
 _atom_site_fract_y
 _atom_site_fract_z
 _atom_site_occupancy
  Tb  Tb0  1  0.125000  0.125000  0.125000  1
  Nd  Nd1  1  0.625000  0.125000  0.125000  1
  Y  Y2  1  0.125000  0.625000  0.125000  1
  Y  Y3  1  0.125000  0.125000  0.625000  1
  Ir  Ir4  1  0.125000  0.625000  0.625000  1
  Ir  Ir5  1  0.625000  0.125000  0.625000  1
  Ir  Ir6  1  0.625000  0.625000  0.125000  1
  Ir  Ir7  1  0.625000  0.625000  0.625000  1
  O  O8  1  0.717596  0.703919  0.289264  1
  O  O9  1  0.288901  0.289572  0.710696  1
  O  O10  1  0.717596  0.289264  0.703919  1
  O  O11  1  0.288901  0.710696  0.289572  1
  O  O12  1  0.288892  0.710790  0.710790  1
  O  O13  1  0.717486  0.289256  0.289256  1
  O  O14  1  0.532404  0.546081  0.960736  1
  O  O15  1  0.961099  0.960428  0.539304  1
  O  O16  1  0.532404  0.960736  0.546081  1
  O  O17  1  0.961099  0.539304  0.960428  1
  O  O18  1  0.961108  0.539210  0.539210  1
  O  O19  1  0.532514  0.960744  0.960744  1
  O  O20  1  0.240782  0.253459  0.253459  1
  O  O21  1  0.009218  0.996541  0.996541  1
