# generated using pymatgen
data_NdY5(AuO7)2
_symmetry_space_group_name_H-M   'P 1'
_cell_length_a   6.53439881
_cell_length_b   6.53439952
_cell_length_c   7.50260328
_cell_angle_alpha   89.94537560
_cell_angle_beta   90.05462582
_cell_angle_gamma   108.84909419
_symmetry_Int_Tables_number   1
_chemical_formula_structural   NdY5(AuO7)2
_chemical_formula_sum   'Nd1 Y5 Au2 O14'
_cell_volume   303.16931668
_cell_formula_units_Z   1
loop_
 _symmetry_equiv_pos_site_id
 _symmetry_equiv_pos_as_xyz
  1  'x, y, z'
loop_
 _atom_site_type_symbol
 _atom_site_label
 _atom_site_symmetry_multiplicity
 _atom_site_fract_x
 _atom_site_fract_y
 _atom_site_fract_z
 _atom_site_occupancy
  Nd  Nd0  1  0.500000  0.500000  0.500000  1
  Y  Y1  1  0.500000  0.500000  0.000000  1
  Y  Y2  1  0.527995  0.997944  0.752484  1
  Y  Y3  1  0.997944  0.527995  0.247516  1
  Y  Y4  1  0.472005  0.002056  0.247516  1
  Y  Y5  1  0.002056  0.472005  0.752484  1
  Au  Au6  1  0.000000  0.000000  0.500000  1
  Au  Au7  1  0.000000  0.000000  0.000000  1
  O  O8  1  0.671444  0.923523  0.476007  1
  O  O9  1  0.923523  0.671444  0.523993  1
  O  O10  1  0.671425  0.918561  0.024084  1
  O  O11  1  0.918561  0.671425  0.975916  1
  O  O12  1  0.328556  0.076477  0.523993  1
  O  O13  1  0.076477  0.328556  0.476007  1
  O  O14  1  0.328575  0.081439  0.975916  1
  O  O15  1  0.081439  0.328575  0.024084  1
  O  O16  1  0.922144  0.077856  0.750081  1
  O  O17  1  0.077856  0.922144  0.249919  1
  O  O18  1  0.364989  0.635011  0.758153  1
  O  O19  1  0.635011  0.364989  0.241847  1
  O  O20  1  0.641161  0.358839  0.757165  1
  O  O21  1  0.358839  0.641161  0.242835  1
