# generated using pymatgen
data_K6P4W
_symmetry_space_group_name_H-M   'P 1'
_cell_length_a   10.09766809
_cell_length_b   10.09766757
_cell_length_c   8.03394537
_cell_angle_alpha   89.96008089
_cell_angle_beta   89.96008076
_cell_angle_gamma   119.97768240
_symmetry_Int_Tables_number   1
_chemical_formula_structural   K6P4W
_chemical_formula_sum   'K12 P8 W2'
_cell_volume   709.57591857
_cell_formula_units_Z   2
loop_
 _symmetry_equiv_pos_site_id
 _symmetry_equiv_pos_as_xyz
  1  'x, y, z'
loop_
 _atom_site_type_symbol
 _atom_site_label
 _atom_site_symmetry_multiplicity
 _atom_site_fract_x
 _atom_site_fract_y
 _atom_site_fract_z
 _atom_site_occupancy
  K  K0  1  0.467667  0.532714  0.500835  1
  K  K1  1  0.064236  0.532556  0.501977  1
  K  K2  1  0.532714  0.467667  0.000835  1
  K  K3  1  0.532556  0.064236  0.001977  1
  K  K4  1  0.852951  0.145421  0.680615  1
  K  K5  1  0.295413  0.147188  0.682490  1
  K  K6  1  0.853616  0.708114  0.679698  1
  K  K7  1  0.145421  0.852951  0.180615  1
  K  K8  1  0.708114  0.853616  0.179698  1
  K  K9  1  0.147188  0.295413  0.182490  1
  K  K10  1  0.466394  0.933688  0.500058  1
  K  K11  1  0.933688  0.466394  0.000058  1
  P  P12  1  0.667599  0.333533  0.680562  1
  P  P13  1  0.333533  0.667599  0.180562  1
  P  P14  1  0.793507  0.205878  0.298980  1
  P  P15  1  0.412703  0.205800  0.299387  1
  P  P16  1  0.793849  0.587224  0.298084  1
  P  P17  1  0.205878  0.793507  0.798980  1
  P  P18  1  0.587224  0.793849  0.798084  1
  P  P19  1  0.205800  0.412703  0.799387  1
  W  W20  1  0.666711  0.333238  0.391605  1
  W  W21  1  0.333238  0.666711  0.891605  1
