# generated using pymatgen
data_Zr2UGa3Fe2Co
_symmetry_space_group_name_H-M   'P 1'
_cell_length_a   6.81703803
_cell_length_b   7.14888312
_cell_length_c   3.47182400
_cell_angle_alpha   90.00000000
_cell_angle_beta   90.00000000
_cell_angle_gamma   121.62378495
_symmetry_Int_Tables_number   1
_chemical_formula_structural   Zr2UGa3Fe2Co
_chemical_formula_sum   'Zr2 U1 Ga3 Fe2 Co1'
_cell_volume   144.07247957
_cell_formula_units_Z   1
loop_
 _symmetry_equiv_pos_site_id
 _symmetry_equiv_pos_as_xyz
  1  'x, y, z'
loop_
 _atom_site_type_symbol
 _atom_site_label
 _atom_site_symmetry_multiplicity
 _atom_site_fract_x
 _atom_site_fract_y
 _atom_site_fract_z
 _atom_site_occupancy
  Zr  Zr0  1  0.408432  0.401573  0.500000  1
  Zr  Zr1  1  0.591568  0.993142  0.500000  1
  U  U2  1  0.000000  0.577015  0.500000  1
  Ga  Ga3  1  0.730959  0.745444  0.000000  1
  Ga  Ga4  1  0.269041  0.014484  0.000000  1
  Ga  Ga5  1  0.000000  0.236748  0.000000  1
  Fe  Fe6  1  0.705980  0.371042  0.000000  1
  Fe  Fe7  1  0.294020  0.665064  0.000000  1
  Co  Co8  1  0.000000  0.995488  0.500000  1
