# generated using pymatgen
data_BeNi2B5W6
_symmetry_space_group_name_H-M   'P 1'
_cell_length_a   3.21460400
_cell_length_b   4.54799791
_cell_length_c   10.86400942
_cell_angle_alpha   90.02978480
_cell_angle_beta   90.00000000
_cell_angle_gamma   69.30405162
_symmetry_Int_Tables_number   1
_chemical_formula_structural   BeNi2B5W6
_chemical_formula_sum   'Be1 Ni2 B5 W6'
_cell_volume   148.58234722
_cell_formula_units_Z   1
loop_
 _symmetry_equiv_pos_site_id
 _symmetry_equiv_pos_as_xyz
  1  'x, y, z'
loop_
 _atom_site_type_symbol
 _atom_site_label
 _atom_site_symmetry_multiplicity
 _atom_site_fract_x
 _atom_site_fract_y
 _atom_site_fract_z
 _atom_site_occupancy
  Be  Be0  1  0.916095  0.167809  0.100600  1
  Ni  Ni1  1  0.503486  0.993027  0.994106  1
  Ni  Ni2  1  0.499126  0.001748  0.500658  1
  B  B3  1  0.788650  0.422701  0.252206  1
  B  B4  1  0.911274  0.177452  0.396327  1
  B  B5  1  0.088146  0.823709  0.604479  1
  B  B6  1  0.208648  0.582704  0.750011  1
  B  B7  1  0.087332  0.825336  0.896697  1
  W  W8  1  0.208972  0.582057  0.109994  1
  W  W9  1  0.500221  0.999557  0.252958  1
  W  W10  1  0.210427  0.579145  0.394398  1
  W  W11  1  0.787989  0.424021  0.607878  1
  W  W12  1  0.501504  0.996991  0.749550  1
  W  W13  1  0.788126  0.423747  0.890135  1
