# generated using pymatgen
data_La4ReSi(OsI)2
_symmetry_space_group_name_H-M   'P 1'
_cell_length_a   4.29145900
_cell_length_b   4.29145744
_cell_length_c   18.13910400
_cell_angle_alpha   90.00000000
_cell_angle_beta   90.00000000
_cell_angle_gamma   120.00000432
_symmetry_Int_Tables_number   1
_chemical_formula_structural   La4ReSi(OsI)2
_chemical_formula_sum   'La4 Re1 Si1 Os2 I2'
_cell_volume   289.30518754
_cell_formula_units_Z   1
loop_
 _symmetry_equiv_pos_site_id
 _symmetry_equiv_pos_as_xyz
  1  'x, y, z'
loop_
 _atom_site_type_symbol
 _atom_site_label
 _atom_site_symmetry_multiplicity
 _atom_site_fract_x
 _atom_site_fract_y
 _atom_site_fract_z
 _atom_site_occupancy
  La  La0  1  0.000000  0.000000  0.398186  1
  La  La1  1  0.000000  0.000000  0.887216  1
  La  La2  1  0.000000  0.000000  0.603486  1
  La  La3  1  0.000000  0.000000  0.113288  1
  Re  Re4  1  0.666667  0.333333  0.012135  1
  Si  Si5  1  0.333333  0.666667  0.501119  1
  Os  Os6  1  0.666667  0.333333  0.498673  1
  Os  Os7  1  0.333333  0.666667  0.987305  1
  I  I8  1  0.333333  0.666667  0.253234  1
  I  I9  1  0.666667  0.333333  0.745357  1
