# generated using pymatgen
data_Dy4Al24Pd8Au
_symmetry_space_group_name_H-M   'P 1'
_cell_length_a   7.56225956
_cell_length_b   7.58806998
_cell_length_c   13.15828500
_cell_angle_alpha   84.52448063
_cell_angle_beta   78.98878618
_cell_angle_gamma   59.89802951
_symmetry_Int_Tables_number   1
_chemical_formula_structural   Dy4Al24Pd8Au
_chemical_formula_sum   'Dy4 Al24 Pd8 Au1'
_cell_volume   641.20317736
_cell_formula_units_Z   1
loop_
 _symmetry_equiv_pos_site_id
 _symmetry_equiv_pos_as_xyz
  1  'x, y, z'
loop_
 _atom_site_type_symbol
 _atom_site_label
 _atom_site_symmetry_multiplicity
 _atom_site_fract_x
 _atom_site_fract_y
 _atom_site_fract_z
 _atom_site_occupancy
  Dy  Dy0  1  0.391030  0.170153  0.809313  1
  Dy  Dy1  1  0.606565  0.831607  0.191306  1
  Dy  Dy2  1  0.735385  0.497926  0.809134  1
  Dy  Dy3  1  0.266783  0.501577  0.191079  1
  Al  Al4  1  0.682784  0.834650  0.945283  1
  Al  Al5  1  0.315607  0.166290  0.055919  1
  Al  Al6  1  0.145948  0.838764  0.559980  1
  Al  Al7  1  0.855177  0.166303  0.435694  1
  Al  Al8  1  0.488083  0.159773  0.557960  1
  Al  Al9  1  0.520235  0.833424  0.439125  1
  Al  Al10  1  0.218101  0.164887  0.328190  1
  Al  Al11  1  0.776809  0.839562  0.673965  1
  Al  Al12  1  0.440191  0.507251  0.674280  1
  Al  Al13  1  0.563661  0.493211  0.327808  1
  Al  Al14  1  0.108807  0.152860  0.671840  1
  Al  Al15  1  0.890540  0.839933  0.329365  1
  Al  Al16  1  0.353984  0.499156  0.944899  1
  Al  Al17  1  0.647222  0.500593  0.055944  1
  Al  Al18  1  0.014750  0.167304  0.955938  1
  Al  Al19  1  0.984407  0.832273  0.046192  1
  Al  Al20  1  0.188201  0.499544  0.436362  1
  Al  Al21  1  0.806851  0.499383  0.557814  1
  Al  Al22  1  0.733621  0.163827  0.183832  1
  Al  Al23  1  0.267744  0.836638  0.816697  1
  Al  Al24  1  0.060317  0.635477  0.818488  1
  Al  Al25  1  0.938497  0.369161  0.185085  1
  Al  Al26  1  0.853420  0.043924  0.816479  1
  Al  Al27  1  0.144516  0.958067  0.183914  1
  Pd  Pd28  1  0.880160  0.507508  0.361668  1
  Pd  Pd29  1  0.656882  0.171705  0.999843  1
  Pd  Pd30  1  0.343095  0.828229  0.000065  1
  Pd  Pd31  1  0.537371  0.167229  0.361789  1
  Pd  Pd32  1  0.462731  0.832760  0.637419  1
  Pd  Pd33  1  0.778899  0.174782  0.636850  1
  Pd  Pd34  1  0.221256  0.824365  0.362097  1
  Pd  Pd35  1  0.000289  0.499858  0.999848  1
  Au  Au36  1  0.120082  0.490047  0.638539  1
