# generated using pymatgen
data_Zr10Ga9PPd10
_symmetry_space_group_name_H-M   'P 1'
_cell_length_a   3.86564900
_cell_length_b   6.86345786
_cell_length_c   19.78062940
_cell_angle_alpha   89.96925702
_cell_angle_beta   90.00000000
_cell_angle_gamma   90.00000000
_symmetry_Int_Tables_number   1
_chemical_formula_structural   Zr10Ga9PPd10
_chemical_formula_sum   'Zr10 Ga9 P1 Pd10'
_cell_volume   524.81402559
_cell_formula_units_Z   1
loop_
 _symmetry_equiv_pos_site_id
 _symmetry_equiv_pos_as_xyz
  1  'x, y, z'
loop_
 _atom_site_type_symbol
 _atom_site_label
 _atom_site_symmetry_multiplicity
 _atom_site_fract_x
 _atom_site_fract_y
 _atom_site_fract_z
 _atom_site_occupancy
  Zr  Zr0  1  0.500000  0.964423  0.675888  1
  Zr  Zr1  1  0.000000  0.147412  0.000277  1
  Zr  Zr2  1  0.000000  0.522811  0.871598  1
  Zr  Zr3  1  0.500000  0.484126  0.375340  1
  Zr  Zr4  1  0.500000  0.483411  0.625841  1
  Zr  Zr5  1  0.000000  0.518839  0.127324  1
  Zr  Zr6  1  0.000000  0.033754  0.179684  1
  Zr  Zr7  1  0.500000  0.850726  0.502918  1
  Zr  Zr8  1  0.000000  0.032935  0.820160  1
  Zr  Zr9  1  0.500000  0.969882  0.322122  1
  Ga  Ga10  1  0.000000  0.771483  0.401363  1
  Ga  Ga11  1  0.500000  0.269712  0.500935  1
  Ga  Ga12  1  0.500000  0.229510  0.099749  1
  Ga  Ga13  1  0.000000  0.260043  0.301632  1
  Ga  Ga14  1  0.500000  0.743358  0.199872  1
  Ga  Ga15  1  0.500000  0.745467  0.797744  1
  Ga  Ga16  1  0.500000  0.230200  0.899835  1
  Ga  Ga17  1  0.000000  0.727524  0.999780  1
  Ga  Ga18  1  0.000000  0.256763  0.698596  1
  P  P19  1  0.000000  0.762506  0.600080  1
  Pd  Pd20  1  0.000000  0.142051  0.426733  1
  Pd  Pd21  1  0.500000  0.356786  0.223566  1
  Pd  Pd22  1  0.500000  0.478195  0.999570  1
  Pd  Pd23  1  0.500000  0.357505  0.775292  1
  Pd  Pd24  1  0.000000  0.645897  0.277338  1
  Pd  Pd25  1  0.000000  0.644681  0.721461  1
  Pd  Pd26  1  0.500000  0.856332  0.074210  1
  Pd  Pd27  1  0.500000  0.854616  0.923910  1
  Pd  Pd28  1  0.000000  0.130876  0.574945  1
  Pd  Pd29  1  0.000000  0.528176  0.502236  1
