# generated using pymatgen
data_Hf9TaRe3Os
_symmetry_space_group_name_H-M   'P 1'
_cell_length_a   8.73649000
_cell_length_b   8.73649112
_cell_length_c   8.53972100
_cell_angle_alpha   90.00000000
_cell_angle_beta   90.00000000
_cell_angle_gamma   120.00000332
_symmetry_Int_Tables_number   1
_chemical_formula_structural   Hf9TaRe3Os
_chemical_formula_sum   'Hf18 Ta2 Re6 Os2'
_cell_volume   564.47969371
_cell_formula_units_Z   2
loop_
 _symmetry_equiv_pos_site_id
 _symmetry_equiv_pos_as_xyz
  1  'x, y, z'
loop_
 _atom_site_type_symbol
 _atom_site_label
 _atom_site_symmetry_multiplicity
 _atom_site_fract_x
 _atom_site_fract_y
 _atom_site_fract_z
 _atom_site_occupancy
  Hf  Hf0  1  0.198194  0.801806  0.444736  1
  Hf  Hf1  1  0.198194  0.396388  0.444736  1
  Hf  Hf2  1  0.603612  0.801806  0.444736  1
  Hf  Hf3  1  0.801806  0.198194  0.555264  1
  Hf  Hf4  1  0.801806  0.603612  0.555264  1
  Hf  Hf5  1  0.396388  0.198194  0.555264  1
  Hf  Hf6  1  0.801806  0.198194  0.944736  1
  Hf  Hf7  1  0.801806  0.603612  0.944736  1
  Hf  Hf8  1  0.396388  0.198194  0.944736  1
  Hf  Hf9  1  0.198194  0.801806  0.055264  1
  Hf  Hf10  1  0.198194  0.396388  0.055264  1
  Hf  Hf11  1  0.603612  0.801806  0.055264  1
  Hf  Hf12  1  0.541480  0.458520  0.250000  1
  Hf  Hf13  1  0.541480  0.082960  0.250000  1
  Hf  Hf14  1  0.917040  0.458520  0.250000  1
  Hf  Hf15  1  0.458520  0.541480  0.750000  1
  Hf  Hf16  1  0.458520  0.917040  0.750000  1
  Hf  Hf17  1  0.082960  0.541480  0.750000  1
  Ta  Ta18  1  0.000000  0.000000  0.500000  1
  Ta  Ta19  1  0.000000  0.000000  0.000000  1
  Re  Re20  1  0.886110  0.113890  0.250000  1
  Re  Re21  1  0.886110  0.772219  0.250000  1
  Re  Re22  1  0.227781  0.113890  0.250000  1
  Re  Re23  1  0.113890  0.886110  0.750000  1
  Re  Re24  1  0.113890  0.227781  0.750000  1
  Re  Re25  1  0.772219  0.886110  0.750000  1
  Os  Os26  1  0.333333  0.666667  0.250000  1
  Os  Os27  1  0.666667  0.333333  0.750000  1
