# generated using pymatgen
data_NpCoB4
_symmetry_space_group_name_H-M   'P 1'
_cell_length_a   3.32189800
_cell_length_b   5.90846500
_cell_length_c   11.46065600
_cell_angle_alpha   90.00000000
_cell_angle_beta   90.00000000
_cell_angle_gamma   90.00000000
_symmetry_Int_Tables_number   1
_chemical_formula_structural   NpCoB4
_chemical_formula_sum   'Np4 Co4 B16'
_cell_volume   224.94194056
_cell_formula_units_Z   4
loop_
 _symmetry_equiv_pos_site_id
 _symmetry_equiv_pos_as_xyz
  1  'x, y, z'
loop_
 _atom_site_type_symbol
 _atom_site_label
 _atom_site_symmetry_multiplicity
 _atom_site_fract_x
 _atom_site_fract_y
 _atom_site_fract_z
 _atom_site_occupancy
  Np  Np0  1  0.000000  0.372711  0.649972  1
  Np  Np1  1  0.000000  0.627289  0.350028  1
  Np  Np2  1  0.000000  0.872711  0.850028  1
  Np  Np3  1  0.000000  0.127289  0.149972  1
  Co  Co4  1  0.000000  0.368071  0.912212  1
  Co  Co5  1  0.000000  0.631929  0.087788  1
  Co  Co6  1  0.000000  0.868071  0.587788  1
  Co  Co7  1  0.000000  0.131929  0.412212  1
  B  B8  1  0.500000  0.024287  0.690911  1
  B  B9  1  0.500000  0.975713  0.309089  1
  B  B10  1  0.500000  0.524287  0.809089  1
  B  B11  1  0.500000  0.475713  0.190911  1
  B  B12  1  0.500000  0.113730  0.546291  1
  B  B13  1  0.500000  0.886270  0.453709  1
  B  B14  1  0.500000  0.613730  0.953709  1
  B  B15  1  0.500000  0.386270  0.046291  1
  B  B16  1  0.500000  0.282330  0.314223  1
  B  B17  1  0.500000  0.717670  0.685777  1
  B  B18  1  0.500000  0.782330  0.185777  1
  B  B19  1  0.500000  0.217670  0.814223  1
  B  B20  1  0.500000  0.363526  0.465932  1
  B  B21  1  0.500000  0.636474  0.534068  1
  B  B22  1  0.500000  0.863526  0.034068  1
  B  B23  1  0.500000  0.136474  0.965932  1
