# generated using pymatgen
data_Mg2Ni9Mo3P7
_symmetry_space_group_name_H-M   'P 1'
_cell_length_a   3.62293400
_cell_length_b   9.18337385
_cell_length_c   9.18337400
_cell_angle_alpha   120.00000055
_cell_angle_beta   90.00000000
_cell_angle_gamma   90.00000000
_symmetry_Int_Tables_number   1
_chemical_formula_structural   Mg2Ni9Mo3P7
_chemical_formula_sum   'Mg2 Ni9 Mo3 P7'
_cell_volume   264.60350205
_cell_formula_units_Z   1
loop_
 _symmetry_equiv_pos_site_id
 _symmetry_equiv_pos_as_xyz
  1  'x, y, z'
loop_
 _atom_site_type_symbol
 _atom_site_label
 _atom_site_symmetry_multiplicity
 _atom_site_fract_x
 _atom_site_fract_y
 _atom_site_fract_z
 _atom_site_occupancy
  Mg  Mg0  1  0.000000  0.666667  0.333333  1
  Mg  Mg1  1  0.500000  0.333333  0.666667  1
  Ni  Ni2  1  0.000000  0.560478  0.930152  1
  Ni  Ni3  1  0.000000  0.369674  0.439522  1
  Ni  Ni4  1  0.000000  0.069848  0.630326  1
  Ni  Ni5  1  0.500000  0.939004  0.387292  1
  Ni  Ni6  1  0.500000  0.448288  0.060996  1
  Ni  Ni7  1  0.500000  0.612708  0.551712  1
  Ni  Ni8  1  0.000000  0.871455  0.161603  1
  Ni  Ni9  1  0.000000  0.290148  0.128545  1
  Ni  Ni10  1  0.000000  0.838397  0.709852  1
  Mo  Mo11  1  0.500000  0.779992  0.899222  1
  Mo  Mo12  1  0.500000  0.119231  0.220008  1
  Mo  Mo13  1  0.500000  0.100778  0.880769  1
  P  P14  1  0.500000  0.710048  0.120852  1
  P  P15  1  0.500000  0.410804  0.289952  1
  P  P16  1  0.500000  0.879148  0.589196  1
  P  P17  1  0.000000  0.000000  0.000000  1
  P  P18  1  0.000000  0.584684  0.700345  1
  P  P19  1  0.000000  0.115661  0.415316  1
  P  P20  1  0.000000  0.299655  0.884339  1
