# generated using pymatgen
data_Lu7Sc3(Al2Sb)2
_symmetry_space_group_name_H-M   'P 1'
_cell_length_a   6.09936487
_cell_length_b   8.52436831
_cell_length_c   8.49341500
_cell_angle_alpha   119.85030453
_cell_angle_beta   90.09203040
_cell_angle_gamma   89.95068463
_symmetry_Int_Tables_number   1
_chemical_formula_structural   Lu7Sc3(Al2Sb)2
_chemical_formula_sum   'Lu7 Sc3 Al4 Sb2'
_cell_volume   383.01198502
_cell_formula_units_Z   1
loop_
 _symmetry_equiv_pos_site_id
 _symmetry_equiv_pos_as_xyz
  1  'x, y, z'
loop_
 _atom_site_type_symbol
 _atom_site_label
 _atom_site_symmetry_multiplicity
 _atom_site_fract_x
 _atom_site_fract_y
 _atom_site_fract_z
 _atom_site_occupancy
  Lu  Lu0  1  0.007367  0.313399  0.662664  1
  Lu  Lu1  1  0.745545  0.229413  0.989160  1
  Lu  Lu2  1  0.748001  0.770316  0.760107  1
  Lu  Lu3  1  0.751408  0.000651  0.238305  1
  Lu  Lu4  1  0.251719  0.762871  0.000554  1
  Lu  Lu5  1  0.252200  0.237349  0.237398  1
  Lu  Lu6  1  0.250069  0.999339  0.764443  1
  Sc  Sc7  1  0.493122  0.342228  0.670468  1
  Sc  Sc8  1  0.491257  0.658641  0.330861  1
  Sc  Sc9  1  0.008431  0.685637  0.346048  1
  Al  Al10  1  0.716248  0.996716  0.587329  1
  Al  Al11  1  0.248867  0.404171  0.006714  1
  Al  Al12  1  0.245158  0.598416  0.599737  1
  Al  Al13  1  0.282969  0.997178  0.404896  1
  Sb  Sb14  1  0.751952  0.600816  0.002611  1
  Sb  Sb15  1  0.755688  0.402861  0.398705  1
