# generated using pymatgen
data_Tb5Nd3Cd2CoPt
_symmetry_space_group_name_H-M   'P 1'
_cell_length_a   9.73213993
_cell_length_b   9.73213978
_cell_length_c   9.72122800
_cell_angle_alpha   60.03708242
_cell_angle_beta   60.03708294
_cell_angle_gamma   60.27721542
_symmetry_Int_Tables_number   1
_chemical_formula_structural   Tb5Nd3Cd2CoPt
_chemical_formula_sum   'Tb10 Nd6 Cd4 Co2 Pt2'
_cell_volume   652.78272384
_cell_formula_units_Z   2
loop_
 _symmetry_equiv_pos_site_id
 _symmetry_equiv_pos_as_xyz
  1  'x, y, z'
loop_
 _atom_site_type_symbol
 _atom_site_label
 _atom_site_symmetry_multiplicity
 _atom_site_fract_x
 _atom_site_fract_y
 _atom_site_fract_z
 _atom_site_occupancy
  Tb  Tb0  1  0.344917  0.344917  0.357712  1
  Tb  Tb1  1  0.344917  0.344917  0.952453  1
  Tb  Tb2  1  0.340247  0.959334  0.350209  1
  Tb  Tb3  1  0.959334  0.340247  0.350209  1
  Tb  Tb4  1  0.821260  0.186600  0.187994  1
  Tb  Tb5  1  0.186600  0.821260  0.804146  1
  Tb  Tb6  1  0.186600  0.821260  0.187994  1
  Tb  Tb7  1  0.821260  0.186600  0.804146  1
  Tb  Tb8  1  0.186995  0.186995  0.813005  1
  Tb  Tb9  1  0.811487  0.811487  0.188513  1
  Nd  Nd10  1  0.938909  0.559251  0.561931  1
  Nd  Nd11  1  0.559251  0.938909  0.939909  1
  Nd  Nd12  1  0.559251  0.938909  0.561931  1
  Nd  Nd13  1  0.938909  0.559251  0.939909  1
  Nd  Nd14  1  0.558005  0.558005  0.941995  1
  Nd  Nd15  1  0.937863  0.937863  0.562137  1
  Cd  Cd16  1  0.579898  0.579898  0.578423  1
  Cd  Cd17  1  0.579898  0.579898  0.261783  1
  Cd  Cd18  1  0.581346  0.259795  0.579430  1
  Cd  Cd19  1  0.259795  0.581346  0.579430  1
  Co  Co20  1  0.142526  0.142526  0.140832  1
  Co  Co21  1  0.142526  0.142526  0.574116  1
  Pt  Pt22  1  0.144746  0.573462  0.140896  1
  Pt  Pt23  1  0.573462  0.144746  0.140896  1
