# generated using pymatgen
data_Pr8LuSc10Si16Hg
_symmetry_space_group_name_H-M   'P 1'
_cell_length_a   7.23307565
_cell_length_b   7.58169168
_cell_length_c   14.35230648
_cell_angle_alpha   89.94884826
_cell_angle_beta   90.09674625
_cell_angle_gamma   90.27546011
_symmetry_Int_Tables_number   1
_chemical_formula_structural   Pr8LuSc10Si16Hg
_chemical_formula_sum   'Pr8 Lu1 Sc10 Si16 Hg1'
_cell_volume   787.05488488
_cell_formula_units_Z   1
loop_
 _symmetry_equiv_pos_site_id
 _symmetry_equiv_pos_as_xyz
  1  'x, y, z'
loop_
 _atom_site_type_symbol
 _atom_site_label
 _atom_site_symmetry_multiplicity
 _atom_site_fract_x
 _atom_site_fract_y
 _atom_site_fract_z
 _atom_site_occupancy
  Pr  Pr0  1  0.013200  0.172886  0.400667  1
  Pr  Pr1  1  0.511340  0.330987  0.399715  1
  Pr  Pr2  1  0.491543  0.679805  0.900572  1
  Pr  Pr3  1  0.491602  0.681609  0.600993  1
  Pr  Pr4  1  0.978724  0.827746  0.602126  1
  Pr  Pr5  1  0.980584  0.827911  0.900280  1
  Pr  Pr6  1  0.510042  0.330997  0.098650  1
  Pr  Pr7  1  0.012527  0.173213  0.098671  1
  Lu  Lu8  1  0.338240  0.174149  0.623427  1
  Sc  Sc9  1  0.671858  0.819603  0.372051  1
  Sc  Sc10  1  0.170873  0.676835  0.375005  1
  Sc  Sc11  1  0.827087  0.315730  0.876633  1
  Sc  Sc12  1  0.826900  0.314611  0.624779  1
  Sc  Sc13  1  0.840273  0.502402  0.249314  1
  Sc  Sc14  1  0.339352  0.997890  0.249252  1
  Sc  Sc15  1  0.336335  0.175006  0.876325  1
  Sc  Sc16  1  0.170553  0.676946  0.123896  1
  Sc  Sc17  1  0.670719  0.820511  0.126262  1
  Sc  Sc18  1  0.157028  0.496188  0.751492  1
  Si  Si19  1  0.269987  0.878241  0.751632  1
  Si  Si20  1  0.464732  0.624172  0.249260  1
  Si  Si21  1  0.046513  0.127614  0.752421  1
  Si  Si22  1  0.532046  0.393100  0.751774  1
  Si  Si23  1  0.149827  0.469278  0.540567  1
  Si  Si24  1  0.966798  0.873474  0.249319  1
  Si  Si25  1  0.710432  0.116120  0.249314  1
  Si  Si26  1  0.848721  0.535691  0.039005  1
  Si  Si27  1  0.348034  0.963177  0.039598  1
  Si  Si28  1  0.153043  0.465648  0.958987  1
  Si  Si29  1  0.659878  0.041440  0.525007  1
  Si  Si30  1  0.351670  0.961293  0.456682  1
  Si  Si31  1  0.848942  0.536451  0.461184  1
  Si  Si32  1  0.793905  0.592039  0.750910  1
  Si  Si33  1  0.209372  0.386139  0.249358  1
  Si  Si34  1  0.653268  0.041876  0.971728  1
  Hg  Hg35  1  0.654050  0.999222  0.753145  1
