# generated using pymatgen
data_Ho7Th7Rh6
_symmetry_space_group_name_H-M   'P 1'
_cell_length_a   9.93374300
_cell_length_b   9.81388159
_cell_length_c   6.33263481
_cell_angle_alpha   90.13728034
_cell_angle_beta   90.00000000
_cell_angle_gamma   120.40485040
_symmetry_Int_Tables_number   1
_chemical_formula_structural   Ho7Th7Rh6
_chemical_formula_sum   'Ho7 Th7 Rh6'
_cell_volume   532.45255569
_cell_formula_units_Z   1
loop_
 _symmetry_equiv_pos_site_id
 _symmetry_equiv_pos_as_xyz
  1  'x, y, z'
loop_
 _atom_site_type_symbol
 _atom_site_label
 _atom_site_symmetry_multiplicity
 _atom_site_fract_x
 _atom_site_fract_y
 _atom_site_fract_z
 _atom_site_occupancy
  Ho  Ho0  1  0.872829  0.745659  0.746303  1
  Ho  Ho1  1  0.539864  0.462271  0.445500  1
  Ho  Ho2  1  0.922407  0.462271  0.445500  1
  Ho  Ho3  1  0.539685  0.079369  0.446860  1
  Ho  Ho4  1  0.463157  0.539318  0.942977  1
  Ho  Ho5  1  0.076160  0.539318  0.942977  1
  Ho  Ho6  1  0.461828  0.923658  0.944882  1
  Th  Th7  1  0.333882  0.667766  0.463027  1
  Th  Th8  1  0.666552  0.333103  0.961732  1
  Th  Th9  1  0.125960  0.870690  0.245834  1
  Th  Th10  1  0.744730  0.870690  0.245834  1
  Th  Th11  1  0.127657  0.255314  0.244358  1
  Th  Th12  1  0.869581  0.124824  0.743837  1
  Th  Th13  1  0.255243  0.124824  0.743837  1
  Rh  Rh14  1  0.812264  0.185706  0.190025  1
  Rh  Rh15  1  0.373440  0.185706  0.190025  1
  Rh  Rh16  1  0.813054  0.626110  0.193856  1
  Rh  Rh17  1  0.192170  0.815453  0.687010  1
  Rh  Rh18  1  0.623284  0.815453  0.687010  1
  Rh  Rh19  1  0.186250  0.372500  0.692155  1
