# generated using pymatgen
data_Nb8FePdSe16
_symmetry_space_group_name_H-M   'P 1'
_cell_length_a   7.00413200
_cell_length_b   7.00413266
_cell_length_c   12.83779300
_cell_angle_alpha   90.00000000
_cell_angle_beta   90.00000000
_cell_angle_gamma   119.99999691
_symmetry_Int_Tables_number   1
_chemical_formula_structural   Nb8FePdSe16
_chemical_formula_sum   'Nb8 Fe1 Pd1 Se16'
_cell_volume   545.41829197
_cell_formula_units_Z   1
loop_
 _symmetry_equiv_pos_site_id
 _symmetry_equiv_pos_as_xyz
  1  'x, y, z'
loop_
 _atom_site_type_symbol
 _atom_site_label
 _atom_site_symmetry_multiplicity
 _atom_site_fract_x
 _atom_site_fract_y
 _atom_site_fract_z
 _atom_site_occupancy
  Nb  Nb0  1  0.000000  0.000000  0.249039  1
  Nb  Nb1  1  0.000000  0.000000  0.750961  1
  Nb  Nb2  1  0.508899  0.017797  0.247968  1
  Nb  Nb3  1  0.982203  0.491101  0.247968  1
  Nb  Nb4  1  0.508899  0.491101  0.247968  1
  Nb  Nb5  1  0.491101  0.982203  0.752032  1
  Nb  Nb6  1  0.017797  0.508899  0.752032  1
  Nb  Nb7  1  0.491101  0.508899  0.752032  1
  Fe  Fe8  1  0.000000  0.000000  0.000000  1
  Pd  Pd9  1  0.000000  0.000000  0.500000  1
  Se  Se10  1  0.333333  0.666667  0.888408  1
  Se  Se11  1  0.666667  0.333333  0.111592  1
  Se  Se12  1  0.666667  0.333333  0.384573  1
  Se  Se13  1  0.333333  0.666667  0.615427  1
  Se  Se14  1  0.170752  0.829248  0.375651  1
  Se  Se15  1  0.170752  0.341503  0.375651  1
  Se  Se16  1  0.658497  0.829248  0.375651  1
  Se  Se17  1  0.829248  0.170752  0.624349  1
  Se  Se18  1  0.829248  0.658497  0.624349  1
  Se  Se19  1  0.341503  0.170752  0.624349  1
  Se  Se20  1  0.832736  0.167264  0.880586  1
  Se  Se21  1  0.832736  0.665472  0.880586  1
  Se  Se22  1  0.334528  0.167264  0.880586  1
  Se  Se23  1  0.167264  0.832736  0.119414  1
  Se  Se24  1  0.167264  0.334528  0.119414  1
  Se  Se25  1  0.665472  0.832736  0.119414  1
