# generated using pymatgen
data_Ta9Ti(AlSi2)2
_symmetry_space_group_name_H-M   'P 1'
_cell_length_a   7.58632307
_cell_length_b   7.58632368
_cell_length_c   7.58632357
_cell_angle_alpha   128.28212735
_cell_angle_beta   128.28212862
_cell_angle_gamma   76.16843339
_symmetry_Int_Tables_number   1
_chemical_formula_structural   Ta9Ti(AlSi2)2
_chemical_formula_sum   'Ta9 Ti1 Al2 Si4'
_cell_volume   261.50038109
_cell_formula_units_Z   1
loop_
 _symmetry_equiv_pos_site_id
 _symmetry_equiv_pos_as_xyz
  1  'x, y, z'
loop_
 _atom_site_type_symbol
 _atom_site_label
 _atom_site_symmetry_multiplicity
 _atom_site_fract_x
 _atom_site_fract_y
 _atom_site_fract_z
 _atom_site_occupancy
  Ta  Ta0  1  0.016694  0.189022  0.501537  1
  Ta  Ta1  1  0.687485  0.515157  0.498463  1
  Ta  Ta2  1  0.515157  0.016694  0.827673  1
  Ta  Ta3  1  0.189022  0.687485  0.172327  1
  Ta  Ta4  1  0.983306  0.810978  0.498463  1
  Ta  Ta5  1  0.312515  0.484843  0.501537  1
  Ta  Ta6  1  0.484843  0.983306  0.172327  1
  Ta  Ta7  1  0.810978  0.312515  0.827673  1
  Ta  Ta8  1  0.500000  0.500000  0.000000  1
  Ti  Ti9  1  0.000000  0.000000  0.000000  1
  Al  Al10  1  0.750633  0.750633  0.000000  1
  Al  Al11  1  0.249367  0.249367  0.000000  1
  Si  Si12  1  0.365915  0.127461  0.493376  1
  Si  Si13  1  0.634085  0.872539  0.506624  1
  Si  Si14  1  0.872539  0.365915  0.238453  1
  Si  Si15  1  0.127461  0.634085  0.761547  1
