# generated using pymatgen
data_Ca21(Zn2P9)2
_symmetry_space_group_name_H-M   'P 1'
_cell_length_a   10.90020221
_cell_length_b   10.90020208
_cell_length_c   15.45254400
_cell_angle_alpha   88.65119457
_cell_angle_beta   88.65119459
_cell_angle_gamma   87.43810289
_symmetry_Int_Tables_number   1
_chemical_formula_structural   Ca21(Zn2P9)2
_chemical_formula_sum   'Ca42 Zn8 P36'
_cell_volume   1833.17676951
_cell_formula_units_Z   2
loop_
 _symmetry_equiv_pos_site_id
 _symmetry_equiv_pos_as_xyz
  1  'x, y, z'
loop_
 _atom_site_type_symbol
 _atom_site_label
 _atom_site_symmetry_multiplicity
 _atom_site_fract_x
 _atom_site_fract_y
 _atom_site_fract_z
 _atom_site_occupancy
  Ca  Ca0  1  0.930231  0.234185  0.649909  1
  Ca  Ca1  1  0.234185  0.930231  0.649909  1
  Ca  Ca2  1  0.069769  0.765815  0.350091  1
  Ca  Ca3  1  0.765815  0.069769  0.350091  1
  Ca  Ca4  1  0.922871  0.248789  0.855939  1
  Ca  Ca5  1  0.248789  0.922871  0.855939  1
  Ca  Ca6  1  0.077129  0.751211  0.144061  1
  Ca  Ca7  1  0.751211  0.077129  0.144061  1
  Ca  Ca8  1  0.990104  0.232425  0.422788  1
  Ca  Ca9  1  0.232425  0.990104  0.422788  1
  Ca  Ca10  1  0.009896  0.767575  0.577212  1
  Ca  Ca11  1  0.767575  0.009896  0.577212  1
  Ca  Ca12  1  0.747569  0.491913  0.944167  1
  Ca  Ca13  1  0.491913  0.747569  0.944167  1
  Ca  Ca14  1  0.252431  0.508087  0.055833  1
  Ca  Ca15  1  0.508087  0.252431  0.055833  1
  Ca  Ca16  1  0.818096  0.496895  0.563468  1
  Ca  Ca17  1  0.496895  0.818096  0.563468  1
  Ca  Ca18  1  0.181904  0.503105  0.436532  1
  Ca  Ca19  1  0.503105  0.181904  0.436532  1
  Ca  Ca20  1  0.932063  0.575095  0.756856  1
  Ca  Ca21  1  0.575095  0.932063  0.756856  1
  Ca  Ca22  1  0.067937  0.424905  0.243144  1
  Ca  Ca23  1  0.424905  0.067937  0.243144  1
  Ca  Ca24  1  0.997194  0.735798  0.940007  1
  Ca  Ca25  1  0.735798  0.997194  0.940007  1
  Ca  Ca26  1  0.002806  0.264202  0.059993  1
  Ca  Ca27  1  0.264202  0.002806  0.059993  1
  Ca  Ca28  1  0.264189  0.596432  0.842311  1
  Ca  Ca29  1  0.596432  0.264189  0.842311  1
  Ca  Ca30  1  0.735811  0.403568  0.157689  1
  Ca  Ca31  1  0.403568  0.735811  0.157689  1
  Ca  Ca32  1  0.318575  0.572685  0.619949  1
  Ca  Ca33  1  0.572685  0.318575  0.619949  1
  Ca  Ca34  1  0.681425  0.427315  0.380051  1
  Ca  Ca35  1  0.427315  0.681425  0.380051  1
  Ca  Ca36  1  0.251738  0.251738  0.580318  1
  Ca  Ca37  1  0.748262  0.748262  0.419682  1
  Ca  Ca38  1  0.263150  0.263150  0.908841  1
  Ca  Ca39  1  0.736850  0.736850  0.091159  1
  Ca  Ca40  1  0.594363  0.594363  0.744313  1
  Ca  Ca41  1  0.405637  0.405637  0.255687  1
  Zn  Zn42  1  0.149176  0.379650  0.749071  1
  Zn  Zn43  1  0.379650  0.149176  0.749071  1
  Zn  Zn44  1  0.850824  0.620350  0.250929  1
  Zn  Zn45  1  0.620350  0.850824  0.250929  1
  Zn  Zn46  1  0.999279  0.999279  0.204358  1
  Zn  Zn47  1  0.000721  0.000721  0.795642  1
  Zn  Zn48  1  0.159936  0.159936  0.244481  1
  Zn  Zn49  1  0.840064  0.840064  0.755519  1
  P  P50  1  0.041523  0.041523  0.556607  1
  P  P51  1  0.958477  0.958477  0.443393  1
  P  P52  1  0.050415  0.050415  0.947307  1
  P  P53  1  0.949585  0.949585  0.052693  1
  P  P54  1  0.435438  0.435438  0.469638  1
  P  P55  1  0.564562  0.564562  0.530362  1
  P  P56  1  0.468866  0.468866  0.934324  1
  P  P57  1  0.531134  0.531134  0.065676  1
  P  P58  1  0.762284  0.398076  0.743205  1
  P  P59  1  0.398076  0.762284  0.743205  1
  P  P60  1  0.237716  0.601924  0.256795  1
  P  P61  1  0.601924  0.237716  0.256795  1
  P  P62  1  0.064598  0.452188  0.897815  1
  P  P63  1  0.452188  0.064598  0.897815  1
  P  P64  1  0.935402  0.547812  0.102185  1
  P  P65  1  0.547812  0.935402  0.102185  1
  P  P66  1  0.073875  0.460056  0.610907  1
  P  P67  1  0.460056  0.073875  0.610907  1
  P  P68  1  0.926125  0.539944  0.389093  1
  P  P69  1  0.539944  0.926125  0.389093  1
  P  P70  1  0.066113  0.790892  0.760654  1
  P  P71  1  0.790892  0.066113  0.760654  1
  P  P72  1  0.933887  0.209108  0.239346  1
  P  P73  1  0.209108  0.933887  0.239346  1
  P  P74  1  0.151399  0.151399  0.749824  1
  P  P75  1  0.848601  0.848601  0.250176  1
  P  P76  1  0.247349  0.247349  0.374662  1
  P  P77  1  0.752651  0.752651  0.625338  1
  P  P78  1  0.378622  0.378622  0.742945  1
  P  P79  1  0.621378  0.621378  0.257055  1
  P  P80  1  0.740157  0.740157  0.882856  1
  P  P81  1  0.259843  0.259843  0.117144  1
  P  P82  1  0.754912  0.245088  0.500000  1
  P  P83  1  0.245088  0.754912  0.500000  1
  P  P84  1  0.754150  0.245850  0.000000  1
  P  P85  1  0.245850  0.754150  0.000000  1
