# generated using pymatgen
data_Ce(ThCu8)3
_symmetry_space_group_name_H-M   'P 1'
_cell_length_a   5.08425500
_cell_length_b   8.08901691
_cell_length_c   10.08651374
_cell_angle_alpha   89.92704473
_cell_angle_beta   90.00000000
_cell_angle_gamma   90.00000000
_symmetry_Int_Tables_number   1
_chemical_formula_structural   Ce(ThCu8)3
_chemical_formula_sum   'Ce1 Th3 Cu24'
_cell_volume   414.82392819
_cell_formula_units_Z   1
loop_
 _symmetry_equiv_pos_site_id
 _symmetry_equiv_pos_as_xyz
  1  'x, y, z'
loop_
 _atom_site_type_symbol
 _atom_site_label
 _atom_site_symmetry_multiplicity
 _atom_site_fract_x
 _atom_site_fract_y
 _atom_site_fract_z
 _atom_site_occupancy
  Ce  Ce0  1  0.250000  0.259654  0.565661  1
  Th  Th1  1  0.750000  0.740405  0.434206  1
  Th  Th2  1  0.250000  0.759897  0.934361  1
  Th  Th3  1  0.750000  0.239943  0.064864  1
  Cu  Cu4  1  0.504463  0.564049  0.191609  1
  Cu  Cu5  1  0.005304  0.435358  0.807606  1
  Cu  Cu6  1  0.994917  0.064444  0.309381  1
  Cu  Cu7  1  0.494859  0.936296  0.691440  1
  Cu  Cu8  1  0.750000  0.354308  0.357600  1
  Cu  Cu9  1  0.250000  0.645364  0.642467  1
  Cu  Cu10  1  0.750000  0.854471  0.142581  1
  Cu  Cu11  1  0.250000  0.145611  0.857103  1
  Cu  Cu12  1  0.750000  0.682755  0.743715  1
  Cu  Cu13  1  0.250000  0.316584  0.255919  1
  Cu  Cu14  1  0.750000  0.183429  0.755198  1
  Cu  Cu15  1  0.250000  0.816968  0.244886  1
  Cu  Cu16  1  0.750000  0.940012  0.903025  1
  Cu  Cu17  1  0.250000  0.060285  0.097028  1
  Cu  Cu18  1  0.750000  0.438890  0.595526  1
  Cu  Cu19  1  0.250000  0.558272  0.404647  1
  Cu  Cu20  1  0.750000  0.597356  0.984545  1
  Cu  Cu21  1  0.250000  0.401836  0.014797  1
  Cu  Cu22  1  0.750000  0.099814  0.516354  1
  Cu  Cu23  1  0.250000  0.903852  0.485446  1
  Cu  Cu24  1  0.505083  0.064444  0.309381  1
  Cu  Cu25  1  0.005141  0.936296  0.691440  1
  Cu  Cu26  1  0.995537  0.564049  0.191609  1
  Cu  Cu27  1  0.494696  0.435358  0.807606  1
