# generated using pymatgen
data_Pr3Nd2Dy3(Si3Rh)4
_symmetry_space_group_name_H-M   'P 1'
_cell_length_a   8.25183018
_cell_length_b   8.25183077
_cell_length_c   8.23195300
_cell_angle_alpha   90.00000000
_cell_angle_beta   90.00000000
_cell_angle_gamma   119.97587054
_symmetry_Int_Tables_number   1
_chemical_formula_structural   Pr3Nd2Dy3(Si3Rh)4
_chemical_formula_sum   'Pr3 Nd2 Dy3 Si12 Rh4'
_cell_volume   485.55636739
_cell_formula_units_Z   1
loop_
 _symmetry_equiv_pos_site_id
 _symmetry_equiv_pos_as_xyz
  1  'x, y, z'
loop_
 _atom_site_type_symbol
 _atom_site_label
 _atom_site_symmetry_multiplicity
 _atom_site_fract_x
 _atom_site_fract_y
 _atom_site_fract_z
 _atom_site_occupancy
  Pr  Pr0  1  0.999943  0.000057  0.250000  1
  Pr  Pr1  1  0.000044  0.999956  0.750000  1
  Pr  Pr2  1  0.504497  0.495503  0.250000  1
  Nd  Nd3  1  0.504380  0.008683  0.250000  1
  Nd  Nd4  1  0.991317  0.495620  0.250000  1
  Dy  Dy5  1  0.492844  0.507156  0.750000  1
  Dy  Dy6  1  0.492842  0.985692  0.750000  1
  Dy  Dy7  1  0.014308  0.507158  0.750000  1
  Si  Si8  1  0.167112  0.832888  0.506155  1
  Si  Si9  1  0.166749  0.334066  0.506458  1
  Si  Si10  1  0.665934  0.833251  0.506458  1
  Si  Si11  1  0.831331  0.168669  0.503242  1
  Si  Si12  1  0.831817  0.662921  0.503653  1
  Si  Si13  1  0.337079  0.168183  0.503653  1
  Si  Si14  1  0.831331  0.168669  0.996758  1
  Si  Si15  1  0.831817  0.662921  0.996347  1
  Si  Si16  1  0.337079  0.168183  0.996347  1
  Si  Si17  1  0.167112  0.832888  0.993845  1
  Si  Si18  1  0.166749  0.334066  0.993542  1
  Si  Si19  1  0.665934  0.833251  0.993542  1
  Rh  Rh20  1  0.333095  0.666905  0.491765  1
  Rh  Rh21  1  0.666796  0.333204  0.543175  1
  Rh  Rh22  1  0.666796  0.333204  0.956825  1
  Rh  Rh23  1  0.333095  0.666905  0.008235  1
