# generated using pymatgen
data_Ho7Tm(LuSb)12
_symmetry_space_group_name_H-M   'P 1'
_cell_length_a   8.05781819
_cell_length_b   9.12918500
_cell_length_c   11.72129128
_cell_angle_alpha   90.00000000
_cell_angle_beta   90.02491505
_cell_angle_gamma   90.00000000
_symmetry_Int_Tables_number   1
_chemical_formula_structural   Ho7Tm(LuSb)12
_chemical_formula_sum   'Ho7 Tm1 Lu12 Sb12'
_cell_volume   862.23349437
_cell_formula_units_Z   1
loop_
 _symmetry_equiv_pos_site_id
 _symmetry_equiv_pos_as_xyz
  1  'x, y, z'
loop_
 _atom_site_type_symbol
 _atom_site_label
 _atom_site_symmetry_multiplicity
 _atom_site_fract_x
 _atom_site_fract_y
 _atom_site_fract_z
 _atom_site_occupancy
  Ho  Ho0  1  0.175614  0.750000  0.228772  1
  Ho  Ho1  1  0.675755  0.250000  0.271107  1
  Ho  Ho2  1  0.824292  0.250000  0.771076  1
  Ho  Ho3  1  0.324112  0.750000  0.728927  1
  Ho  Ho4  1  0.658407  0.750000  0.290980  1
  Ho  Ho5  1  0.158477  0.250000  0.209078  1
  Ho  Ho6  1  0.341537  0.250000  0.709023  1
  Tm  Tm7  1  0.841131  0.750000  0.790824  1
  Lu  Lu8  1  0.809227  0.938995  0.065852  1
  Lu  Lu9  1  0.309308  0.061036  0.434008  1
  Lu  Lu10  1  0.190799  0.438959  0.934017  1
  Lu  Lu11  1  0.690849  0.561138  0.566290  1
  Lu  Lu12  1  0.190799  0.061041  0.934017  1
  Lu  Lu13  1  0.690849  0.938862  0.566290  1
  Lu  Lu14  1  0.809227  0.561005  0.065852  1
  Lu  Lu15  1  0.309308  0.438964  0.434008  1
  Lu  Lu16  1  0.524925  0.250000  0.995291  1
  Lu  Lu17  1  0.024768  0.750000  0.504970  1
  Lu  Lu18  1  0.475157  0.750000  0.004519  1
  Lu  Lu19  1  0.975109  0.250000  0.495412  1
  Sb  Sb20  1  0.937121  0.991073  0.326768  1
  Sb  Sb21  1  0.437089  0.008815  0.173170  1
  Sb  Sb22  1  0.062651  0.491412  0.673568  1
  Sb  Sb23  1  0.563595  0.509297  0.826747  1
  Sb  Sb24  1  0.062651  0.008588  0.673568  1
  Sb  Sb25  1  0.563595  0.990703  0.826747  1
  Sb  Sb26  1  0.937121  0.508927  0.326768  1
  Sb  Sb27  1  0.437089  0.491185  0.173170  1
  Sb  Sb28  1  0.902023  0.250000  0.024792  1
  Sb  Sb29  1  0.401984  0.750000  0.475222  1
  Sb  Sb30  1  0.097347  0.750000  0.974328  1
  Sb  Sb31  1  0.598083  0.250000  0.524840  1
