# generated using pymatgen
data_Tm5Ga2Pb
_symmetry_space_group_name_H-M   'P 1'
_cell_length_a   7.76825400
_cell_length_b   7.76825400
_cell_length_c   13.70769000
_cell_angle_alpha   90.00000000
_cell_angle_beta   90.00000000
_cell_angle_gamma   90.00000000
_symmetry_Int_Tables_number   1
_chemical_formula_structural   Tm5Ga2Pb
_chemical_formula_sum   'Tm20 Ga8 Pb4'
_cell_volume   827.20111083
_cell_formula_units_Z   4
loop_
 _symmetry_equiv_pos_site_id
 _symmetry_equiv_pos_as_xyz
  1  'x, y, z'
loop_
 _atom_site_type_symbol
 _atom_site_label
 _atom_site_symmetry_multiplicity
 _atom_site_fract_x
 _atom_site_fract_y
 _atom_site_fract_z
 _atom_site_occupancy
  Tm  Tm0  1  0.839579  0.839509  0.892930  1
  Tm  Tm1  1  0.160491  0.160421  0.607070  1
  Tm  Tm2  1  0.839579  0.160491  0.392930  1
  Tm  Tm3  1  0.160421  0.839509  0.392930  1
  Tm  Tm4  1  0.339509  0.339579  0.392930  1
  Tm  Tm5  1  0.839509  0.160421  0.107070  1
  Tm  Tm6  1  0.339509  0.660421  0.892930  1
  Tm  Tm7  1  0.160491  0.839579  0.107070  1
  Tm  Tm8  1  0.500000  0.000000  0.749931  1
  Tm  Tm9  1  0.000000  0.500000  0.250069  1
  Tm  Tm10  1  0.339579  0.660491  0.607070  1
  Tm  Tm11  1  0.660421  0.660491  0.107070  1
  Tm  Tm12  1  0.660421  0.339509  0.607070  1
  Tm  Tm13  1  0.000000  0.500000  0.750069  1
  Tm  Tm14  1  0.839509  0.839579  0.607070  1
  Tm  Tm15  1  0.660491  0.339579  0.892930  1
  Tm  Tm16  1  0.160421  0.160491  0.892930  1
  Tm  Tm17  1  0.500000  0.000000  0.249931  1
  Tm  Tm18  1  0.660491  0.660421  0.392930  1
  Tm  Tm19  1  0.339579  0.339509  0.107070  1
  Ga  Ga20  1  0.632223  0.367777  0.250000  1
  Ga  Ga21  1  0.367777  0.632223  0.250000  1
  Ga  Ga22  1  0.132223  0.132223  0.250000  1
  Ga  Ga23  1  0.367777  0.367777  0.750000  1
  Ga  Ga24  1  0.132223  0.867777  0.750000  1
  Ga  Ga25  1  0.867777  0.867777  0.250000  1
  Ga  Ga26  1  0.632223  0.632223  0.750000  1
  Ga  Ga27  1  0.867777  0.132223  0.750000  1
  Pb  Pb28  1  0.000000  0.500000  0.000230  1
  Pb  Pb29  1  0.500000  0.000000  0.999770  1
  Pb  Pb30  1  0.500000  0.000000  0.499770  1
  Pb  Pb31  1  0.000000  0.500000  0.500230  1
