# generated using pymatgen
data_Tm12GaSi11Ir4
_symmetry_space_group_name_H-M   'P 1'
_cell_length_a   4.19105600
_cell_length_b   10.49376504
_cell_length_c   12.03634000
_cell_angle_alpha   90.00479933
_cell_angle_beta   90.00000000
_cell_angle_gamma   90.00000000
_symmetry_Int_Tables_number   1
_chemical_formula_structural   Tm12GaSi11Ir4
_chemical_formula_sum   'Tm12 Ga1 Si11 Ir4'
_cell_volume   529.35771282
_cell_formula_units_Z   1
loop_
 _symmetry_equiv_pos_site_id
 _symmetry_equiv_pos_as_xyz
  1  'x, y, z'
loop_
 _atom_site_type_symbol
 _atom_site_label
 _atom_site_symmetry_multiplicity
 _atom_site_fract_x
 _atom_site_fract_y
 _atom_site_fract_z
 _atom_site_occupancy
  Tm  Tm0  1  0.250000  0.878159  0.019533  1
  Tm  Tm1  1  0.250000  0.619822  0.520172  1
  Tm  Tm2  1  0.750000  0.121384  0.980386  1
  Tm  Tm3  1  0.750000  0.378411  0.479816  1
  Tm  Tm4  1  0.250000  0.918172  0.599051  1
  Tm  Tm5  1  0.250000  0.580735  0.104663  1
  Tm  Tm6  1  0.750000  0.080578  0.395977  1
  Tm  Tm7  1  0.750000  0.421773  0.898561  1
  Tm  Tm8  1  0.250000  0.659207  0.800528  1
  Tm  Tm9  1  0.250000  0.841896  0.300972  1
  Tm  Tm10  1  0.750000  0.340901  0.199746  1
  Tm  Tm11  1  0.750000  0.163250  0.700274  1
  Ga  Ga12  1  0.250000  0.015581  0.817628  1
  Si  Si13  1  0.250000  0.487061  0.321629  1
  Si  Si14  1  0.750000  0.987079  0.178202  1
  Si  Si15  1  0.750000  0.512235  0.679059  1
  Si  Si16  1  0.250000  0.254639  0.842045  1
  Si  Si17  1  0.250000  0.251685  0.341011  1
  Si  Si18  1  0.750000  0.751802  0.159588  1
  Si  Si19  1  0.750000  0.747572  0.658579  1
  Si  Si20  1  0.250000  0.195364  0.544415  1
  Si  Si21  1  0.250000  0.303625  0.044277  1
  Si  Si22  1  0.750000  0.800764  0.455492  1
  Si  Si23  1  0.750000  0.695262  0.958158  1
  Ir  Ir24  1  0.250000  0.392038  0.677640  1
  Ir  Ir25  1  0.250000  0.110115  0.177349  1
  Ir  Ir26  1  0.750000  0.608634  0.321009  1
  Ir  Ir27  1  0.750000  0.882255  0.824238  1
