# generated using pymatgen
data_HoTm3Lu2FeSb2
_symmetry_space_group_name_H-M   'P 1'
_cell_length_a   8.06400124
_cell_length_b   8.06524936
_cell_length_c   4.10407100
_cell_angle_alpha   90.00000000
_cell_angle_beta   90.00000000
_cell_angle_gamma   120.00511349
_symmetry_Int_Tables_number   1
_chemical_formula_structural   HoTm3Lu2FeSb2
_chemical_formula_sum   'Ho1 Tm3 Lu2 Fe1 Sb2'
_cell_volume   231.14872504
_cell_formula_units_Z   1
loop_
 _symmetry_equiv_pos_site_id
 _symmetry_equiv_pos_as_xyz
  1  'x, y, z'
loop_
 _atom_site_type_symbol
 _atom_site_label
 _atom_site_symmetry_multiplicity
 _atom_site_fract_x
 _atom_site_fract_y
 _atom_site_fract_z
 _atom_site_occupancy
  Ho  Ho0  1  0.000000  0.606910  0.500000  1
  Tm  Tm1  1  0.000000  0.233394  0.000000  1
  Tm  Tm2  1  0.393728  0.393434  0.500000  1
  Tm  Tm3  1  0.606272  0.999706  0.500000  1
  Lu  Lu4  1  0.233498  0.000364  0.000000  1
  Lu  Lu5  1  0.766502  0.766866  0.000000  1
  Fe  Fe6  1  0.000000  0.999260  0.500000  1
  Sb  Sb7  1  0.334650  0.667357  0.000000  1
  Sb  Sb8  1  0.665350  0.332706  0.000000  1
