# generated using pymatgen
data_HoLu11(CoTc)2
_symmetry_space_group_name_H-M   'P 1'
_cell_length_a   6.15220801
_cell_length_b   7.09546902
_cell_length_c   8.93556600
_cell_angle_alpha   90.00000000
_cell_angle_beta   90.00000000
_cell_angle_gamma   89.99231810
_symmetry_Int_Tables_number   1
_chemical_formula_structural   HoLu11(CoTc)2
_chemical_formula_sum   'Ho1 Lu11 Co2 Tc2'
_cell_volume   390.06248397
_cell_formula_units_Z   1
loop_
 _symmetry_equiv_pos_site_id
 _symmetry_equiv_pos_as_xyz
  1  'x, y, z'
loop_
 _atom_site_type_symbol
 _atom_site_label
 _atom_site_symmetry_multiplicity
 _atom_site_fract_x
 _atom_site_fract_y
 _atom_site_fract_z
 _atom_site_occupancy
  Ho  Ho0  1  0.642063  0.460329  0.750000  1
  Lu  Lu1  1  0.667326  0.172004  0.063499  1
  Lu  Lu2  1  0.373557  0.546971  0.250000  1
  Lu  Lu3  1  0.142874  0.040072  0.250000  1
  Lu  Lu4  1  0.824298  0.682891  0.434223  1
  Lu  Lu5  1  0.323304  0.817969  0.935272  1
  Lu  Lu6  1  0.166340  0.326701  0.562304  1
  Lu  Lu7  1  0.667326  0.172004  0.436501  1
  Lu  Lu8  1  0.166340  0.326701  0.937696  1
  Lu  Lu9  1  0.323304  0.817969  0.564728  1
  Lu  Lu10  1  0.874105  0.954029  0.750000  1
  Lu  Lu11  1  0.824298  0.682891  0.065777  1
  Co  Co12  1  0.538040  0.885651  0.250000  1
  Co  Co13  1  0.040554  0.615287  0.750000  1
  Tc  Tc14  1  0.963830  0.390556  0.250000  1
  Tc  Tc15  1  0.462440  0.107975  0.750000  1
