# generated using pymatgen
data_YEr3Co12(Ni2P3)4
_symmetry_space_group_name_H-M   'P 1'
_cell_length_a   3.67052600
_cell_length_b   10.24657230
_cell_length_c   11.81551634
_cell_angle_alpha   90.02767982
_cell_angle_beta   90.00000000
_cell_angle_gamma   90.00000000
_symmetry_Int_Tables_number   1
_chemical_formula_structural   YEr3Co12(Ni2P3)4
_chemical_formula_sum   'Y1 Er3 Co12 Ni8 P12'
_cell_volume   444.38518108
_cell_formula_units_Z   1
loop_
 _symmetry_equiv_pos_site_id
 _symmetry_equiv_pos_as_xyz
  1  'x, y, z'
loop_
 _atom_site_type_symbol
 _atom_site_label
 _atom_site_symmetry_multiplicity
 _atom_site_fract_x
 _atom_site_fract_y
 _atom_site_fract_z
 _atom_site_occupancy
  Y  Y0  1  0.250000  0.582162  0.703668  1
  Er  Er1  1  0.250000  0.918029  0.203642  1
  Er  Er2  1  0.750000  0.418027  0.296297  1
  Er  Er3  1  0.750000  0.081931  0.796410  1
  Co  Co4  1  0.250000  0.221521  0.176397  1
  Co  Co5  1  0.250000  0.278077  0.676291  1
  Co  Co6  1  0.750000  0.779140  0.823977  1
  Co  Co7  1  0.750000  0.721638  0.323500  1
  Co  Co8  1  0.250000  0.882072  0.697759  1
  Co  Co9  1  0.250000  0.618549  0.197841  1
  Co  Co10  1  0.750000  0.118540  0.302177  1
  Co  Co11  1  0.750000  0.380508  0.802645  1
  Co  Co12  1  0.250000  0.467120  0.933115  1
  Co  Co13  1  0.250000  0.032529  0.432396  1
  Co  Co14  1  0.750000  0.532436  0.067943  1
  Co  Co15  1  0.750000  0.967968  0.567369  1
  Ni  Ni16  1  0.250000  0.714170  0.990111  1
  Ni  Ni17  1  0.250000  0.786085  0.489878  1
  Ni  Ni18  1  0.750000  0.285816  0.010062  1
  Ni  Ni19  1  0.750000  0.213904  0.509729  1
  Ni  Ni20  1  0.250000  0.408227  0.484513  1
  Ni  Ni21  1  0.250000  0.091596  0.984758  1
  Ni  Ni22  1  0.750000  0.591471  0.514046  1
  Ni  Ni23  1  0.750000  0.908400  0.015292  1
  P  P24  1  0.250000  0.419515  0.113348  1
  P  P25  1  0.250000  0.080412  0.613122  1
  P  P26  1  0.750000  0.580483  0.887893  1
  P  P27  1  0.750000  0.919621  0.386772  1
  P  P28  1  0.250000  0.271271  0.865806  1
  P  P29  1  0.250000  0.228608  0.365754  1
  P  P30  1  0.750000  0.728710  0.134188  1
  P  P31  1  0.750000  0.772548  0.633739  1
  P  P32  1  0.250000  0.604273  0.387232  1
  P  P33  1  0.250000  0.895722  0.887240  1
  P  P34  1  0.750000  0.394640  0.612327  1
  P  P35  1  0.750000  0.104277  0.112762  1
