# generated using pymatgen
data_Nd16AlNi4Ag3
_symmetry_space_group_name_H-M   'P 1'
_cell_length_a   9.75324450
_cell_length_b   9.81251185
_cell_length_c   9.81251200
_cell_angle_alpha   59.99999951
_cell_angle_beta   59.79878011
_cell_angle_gamma   59.79877977
_symmetry_Int_Tables_number   1
_chemical_formula_structural   Nd16AlNi4Ag3
_chemical_formula_sum   'Nd16 Al1 Ni4 Ag3'
_cell_volume   662.01359652
_cell_formula_units_Z   1
loop_
 _symmetry_equiv_pos_site_id
 _symmetry_equiv_pos_as_xyz
  1  'x, y, z'
loop_
 _atom_site_type_symbol
 _atom_site_label
 _atom_site_symmetry_multiplicity
 _atom_site_fract_x
 _atom_site_fract_y
 _atom_site_fract_z
 _atom_site_occupancy
  Nd  Nd0  1  0.598743  0.600780  0.600780  1
  Nd  Nd1  1  0.598743  0.600780  0.199697  1
  Nd  Nd2  1  0.598743  0.199697  0.600780  1
  Nd  Nd3  1  0.196815  0.601062  0.601062  1
  Nd  Nd4  1  0.061014  0.439981  0.439981  1
  Nd  Nd5  1  0.442978  0.056089  0.056089  1
  Nd  Nd6  1  0.442978  0.056089  0.444844  1
  Nd  Nd7  1  0.061014  0.439981  0.059025  1
  Nd  Nd8  1  0.442978  0.444844  0.056089  1
  Nd  Nd9  1  0.061014  0.059025  0.439981  1
  Nd  Nd10  1  0.184631  0.813941  0.813941  1
  Nd  Nd11  1  0.811940  0.187667  0.187667  1
  Nd  Nd12  1  0.811940  0.187667  0.812726  1
  Nd  Nd13  1  0.184631  0.813941  0.187486  1
  Nd  Nd14  1  0.811940  0.812726  0.187667  1
  Nd  Nd15  1  0.184631  0.187486  0.813941  1
  Al  Al16  1  0.524177  0.825274  0.825274  1
  Ni  Ni17  1  0.392312  0.392762  0.392762  1
  Ni  Ni18  1  0.392312  0.392762  0.822165  1
  Ni  Ni19  1  0.392312  0.822165  0.392762  1
  Ni  Ni20  1  0.821437  0.392854  0.392854  1
  Ag  Ag21  1  0.827574  0.831287  0.831287  1
  Ag  Ag22  1  0.827574  0.831287  0.509852  1
  Ag  Ag23  1  0.827574  0.509852  0.831287  1
