# generated using pymatgen
data_UZnNi(AsO5)2
_symmetry_space_group_name_H-M   'P 1'
_cell_length_a   5.39651168
_cell_length_b   5.85989339
_cell_length_c   7.89450606
_cell_angle_alpha   110.96595128
_cell_angle_beta   113.18174619
_cell_angle_gamma   89.05788018
_symmetry_Int_Tables_number   1
_chemical_formula_structural   UZnNi(AsO5)2
_chemical_formula_sum   'U1 Zn1 Ni1 As2 O10'
_cell_volume   212.03490767
_cell_formula_units_Z   1
loop_
 _symmetry_equiv_pos_site_id
 _symmetry_equiv_pos_as_xyz
  1  'x, y, z'
loop_
 _atom_site_type_symbol
 _atom_site_label
 _atom_site_symmetry_multiplicity
 _atom_site_fract_x
 _atom_site_fract_y
 _atom_site_fract_z
 _atom_site_occupancy
  U  U0  1  0.000000  0.000000  0.000000  1
  Zn  Zn1  1  0.499999  0.500000  0.500000  1
  Ni  Ni2  1  0.499999  0.000000  0.500000  1
  As  As3  1  0.869921  0.632910  0.262486  1
  As  As4  1  0.130077  0.367090  0.737514  1
  O  O5  1  0.822736  0.325112  0.117360  1
  O  O6  1  0.807645  0.789713  0.106556  1
  O  O7  1  0.306851  0.111866  0.253762  1
  O  O8  1  0.636283  0.683027  0.363924  1
  O  O9  1  0.199670  0.724382  0.443516  1
  O  O10  1  0.800331  0.275617  0.556483  1
  O  O11  1  0.363716  0.316972  0.636076  1
  O  O12  1  0.693148  0.888133  0.746238  1
  O  O13  1  0.192354  0.210288  0.893445  1
  O  O14  1  0.177263  0.674887  0.882641  1
