# generated using pymatgen
data_Ho8NbW3C8
_symmetry_space_group_name_H-M   'P 1'
_cell_length_a   5.76641450
_cell_length_b   5.76641477
_cell_length_c   9.83137300
_cell_angle_alpha   90.00000000
_cell_angle_beta   90.00000000
_cell_angle_gamma   90.56821380
_symmetry_Int_Tables_number   1
_chemical_formula_structural   Ho8NbW3C8
_chemical_formula_sum   'Ho8 Nb1 W3 C8'
_cell_volume   326.89219508
_cell_formula_units_Z   1
loop_
 _symmetry_equiv_pos_site_id
 _symmetry_equiv_pos_as_xyz
  1  'x, y, z'
loop_
 _atom_site_type_symbol
 _atom_site_label
 _atom_site_symmetry_multiplicity
 _atom_site_fract_x
 _atom_site_fract_y
 _atom_site_fract_z
 _atom_site_occupancy
  Ho  Ho0  1  0.199120  0.199120  0.343213  1
  Ho  Ho1  1  0.798915  0.798915  0.656256  1
  Ho  Ho2  1  0.298233  0.702509  0.840842  1
  Ho  Ho3  1  0.798915  0.798915  0.343744  1
  Ho  Ho4  1  0.199120  0.199120  0.656787  1
  Ho  Ho5  1  0.702509  0.298233  0.159158  1
  Ho  Ho6  1  0.702509  0.298233  0.840842  1
  Ho  Ho7  1  0.298233  0.702509  0.159158  1
  Nb  Nb8  1  0.183885  0.183885  0.000000  1
  W  W9  1  0.825667  0.825667  0.000000  1
  W  W10  1  0.321829  0.676729  0.500000  1
  W  W11  1  0.676729  0.321829  0.500000  1
  C  C12  1  0.997428  0.997428  0.156440  1
  C  C13  1  0.499860  0.499860  0.345341  1
  C  C14  1  0.499860  0.499860  0.654659  1
  C  C15  1  0.508158  0.991403  0.000000  1
  C  C16  1  0.991403  0.508158  0.000000  1
  C  C17  1  0.997428  0.997428  0.843560  1
  C  C18  1  0.500373  0.999829  0.500000  1
  C  C19  1  0.999829  0.500373  0.500000  1
