# generated using pymatgen
data_Rb2Th2CuAgTe6
_symmetry_space_group_name_H-M   'P 1'
_cell_length_a   4.52021200
_cell_length_b   8.55853238
_cell_length_c   11.69684748
_cell_angle_alpha   89.84218374
_cell_angle_beta   90.00000000
_cell_angle_gamma   74.68791640
_symmetry_Int_Tables_number   1
_chemical_formula_structural   Rb2Th2CuAgTe6
_chemical_formula_sum   'Rb2 Th2 Cu1 Ag1 Te6'
_cell_volume   436.44364694
_cell_formula_units_Z   1
loop_
 _symmetry_equiv_pos_site_id
 _symmetry_equiv_pos_as_xyz
  1  'x, y, z'
loop_
 _atom_site_type_symbol
 _atom_site_label
 _atom_site_symmetry_multiplicity
 _atom_site_fract_x
 _atom_site_fract_y
 _atom_site_fract_z
 _atom_site_occupancy
  Rb  Rb0  1  0.247024  0.505954  0.248528  1
  Rb  Rb1  1  0.747372  0.505254  0.747472  1
  Th  Th2  1  0.998653  0.002694  0.494704  1
  Th  Th3  1  0.001196  0.997608  0.994103  1
  Cu  Cu4  1  0.472313  0.055374  0.746142  1
  Ag  Ag5  1  0.531398  0.937203  0.244920  1
  Te  Te6  1  0.627265  0.745469  0.444748  1
  Te  Te7  1  0.376130  0.247741  0.562594  1
  Te  Te8  1  0.629564  0.740871  0.047650  1
  Te  Te9  1  0.377830  0.244341  0.929166  1
  Te  Te10  1  0.926087  0.147826  0.243566  1
  Te  Te11  1  0.065168  0.869664  0.744229  1
