# generated using pymatgen
data_Tm10In8Ir3Rh
_symmetry_space_group_name_H-M   'P 1'
_cell_length_a   3.55382900
_cell_length_b   7.99816939
_cell_length_c   18.17577247
_cell_angle_alpha   90.08874916
_cell_angle_beta   90.00000000
_cell_angle_gamma   90.00000000
_symmetry_Int_Tables_number   1
_chemical_formula_structural   Tm10In8Ir3Rh
_chemical_formula_sum   'Tm10 In8 Ir3 Rh1'
_cell_volume   516.62983300
_cell_formula_units_Z   1
loop_
 _symmetry_equiv_pos_site_id
 _symmetry_equiv_pos_as_xyz
  1  'x, y, z'
loop_
 _atom_site_type_symbol
 _atom_site_label
 _atom_site_symmetry_multiplicity
 _atom_site_fract_x
 _atom_site_fract_y
 _atom_site_fract_z
 _atom_site_occupancy
  Tm  Tm0  1  0.000000  0.499512  0.499891  1
  Tm  Tm1  1  0.000000  0.999637  0.999967  1
  Tm  Tm2  1  0.000000  0.743382  0.277723  1
  Tm  Tm3  1  0.000000  0.254924  0.721897  1
  Tm  Tm4  1  0.000000  0.754751  0.778474  1
  Tm  Tm5  1  0.000000  0.247548  0.221035  1
  Tm  Tm6  1  0.000000  0.617609  0.086721  1
  Tm  Tm7  1  0.000000  0.382287  0.913597  1
  Tm  Tm8  1  0.000000  0.882073  0.586569  1
  Tm  Tm9  1  0.000000  0.117233  0.412577  1
  In  In10  1  0.500000  0.707906  0.933253  1
  In  In11  1  0.500000  0.291834  0.067134  1
  In  In12  1  0.500000  0.792406  0.432689  1
  In  In13  1  0.500000  0.207576  0.566619  1
  In  In14  1  0.500000  0.571094  0.648907  1
  In  In15  1  0.500000  0.428426  0.351174  1
  In  In16  1  0.500000  0.929926  0.149281  1
  In  In17  1  0.500000  0.071073  0.851423  1
  Ir  Ir18  1  0.500000  0.524113  0.196303  1
  Ir  Ir19  1  0.500000  0.475319  0.804112  1
  Ir  Ir20  1  0.500000  0.975852  0.695983  1
  Rh  Rh21  1  0.500000  0.025520  0.304671  1
