# generated using pymatgen
data_Pr3TaZn2Ir3
_symmetry_space_group_name_H-M   'P 1'
_cell_length_a   7.27236745
_cell_length_b   7.06260292
_cell_length_c   4.32578400
_cell_angle_alpha   90.00000000
_cell_angle_beta   90.00000000
_cell_angle_gamma   119.05032989
_symmetry_Int_Tables_number   1
_chemical_formula_structural   Pr3TaZn2Ir3
_chemical_formula_sum   'Pr3 Ta1 Zn2 Ir3'
_cell_volume   194.22852317
_cell_formula_units_Z   1
loop_
 _symmetry_equiv_pos_site_id
 _symmetry_equiv_pos_as_xyz
  1  'x, y, z'
loop_
 _atom_site_type_symbol
 _atom_site_label
 _atom_site_symmetry_multiplicity
 _atom_site_fract_x
 _atom_site_fract_y
 _atom_site_fract_z
 _atom_site_occupancy
  Pr  Pr0  1  0.568621  0.582204  0.000000  1
  Pr  Pr1  1  0.431379  0.013582  0.000000  1
  Pr  Pr2  1  0.000000  0.392338  0.000000  1
  Ta  Ta3  1  0.000000  0.762783  0.500000  1
  Zn  Zn4  1  0.237015  0.237921  0.500000  1
  Zn  Zn5  1  0.762985  0.000906  0.500000  1
  Ir  Ir6  1  0.000000  0.964197  0.000000  1
  Ir  Ir7  1  0.690024  0.368047  0.500000  1
  Ir  Ir8  1  0.309976  0.678024  0.500000  1
