# generated using pymatgen
data_Sc12Co2SiBr16
_symmetry_space_group_name_H-M   'P 1'
_cell_length_a   8.84776155
_cell_length_b   10.93040452
_cell_length_c   11.54255396
_cell_angle_alpha   117.12486089
_cell_angle_beta   101.78345718
_cell_angle_gamma   101.35909253
_symmetry_Int_Tables_number   1
_chemical_formula_structural   Sc12Co2SiBr16
_chemical_formula_sum   'Sc12 Co2 Si1 Br16'
_cell_volume   917.08377762
_cell_formula_units_Z   1
loop_
 _symmetry_equiv_pos_site_id
 _symmetry_equiv_pos_as_xyz
  1  'x, y, z'
loop_
 _atom_site_type_symbol
 _atom_site_label
 _atom_site_symmetry_multiplicity
 _atom_site_fract_x
 _atom_site_fract_y
 _atom_site_fract_z
 _atom_site_occupancy
  Sc  Sc0  1  0.088001  0.254861  0.349187  1
  Sc  Sc1  1  0.911999  0.745139  0.650813  1
  Sc  Sc2  1  0.771750  0.537520  0.319045  1
  Sc  Sc3  1  0.228250  0.462480  0.680955  1
  Sc  Sc4  1  0.288509  0.745775  0.650532  1
  Sc  Sc5  1  0.711491  0.254225  0.349468  1
  Sc  Sc6  1  0.148238  0.537306  0.319339  1
  Sc  Sc7  1  0.851762  0.462694  0.680661  1
  Sc  Sc8  1  0.402371  0.353235  0.266094  1
  Sc  Sc9  1  0.597629  0.646765  0.733906  1
  Sc  Sc10  1  0.457181  0.303064  0.521012  1
  Sc  Sc11  1  0.542819  0.696936  0.478988  1
  Co  Co12  1  0.339770  0.500125  0.499303  1
  Co  Co13  1  0.660231  0.499875  0.500697  1
  Si  Si14  1  0.000000  0.500000  0.500000  1
  Br  Br15  1  0.399317  0.746128  0.891387  1
  Br  Br16  1  0.600683  0.253872  0.108613  1
  Br  Br17  1  0.191248  0.972375  0.786645  1
  Br  Br18  1  0.808752  0.027625  0.213355  1
  Br  Br19  1  0.334282  0.086395  0.245881  1
  Br  Br20  1  0.665718  0.913605  0.754119  1
  Br  Br21  1  0.557019  0.437002  0.804731  1
  Br  Br22  1  0.442981  0.562998  0.195269  1
  Br  Br23  1  0.311235  0.832421  0.462368  1
  Br  Br24  1  0.688765  0.167579  0.537632  1
  Br  Br25  1  0.166598  0.166588  0.533966  1
  Br  Br26  1  0.833402  0.833412  0.466034  1
  Br  Br27  1  0.926552  0.578905  0.157737  1
  Br  Br28  1  0.073448  0.421095  0.842263  1
  Br  Br29  1  0.926715  0.744831  0.891791  1
  Br  Br30  1  0.073285  0.255169  0.108209  1
