# generated using pymatgen
data_Ho4Er7TmOs4
_symmetry_space_group_name_H-M   'P 1'
_cell_length_a   6.27764340
_cell_length_b   7.36920200
_cell_length_c   8.97765994
_cell_angle_alpha   90.00034588
_cell_angle_beta   89.97892176
_cell_angle_gamma   89.98054522
_symmetry_Int_Tables_number   1
_chemical_formula_structural   Ho4Er7TmOs4
_chemical_formula_sum   'Ho4 Er7 Tm1 Os4'
_cell_volume   415.31747018
_cell_formula_units_Z   1
loop_
 _symmetry_equiv_pos_site_id
 _symmetry_equiv_pos_as_xyz
  1  'x, y, z'
loop_
 _atom_site_type_symbol
 _atom_site_label
 _atom_site_symmetry_multiplicity
 _atom_site_fract_x
 _atom_site_fract_y
 _atom_site_fract_z
 _atom_site_occupancy
  Ho  Ho0  1  0.870258  0.538585  0.249960  1
  Ho  Ho1  1  0.629737  0.038456  0.249956  1
  Ho  Ho2  1  0.129887  0.461594  0.750043  1
  Ho  Ho3  1  0.370178  0.961440  0.750033  1
  Er  Er4  1  0.166900  0.175305  0.437146  1
  Er  Er5  1  0.666914  0.324692  0.562776  1
  Er  Er6  1  0.833062  0.824677  0.937301  1
  Er  Er7  1  0.666804  0.324809  0.937252  1
  Er  Er8  1  0.833138  0.824684  0.562788  1
  Er  Er9  1  0.333092  0.675308  0.437022  1
  Er  Er10  1  0.166978  0.175251  0.062786  1
  Tm  Tm11  1  0.333063  0.675162  0.062978  1
  Os  Os12  1  0.041014  0.882299  0.249934  1
  Os  Os13  1  0.459061  0.382674  0.249931  1
  Os  Os14  1  0.959185  0.117498  0.750027  1
  Os  Os15  1  0.540729  0.617566  0.750067  1
