# generated using pymatgen
data_Yb3Er(MnB4)4
_symmetry_space_group_name_H-M   'P 1'
_cell_length_a   5.90127814
_cell_length_b   11.41403827
_cell_length_c   3.37015000
_cell_angle_alpha   90.00000000
_cell_angle_beta   90.00000000
_cell_angle_gamma   90.02482138
_symmetry_Int_Tables_number   1
_chemical_formula_structural   Yb3Er(MnB4)4
_chemical_formula_sum   'Yb3 Er1 Mn4 B16'
_cell_volume   227.00456918
_cell_formula_units_Z   1
loop_
 _symmetry_equiv_pos_site_id
 _symmetry_equiv_pos_as_xyz
  1  'x, y, z'
loop_
 _atom_site_type_symbol
 _atom_site_label
 _atom_site_symmetry_multiplicity
 _atom_site_fract_x
 _atom_site_fract_y
 _atom_site_fract_z
 _atom_site_occupancy
  Yb  Yb0  1  0.125340  0.151121  0.000000  1
  Yb  Yb1  1  0.875121  0.849358  0.000000  1
  Yb  Yb2  1  0.625567  0.348628  0.000000  1
  Er  Er3  1  0.374039  0.651002  0.000000  1
  Mn  Mn4  1  0.122792  0.421519  0.000000  1
  Mn  Mn5  1  0.877766  0.580185  0.000000  1
  Mn  Mn6  1  0.624524  0.080157  0.000000  1
  Mn  Mn7  1  0.376842  0.918419  0.000000  1
  B  B8  1  0.475052  0.190854  0.499999  1
  B  B9  1  0.524506  0.808799  0.499999  1
  B  B10  1  0.976539  0.309576  0.499999  1
  B  B11  1  0.024719  0.691306  0.499999  1
  B  B12  1  0.278483  0.317158  0.499999  1
  B  B13  1  0.720632  0.683003  0.499999  1
  B  B14  1  0.779842  0.183229  0.499999  1
  B  B15  1  0.220116  0.816912  0.499999  1
  B  B16  1  0.361566  0.467472  0.499999  1
  B  B17  1  0.638369  0.532815  0.499999  1
  B  B18  1  0.862240  0.032331  0.499999  1
  B  B19  1  0.137935  0.967074  0.499999  1
  B  B20  1  0.385731  0.045958  0.499999  1
  B  B21  1  0.612697  0.952508  0.499999  1
  B  B22  1  0.886992  0.453465  0.499999  1
  B  B23  1  0.112587  0.547153  0.499999  1
