# generated using pymatgen
data_Tl5ZnIO12
_symmetry_space_group_name_H-M   'P 1'
_cell_length_a   6.54011792
_cell_length_b   6.31382842
_cell_length_c   6.58876000
_cell_angle_alpha   99.42873531
_cell_angle_beta   99.15988965
_cell_angle_gamma   96.27012354
_symmetry_Int_Tables_number   1
_chemical_formula_structural   Tl5ZnIO12
_chemical_formula_sum   'Tl5 Zn1 I1 O12'
_cell_volume   262.40339399
_cell_formula_units_Z   1
loop_
 _symmetry_equiv_pos_site_id
 _symmetry_equiv_pos_as_xyz
  1  'x, y, z'
loop_
 _atom_site_type_symbol
 _atom_site_label
 _atom_site_symmetry_multiplicity
 _atom_site_fract_x
 _atom_site_fract_y
 _atom_site_fract_z
 _atom_site_occupancy
  Tl  Tl0  1  0.388990  0.693843  0.853756  1
  Tl  Tl1  1  0.867616  0.383732  0.686229  1
  Tl  Tl2  1  0.681007  0.859505  0.396031  1
  Tl  Tl3  1  0.603361  0.303356  0.127627  1
  Tl  Tl4  1  0.146221  0.614538  0.324750  1
  Zn  Zn5  1  0.342214  0.158825  0.587496  1
  I  I6  1  0.000635  0.998634  0.006263  1
  O  O7  1  0.182141  0.408995  0.600716  1
  O  O8  1  0.591531  0.179903  0.417467  1
  O  O9  1  0.418945  0.604178  0.167717  1
  O  O10  1  0.827827  0.574583  0.397561  1
  O  O11  1  0.393199  0.849912  0.581865  1
  O  O12  1  0.576867  0.385020  0.816040  1
  O  O13  1  0.917248  0.021978  0.718869  1
  O  O14  1  0.974490  0.299353  0.076448  1
  O  O15  1  0.286053  0.056718  0.980239  1
  O  O16  1  0.070974  0.976161  0.295392  1
  O  O17  1  0.022002  0.696747  0.931837  1
  O  O18  1  0.708677  0.934018  0.033698  1
