# generated using pymatgen
data_Y2Tm4Al15Si9Os8
_symmetry_space_group_name_H-M   'P 1'
_cell_length_a   8.67509174
_cell_length_b   8.67205083
_cell_length_c   9.33640100
_cell_angle_alpha   90.00000000
_cell_angle_beta   90.00000000
_cell_angle_gamma   120.05895079
_symmetry_Int_Tables_number   1
_chemical_formula_structural   Y2Tm4Al15Si9Os8
_chemical_formula_sum   'Y2 Tm4 Al15 Si9 Os8'
_cell_volume   607.92181753
_cell_formula_units_Z   1
loop_
 _symmetry_equiv_pos_site_id
 _symmetry_equiv_pos_as_xyz
  1  'x, y, z'
loop_
 _atom_site_type_symbol
 _atom_site_label
 _atom_site_symmetry_multiplicity
 _atom_site_fract_x
 _atom_site_fract_y
 _atom_site_fract_z
 _atom_site_occupancy
  Y  Y0  1  0.192225  0.386672  0.250000  1
  Y  Y1  1  0.808666  0.614612  0.750000  1
  Tm  Tm2  1  0.608850  0.805223  0.250000  1
  Tm  Tm3  1  0.389656  0.193158  0.750000  1
  Tm  Tm4  1  0.195840  0.803955  0.250000  1
  Tm  Tm5  1  0.804767  0.195406  0.750000  1
  Al  Al6  1  0.165434  0.328516  0.579353  1
  Al  Al7  1  0.836363  0.671845  0.419071  1
  Al  Al8  1  0.671251  0.834932  0.578117  1
  Al  Al9  1  0.836363  0.671845  0.080929  1
  Al  Al10  1  0.328489  0.163451  0.420100  1
  Al  Al11  1  0.165434  0.328516  0.920647  1
  Al  Al12  1  0.164605  0.836244  0.578725  1
  Al  Al13  1  0.328489  0.163451  0.079900  1
  Al  Al14  1  0.834926  0.164119  0.420868  1
  Al  Al15  1  0.671251  0.834932  0.921883  1
  Al  Al16  1  0.834926  0.164119  0.079132  1
  Al  Al17  1  0.164605  0.836244  0.921275  1
  Al  Al18  1  0.435392  0.564572  0.750000  1
  Al  Al19  1  0.998457  0.996163  0.250000  1
  Al  Al20  1  0.001904  0.003486  0.750000  1
  Si  Si21  1  0.334349  0.665634  0.040224  1
  Si  Si22  1  0.666002  0.333957  0.958511  1
  Si  Si23  1  0.666002  0.333957  0.541489  1
  Si  Si24  1  0.334349  0.665634  0.459776  1
  Si  Si25  1  0.561271  0.124024  0.250000  1
  Si  Si26  1  0.436462  0.875859  0.750000  1
  Si  Si27  1  0.874853  0.438582  0.250000  1
  Si  Si28  1  0.124927  0.563557  0.750000  1
  Si  Si29  1  0.563553  0.437324  0.250000  1
  Os  Os30  1  0.500092  0.000746  0.000536  1
  Os  Os31  1  0.999190  0.499852  0.000586  1
  Os  Os32  1  0.500092  0.000746  0.499464  1
  Os  Os33  1  0.501009  0.499181  0.006636  1
  Os  Os34  1  0.999190  0.499852  0.499414  1
  Os  Os35  1  0.501009  0.499181  0.493364  1
  Os  Os36  1  0.999880  0.000227  0.999861  1
  Os  Os37  1  0.999880  0.000227  0.500139  1
