# generated using pymatgen
data_TbTm2Zn2Co9B4
_symmetry_space_group_name_H-M   'P 1'
_cell_length_a   5.08577429
_cell_length_b   5.08473973
_cell_length_c   9.68685700
_cell_angle_alpha   89.99995801
_cell_angle_beta   90.00011577
_cell_angle_gamma   119.95800893
_symmetry_Int_Tables_number   1
_chemical_formula_structural   TbTm2Zn2Co9B4
_chemical_formula_sum   'Tb1 Tm2 Zn2 Co9 B4'
_cell_volume   217.03158269
_cell_formula_units_Z   1
loop_
 _symmetry_equiv_pos_site_id
 _symmetry_equiv_pos_as_xyz
  1  'x, y, z'
loop_
 _atom_site_type_symbol
 _atom_site_label
 _atom_site_symmetry_multiplicity
 _atom_site_fract_x
 _atom_site_fract_y
 _atom_site_fract_z
 _atom_site_occupancy
  Tb  Tb0  1  0.999986  0.999999  0.999935  1
  Tm  Tm1  1  0.999996  0.000001  0.342349  1
  Tm  Tm2  1  0.000001  0.000002  0.657796  1
  Zn  Zn3  1  0.333288  0.666648  0.999926  1
  Zn  Zn4  1  0.666687  0.333351  0.999926  1
  Co  Co5  1  0.499998  0.000000  0.500082  1
  Co  Co6  1  0.499997  0.500000  0.500080  1
  Co  Co7  1  0.999996  0.499999  0.500072  1
  Co  Co8  1  0.499993  0.000000  0.210808  1
  Co  Co9  1  0.499993  0.500001  0.210796  1
  Co  Co10  1  0.999992  0.499999  0.210808  1
  Co  Co11  1  0.499998  0.999999  0.789167  1
  Co  Co12  1  0.499999  0.500002  0.789149  1
  Co  Co13  1  0.999995  0.499998  0.789177  1
  B  B14  1  0.333435  0.666581  0.351019  1
  B  B15  1  0.666553  0.333421  0.351020  1
  B  B16  1  0.666605  0.333308  0.648946  1
  B  B17  1  0.333392  0.666692  0.648946  1
