# generated using pymatgen
data_Pr17Y3(Ga5Sn)2
_symmetry_space_group_name_H-M   'P 1'
_cell_length_a   7.95664500
_cell_length_b   7.95664500
_cell_length_c   14.70178500
_cell_angle_alpha   90.00000000
_cell_angle_beta   90.00000000
_cell_angle_gamma   90.00000000
_symmetry_Int_Tables_number   1
_chemical_formula_structural   Pr17Y3(Ga5Sn)2
_chemical_formula_sum   'Pr17 Y3 Ga10 Sn2'
_cell_volume   930.74354008
_cell_formula_units_Z   1
loop_
 _symmetry_equiv_pos_site_id
 _symmetry_equiv_pos_as_xyz
  1  'x, y, z'
loop_
 _atom_site_type_symbol
 _atom_site_label
 _atom_site_symmetry_multiplicity
 _atom_site_fract_x
 _atom_site_fract_y
 _atom_site_fract_z
 _atom_site_occupancy
  Pr  Pr0  1  0.817556  0.839481  0.608724  1
  Pr  Pr1  1  0.179238  0.838157  0.101146  1
  Pr  Pr2  1  0.161627  0.821444  0.390487  1
  Pr  Pr3  1  0.838373  0.178556  0.390487  1
  Pr  Pr4  1  0.678556  0.661627  0.390487  1
  Pr  Pr5  1  0.660519  0.317556  0.608724  1
  Pr  Pr6  1  0.339481  0.682444  0.608724  1
  Pr  Pr7  1  0.661843  0.679238  0.101146  1
  Pr  Pr8  1  0.684269  0.342432  0.898673  1
  Pr  Pr9  1  0.842432  0.815731  0.898673  1
  Pr  Pr10  1  0.321444  0.338373  0.390487  1
  Pr  Pr11  1  0.182444  0.160519  0.608724  1
  Pr  Pr12  1  0.820762  0.161843  0.101146  1
  Pr  Pr13  1  0.315731  0.657568  0.898673  1
  Pr  Pr14  1  0.338157  0.320762  0.101146  1
  Pr  Pr15  1  0.157568  0.184269  0.898673  1
  Pr  Pr16  1  0.500000  0.000000  0.792962  1
  Y  Y17  1  0.000000  0.500000  0.736033  1
  Y  Y18  1  0.000000  0.500000  0.220158  1
  Y  Y19  1  0.500000  0.000000  0.256379  1
  Ga  Ga20  1  0.622681  0.375911  0.247269  1
  Ga  Ga21  1  0.118465  0.874559  0.750916  1
  Ga  Ga22  1  0.374559  0.381535  0.750916  1
  Ga  Ga23  1  0.377319  0.624089  0.247269  1
  Ga  Ga24  1  0.875911  0.877319  0.247269  1
  Ga  Ga25  1  0.625441  0.618465  0.750916  1
  Ga  Ga26  1  0.881535  0.125441  0.750916  1
  Ga  Ga27  1  0.500000  0.000000  0.003027  1
  Ga  Ga28  1  0.124089  0.122681  0.247269  1
  Ga  Ga29  1  0.000000  0.500000  0.008196  1
  Sn  Sn30  1  0.000000  0.500000  0.511527  1
  Sn  Sn31  1  0.500000  0.000000  0.482855  1
