# generated using pymatgen
data_TbDy5Hf2(Co4P3)4
_symmetry_space_group_name_H-M   'P 1'
_cell_length_a   3.71316700
_cell_length_b   10.67092300
_cell_length_c   12.37866300
_cell_angle_alpha   90.00000000
_cell_angle_beta   90.00000000
_cell_angle_gamma   90.00000000
_symmetry_Int_Tables_number   1
_chemical_formula_structural   TbDy5Hf2(Co4P3)4
_chemical_formula_sum   'Tb1 Dy5 Hf2 Co16 P12'
_cell_volume   490.47876315
_cell_formula_units_Z   1
loop_
 _symmetry_equiv_pos_site_id
 _symmetry_equiv_pos_as_xyz
  1  'x, y, z'
loop_
 _atom_site_type_symbol
 _atom_site_label
 _atom_site_symmetry_multiplicity
 _atom_site_fract_x
 _atom_site_fract_y
 _atom_site_fract_z
 _atom_site_occupancy
  Tb  Tb0  1  0.000000  0.500000  0.528437  1
  Dy  Dy1  1  0.500000  0.000000  0.471613  1
  Dy  Dy2  1  0.500000  0.821818  0.204597  1
  Dy  Dy3  1  0.500000  0.178182  0.204597  1
  Dy  Dy4  1  0.000000  0.678194  0.795409  1
  Dy  Dy5  1  0.000000  0.321806  0.795409  1
  Hf  Hf6  1  0.500000  0.500000  0.157192  1
  Hf  Hf7  1  0.000000  0.000000  0.842806  1
  Co  Co8  1  0.500000  0.500000  0.703251  1
  Co  Co9  1  0.000000  0.000000  0.296835  1
  Co  Co10  1  0.000000  0.500000  0.986815  1
  Co  Co11  1  0.500000  0.000000  0.013190  1
  Co  Co12  1  0.500000  0.332106  0.993400  1
  Co  Co13  1  0.500000  0.667894  0.993400  1
  Co  Co14  1  0.000000  0.167894  0.006601  1
  Co  Co15  1  0.000000  0.832106  0.006601  1
  Co  Co16  1  0.500000  0.295131  0.432925  1
  Co  Co17  1  0.500000  0.704869  0.432925  1
  Co  Co18  1  0.000000  0.204787  0.567067  1
  Co  Co19  1  0.000000  0.795213  0.567067  1
  Co  Co20  1  0.500000  0.877919  0.703053  1
  Co  Co21  1  0.500000  0.122081  0.703053  1
  Co  Co22  1  0.000000  0.622079  0.296913  1
  Co  Co23  1  0.000000  0.377921  0.296913  1
  P  P24  1  0.500000  0.500000  0.883417  1
  P  P25  1  0.000000  0.000000  0.116586  1
  P  P26  1  0.500000  0.500000  0.361465  1
  P  P27  1  0.000000  0.000000  0.638418  1
  P  P28  1  0.500000  0.309876  0.615537  1
  P  P29  1  0.500000  0.690124  0.615537  1
  P  P30  1  0.000000  0.190036  0.384486  1
  P  P31  1  0.000000  0.809964  0.384486  1
  P  P32  1  0.500000  0.838663  0.893282  1
  P  P33  1  0.500000  0.161337  0.893282  1
  P  P34  1  0.000000  0.661335  0.106719  1
  P  P35  1  0.000000  0.338665  0.106719  1
