# generated using pymatgen
data_SiH3F7
_symmetry_space_group_name_H-M   'P 1'
_cell_length_a   5.25020584
_cell_length_b   4.81903767
_cell_length_c   6.47335588
_cell_angle_alpha   88.48553062
_cell_angle_beta   79.63910234
_cell_angle_gamma   73.76763636
_symmetry_Int_Tables_number   1
_chemical_formula_structural   SiH3F7
_chemical_formula_sum   'Si1 H3 F7'
_cell_volume   154.63957182
_cell_formula_units_Z   1
loop_
 _symmetry_equiv_pos_site_id
 _symmetry_equiv_pos_as_xyz
  1  'x, y, z'
loop_
 _atom_site_type_symbol
 _atom_site_label
 _atom_site_symmetry_multiplicity
 _atom_site_fract_x
 _atom_site_fract_y
 _atom_site_fract_z
 _atom_site_occupancy
  Si  Si0  1  0.639350  0.788401  0.668676  1
  H  H1  1  0.441303  0.387548  0.232702  1
  H  H2  1  0.834169  0.277828  0.099171  1
  H  H3  1  0.157566  0.196009  0.216631  1
  F  F4  1  0.592518  0.012129  0.855827  1
  F  F5  1  0.362605  0.729508  0.649329  1
  F  F6  1  0.020854  0.140147  0.069312  1
  F  F7  1  0.253186  0.254315  0.324249  1
  F  F8  1  0.758209  0.917275  0.457644  1
  F  F9  1  0.584457  0.482428  0.164486  1
  F  F10  1  0.846770  0.494372  0.711504  1
