# generated using pymatgen
data_Ca2Zn9Au8
_symmetry_space_group_name_H-M   'P 1'
_cell_length_a   7.04624701
_cell_length_b   7.04624657
_cell_length_c   6.98367915
_cell_angle_alpha   83.66013941
_cell_angle_beta   83.66014908
_cell_angle_gamma   82.60904957
_symmetry_Int_Tables_number   1
_chemical_formula_structural   Ca2Zn9Au8
_chemical_formula_sum   'Ca2 Zn9 Au8'
_cell_volume   340.12065393
_cell_formula_units_Z   1
loop_
 _symmetry_equiv_pos_site_id
 _symmetry_equiv_pos_as_xyz
  1  'x, y, z'
loop_
 _atom_site_type_symbol
 _atom_site_label
 _atom_site_symmetry_multiplicity
 _atom_site_fract_x
 _atom_site_fract_y
 _atom_site_fract_z
 _atom_site_occupancy
  Ca  Ca0  1  0.339283  0.339283  0.348893  1
  Ca  Ca1  1  0.660717  0.660717  0.651107  1
  Zn  Zn2  1  0.000000  0.000000  0.500000  1
  Zn  Zn3  1  0.000000  0.500000  0.000000  1
  Zn  Zn4  1  0.500000  0.000000  0.000000  1
  Zn  Zn5  1  0.711075  0.288925  0.000000  1
  Zn  Zn6  1  0.288925  0.711075  0.000000  1
  Zn  Zn7  1  0.151131  0.657511  0.655691  1
  Zn  Zn8  1  0.657511  0.151131  0.655691  1
  Zn  Zn9  1  0.342489  0.848869  0.344309  1
  Zn  Zn10  1  0.848869  0.342489  0.344309  1
  Au  Au11  1  0.316561  0.987389  0.690465  1
  Au  Au12  1  0.012611  0.683439  0.309535  1
  Au  Au13  1  0.683439  0.012611  0.309535  1
  Au  Au14  1  0.987389  0.316561  0.690465  1
  Au  Au15  1  0.627102  0.627102  0.165275  1
  Au  Au16  1  0.372898  0.372898  0.834725  1
  Au  Au17  1  0.112254  0.112254  0.107074  1
  Au  Au18  1  0.887746  0.887746  0.892926  1
