# generated using pymatgen
data_TmTh5Ir18
_symmetry_space_group_name_H-M   'P 1'
_cell_length_a   5.36892000
_cell_length_b   5.36891904
_cell_length_c   17.72469400
_cell_angle_alpha   90.00000000
_cell_angle_beta   90.00000000
_cell_angle_gamma   120.00000593
_symmetry_Int_Tables_number   1
_chemical_formula_structural   TmTh5Ir18
_chemical_formula_sum   'Tm1 Th5 Ir18'
_cell_volume   442.46929638
_cell_formula_units_Z   1
loop_
 _symmetry_equiv_pos_site_id
 _symmetry_equiv_pos_as_xyz
  1  'x, y, z'
loop_
 _atom_site_type_symbol
 _atom_site_label
 _atom_site_symmetry_multiplicity
 _atom_site_fract_x
 _atom_site_fract_y
 _atom_site_fract_z
 _atom_site_occupancy
  Tm  Tm0  1  0.333333  0.666667  0.542959  1
  Th  Th1  1  0.333333  0.666667  0.956884  1
  Th  Th2  1  0.666667  0.333333  0.042240  1
  Th  Th3  1  0.666667  0.333333  0.460705  1
  Th  Th4  1  0.333333  0.666667  0.746376  1
  Th  Th5  1  0.666667  0.333333  0.251436  1
  Ir  Ir6  1  0.167305  0.832695  0.374534  1
  Ir  Ir7  1  0.167305  0.334610  0.374534  1
  Ir  Ir8  1  0.665390  0.832695  0.374534  1
  Ir  Ir9  1  0.832947  0.167053  0.625393  1
  Ir  Ir10  1  0.832947  0.665893  0.625393  1
  Ir  Ir11  1  0.334107  0.167053  0.625393  1
  Ir  Ir12  1  0.832883  0.167117  0.872236  1
  Ir  Ir13  1  0.832883  0.665764  0.872236  1
  Ir  Ir14  1  0.334236  0.167117  0.872236  1
  Ir  Ir15  1  0.167189  0.832811  0.127377  1
  Ir  Ir16  1  0.167189  0.334379  0.127377  1
  Ir  Ir17  1  0.665621  0.832811  0.127377  1
  Ir  Ir18  1  0.333333  0.666667  0.250534  1
  Ir  Ir19  1  0.666667  0.333333  0.749114  1
  Ir  Ir20  1  0.000000  0.000000  0.251150  1
  Ir  Ir21  1  0.000000  0.000000  0.749107  1
  Ir  Ir22  1  0.000000  0.000000  0.500866  1
  Ir  Ir23  1  0.000000  0.000000  0.000005  1
