# generated using pymatgen
data_YbTaB6Os
_symmetry_space_group_name_H-M   'P 1'
_cell_length_a   3.49573600
_cell_length_b   8.92079300
_cell_length_c   11.26373800
_cell_angle_alpha   90.00000000
_cell_angle_beta   90.00000000
_cell_angle_gamma   90.00000000
_symmetry_Int_Tables_number   1
_chemical_formula_structural   YbTaB6Os
_chemical_formula_sum   'Yb4 Ta4 B24 Os4'
_cell_volume   351.25670985
_cell_formula_units_Z   4
loop_
 _symmetry_equiv_pos_site_id
 _symmetry_equiv_pos_as_xyz
  1  'x, y, z'
loop_
 _atom_site_type_symbol
 _atom_site_label
 _atom_site_symmetry_multiplicity
 _atom_site_fract_x
 _atom_site_fract_y
 _atom_site_fract_z
 _atom_site_occupancy
  Yb  Yb0  1  0.000000  0.323584  0.414264  1
  Yb  Yb1  1  0.000000  0.676416  0.585736  1
  Yb  Yb2  1  0.000000  0.823584  0.085736  1
  Yb  Yb3  1  0.000000  0.176416  0.914264  1
  Ta  Ta4  1  0.000000  0.946381  0.376391  1
  Ta  Ta5  1  0.000000  0.053619  0.623610  1
  Ta  Ta6  1  0.000000  0.446381  0.123609  1
  Ta  Ta7  1  0.000000  0.553619  0.876390  1
  B  B8  1  0.500000  0.554740  0.433284  1
  B  B9  1  0.500000  0.445260  0.566716  1
  B  B10  1  0.500000  0.054740  0.066716  1
  B  B11  1  0.500000  0.945260  0.933284  1
  B  B12  1  0.500000  0.753793  0.418299  1
  B  B13  1  0.500000  0.246207  0.581701  1
  B  B14  1  0.500000  0.253793  0.081701  1
  B  B15  1  0.500000  0.746207  0.918299  1
  B  B16  1  0.500000  0.798000  0.261899  1
  B  B17  1  0.500000  0.202000  0.738101  1
  B  B18  1  0.500000  0.297999  0.238101  1
  B  B19  1  0.500000  0.702000  0.761899  1
  B  B20  1  0.500000  0.630554  0.180592  1
  B  B21  1  0.500000  0.369446  0.819408  1
  B  B22  1  0.500000  0.130554  0.319408  1
  B  B23  1  0.500000  0.869446  0.680592  1
  B  B24  1  0.500000  0.982065  0.212661  1
  B  B25  1  0.500000  0.017935  0.787339  1
  B  B26  1  0.500000  0.482065  0.287339  1
  B  B27  1  0.500000  0.517935  0.712661  1
  B  B28  1  0.500000  0.599699  0.026318  1
  B  B29  1  0.500000  0.400301  0.973682  1
  B  B30  1  0.500000  0.099699  0.473682  1
  B  B31  1  0.500000  0.900301  0.526318  1
  Os  Os32  1  0.000000  0.645247  0.317147  1
  Os  Os33  1  0.000000  0.354753  0.682853  1
  Os  Os34  1  0.000000  0.145247  0.182853  1
  Os  Os35  1  0.000000  0.854753  0.817147  1
