# generated using pymatgen
data_Cd2Ni3PtO8
_symmetry_space_group_name_H-M   'P 1'
_cell_length_a   6.16590574
_cell_length_b   6.16590584
_cell_length_c   6.23976400
_cell_angle_alpha   60.39078775
_cell_angle_beta   60.39078724
_cell_angle_gamma   60.00000655
_symmetry_Int_Tables_number   1
_chemical_formula_structural   Cd2Ni3PtO8
_chemical_formula_sum   'Cd2 Ni3 Pt1 O8'
_cell_volume   168.72798913
_cell_formula_units_Z   1
loop_
 _symmetry_equiv_pos_site_id
 _symmetry_equiv_pos_as_xyz
  1  'x, y, z'
loop_
 _atom_site_type_symbol
 _atom_site_label
 _atom_site_symmetry_multiplicity
 _atom_site_fract_x
 _atom_site_fract_y
 _atom_site_fract_z
 _atom_site_occupancy
  Cd  Cd0  1  0.259825  0.259825  0.220523  1
  Cd  Cd1  1  0.990175  0.990175  0.029477  1
  Ni  Ni2  1  0.625000  0.125000  0.625000  1
  Ni  Ni3  1  0.125000  0.625000  0.625000  1
  Ni  Ni4  1  0.625000  0.625000  0.625000  1
  Pt  Pt5  1  0.625000  0.625000  0.125000  1
  O  O6  1  0.849797  0.849797  0.450608  1
  O  O7  1  0.853694  0.422323  0.870289  1
  O  O8  1  0.422323  0.853694  0.870289  1
  O  O9  1  0.853694  0.853694  0.870289  1
  O  O10  1  0.400203  0.400203  0.799392  1
  O  O11  1  0.396306  0.827677  0.379711  1
  O  O12  1  0.827677  0.396306  0.379711  1
  O  O13  1  0.396306  0.396306  0.379711  1
