# generated using pymatgen
data_Dy5Ti2Si7P5Ir17
_symmetry_space_group_name_H-M   'P 1'
_cell_length_a   12.81001943
_cell_length_b   12.88431888
_cell_length_c   3.95225300
_cell_angle_alpha   90.00000000
_cell_angle_beta   90.00000000
_cell_angle_gamma   119.83946800
_symmetry_Int_Tables_number   1
_chemical_formula_structural   Dy5Ti2Si7P5Ir17
_chemical_formula_sum   'Dy5 Ti2 Si7 P5 Ir17'
_cell_volume   565.83118418
_cell_formula_units_Z   1
loop_
 _symmetry_equiv_pos_site_id
 _symmetry_equiv_pos_as_xyz
  1  'x, y, z'
loop_
 _atom_site_type_symbol
 _atom_site_label
 _atom_site_symmetry_multiplicity
 _atom_site_fract_x
 _atom_site_fract_y
 _atom_site_fract_z
 _atom_site_occupancy
  Dy  Dy0  1  0.331878  0.663725  0.500000  1
  Dy  Dy1  1  0.668551  0.336366  0.500000  1
  Dy  Dy2  1  0.001879  0.812581  0.000000  1
  Dy  Dy3  1  0.188523  0.188279  0.000000  1
  Dy  Dy4  1  0.813100  0.998588  0.000000  1
  Ti  Ti5  1  0.995749  0.436270  0.500000  1
  Ti  Ti6  1  0.561614  0.562239  0.500000  1
  Si  Si7  1  0.003627  0.637485  0.500000  1
  Si  Si8  1  0.365102  0.364288  0.500000  1
  Si  Si9  1  0.631186  0.998687  0.500000  1
  Si  Si10  1  0.516562  0.687088  0.000000  1
  Si  Si11  1  0.311313  0.829894  0.000000  1
  Si  Si12  1  0.167657  0.478416  0.000000  1
  Si  Si13  1  0.481640  0.169169  0.000000  1
  P  P14  1  0.688631  0.520856  0.000000  1
  P  P15  1  0.829748  0.313529  0.000000  1
  P  P16  1  0.998221  0.177073  0.500000  1
  P  P17  1  0.821957  0.823562  0.500000  1
  P  P18  1  0.180034  0.000844  0.500000  1
  Ir  Ir19  1  0.513336  0.876010  0.000000  1
  Ir  Ir20  1  0.124840  0.637576  0.000000  1
  Ir  Ir21  1  0.360728  0.484690  0.000000  1
  Ir  Ir22  1  0.493411  0.362621  0.000000  1
  Ir  Ir23  1  0.868773  0.509922  0.000000  1
  Ir  Ir24  1  0.641525  0.129567  0.000000  1
  Ir  Ir25  1  0.447790  0.003163  0.500000  1
  Ir  Ir26  1  0.993622  0.275032  0.000000  1
  Ir  Ir27  1  0.722942  0.722373  0.000000  1
  Ir  Ir28  1  0.280505  0.000922  0.000000  1
  Ir  Ir29  1  0.625531  0.805923  0.500000  1
  Ir  Ir30  1  0.195751  0.823285  0.500000  1
  Ir  Ir31  1  0.175893  0.369472  0.500000  1
  Ir  Ir32  1  0.372259  0.179251  0.500000  1
  Ir  Ir33  1  0.807972  0.628720  0.500000  1
  Ir  Ir34  1  0.816769  0.191888  0.500000  1
  Ir  Ir35  1  0.001382  0.000650  0.500000  1
