# generated using pymatgen
data_Dy11LuTc4
_symmetry_space_group_name_H-M   'P 1'
_cell_length_a   6.30194929
_cell_length_b   7.43830665
_cell_length_c   9.25970700
_cell_angle_alpha   90.09597692
_cell_angle_beta   89.77339651
_cell_angle_gamma   89.95618897
_symmetry_Int_Tables_number   1
_chemical_formula_structural   Dy11LuTc4
_chemical_formula_sum   'Dy11 Lu1 Tc4'
_cell_volume   434.05233023
_cell_formula_units_Z   1
loop_
 _symmetry_equiv_pos_site_id
 _symmetry_equiv_pos_as_xyz
  1  'x, y, z'
loop_
 _atom_site_type_symbol
 _atom_site_label
 _atom_site_symmetry_multiplicity
 _atom_site_fract_x
 _atom_site_fract_y
 _atom_site_fract_z
 _atom_site_occupancy
  Dy  Dy0  1  0.161122  0.174446  0.436491  1
  Dy  Dy1  1  0.661461  0.325798  0.563139  1
  Dy  Dy2  1  0.840443  0.825260  0.937452  1
  Dy  Dy3  1  0.662258  0.325592  0.938343  1
  Dy  Dy4  1  0.836037  0.824891  0.562806  1
  Dy  Dy5  1  0.336819  0.674894  0.434916  1
  Dy  Dy6  1  0.163308  0.176284  0.063374  1
  Dy  Dy7  1  0.872121  0.544275  0.248128  1
  Dy  Dy8  1  0.628310  0.041188  0.249494  1
  Dy  Dy9  1  0.129713  0.457927  0.751004  1
  Dy  Dy10  1  0.370012  0.956672  0.751073  1
  Lu  Lu11  1  0.339143  0.673052  0.063398  1
  Tc  Tc12  1  0.043130  0.885964  0.247450  1
  Tc  Tc13  1  0.460063  0.387185  0.250154  1
  Tc  Tc14  1  0.959296  0.113628  0.748576  1
  Tc  Tc15  1  0.536761  0.612940  0.754203  1
