# generated using pymatgen
data_Er4Be4Si3Ge
_symmetry_space_group_name_H-M   'P 1'
_cell_length_a   3.86212000
_cell_length_b   3.86211947
_cell_length_c   15.93496800
_cell_angle_alpha   90.00000000
_cell_angle_beta   90.00000000
_cell_angle_gamma   119.99998739
_symmetry_Int_Tables_number   1
_chemical_formula_structural   Er4Be4Si3Ge
_chemical_formula_sum   'Er4 Be4 Si3 Ge1'
_cell_volume   205.84169547
_cell_formula_units_Z   1
loop_
 _symmetry_equiv_pos_site_id
 _symmetry_equiv_pos_as_xyz
  1  'x, y, z'
loop_
 _atom_site_type_symbol
 _atom_site_label
 _atom_site_symmetry_multiplicity
 _atom_site_fract_x
 _atom_site_fract_y
 _atom_site_fract_z
 _atom_site_occupancy
  Er  Er0  1  0.000000  0.000000  0.250564  1
  Er  Er1  1  0.000000  0.000000  0.747999  1
  Er  Er2  1  0.000000  0.000000  0.002056  1
  Er  Er3  1  0.000000  0.000000  0.499474  1
  Be  Be4  1  0.333333  0.666667  0.128727  1
  Be  Be5  1  0.666667  0.333333  0.871338  1
  Be  Be6  1  0.666667  0.333333  0.627164  1
  Be  Be7  1  0.333333  0.666667  0.371996  1
  Si  Si8  1  0.333333  0.666667  0.623410  1
  Si  Si9  1  0.666667  0.333333  0.375732  1
  Si  Si10  1  0.666667  0.333333  0.125088  1
  Ge  Ge11  1  0.333333  0.666667  0.876453  1
