# generated using pymatgen
data_Li14TaNbP8
_symmetry_space_group_name_H-M   'P 1'
_cell_length_a   7.19966124
_cell_length_b   7.19966222
_cell_length_c   11.75868913
_cell_angle_alpha   65.85222488
_cell_angle_beta   65.85223745
_cell_angle_gamma   48.75949946
_symmetry_Int_Tables_number   1
_chemical_formula_structural   Li14TaNbP8
_chemical_formula_sum   'Li14 Ta1 Nb1 P8'
_cell_volume   409.49346159
_cell_formula_units_Z   1
loop_
 _symmetry_equiv_pos_site_id
 _symmetry_equiv_pos_as_xyz
  1  'x, y, z'
loop_
 _atom_site_type_symbol
 _atom_site_label
 _atom_site_symmetry_multiplicity
 _atom_site_fract_x
 _atom_site_fract_y
 _atom_site_fract_z
 _atom_site_occupancy
  Li  Li0  1  0.516412  0.984295  0.875977  1
  Li  Li1  1  0.755713  0.244287  0.750000  1
  Li  Li2  1  0.006317  0.473678  0.878783  1
  Li  Li3  1  0.015705  0.483588  0.624023  1
  Li  Li4  1  0.249974  0.749345  0.491377  1
  Li  Li5  1  0.526322  0.993683  0.621217  1
  Li  Li6  1  0.473803  0.006309  0.378792  1
  Li  Li7  1  0.750040  0.250656  0.508601  1
  Li  Li8  1  0.984193  0.516448  0.376046  1
  Li  Li9  1  0.250655  0.750026  0.008623  1
  Li  Li10  1  0.993691  0.526197  0.121208  1
  Li  Li11  1  0.483552  0.015807  0.123954  1
  Li  Li12  1  0.244288  0.755712  0.250000  1
  Li  Li13  1  0.749344  0.249960  0.991399  1
  Ta  Ta14  1  0.256149  0.743851  0.750000  1
  Nb  Nb15  1  0.743894  0.256106  0.250000  1
  P  P16  1  0.366574  0.394360  0.927207  1
  P  P17  1  0.907754  0.852931  0.692187  1
  P  P18  1  0.147069  0.092246  0.807813  1
  P  P19  1  0.393224  0.366886  0.427806  1
  P  P20  1  0.605640  0.633426  0.572793  1
  P  P21  1  0.853194  0.906623  0.192002  1
  P  P22  1  0.093377  0.146806  0.307998  1
  P  P23  1  0.633114  0.606776  0.072194  1
