# generated using pymatgen
data_Y8Ta6Nb6Si15P
_symmetry_space_group_name_H-M   'P 1'
_cell_length_a   7.04756431
_cell_length_b   7.04559951
_cell_length_c   13.03699153
_cell_angle_alpha   89.91690387
_cell_angle_beta   89.99929055
_cell_angle_gamma   89.98723723
_symmetry_Int_Tables_number   1
_chemical_formula_structural   Y8Ta6Nb6Si15P
_chemical_formula_sum   'Y8 Ta6 Nb6 Si15 P1'
_cell_volume   647.34219605
_cell_formula_units_Z   1
loop_
 _symmetry_equiv_pos_site_id
 _symmetry_equiv_pos_as_xyz
  1  'x, y, z'
loop_
 _atom_site_type_symbol
 _atom_site_label
 _atom_site_symmetry_multiplicity
 _atom_site_fract_x
 _atom_site_fract_y
 _atom_site_fract_z
 _atom_site_occupancy
  Y  Y0  1  0.001057  0.338164  0.218573  1
  Y  Y1  1  0.002177  0.659701  0.717955  1
  Y  Y2  1  0.158813  0.499022  0.468318  1
  Y  Y3  1  0.499654  0.841585  0.032996  1
  Y  Y4  1  0.839833  0.502068  0.968761  1
  Y  Y5  1  0.498568  0.159919  0.531380  1
  Y  Y6  1  0.340370  0.998750  0.781892  1
  Y  Y7  1  0.655900  0.001489  0.280673  1
  Ta  Ta8  1  0.170856  0.168737  0.001183  1
  Ta  Ta9  1  0.829812  0.830318  0.499578  1
  Ta  Ta10  1  0.329063  0.670779  0.249373  1
  Ta  Ta11  1  0.671284  0.328994  0.750328  1
  Ta  Ta12  1  0.155557  0.994390  0.372943  1
  Ta  Ta13  1  0.845203  0.008088  0.876053  1
  Nb  Nb14  1  0.507827  0.655149  0.625640  1
  Nb  Nb15  1  0.345574  0.492661  0.874275  1
  Nb  Nb16  1  0.489511  0.341488  0.127210  1
  Nb  Nb17  1  0.656039  0.509034  0.373944  1
  Nb  Nb18  1  0.992465  0.154737  0.623989  1
  Nb  Nb19  1  0.009081  0.847024  0.124807  1
  Si  Si20  1  0.706006  0.955922  0.686831  1
  Si  Si21  1  0.455343  0.794063  0.436590  1
  Si  Si22  1  0.205845  0.543721  0.063061  1
  Si  Si23  1  0.544440  0.205814  0.936702  1
  Si  Si24  1  0.793905  0.456188  0.563481  1
  Si  Si25  1  0.044512  0.293972  0.814029  1
  Si  Si26  1  0.956430  0.705598  0.313222  1
  Si  Si27  1  0.369066  0.300423  0.320333  1
  Si  Si28  1  0.633209  0.704044  0.817827  1
  Si  Si29  1  0.202849  0.868557  0.566111  1
  Si  Si30  1  0.132154  0.796152  0.932143  1
  Si  Si31  1  0.796431  0.132307  0.066957  1
  Si  Si32  1  0.867578  0.202386  0.431594  1
  Si  Si33  1  0.297367  0.367378  0.682625  1
  Si  Si34  1  0.703887  0.630742  0.181934  1
  P  P35  1  0.292333  0.040632  0.186686  1
