# generated using pymatgen
data_Tb3Ho(Tm3Ir2)2
_symmetry_space_group_name_H-M   'P 1'
_cell_length_a   6.44227233
_cell_length_b   7.18091761
_cell_length_c   8.44625123
_cell_angle_alpha   96.73968391
_cell_angle_beta   112.37281417
_cell_angle_gamma   89.94116509
_symmetry_Int_Tables_number   1
_chemical_formula_structural   Tb3Ho(Tm3Ir2)2
_chemical_formula_sum   'Tb3 Ho1 Tm6 Ir4'
_cell_volume   358.42134966
_cell_formula_units_Z   1
loop_
 _symmetry_equiv_pos_site_id
 _symmetry_equiv_pos_as_xyz
  1  'x, y, z'
loop_
 _atom_site_type_symbol
 _atom_site_label
 _atom_site_symmetry_multiplicity
 _atom_site_fract_x
 _atom_site_fract_y
 _atom_site_fract_z
 _atom_site_occupancy
  Tb  Tb0  1  0.971771  0.919289  0.185418  1
  Tb  Tb1  1  0.786908  0.580739  0.815003  1
  Tb  Tb2  1  0.028639  0.080822  0.815000  1
  Ho  Ho3  1  0.212851  0.418763  0.185064  1
  Tm  Tm4  1  0.651096  0.817074  0.440142  1
  Tm  Tm5  1  0.211025  0.682237  0.559178  1
  Tm  Tm6  1  0.348753  0.183121  0.559576  1
  Tm  Tm7  1  0.788229  0.317528  0.440115  1
  Tm  Tm8  1  0.427586  0.749821  0.000249  1
  Tm  Tm9  1  0.572226  0.250148  0.000156  1
  Ir  Ir10  1  0.823366  0.572396  0.220888  1
  Ir  Ir11  1  0.600684  0.926845  0.779164  1
  Ir  Ir12  1  0.178201  0.427067  0.779442  1
  Ir  Ir13  1  0.398666  0.074150  0.220606  1
