# generated using pymatgen
data_Y4Ga12Ni
_symmetry_space_group_name_H-M   'P 1'
_cell_length_a   7.45089860
_cell_length_b   7.45089704
_cell_length_c   7.45089812
_cell_angle_alpha   109.47729286
_cell_angle_beta   109.47729087
_cell_angle_gamma   109.47730903
_symmetry_Int_Tables_number   1
_chemical_formula_structural   Y4Ga12Ni
_chemical_formula_sum   'Y4 Ga12 Ni1'
_cell_volume   318.35098467
_cell_formula_units_Z   1
loop_
 _symmetry_equiv_pos_site_id
 _symmetry_equiv_pos_as_xyz
  1  'x, y, z'
loop_
 _atom_site_type_symbol
 _atom_site_label
 _atom_site_symmetry_multiplicity
 _atom_site_fract_x
 _atom_site_fract_y
 _atom_site_fract_z
 _atom_site_occupancy
  Y  Y0  1  0.500000  0.500000  0.500000  1
  Y  Y1  1  0.000000  0.000000  0.500000  1
  Y  Y2  1  0.000000  0.500000  0.000000  1
  Y  Y3  1  0.500000  0.000000  0.000000  1
  Ga  Ga4  1  0.750013  0.249987  0.500000  1
  Ga  Ga5  1  0.750013  0.500000  0.249987  1
  Ga  Ga6  1  0.500000  0.249987  0.750013  1
  Ga  Ga7  1  0.249987  0.500000  0.750013  1
  Ga  Ga8  1  0.249987  0.750013  0.500000  1
  Ga  Ga9  1  0.500000  0.750013  0.249987  1
  Ga  Ga10  1  0.711235  0.711235  0.999745  1
  Ga  Ga11  1  0.288765  0.000255  0.288765  1
  Ga  Ga12  1  0.000255  0.288765  0.288765  1
  Ga  Ga13  1  0.288765  0.288765  0.000255  1
  Ga  Ga14  1  0.711235  0.999745  0.711235  1
  Ga  Ga15  1  0.999745  0.711235  0.711235  1
  Ni  Ni16  1  0.000000  0.000000  0.000000  1
