# generated using pymatgen
data_KRb2V3F12
_symmetry_space_group_name_H-M   'P 1'
_cell_length_a   7.64809300
_cell_length_b   7.59993003
_cell_length_c   10.59591638
_cell_angle_alpha   89.91591952
_cell_angle_beta   90.00000000
_cell_angle_gamma   90.00000000
_symmetry_Int_Tables_number   1
_chemical_formula_structural   KRb2V3F12
_chemical_formula_sum   'K2 Rb4 V6 F24'
_cell_volume   615.88667642
_cell_formula_units_Z   2
loop_
 _symmetry_equiv_pos_site_id
 _symmetry_equiv_pos_as_xyz
  1  'x, y, z'
loop_
 _atom_site_type_symbol
 _atom_site_label
 _atom_site_symmetry_multiplicity
 _atom_site_fract_x
 _atom_site_fract_y
 _atom_site_fract_z
 _atom_site_occupancy
  K  K0  1  0.750000  0.221889  0.755981  1
  K  K1  1  0.250000  0.778111  0.244019  1
  Rb  Rb2  1  0.750000  0.984697  0.106509  1
  Rb  Rb3  1  0.250000  0.015303  0.893491  1
  Rb  Rb4  1  0.250000  0.477675  0.647418  1
  Rb  Rb5  1  0.750000  0.522325  0.352582  1
  V  V6  1  0.500000  0.000000  0.500000  1
  V  V7  1  0.000000  0.000000  0.500000  1
  V  V8  1  0.000000  0.500000  0.000000  1
  V  V9  1  0.500000  0.500000  0.000000  1
  V  V10  1  0.750000  0.699043  0.724450  1
  V  V11  1  0.250000  0.300957  0.275550  1
  F  F12  1  0.750000  0.084235  0.505075  1
  F  F13  1  0.250000  0.915765  0.494925  1
  F  F14  1  0.750000  0.505548  0.608749  1
  F  F15  1  0.250000  0.494452  0.391251  1
  F  F16  1  0.250000  0.484442  0.939115  1
  F  F17  1  0.750000  0.515558  0.060885  1
  F  F18  1  0.250000  0.108937  0.159826  1
  F  F19  1  0.750000  0.891063  0.840174  1
  F  F20  1  0.948214  0.847286  0.360122  1
  F  F21  1  0.448214  0.152714  0.639878  1
  F  F22  1  0.051786  0.152714  0.639878  1
  F  F23  1  0.551786  0.847286  0.360122  1
  F  F24  1  0.945126  0.807018  0.623936  1
  F  F25  1  0.445126  0.192982  0.376064  1
  F  F26  1  0.054874  0.192982  0.376064  1
  F  F27  1  0.554874  0.807018  0.623936  1
  F  F28  1  0.032793  0.743656  0.043138  1
  F  F29  1  0.532793  0.256344  0.956862  1
  F  F30  1  0.967207  0.256344  0.956862  1
  F  F31  1  0.467207  0.743656  0.043138  1
  F  F32  1  0.436569  0.432590  0.177408  1
  F  F33  1  0.936569  0.567410  0.822592  1
  F  F34  1  0.563431  0.567410  0.822592  1
  F  F35  1  0.063431  0.432590  0.177408  1
