# generated using pymatgen
data_Ho6Zn22AgP
_symmetry_space_group_name_H-M   'P 1'
_cell_length_a   9.01979388
_cell_length_b   9.01947154
_cell_length_c   9.01880100
_cell_angle_alpha   59.99991764
_cell_angle_beta   59.99961080
_cell_angle_gamma   60.00008421
_symmetry_Int_Tables_number   1
_chemical_formula_structural   Ho6Zn22AgP
_chemical_formula_sum   'Ho6 Zn22 Ag1 P1'
_cell_volume   518.81227261
_cell_formula_units_Z   1
loop_
 _symmetry_equiv_pos_site_id
 _symmetry_equiv_pos_as_xyz
  1  'x, y, z'
loop_
 _atom_site_type_symbol
 _atom_site_label
 _atom_site_symmetry_multiplicity
 _atom_site_fract_x
 _atom_site_fract_y
 _atom_site_fract_z
 _atom_site_occupancy
  Ho  Ho0  1  0.712010  0.287993  0.287998  1
  Ho  Ho1  1  0.711997  0.287983  0.712015  1
  Ho  Ho2  1  0.711999  0.712012  0.287983  1
  Ho  Ho3  1  0.287990  0.712007  0.712002  1
  Ho  Ho4  1  0.288003  0.712017  0.287985  1
  Ho  Ho5  1  0.288001  0.287988  0.712017  1
  Zn  Zn6  1  0.623598  0.125433  0.125481  1
  Zn  Zn7  1  0.125440  0.623588  0.125482  1
  Zn  Zn8  1  0.125486  0.125481  0.623583  1
  Zn  Zn9  1  0.125485  0.125480  0.125444  1
  Zn  Zn10  1  0.376402  0.874567  0.874519  1
  Zn  Zn11  1  0.874560  0.376412  0.874518  1
  Zn  Zn12  1  0.874514  0.874519  0.376417  1
  Zn  Zn13  1  0.874515  0.874520  0.874556  1
  Zn  Zn14  1  0.500000  0.000000  0.000000  1
  Zn  Zn15  1  0.500000  0.000000  0.500000  1
  Zn  Zn16  1  0.500000  0.500000  0.000000  1
  Zn  Zn17  1  0.000000  0.500000  0.500000  1
  Zn  Zn18  1  0.000000  0.500000  0.000000  1
  Zn  Zn19  1  0.000000  0.000000  0.500000  1
  Zn  Zn20  1  0.008719  0.330389  0.330449  1
  Zn  Zn21  1  0.330385  0.008721  0.330452  1
  Zn  Zn22  1  0.330441  0.330449  0.008719  1
  Zn  Zn23  1  0.330444  0.330443  0.330398  1
  Zn  Zn24  1  0.991281  0.669611  0.669551  1
  Zn  Zn25  1  0.669615  0.991279  0.669548  1
  Zn  Zn26  1  0.669559  0.669551  0.991281  1
  Zn  Zn27  1  0.669556  0.669557  0.669602  1
  Ag  Ag28  1  0.000000  0.000000  0.000000  1
  P  P29  1  0.500000  0.500000  0.500000  1
