# generated using pymatgen
data_YbTePbO6
_symmetry_space_group_name_H-M   'P 1'
_cell_length_a   5.47268803
_cell_length_b   5.47268113
_cell_length_c   9.86515701
_cell_angle_alpha   90.00252211
_cell_angle_beta   89.99867621
_cell_angle_gamma   119.99979810
_symmetry_Int_Tables_number   1
_chemical_formula_structural   YbTePbO6
_chemical_formula_sum   'Yb2 Te2 Pb2 O12'
_cell_volume   255.88000650
_cell_formula_units_Z   2
loop_
 _symmetry_equiv_pos_site_id
 _symmetry_equiv_pos_as_xyz
  1  'x, y, z'
loop_
 _atom_site_type_symbol
 _atom_site_label
 _atom_site_symmetry_multiplicity
 _atom_site_fract_x
 _atom_site_fract_y
 _atom_site_fract_z
 _atom_site_occupancy
  Yb  Yb0  1  0.000000  0.000000  0.000000  1
  Yb  Yb1  1  0.000000  0.000000  0.499999  1
  Te  Te2  1  0.666668  0.333336  0.249997  1
  Te  Te3  1  0.333331  0.666663  0.750003  1
  Pb  Pb4  1  0.333297  0.666646  0.249997  1
  Pb  Pb5  1  0.666702  0.333354  0.750003  1
  O  O6  1  0.375889  0.033439  0.136958  1
  O  O7  1  0.657522  0.624080  0.136957  1
  O  O8  1  0.966541  0.342431  0.136964  1
  O  O9  1  0.966542  0.624111  0.363037  1
  O  O10  1  0.657523  0.033442  0.363044  1
  O  O11  1  0.375888  0.342449  0.363043  1
  O  O12  1  0.624112  0.657551  0.636957  1
  O  O13  1  0.342478  0.966558  0.636955  1
  O  O14  1  0.033460  0.375890  0.636962  1
  O  O15  1  0.033458  0.657567  0.863036  1
  O  O16  1  0.342478  0.375921  0.863043  1
  O  O17  1  0.624109  0.966560  0.863043  1
