# generated using pymatgen
data_NaPd(S2O7)2
_symmetry_space_group_name_H-M   'P 1'
_cell_length_a   5.70701090
_cell_length_b   6.93689536
_cell_length_c   8.83370000
_cell_angle_alpha   107.01831193
_cell_angle_beta   93.67789143
_cell_angle_gamma   102.05463317
_symmetry_Int_Tables_number   1
_chemical_formula_structural   NaPd(S2O7)2
_chemical_formula_sum   'Na1 Pd1 S4 O14'
_cell_volume   324.08150203
_cell_formula_units_Z   1
loop_
 _symmetry_equiv_pos_site_id
 _symmetry_equiv_pos_as_xyz
  1  'x, y, z'
loop_
 _atom_site_type_symbol
 _atom_site_label
 _atom_site_symmetry_multiplicity
 _atom_site_fract_x
 _atom_site_fract_y
 _atom_site_fract_z
 _atom_site_occupancy
  Na  Na0  1  0.500000  0.000000  0.000000  1
  Pd  Pd1  1  0.500000  0.500000  0.500000  1
  S  S2  1  0.932946  0.727714  0.758290  1
  S  S3  1  0.067054  0.272286  0.241710  1
  S  S4  1  0.661763  0.315714  0.748789  1
  S  S5  1  0.338237  0.684286  0.251211  1
  O  O6  1  0.845861  0.652682  0.579344  1
  O  O7  1  0.154139  0.347318  0.420656  1
  O  O8  1  0.463744  0.406933  0.695444  1
  O  O9  1  0.536256  0.593067  0.304556  1
  O  O10  1  0.189067  0.813498  0.782532  1
  O  O11  1  0.810933  0.186502  0.217468  1
  O  O12  1  0.780724  0.847203  0.847323  1
  O  O13  1  0.219276  0.152797  0.152677  1
  O  O14  1  0.611651  0.272244  0.894151  1
  O  O15  1  0.388349  0.727756  0.105849  1
  O  O16  1  0.907476  0.516586  0.808667  1
  O  O17  1  0.092524  0.483414  0.191333  1
  O  O18  1  0.728258  0.163683  0.621152  1
  O  O19  1  0.271742  0.836317  0.378848  1
