# generated using pymatgen
data_La8Co(Si4Pt)3
_symmetry_space_group_name_H-M   'P 1'
_cell_length_a   8.28617000
_cell_length_b   8.28617024
_cell_length_c   8.78917300
_cell_angle_alpha   90.00000000
_cell_angle_beta   90.00000000
_cell_angle_gamma   119.99999903
_symmetry_Int_Tables_number   1
_chemical_formula_structural   La8Co(Si4Pt)3
_chemical_formula_sum   'La8 Co1 Si12 Pt3'
_cell_volume   522.62037800
_cell_formula_units_Z   1
loop_
 _symmetry_equiv_pos_site_id
 _symmetry_equiv_pos_as_xyz
  1  'x, y, z'
loop_
 _atom_site_type_symbol
 _atom_site_label
 _atom_site_symmetry_multiplicity
 _atom_site_fract_x
 _atom_site_fract_y
 _atom_site_fract_z
 _atom_site_occupancy
  La  La0  1  0.000000  0.000000  0.250455  1
  La  La1  1  0.000000  0.000000  0.749376  1
  La  La2  1  0.498869  0.501131  0.253413  1
  La  La3  1  0.498869  0.997740  0.253413  1
  La  La4  1  0.002260  0.501131  0.253413  1
  La  La5  1  0.497773  0.502227  0.746685  1
  La  La6  1  0.497773  0.995545  0.746685  1
  La  La7  1  0.004455  0.502227  0.746685  1
  Co  Co8  1  0.333333  0.666667  0.498413  1
  Si  Si9  1  0.172406  0.827594  0.500022  1
  Si  Si10  1  0.172406  0.344813  0.500022  1
  Si  Si11  1  0.655187  0.827594  0.500022  1
  Si  Si12  1  0.835770  0.164230  0.499919  1
  Si  Si13  1  0.835770  0.671539  0.499919  1
  Si  Si14  1  0.328461  0.164230  0.499919  1
  Si  Si15  1  0.834198  0.165802  0.001341  1
  Si  Si16  1  0.834198  0.668395  0.001341  1
  Si  Si17  1  0.331605  0.165802  0.001341  1
  Si  Si18  1  0.165166  0.834834  0.998557  1
  Si  Si19  1  0.165166  0.330332  0.998557  1
  Si  Si20  1  0.669668  0.834834  0.998557  1
  Pt  Pt21  1  0.666667  0.333333  0.501529  1
  Pt  Pt22  1  0.666667  0.333333  0.996604  1
  Pt  Pt23  1  0.333333  0.666667  0.003810  1
