# generated using pymatgen
data_Ho16In4Ru3Rh
_symmetry_space_group_name_H-M   'P 1'
_cell_length_a   9.58327423
_cell_length_b   9.58327447
_cell_length_c   9.57075510
_cell_angle_alpha   59.95671812
_cell_angle_beta   59.95671678
_cell_angle_gamma   60.00000136
_symmetry_Int_Tables_number   1
_chemical_formula_structural   Ho16In4Ru3Rh
_chemical_formula_sum   'Ho16 In4 Ru3 Rh1'
_cell_volume   621.11872242
_cell_formula_units_Z   1
loop_
 _symmetry_equiv_pos_site_id
 _symmetry_equiv_pos_as_xyz
  1  'x, y, z'
loop_
 _atom_site_type_symbol
 _atom_site_label
 _atom_site_symmetry_multiplicity
 _atom_site_fract_x
 _atom_site_fract_y
 _atom_site_fract_z
 _atom_site_occupancy
  Ho  Ho0  1  0.188561  0.188561  0.810160  1
  Ho  Ho1  1  0.599583  0.599583  0.201250  1
  Ho  Ho2  1  0.440285  0.059853  0.440008  1
  Ho  Ho3  1  0.440096  0.440096  0.061624  1
  Ho  Ho4  1  0.812718  0.188561  0.810160  1
  Ho  Ho5  1  0.189514  0.810623  0.189240  1
  Ho  Ho6  1  0.440096  0.058184  0.061624  1
  Ho  Ho7  1  0.188561  0.812718  0.810160  1
  Ho  Ho8  1  0.058184  0.440096  0.061624  1
  Ho  Ho9  1  0.810623  0.810623  0.189240  1
  Ho  Ho10  1  0.200890  0.600076  0.598958  1
  Ho  Ho11  1  0.059853  0.440285  0.440008  1
  Ho  Ho12  1  0.059853  0.059853  0.440008  1
  Ho  Ho13  1  0.810623  0.189514  0.189240  1
  Ho  Ho14  1  0.600076  0.200890  0.598958  1
  Ho  Ho15  1  0.600076  0.600076  0.598958  1
  In  In16  1  0.832696  0.832696  0.832564  1
  In  In17  1  0.832713  0.832713  0.501863  1
  In  In18  1  0.502044  0.832696  0.832564  1
  In  In19  1  0.832696  0.502044  0.832564  1
  Ru  Ru20  1  0.391780  0.824619  0.391820  1
  Ru  Ru21  1  0.391780  0.391780  0.391820  1
  Ru  Ru22  1  0.824619  0.391780  0.391820  1
  Rh  Rh23  1  0.392079  0.392079  0.823764  1
