# generated using pymatgen
data_TbNd4Y3(B6Ru)4
_symmetry_space_group_name_H-M   'P 1'
_cell_length_a   3.72338200
_cell_length_b   9.23921601
_cell_length_c   11.65237301
_cell_angle_alpha   90.00562180
_cell_angle_beta   90.00000000
_cell_angle_gamma   90.00000000
_symmetry_Int_Tables_number   1
_chemical_formula_structural   TbNd4Y3(B6Ru)4
_chemical_formula_sum   'Tb1 Nd4 Y3 B24 Ru4'
_cell_volume   400.85480381
_cell_formula_units_Z   1
loop_
 _symmetry_equiv_pos_site_id
 _symmetry_equiv_pos_as_xyz
  1  'x, y, z'
loop_
 _atom_site_type_symbol
 _atom_site_label
 _atom_site_symmetry_multiplicity
 _atom_site_fract_x
 _atom_site_fract_y
 _atom_site_fract_z
 _atom_site_occupancy
  Tb  Tb0  1  0.000000  0.943851  0.371596  1
  Nd  Nd1  1  0.000000  0.323335  0.414248  1
  Nd  Nd2  1  0.000000  0.676695  0.585833  1
  Nd  Nd3  1  0.000000  0.823293  0.085753  1
  Nd  Nd4  1  0.000000  0.176722  0.914180  1
  Y  Y5  1  0.000000  0.056047  0.628238  1
  Y  Y6  1  0.000000  0.443985  0.128115  1
  Y  Y7  1  0.000000  0.556027  0.871855  1
  B  B8  1  0.500000  0.556105  0.430515  1
  B  B9  1  0.500000  0.443814  0.569498  1
  B  B10  1  0.500000  0.056181  0.069467  1
  B  B11  1  0.500000  0.943833  0.930519  1
  B  B12  1  0.500000  0.748715  0.417510  1
  B  B13  1  0.500000  0.251060  0.582410  1
  B  B14  1  0.500000  0.248951  0.082436  1
  B  B15  1  0.500000  0.751071  0.917575  1
  B  B16  1  0.500000  0.789766  0.266899  1
  B  B17  1  0.500000  0.209951  0.733132  1
  B  B18  1  0.500000  0.290120  0.233094  1
  B  B19  1  0.500000  0.709947  0.766862  1
  B  B20  1  0.500000  0.631133  0.185407  1
  B  B21  1  0.500000  0.368852  0.814577  1
  B  B22  1  0.500000  0.131291  0.314452  1
  B  B23  1  0.500000  0.868835  0.685393  1
  B  B24  1  0.500000  0.986422  0.213504  1
  B  B25  1  0.500000  0.013814  0.786356  1
  B  B26  1  0.500000  0.486165  0.286369  1
  B  B27  1  0.500000  0.513836  0.713649  1
  B  B28  1  0.500000  0.604317  0.028599  1
  B  B29  1  0.500000  0.395674  0.971402  1
  B  B30  1  0.500000  0.104621  0.471587  1
  B  B31  1  0.500000  0.895603  0.528895  1
  Ru  Ru32  1  0.000000  0.639106  0.319861  1
  Ru  Ru33  1  0.000000  0.360763  0.680193  1
  Ru  Ru34  1  0.000000  0.139371  0.180104  1
  Ru  Ru35  1  0.000000  0.860726  0.819918  1
