# generated using pymatgen
data_BaSr5(CuO3)4
_symmetry_space_group_name_H-M   'P 1'
_cell_length_a   6.78407893
_cell_length_b   6.41917916
_cell_length_c   8.33966832
_cell_angle_alpha   112.03620673
_cell_angle_beta   103.76076533
_cell_angle_gamma   90.31039020
_symmetry_Int_Tables_number   1
_chemical_formula_structural   BaSr5(CuO3)4
_chemical_formula_sum   'Ba1 Sr5 Cu4 O12'
_cell_volume   325.17142211
_cell_formula_units_Z   1
loop_
 _symmetry_equiv_pos_site_id
 _symmetry_equiv_pos_as_xyz
  1  'x, y, z'
loop_
 _atom_site_type_symbol
 _atom_site_label
 _atom_site_symmetry_multiplicity
 _atom_site_fract_x
 _atom_site_fract_y
 _atom_site_fract_z
 _atom_site_occupancy
  Ba  Ba0  1  0.775313  0.988362  0.590220  1
  Sr  Sr1  1  0.251231  0.049102  0.001338  1
  Sr  Sr2  1  0.750422  0.949976  0.001569  1
  Sr  Sr3  1  0.729968  0.398796  0.406822  1
  Sr  Sr4  1  0.232268  0.009754  0.408362  1
  Sr  Sr5  1  0.269135  0.601743  0.590708  1
  Cu  Cu6  1  0.004053  0.487698  0.164861  1
  Cu  Cu7  1  0.495429  0.670642  0.160642  1
  Cu  Cu8  1  0.006166  0.513853  0.840069  1
  Cu  Cu9  1  0.495413  0.327086  0.835006  1
  O  O10  1  0.018752  0.713350  0.075860  1
  O  O11  1  0.517174  0.360144  0.072545  1
  O  O12  1  0.026534  0.246273  0.239937  1
  O  O13  1  0.527253  0.986724  0.238384  1
  O  O14  1  0.983172  0.692971  0.383540  1
  O  O15  1  0.468315  0.674608  0.377631  1
  O  O16  1  0.027246  0.317821  0.616104  1
  O  O17  1  0.511676  0.317012  0.612650  1
  O  O18  1  0.975514  0.751795  0.766209  1
  O  O19  1  0.459780  0.012885  0.761539  1
  O  O20  1  0.485060  0.639717  0.925667  1
  O  O21  1  0.990126  0.289692  0.930340  1
