# generated using pymatgen
data_Tm6Al24Ir4OsRu3
_symmetry_space_group_name_H-M   'P 1'
_cell_length_a   8.76468382
_cell_length_b   8.77937643
_cell_length_c   9.52551389
_cell_angle_alpha   89.75254589
_cell_angle_beta   90.09011523
_cell_angle_gamma   119.92712117
_symmetry_Int_Tables_number   1
_chemical_formula_structural   Tm6Al24Ir4OsRu3
_chemical_formula_sum   'Tm6 Al24 Ir4 Os1 Ru3'
_cell_volume   635.23334780
_cell_formula_units_Z   1
loop_
 _symmetry_equiv_pos_site_id
 _symmetry_equiv_pos_as_xyz
  1  'x, y, z'
loop_
 _atom_site_type_symbol
 _atom_site_label
 _atom_site_symmetry_multiplicity
 _atom_site_fract_x
 _atom_site_fract_y
 _atom_site_fract_z
 _atom_site_occupancy
  Tm  Tm0  1  0.803121  0.191686  0.751506  1
  Tm  Tm1  1  0.196879  0.808314  0.248494  1
  Tm  Tm2  1  0.389656  0.192930  0.751523  1
  Tm  Tm3  1  0.610344  0.807070  0.248477  1
  Tm  Tm4  1  0.805291  0.612274  0.750432  1
  Tm  Tm5  1  0.194709  0.387726  0.249568  1
  Al  Al6  1  0.666263  0.332236  0.974454  1
  Al  Al7  1  0.333737  0.667764  0.025546  1
  Al  Al8  1  0.334108  0.665281  0.473823  1
  Al  Al9  1  0.665892  0.334719  0.526177  1
  Al  Al10  1  0.837635  0.163569  0.422771  1
  Al  Al11  1  0.162365  0.836431  0.577229  1
  Al  Al12  1  0.325917  0.165116  0.422206  1
  Al  Al13  1  0.163943  0.837888  0.922002  1
  Al  Al14  1  0.674083  0.834884  0.577794  1
  Al  Al15  1  0.836057  0.162112  0.077998  1
  Al  Al16  1  0.835899  0.674794  0.421625  1
  Al  Al17  1  0.673608  0.838068  0.922207  1
  Al  Al18  1  0.164101  0.325206  0.578375  1
  Al  Al19  1  0.326392  0.161932  0.077793  1
  Al  Al20  1  0.162461  0.325491  0.922141  1
  Al  Al21  1  0.837539  0.674509  0.077859  1
  Al  Al22  1  0.437938  0.561093  0.748497  1
  Al  Al23  1  0.562062  0.438907  0.251503  1
  Al  Al24  1  0.124236  0.561779  0.750007  1
  Al  Al25  1  0.875764  0.438221  0.249993  1
  Al  Al26  1  0.437081  0.874336  0.750921  1
  Al  Al27  1  0.562919  0.125664  0.249079  1
  Al  Al28  1  0.999413  0.999548  0.750072  1
  Al  Al29  1  0.000587  0.000452  0.249928  1
  Ir  Ir30  1  0.500000  0.500000  0.000000  1
  Ir  Ir31  1  0.000000  0.500000  0.000000  1
  Ir  Ir32  1  0.000000  0.500000  0.500000  1
  Ir  Ir33  1  0.500000  0.000000  0.500000  1
  Os  Os34  1  0.500000  0.000000  0.000000  1
  Ru  Ru35  1  0.500000  0.500000  0.500000  1
  Ru  Ru36  1  0.000000  0.000000  0.000000  1
  Ru  Ru37  1  0.000000  0.000000  0.500000  1
