# generated using pymatgen
data_Er6MgCr(Co4P3)4
_symmetry_space_group_name_H-M   'P 1'
_cell_length_a   3.68870000
_cell_length_b   10.52859600
_cell_length_c   12.18339200
_cell_angle_alpha   90.00000000
_cell_angle_beta   90.00000000
_cell_angle_gamma   90.00000000
_symmetry_Int_Tables_number   1
_chemical_formula_structural   Er6MgCr(Co4P3)4
_chemical_formula_sum   'Er6 Mg1 Cr1 Co16 P12'
_cell_volume   473.16434909
_cell_formula_units_Z   1
loop_
 _symmetry_equiv_pos_site_id
 _symmetry_equiv_pos_as_xyz
  1  'x, y, z'
loop_
 _atom_site_type_symbol
 _atom_site_label
 _atom_site_symmetry_multiplicity
 _atom_site_fract_x
 _atom_site_fract_y
 _atom_site_fract_z
 _atom_site_occupancy
  Er  Er0  1  0.750000  0.250000  0.474688  1
  Er  Er1  1  0.250000  0.750000  0.521854  1
  Er  Er2  1  0.250000  0.927784  0.794152  1
  Er  Er3  1  0.250000  0.572216  0.794152  1
  Er  Er4  1  0.750000  0.067509  0.205607  1
  Er  Er5  1  0.750000  0.432491  0.205607  1
  Mg  Mg6  1  0.250000  0.250000  0.845898  1
  Cr  Cr7  1  0.750000  0.750000  0.158850  1
  Co  Co8  1  0.250000  0.250000  0.296050  1
  Co  Co9  1  0.750000  0.750000  0.702647  1
  Co  Co10  1  0.750000  0.250000  0.014173  1
  Co  Co11  1  0.250000  0.750000  0.989455  1
  Co  Co12  1  0.250000  0.421234  0.007607  1
  Co  Co13  1  0.250000  0.078766  0.007607  1
  Co  Co14  1  0.750000  0.586350  0.996994  1
  Co  Co15  1  0.750000  0.913650  0.996994  1
  Co  Co16  1  0.250000  0.454749  0.566702  1
  Co  Co17  1  0.250000  0.045251  0.566702  1
  Co  Co18  1  0.750000  0.547204  0.429513  1
  Co  Co19  1  0.750000  0.952796  0.429513  1
  Co  Co20  1  0.250000  0.870273  0.292117  1
  Co  Co21  1  0.250000  0.629727  0.292117  1
  Co  Co22  1  0.750000  0.126341  0.706307  1
  Co  Co23  1  0.750000  0.373659  0.706307  1
  P  P24  1  0.250000  0.250000  0.117135  1
  P  P25  1  0.750000  0.750000  0.882650  1
  P  P26  1  0.250000  0.250000  0.645208  1
  P  P27  1  0.750000  0.750000  0.345760  1
  P  P28  1  0.250000  0.439130  0.382549  1
  P  P29  1  0.250000  0.060870  0.382549  1
  P  P30  1  0.750000  0.561902  0.614807  1
  P  P31  1  0.750000  0.938098  0.614807  1
  P  P32  1  0.250000  0.901418  0.111341  1
  P  P33  1  0.250000  0.598582  0.111341  1
  P  P34  1  0.750000  0.087475  0.895120  1
  P  P35  1  0.750000  0.412525  0.895120  1
