# generated using pymatgen
data_Zr6GaS2
_symmetry_space_group_name_H-M   'P 1'
_cell_length_a   3.62033000
_cell_length_b   12.65228200
_cell_length_c   15.45706800
_cell_angle_alpha   90.00000000
_cell_angle_beta   90.00000000
_cell_angle_gamma   90.00000000
_symmetry_Int_Tables_number   1
_chemical_formula_structural   Zr6GaS2
_chemical_formula_sum   'Zr24 Ga4 S8'
_cell_volume   708.01774046
_cell_formula_units_Z   4
loop_
 _symmetry_equiv_pos_site_id
 _symmetry_equiv_pos_as_xyz
  1  'x, y, z'
loop_
 _atom_site_type_symbol
 _atom_site_label
 _atom_site_symmetry_multiplicity
 _atom_site_fract_x
 _atom_site_fract_y
 _atom_site_fract_z
 _atom_site_occupancy
  Zr  Zr0  1  0.000000  0.027102  0.109130  1
  Zr  Zr1  1  0.000000  0.972898  0.890870  1
  Zr  Zr2  1  0.500000  0.472898  0.609130  1
  Zr  Zr3  1  0.500000  0.527102  0.390870  1
  Zr  Zr4  1  0.000000  0.410845  0.247595  1
  Zr  Zr5  1  0.000000  0.589155  0.752405  1
  Zr  Zr6  1  0.500000  0.089155  0.747595  1
  Zr  Zr7  1  0.500000  0.910845  0.252405  1
  Zr  Zr8  1  0.000000  0.078960  0.576567  1
  Zr  Zr9  1  0.000000  0.921040  0.423433  1
  Zr  Zr10  1  0.500000  0.421040  0.076567  1
  Zr  Zr11  1  0.500000  0.578960  0.923433  1
  Zr  Zr12  1  0.000000  0.348535  0.473604  1
  Zr  Zr13  1  0.000000  0.651465  0.526396  1
  Zr  Zr14  1  0.500000  0.151465  0.973604  1
  Zr  Zr15  1  0.500000  0.848535  0.026396  1
  Zr  Zr16  1  0.000000  0.688995  0.286690  1
  Zr  Zr17  1  0.000000  0.311005  0.713310  1
  Zr  Zr18  1  0.500000  0.811005  0.786690  1
  Zr  Zr19  1  0.500000  0.188995  0.213310  1
  Zr  Zr20  1  0.000000  0.621935  0.084474  1
  Zr  Zr21  1  0.000000  0.378065  0.915526  1
  Zr  Zr22  1  0.500000  0.878065  0.584474  1
  Zr  Zr23  1  0.500000  0.121935  0.415526  1
  Ga  Ga24  1  0.000000  0.256974  0.087630  1
  Ga  Ga25  1  0.000000  0.743026  0.912370  1
  Ga  Ga26  1  0.500000  0.243026  0.587630  1
  Ga  Ga27  1  0.500000  0.756974  0.412370  1
  S  S28  1  0.000000  0.062562  0.288928  1
  S  S29  1  0.000000  0.937438  0.711072  1
  S  S30  1  0.500000  0.437438  0.788928  1
  S  S31  1  0.500000  0.562562  0.211072  1
  S  S32  1  0.000000  0.815327  0.150351  1
  S  S33  1  0.000000  0.184673  0.849649  1
  S  S34  1  0.500000  0.684673  0.650351  1
  S  S35  1  0.500000  0.315327  0.349649  1
