# generated using pymatgen
data_PrSmTm4(Co3P2)6
_symmetry_space_group_name_H-M   'P 1'
_cell_length_a   3.70410100
_cell_length_b   10.53601600
_cell_length_c   12.19612500
_cell_angle_alpha   90.00000000
_cell_angle_beta   90.00000000
_cell_angle_gamma   90.00000000
_symmetry_Int_Tables_number   1
_chemical_formula_structural   PrSmTm4(Co3P2)6
_chemical_formula_sum   'Pr1 Sm1 Tm4 Co18 P12'
_cell_volume   475.97167474
_cell_formula_units_Z   1
loop_
 _symmetry_equiv_pos_site_id
 _symmetry_equiv_pos_as_xyz
  1  'x, y, z'
loop_
 _atom_site_type_symbol
 _atom_site_label
 _atom_site_symmetry_multiplicity
 _atom_site_fract_x
 _atom_site_fract_y
 _atom_site_fract_z
 _atom_site_occupancy
  Pr  Pr0  1  0.500000  0.000000  0.477207  1
  Sm  Sm1  1  0.000000  0.500000  0.522184  1
  Tm  Tm2  1  0.500000  0.817751  0.204510  1
  Tm  Tm3  1  0.500000  0.182249  0.204510  1
  Tm  Tm4  1  0.000000  0.681723  0.795005  1
  Tm  Tm5  1  0.000000  0.318277  0.795005  1
  Co  Co6  1  0.500000  0.500000  0.157299  1
  Co  Co7  1  0.000000  0.000000  0.843985  1
  Co  Co8  1  0.500000  0.500000  0.706123  1
  Co  Co9  1  0.000000  0.000000  0.292597  1
  Co  Co10  1  0.000000  0.500000  0.986373  1
  Co  Co11  1  0.500000  0.000000  0.013302  1
  Co  Co12  1  0.500000  0.333292  0.994735  1
  Co  Co13  1  0.500000  0.666708  0.994735  1
  Co  Co14  1  0.000000  0.167031  0.005316  1
  Co  Co15  1  0.000000  0.832969  0.005316  1
  Co  Co16  1  0.500000  0.298088  0.428940  1
  Co  Co17  1  0.500000  0.701912  0.428940  1
  Co  Co18  1  0.000000  0.205402  0.571276  1
  Co  Co19  1  0.000000  0.794598  0.571276  1
  Co  Co20  1  0.500000  0.878327  0.713005  1
  Co  Co21  1  0.500000  0.121673  0.713005  1
  Co  Co22  1  0.000000  0.620654  0.287353  1
  Co  Co23  1  0.000000  0.379346  0.287353  1
  P  P24  1  0.500000  0.500000  0.883019  1
  P  P25  1  0.000000  0.000000  0.116292  1
  P  P26  1  0.500000  0.500000  0.341103  1
  P  P27  1  0.000000  0.000000  0.661370  1
  P  P28  1  0.500000  0.309563  0.617956  1
  P  P29  1  0.500000  0.690437  0.617956  1
  P  P30  1  0.000000  0.193356  0.381254  1
  P  P31  1  0.000000  0.806644  0.381254  1
  P  P32  1  0.500000  0.845799  0.893814  1
  P  P33  1  0.500000  0.154201  0.893814  1
  P  P34  1  0.000000  0.653573  0.106408  1
  P  P35  1  0.000000  0.346427  0.106408  1
