# generated using pymatgen
data_CeHoSi2PtRh3
_symmetry_space_group_name_H-M   'P 1'
_cell_length_a   9.25845620
_cell_length_b   9.25845529
_cell_length_c   4.06215900
_cell_angle_alpha   90.00000000
_cell_angle_beta   90.00000000
_cell_angle_gamma   155.21239159
_symmetry_Int_Tables_number   1
_chemical_formula_structural   CeHoSi2PtRh3
_chemical_formula_sum   'Ce1 Ho1 Si2 Pt1 Rh3'
_cell_volume   145.98661874
_cell_formula_units_Z   1
loop_
 _symmetry_equiv_pos_site_id
 _symmetry_equiv_pos_as_xyz
  1  'x, y, z'
loop_
 _atom_site_type_symbol
 _atom_site_label
 _atom_site_symmetry_multiplicity
 _atom_site_fract_x
 _atom_site_fract_y
 _atom_site_fract_z
 _atom_site_occupancy
  Ce  Ce0  1  0.901765  0.098235  0.250000  1
  Ho  Ho1  1  0.104409  0.895591  0.750000  1
  Si  Si2  1  0.320290  0.679710  0.750000  1
  Si  Si3  1  0.678317  0.321683  0.250000  1
  Pt  Pt4  1  0.548196  0.451804  0.250000  1
  Rh  Rh5  1  0.450499  0.549501  0.750000  1
  Rh  Rh6  1  0.248635  0.751365  0.250000  1
  Rh  Rh7  1  0.747890  0.252110  0.750000  1
