# generated using pymatgen
data_Tm8Sc12Si15Hg
_symmetry_space_group_name_H-M   'P 1'
_cell_length_a   7.08809844
_cell_length_b   7.36031928
_cell_length_c   14.00519340
_cell_angle_alpha   89.98680356
_cell_angle_beta   89.55962873
_cell_angle_gamma   90.12256787
_symmetry_Int_Tables_number   1
_chemical_formula_structural   Tm8Sc12Si15Hg
_chemical_formula_sum   'Tm8 Sc12 Si15 Hg1'
_cell_volume   730.63701441
_cell_formula_units_Z   1
loop_
 _symmetry_equiv_pos_site_id
 _symmetry_equiv_pos_as_xyz
  1  'x, y, z'
loop_
 _atom_site_type_symbol
 _atom_site_label
 _atom_site_symmetry_multiplicity
 _atom_site_fract_x
 _atom_site_fract_y
 _atom_site_fract_z
 _atom_site_occupancy
  Tm  Tm0  1  0.012522  0.176379  0.097134  1
  Tm  Tm1  1  0.987217  0.824272  0.904560  1
  Tm  Tm2  1  0.487195  0.677596  0.904050  1
  Tm  Tm3  1  0.988095  0.830287  0.597891  1
  Tm  Tm4  1  0.512314  0.322812  0.096582  1
  Tm  Tm5  1  0.008171  0.172143  0.398683  1
  Tm  Tm6  1  0.511408  0.321829  0.399369  1
  Tm  Tm7  1  0.495964  0.681723  0.599595  1
  Sc  Sc8  1  0.162107  0.502346  0.753960  1
  Sc  Sc9  1  0.837433  0.497629  0.250259  1
  Sc  Sc10  1  0.337854  0.002066  0.248946  1
  Sc  Sc11  1  0.664321  0.995382  0.751419  1
  Sc  Sc12  1  0.340649  0.168262  0.628685  1
  Sc  Sc13  1  0.665091  0.824713  0.372801  1
  Sc  Sc14  1  0.167016  0.678011  0.370792  1
  Sc  Sc15  1  0.669918  0.823783  0.124559  1
  Sc  Sc16  1  0.825570  0.324926  0.626049  1
  Sc  Sc17  1  0.328775  0.174990  0.876156  1
  Sc  Sc18  1  0.829756  0.322722  0.876278  1
  Sc  Sc19  1  0.169305  0.676983  0.125045  1
  Si  Si20  1  0.034374  0.117969  0.751403  1
  Si  Si21  1  0.966010  0.886136  0.248048  1
  Si  Si22  1  0.467097  0.613489  0.248067  1
  Si  Si23  1  0.532982  0.387845  0.751861  1
  Si  Si24  1  0.283943  0.870087  0.751568  1
  Si  Si25  1  0.713567  0.130128  0.248019  1
  Si  Si26  1  0.213740  0.369232  0.248145  1
  Si  Si27  1  0.787839  0.629852  0.752528  1
  Si  Si28  1  0.831245  0.537562  0.459019  1
  Si  Si29  1  0.338175  0.963644  0.459631  1
  Si  Si30  1  0.842316  0.534996  0.038917  1
  Si  Si31  1  0.660501  0.036420  0.537585  1
  Si  Si32  1  0.157723  0.464325  0.962377  1
  Si  Si33  1  0.657380  0.034333  0.960834  1
  Si  Si34  1  0.342198  0.965538  0.039999  1
  Hg  Hg35  1  0.170229  0.459590  0.539187  1
