# generated using pymatgen
data_Ho8Mg2Sc9Si16W
_symmetry_space_group_name_H-M   'P 1'
_cell_length_a   6.96207670
_cell_length_b   7.35595582
_cell_length_c   13.86875400
_cell_angle_alpha   90.00000000
_cell_angle_beta   90.00000000
_cell_angle_gamma   89.59794569
_symmetry_Int_Tables_number   1
_chemical_formula_structural   Ho8Mg2Sc9Si16W
_chemical_formula_sum   'Ho8 Mg2 Sc9 Si16 W1'
_cell_volume   710.23924888
_cell_formula_units_Z   1
loop_
 _symmetry_equiv_pos_site_id
 _symmetry_equiv_pos_as_xyz
  1  'x, y, z'
loop_
 _atom_site_type_symbol
 _atom_site_label
 _atom_site_symmetry_multiplicity
 _atom_site_fract_x
 _atom_site_fract_y
 _atom_site_fract_z
 _atom_site_occupancy
  Ho  Ho0  1  0.013231  0.176838  0.098342  1
  Ho  Ho1  1  0.988508  0.820175  0.903988  1
  Ho  Ho2  1  0.486208  0.675670  0.906615  1
  Ho  Ho3  1  0.988508  0.820175  0.596012  1
  Ho  Ho4  1  0.509845  0.320534  0.098552  1
  Ho  Ho5  1  0.013231  0.176838  0.401658  1
  Ho  Ho6  1  0.509845  0.320534  0.401448  1
  Ho  Ho7  1  0.486208  0.675670  0.593385  1
  Mg  Mg8  1  0.157542  0.506361  0.750000  1
  Mg  Mg9  1  0.840293  0.491006  0.250000  1
  Sc  Sc10  1  0.656576  0.995723  0.750000  1
  Sc  Sc11  1  0.325352  0.178258  0.622814  1
  Sc  Sc12  1  0.675320  0.824880  0.372157  1
  Sc  Sc13  1  0.169253  0.679562  0.373087  1
  Sc  Sc14  1  0.675320  0.824880  0.127843  1
  Sc  Sc15  1  0.830733  0.323734  0.624907  1
  Sc  Sc16  1  0.325352  0.178258  0.877186  1
  Sc  Sc17  1  0.830733  0.323734  0.875093  1
  Sc  Sc18  1  0.169253  0.679562  0.126913  1
  Si  Si19  1  0.028833  0.102181  0.750000  1
  Si  Si20  1  0.981545  0.908208  0.250000  1
  Si  Si21  1  0.462270  0.624173  0.250000  1
  Si  Si22  1  0.532776  0.384548  0.750000  1
  Si  Si23  1  0.287552  0.879193  0.750000  1
  Si  Si24  1  0.705726  0.120143  0.250000  1
  Si  Si25  1  0.225786  0.363879  0.250000  1
  Si  Si26  1  0.773787  0.629140  0.750000  1
  Si  Si27  1  0.157051  0.461009  0.532186  1
  Si  Si28  1  0.839032  0.537301  0.464112  1
  Si  Si29  1  0.346585  0.967414  0.450814  1
  Si  Si30  1  0.839032  0.537301  0.035888  1
  Si  Si31  1  0.659036  0.033605  0.537111  1
  Si  Si32  1  0.157051  0.461009  0.967814  1
  Si  Si33  1  0.659036  0.033605  0.962889  1
  Si  Si34  1  0.346585  0.967414  0.049186  1
  W  W35  1  0.347015  0.997484  0.250000  1
