# generated using pymatgen
data_Y8SiHgI12
_symmetry_space_group_name_H-M   'P 1'
_cell_length_a   4.24649600
_cell_length_b   14.14337391
_cell_length_c   14.93829615
_cell_angle_alpha   89.80745156
_cell_angle_beta   90.00000000
_cell_angle_gamma   90.00000000
_symmetry_Int_Tables_number   1
_chemical_formula_structural   Y8SiHgI12
_chemical_formula_sum   'Y8 Si1 Hg1 I12'
_cell_volume   897.18572493
_cell_formula_units_Z   1
loop_
 _symmetry_equiv_pos_site_id
 _symmetry_equiv_pos_as_xyz
  1  'x, y, z'
loop_
 _atom_site_type_symbol
 _atom_site_label
 _atom_site_symmetry_multiplicity
 _atom_site_fract_x
 _atom_site_fract_y
 _atom_site_fract_z
 _atom_site_occupancy
  Y  Y0  1  0.500000  0.118966  0.341274  1
  Y  Y1  1  0.500000  0.881034  0.658726  1
  Y  Y2  1  0.500000  0.612457  0.150652  1
  Y  Y3  1  0.500000  0.387543  0.849348  1
  Y  Y4  1  0.000000  0.118653  0.579842  1
  Y  Y5  1  0.000000  0.881347  0.420158  1
  Y  Y6  1  0.000000  0.609291  0.926513  1
  Y  Y7  1  0.000000  0.390709  0.073487  1
  Si  Si8  1  0.500000  0.500000  0.000000  1
  Hg  Hg9  1  0.500000  0.000000  0.500000  1
  I  I10  1  0.500000  0.247705  0.161350  1
  I  I11  1  0.500000  0.752295  0.838650  1
  I  I12  1  0.500000  0.743532  0.335042  1
  I  I13  1  0.500000  0.256468  0.664958  1
  I  I14  1  0.000000  0.260494  0.413399  1
  I  I15  1  0.000000  0.739506  0.586601  1
  I  I16  1  0.000000  0.756312  0.085163  1
  I  I17  1  0.000000  0.243688  0.914837  1
  I  I18  1  0.000000  0.000016  0.238294  1
  I  I19  1  0.000000  0.999984  0.761706  1
  I  I20  1  0.000000  0.499423  0.257447  1
  I  I21  1  0.000000  0.500577  0.742553  1
