# generated using pymatgen
data_CaTl2Sb2(PO4)6
_symmetry_space_group_name_H-M   'P 1'
_cell_length_a   8.51602745
_cell_length_b   8.51602807
_cell_length_c   9.24813982
_cell_angle_alpha   89.99999566
_cell_angle_beta   117.41411747
_cell_angle_gamma   120.00000161
_symmetry_Int_Tables_number   1
_chemical_formula_structural   CaTl2Sb2(PO4)6
_chemical_formula_sum   'Ca1 Tl2 Sb2 P6 O24'
_cell_volume   491.95528697
_cell_formula_units_Z   1
loop_
 _symmetry_equiv_pos_site_id
 _symmetry_equiv_pos_as_xyz
  1  'x, y, z'
loop_
 _atom_site_type_symbol
 _atom_site_label
 _atom_site_symmetry_multiplicity
 _atom_site_fract_x
 _atom_site_fract_y
 _atom_site_fract_z
 _atom_site_occupancy
  Ca  Ca0  1  0.000000  0.000000  0.000000  1
  Tl  Tl1  1  0.297371  0.148685  0.446056  1
  Tl  Tl2  1  0.702630  0.851314  0.553944  1
  Sb  Sb3  1  0.694409  0.347205  0.041614  1
  Sb  Sb4  1  0.305590  0.652795  0.958387  1
  P  P5  1  0.495889  0.046348  0.238890  1
  P  P6  1  0.192543  0.449542  0.238890  1
  P  P7  1  0.789348  0.743001  0.238890  1
  P  P8  1  0.210653  0.256999  0.761110  1
  P  P9  1  0.807456  0.550457  0.761110  1
  P  P10  1  0.504112  0.953653  0.761110  1
  O  O11  1  0.257394  0.478996  0.100846  1
  O  O12  1  0.621850  0.778398  0.100846  1
  O  O13  1  0.322450  0.843453  0.100846  1
  O  O14  1  0.658889  0.176693  0.186830  1
  O  O15  1  0.010136  0.482196  0.186830  1
  O  O16  1  0.704633  0.527941  0.186830  1
  O  O17  1  0.361890  0.121656  0.231500  1
  O  O18  1  0.109845  0.240234  0.231500  1
  O  O19  1  0.991266  0.869611  0.231500  1
  O  O20  1  0.624648  0.037762  0.415059  1
  O  O21  1  0.377298  0.586886  0.415059  1
  O  O22  1  0.828174  0.790412  0.415059  1
  O  O23  1  0.171826  0.209588  0.584941  1
  O  O24  1  0.622703  0.413114  0.584941  1
  O  O25  1  0.375353  0.962239  0.584941  1
  O  O26  1  0.008734  0.130389  0.768501  1
  O  O27  1  0.890156  0.759767  0.768501  1
  O  O28  1  0.638112  0.878345  0.768501  1
  O  O29  1  0.295366  0.472059  0.813169  1
  O  O30  1  0.989863  0.517803  0.813169  1
  O  O31  1  0.341110  0.823307  0.813169  1
  O  O32  1  0.677550  0.156548  0.899153  1
  O  O33  1  0.378149  0.221602  0.899153  1
  O  O34  1  0.742606  0.521004  0.899153  1
