# generated using pymatgen
data_PrHo4Mg(P2Ru3)6
_symmetry_space_group_name_H-M   'P 1'
_cell_length_a   12.65763246
_cell_length_b   12.48773353
_cell_length_c   3.98718900
_cell_angle_alpha   90.00000000
_cell_angle_beta   90.00000000
_cell_angle_gamma   119.55696282
_symmetry_Int_Tables_number   1
_chemical_formula_structural   PrHo4Mg(P2Ru3)6
_chemical_formula_sum   'Pr1 Ho4 Mg1 P12 Ru18'
_cell_volume   548.22032732
_cell_formula_units_Z   1
loop_
 _symmetry_equiv_pos_site_id
 _symmetry_equiv_pos_as_xyz
  1  'x, y, z'
loop_
 _atom_site_type_symbol
 _atom_site_label
 _atom_site_symmetry_multiplicity
 _atom_site_fract_x
 _atom_site_fract_y
 _atom_site_fract_z
 _atom_site_occupancy
  Pr  Pr0  1  0.000000  0.180765  0.500000  1
  Ho  Ho1  1  0.815866  0.817058  0.500000  1
  Ho  Ho2  1  0.184134  0.001192  0.500000  1
  Ho  Ho3  1  0.660346  0.329228  0.000000  1
  Ho  Ho4  1  0.339654  0.668883  0.000000  1
  Mg  Mg5  1  0.000000  0.562561  0.000000  1
  P  P6  1  0.000000  0.810983  0.000000  1
  P  P7  1  0.185950  0.183634  0.000000  1
  P  P8  1  0.814050  0.997684  0.000000  1
  P  P9  1  0.691365  0.172440  0.500000  1
  P  P10  1  0.818350  0.518926  0.500000  1
  P  P11  1  0.476230  0.307235  0.500000  1
  P  P12  1  0.181650  0.700576  0.500000  1
  P  P13  1  0.523770  0.831004  0.500000  1
  P  P14  1  0.308635  0.481074  0.500000  1
  P  P15  1  0.000000  0.363160  0.000000  1
  P  P16  1  0.625686  0.625511  0.000000  1
  P  P17  1  0.374314  0.999825  0.000000  1
  Ru  Ru18  1  0.445456  0.444925  0.000000  1
  Ru  Ru19  1  0.554544  0.999470  0.000000  1
  Ru  Ru20  1  0.000000  0.716663  0.500000  1
  Ru  Ru21  1  0.284200  0.284152  0.500000  1
  Ru  Ru22  1  0.715800  0.999952  0.500000  1
  Ru  Ru23  1  0.802232  0.184116  0.000000  1
  Ru  Ru24  1  0.813282  0.619948  0.000000  1
  Ru  Ru25  1  0.374463  0.189214  0.000000  1
  Ru  Ru26  1  0.186718  0.806666  0.000000  1
  Ru  Ru27  1  0.625537  0.814751  0.000000  1
  Ru  Ru28  1  0.197768  0.381884  0.000000  1
  Ru  Ru29  1  0.874434  0.366426  0.500000  1
  Ru  Ru30  1  0.631267  0.509770  0.500000  1
  Ru  Ru31  1  0.492968  0.128882  0.500000  1
  Ru  Ru32  1  0.368733  0.878503  0.500000  1
  Ru  Ru33  1  0.507032  0.635914  0.500000  1
  Ru  Ru34  1  0.125566  0.491992  0.500000  1
  Ru  Ru35  1  0.000000  0.995032  0.000000  1
