# generated using pymatgen
data_LuZr(Mn2P)4
_symmetry_space_group_name_H-M   'P 1'
_cell_length_a   3.67472600
_cell_length_b   6.90012802
_cell_length_c   6.90012802
_cell_angle_alpha   90.10719926
_cell_angle_beta   90.00000000
_cell_angle_gamma   90.00000000
_symmetry_Int_Tables_number   1
_chemical_formula_structural   LuZr(Mn2P)4
_chemical_formula_sum   'Lu1 Zr1 Mn8 P4'
_cell_volume   174.95989070
_cell_formula_units_Z   1
loop_
 _symmetry_equiv_pos_site_id
 _symmetry_equiv_pos_as_xyz
  1  'x, y, z'
loop_
 _atom_site_type_symbol
 _atom_site_label
 _atom_site_symmetry_multiplicity
 _atom_site_fract_x
 _atom_site_fract_y
 _atom_site_fract_z
 _atom_site_occupancy
  Lu  Lu0  1  0.500000  0.000000  0.000000  1
  Zr  Zr1  1  0.000000  0.500000  0.500000  1
  Mn  Mn2  1  0.500000  0.155189  0.582383  1
  Mn  Mn3  1  0.500000  0.844811  0.417617  1
  Mn  Mn4  1  0.000000  0.346785  0.086433  1
  Mn  Mn5  1  0.000000  0.653215  0.913567  1
  Mn  Mn6  1  0.500000  0.582383  0.155189  1
  Mn  Mn7  1  0.500000  0.417617  0.844811  1
  Mn  Mn8  1  0.000000  0.086433  0.346785  1
  Mn  Mn9  1  0.000000  0.913567  0.653215  1
  P  P10  1  0.500000  0.714116  0.714116  1
  P  P11  1  0.500000  0.285884  0.285884  1
  P  P12  1  0.000000  0.784056  0.215944  1
  P  P13  1  0.000000  0.215944  0.784056  1
