# generated using pymatgen
data_CaSm7(Si3Au)4
_symmetry_space_group_name_H-M   'P 1'
_cell_length_a   8.24059200
_cell_length_b   8.26048763
_cell_length_c   8.46336300
_cell_angle_alpha   90.00000000
_cell_angle_beta   90.00000000
_cell_angle_gamma   120.07989287
_symmetry_Int_Tables_number   1
_chemical_formula_structural   CaSm7(Si3Au)4
_chemical_formula_sum   'Ca1 Sm7 Si12 Au4'
_cell_volume   498.52564531
_cell_formula_units_Z   1
loop_
 _symmetry_equiv_pos_site_id
 _symmetry_equiv_pos_as_xyz
  1  'x, y, z'
loop_
 _atom_site_type_symbol
 _atom_site_label
 _atom_site_symmetry_multiplicity
 _atom_site_fract_x
 _atom_site_fract_y
 _atom_site_fract_z
 _atom_site_occupancy
  Ca  Ca0  1  0.000150  0.500076  0.750000  1
  Sm  Sm1  1  0.000167  0.000084  0.250000  1
  Sm  Sm2  1  0.999900  0.999950  0.750000  1
  Sm  Sm3  1  0.499613  0.500076  0.250000  1
  Sm  Sm4  1  0.499613  0.999536  0.250000  1
  Sm  Sm5  1  0.000315  0.500158  0.250000  1
  Sm  Sm6  1  0.500191  0.499881  0.750000  1
  Sm  Sm7  1  0.500191  0.000310  0.750000  1
  Si  Si8  1  0.164358  0.837760  0.500979  1
  Si  Si9  1  0.164358  0.326600  0.500979  1
  Si  Si10  1  0.671219  0.835610  0.500238  1
  Si  Si11  1  0.835577  0.162269  0.498482  1
  Si  Si12  1  0.835577  0.673307  0.498482  1
  Si  Si13  1  0.328823  0.164411  0.498033  1
  Si  Si14  1  0.835577  0.162269  0.001518  1
  Si  Si15  1  0.835577  0.673307  0.001518  1
  Si  Si16  1  0.328823  0.164411  0.001967  1
  Si  Si17  1  0.164358  0.837760  0.999021  1
  Si  Si18  1  0.164358  0.326600  0.999021  1
  Si  Si19  1  0.671219  0.835610  0.999762  1
  Au  Au20  1  0.330765  0.665382  0.502543  1
  Au  Au21  1  0.669251  0.334625  0.502201  1
  Au  Au22  1  0.669251  0.334625  0.997799  1
  Au  Au23  1  0.330765  0.665382  0.997457  1
