# generated using pymatgen
data_CeDy4(B3Ru)2
_symmetry_space_group_name_H-M   'P 1'
_cell_length_a   5.51583298
_cell_length_b   5.51583266
_cell_length_c   8.32613664
_cell_angle_alpha   70.65618619
_cell_angle_beta   70.65618589
_cell_angle_gamma   59.99998339
_symmetry_Int_Tables_number   1
_chemical_formula_structural   CeDy4(B3Ru)2
_chemical_formula_sum   'Ce1 Dy4 B6 Ru2'
_cell_volume   202.69896924
_cell_formula_units_Z   1
loop_
 _symmetry_equiv_pos_site_id
 _symmetry_equiv_pos_as_xyz
  1  'x, y, z'
loop_
 _atom_site_type_symbol
 _atom_site_label
 _atom_site_symmetry_multiplicity
 _atom_site_fract_x
 _atom_site_fract_y
 _atom_site_fract_z
 _atom_site_occupancy
  Ce  Ce0  1  0.000000  0.000000  0.000000  1
  Dy  Dy1  1  0.250425  0.250425  0.248726  1
  Dy  Dy2  1  0.749575  0.749575  0.751274  1
  Dy  Dy3  1  0.415732  0.415732  0.752805  1
  Dy  Dy4  1  0.584268  0.584268  0.247195  1
  B  B5  1  0.171837  0.828163  0.500000  1
  B  B6  1  0.828163  0.500000  0.500000  1
  B  B7  1  0.500000  0.171837  0.500000  1
  B  B8  1  0.171837  0.500000  0.500000  1
  B  B9  1  0.500000  0.828163  0.500000  1
  B  B10  1  0.828163  0.171837  0.500000  1
  Ru  Ru11  1  0.108607  0.108607  0.674178  1
  Ru  Ru12  1  0.891393  0.891393  0.325822  1
