# generated using pymatgen
data_Ta3Nb(AlTe4)2
_symmetry_space_group_name_H-M   'P 1'
_cell_length_a   8.16638863
_cell_length_b   6.51383581
_cell_length_c   7.95194219
_cell_angle_alpha   97.48578835
_cell_angle_beta   104.80610164
_cell_angle_gamma   89.91147695
_symmetry_Int_Tables_number   1
_chemical_formula_structural   Ta3Nb(AlTe4)2
_chemical_formula_sum   'Ta3 Nb1 Al2 Te8'
_cell_volume   405.24661009
_cell_formula_units_Z   1
loop_
 _symmetry_equiv_pos_site_id
 _symmetry_equiv_pos_as_xyz
  1  'x, y, z'
loop_
 _atom_site_type_symbol
 _atom_site_label
 _atom_site_symmetry_multiplicity
 _atom_site_fract_x
 _atom_site_fract_y
 _atom_site_fract_z
 _atom_site_occupancy
  Ta  Ta0  1  0.089210  0.102103  0.999642  1
  Ta  Ta1  1  0.410917  0.898358  0.000274  1
  Ta  Ta2  1  0.589631  0.396676  0.000322  1
  Nb  Nb3  1  0.910744  0.603181  0.999733  1
  Al  Al4  1  0.250024  0.500863  0.999990  1
  Al  Al5  1  0.749638  0.999458  0.000076  1
  Te  Te6  1  0.079362  0.741692  0.756433  1
  Te  Te7  1  0.199814  0.819152  0.243202  1
  Te  Te8  1  0.301261  0.182361  0.756778  1
  Te  Te9  1  0.421644  0.259591  0.243443  1
  Te  Te10  1  0.577394  0.681049  0.756694  1
  Te  Te11  1  0.699155  0.758388  0.243654  1
  Te  Te12  1  0.799784  0.239910  0.757002  1
  Te  Te13  1  0.921423  0.317219  0.242755  1
