# generated using pymatgen
data_Tb7Dy3(Bi3S)2
_symmetry_space_group_name_H-M   'P 1'
_cell_length_a   9.23296800
_cell_length_b   9.23296864
_cell_length_c   6.58407700
_cell_angle_alpha   90.00000000
_cell_angle_beta   90.00000000
_cell_angle_gamma   120.00000488
_symmetry_Int_Tables_number   1
_chemical_formula_structural   Tb7Dy3(Bi3S)2
_chemical_formula_sum   'Tb7 Dy3 Bi6 S2'
_cell_volume   486.08050386
_cell_formula_units_Z   1
loop_
 _symmetry_equiv_pos_site_id
 _symmetry_equiv_pos_as_xyz
  1  'x, y, z'
loop_
 _atom_site_type_symbol
 _atom_site_label
 _atom_site_symmetry_multiplicity
 _atom_site_fract_x
 _atom_site_fract_y
 _atom_site_fract_z
 _atom_site_occupancy
  Tb  Tb0  1  0.666667  0.333333  0.000000  1
  Tb  Tb1  1  0.753682  0.753629  0.250083  1
  Tb  Tb2  1  0.246371  0.000053  0.250083  1
  Tb  Tb3  1  0.999947  0.246318  0.250083  1
  Tb  Tb4  1  0.246371  0.246318  0.749917  1
  Tb  Tb5  1  0.753682  0.000053  0.749917  1
  Tb  Tb6  1  0.999947  0.753629  0.749917  1
  Dy  Dy7  1  0.666667  0.333333  0.500000  1
  Dy  Dy8  1  0.333333  0.666667  0.500000  1
  Dy  Dy9  1  0.333333  0.666667  0.000000  1
  Bi  Bi10  1  0.396745  0.397023  0.250299  1
  Bi  Bi11  1  0.602977  0.999721  0.250299  1
  Bi  Bi12  1  0.000279  0.603255  0.250299  1
  Bi  Bi13  1  0.602977  0.603255  0.749701  1
  Bi  Bi14  1  0.396745  0.999721  0.749701  1
  Bi  Bi15  1  0.000279  0.397023  0.749701  1
  S  S16  1  0.000000  0.000000  0.500000  1
  S  S17  1  0.000000  0.000000  0.000000  1
