# generated using pymatgen
data_Tm3MnCoNi7P6
_symmetry_space_group_name_H-M   'P 1'
_cell_length_a   3.73167900
_cell_length_b   10.52379300
_cell_length_c   12.25358900
_cell_angle_alpha   90.00000000
_cell_angle_beta   90.00000000
_cell_angle_gamma   90.00000000
_symmetry_Int_Tables_number   1
_chemical_formula_structural   Tm3MnCoNi7P6
_chemical_formula_sum   'Tm6 Mn2 Co2 Ni14 P12'
_cell_volume   481.21580751
_cell_formula_units_Z   2
loop_
 _symmetry_equiv_pos_site_id
 _symmetry_equiv_pos_as_xyz
  1  'x, y, z'
loop_
 _atom_site_type_symbol
 _atom_site_label
 _atom_site_symmetry_multiplicity
 _atom_site_fract_x
 _atom_site_fract_y
 _atom_site_fract_z
 _atom_site_occupancy
  Tm  Tm0  1  0.000000  0.500000  0.523029  1
  Tm  Tm1  1  0.500000  0.000000  0.476971  1
  Tm  Tm2  1  0.500000  0.817969  0.205786  1
  Tm  Tm3  1  0.500000  0.182031  0.205786  1
  Tm  Tm4  1  0.000000  0.682031  0.794214  1
  Tm  Tm5  1  0.000000  0.317969  0.794214  1
  Mn  Mn6  1  0.500000  0.500000  0.156235  1
  Mn  Mn7  1  0.000000  0.000000  0.843765  1
  Co  Co8  1  0.000000  0.500000  0.985184  1
  Co  Co9  1  0.500000  0.000000  0.014816  1
  Ni  Ni10  1  0.500000  0.500000  0.702483  1
  Ni  Ni11  1  0.000000  0.000000  0.297517  1
  Ni  Ni12  1  0.500000  0.331880  0.992325  1
  Ni  Ni13  1  0.500000  0.668120  0.992325  1
  Ni  Ni14  1  0.000000  0.168120  0.007675  1
  Ni  Ni15  1  0.000000  0.831880  0.007675  1
  Ni  Ni16  1  0.500000  0.301135  0.429809  1
  Ni  Ni17  1  0.500000  0.698865  0.429809  1
  Ni  Ni18  1  0.000000  0.198865  0.570191  1
  Ni  Ni19  1  0.000000  0.801135  0.570191  1
  Ni  Ni20  1  0.500000  0.878528  0.709551  1
  Ni  Ni21  1  0.500000  0.121472  0.709551  1
  Ni  Ni22  1  0.000000  0.621472  0.290449  1
  Ni  Ni23  1  0.000000  0.378528  0.290449  1
  P  P24  1  0.500000  0.500000  0.880144  1
  P  P25  1  0.000000  0.000000  0.119856  1
  P  P26  1  0.500000  0.500000  0.347897  1
  P  P27  1  0.000000  0.000000  0.652103  1
  P  P28  1  0.500000  0.315036  0.615413  1
  P  P29  1  0.500000  0.684964  0.615413  1
  P  P30  1  0.000000  0.184964  0.384587  1
  P  P31  1  0.000000  0.815036  0.384587  1
  P  P32  1  0.500000  0.848156  0.891341  1
  P  P33  1  0.500000  0.151844  0.891341  1
  P  P34  1  0.000000  0.651844  0.108659  1
  P  P35  1  0.000000  0.348156  0.108659  1
