# generated using pymatgen
data_Ho12ZnGaCo3Ni
_symmetry_space_group_name_H-M   'P 1'
_cell_length_a   8.23713163
_cell_length_b   8.23713159
_cell_length_c   8.23713066
_cell_angle_alpha   112.22743936
_cell_angle_beta   109.45886969
_cell_angle_gamma   106.77330025
_symmetry_Int_Tables_number   1
_chemical_formula_structural   Ho12ZnGaCo3Ni
_chemical_formula_sum   'Ho12 Zn1 Ga1 Co3 Ni1'
_cell_volume   429.26037759
_cell_formula_units_Z   1
loop_
 _symmetry_equiv_pos_site_id
 _symmetry_equiv_pos_as_xyz
  1  'x, y, z'
loop_
 _atom_site_type_symbol
 _atom_site_label
 _atom_site_symmetry_multiplicity
 _atom_site_fract_x
 _atom_site_fract_y
 _atom_site_fract_z
 _atom_site_occupancy
  Ho  Ho0  1  0.958369  0.263248  0.695121  1
  Ho  Ho1  1  0.040694  0.735986  0.304707  1
  Ho  Ho2  1  0.674275  0.862511  0.188237  1
  Ho  Ho3  1  0.330714  0.520731  0.190015  1
  Ho  Ho4  1  0.330714  0.140699  0.809985  1
  Ho  Ho5  1  0.674275  0.486036  0.811763  1
  Ho  Ho6  1  0.568128  0.263248  0.304879  1
  Ho  Ho7  1  0.431279  0.735986  0.695293  1
  Ho  Ho8  1  0.179436  0.778251  0.960786  1
  Ho  Ho9  1  0.817464  0.778251  0.598816  1
  Ho  Ho10  1  0.179436  0.218649  0.401184  1
  Ho  Ho11  1  0.817464  0.218649  0.039214  1
  Zn  Zn12  1  0.999550  0.499550  0.500000  1
  Ga  Ga13  1  0.499181  0.999181  0.500000  1
  Co  Co14  1  0.883829  0.883829  0.000000  1
  Co  Co15  1  0.661919  0.498664  0.163254  1
  Co  Co16  1  0.335410  0.498664  0.836746  1
  Ni  Ni17  1  0.117864  0.117864  0.000000  1
