# generated using pymatgen
data_Y6Er10Cd4Co3Ni
_symmetry_space_group_name_H-M   'P 1'
_cell_length_a   9.46538784
_cell_length_b   9.44295074
_cell_length_c   9.44295100
_cell_angle_alpha   60.00000259
_cell_angle_beta   60.07838506
_cell_angle_gamma   60.07838658
_symmetry_Int_Tables_number   1
_chemical_formula_structural   Y6Er10Cd4Co3Ni
_chemical_formula_sum   'Y6 Er10 Cd4 Co3 Ni1'
_cell_volume   597.51996702
_cell_formula_units_Z   1
loop_
 _symmetry_equiv_pos_site_id
 _symmetry_equiv_pos_as_xyz
  1  'x, y, z'
loop_
 _atom_site_type_symbol
 _atom_site_label
 _atom_site_symmetry_multiplicity
 _atom_site_fract_x
 _atom_site_fract_y
 _atom_site_fract_z
 _atom_site_occupancy
  Y  Y0  1  0.187093  0.812097  0.812097  1
  Y  Y1  1  0.810226  0.188396  0.188396  1
  Y  Y2  1  0.810226  0.188396  0.812981  1
  Y  Y3  1  0.187093  0.812097  0.188713  1
  Y  Y4  1  0.810226  0.812981  0.188396  1
  Y  Y5  1  0.187093  0.188713  0.812097  1
  Er  Er6  1  0.593822  0.598044  0.598044  1
  Er  Er7  1  0.593822  0.598044  0.210089  1
  Er  Er8  1  0.593822  0.210089  0.598044  1
  Er  Er9  1  0.213398  0.595534  0.595534  1
  Er  Er10  1  0.066845  0.437139  0.437139  1
  Er  Er11  1  0.436829  0.063061  0.063061  1
  Er  Er12  1  0.436829  0.063061  0.437049  1
  Er  Er13  1  0.066845  0.437139  0.058876  1
  Er  Er14  1  0.436829  0.437049  0.063061  1
  Er  Er15  1  0.066845  0.058876  0.437139  1
  Cd  Cd16  1  0.830638  0.830051  0.830051  1
  Cd  Cd17  1  0.830638  0.830051  0.509258  1
  Cd  Cd18  1  0.830638  0.509258  0.830051  1
  Cd  Cd19  1  0.508016  0.830661  0.830661  1
  Co  Co20  1  0.391826  0.390951  0.390951  1
  Co  Co21  1  0.391826  0.390951  0.826271  1
  Co  Co22  1  0.391826  0.826271  0.390951  1
  Ni  Ni23  1  0.826747  0.391085  0.391085  1
