# generated using pymatgen
data_TbDy4(In2Ni)2
_symmetry_space_group_name_H-M   'P 1'
_cell_length_a   3.60892300
_cell_length_b   8.03759900
_cell_length_c   17.99284600
_cell_angle_alpha   90.00000000
_cell_angle_beta   90.00000000
_cell_angle_gamma   90.00000000
_symmetry_Int_Tables_number   1
_chemical_formula_structural   TbDy4(In2Ni)2
_chemical_formula_sum   'Tb2 Dy8 In8 Ni4'
_cell_volume   521.91984950
_cell_formula_units_Z   2
loop_
 _symmetry_equiv_pos_site_id
 _symmetry_equiv_pos_as_xyz
  1  'x, y, z'
loop_
 _atom_site_type_symbol
 _atom_site_label
 _atom_site_symmetry_multiplicity
 _atom_site_fract_x
 _atom_site_fract_y
 _atom_site_fract_z
 _atom_site_occupancy
  Tb  Tb0  1  0.500000  0.500000  0.000000  1
  Tb  Tb1  1  0.500000  0.000000  0.500000  1
  Dy  Dy2  1  0.500000  0.382660  0.588126  1
  Dy  Dy3  1  0.500000  0.882660  0.911874  1
  Dy  Dy4  1  0.500000  0.117340  0.088126  1
  Dy  Dy5  1  0.500000  0.754154  0.721493  1
  Dy  Dy6  1  0.500000  0.254154  0.778507  1
  Dy  Dy7  1  0.500000  0.745846  0.221493  1
  Dy  Dy8  1  0.500000  0.245846  0.278507  1
  Dy  Dy9  1  0.500000  0.617340  0.411874  1
  In  In10  1  0.000000  0.795142  0.069499  1
  In  In11  1  0.000000  0.926738  0.347536  1
  In  In12  1  0.000000  0.073262  0.652464  1
  In  In13  1  0.000000  0.573262  0.847536  1
  In  In14  1  0.000000  0.704858  0.569499  1
  In  In15  1  0.000000  0.204858  0.930501  1
  In  In16  1  0.000000  0.295142  0.430501  1
  In  In17  1  0.000000  0.426738  0.152464  1
  Ni  Ni18  1  0.000000  0.976395  0.804956  1
  Ni  Ni19  1  0.000000  0.523605  0.304956  1
  Ni  Ni20  1  0.000000  0.476395  0.695044  1
  Ni  Ni21  1  0.000000  0.023605  0.195044  1
