# generated using pymatgen
data_Tb5SmSi10
_symmetry_space_group_name_H-M   'P 1'
_cell_length_a   6.64717700
_cell_length_b   6.66437541
_cell_length_c   8.32514500
_cell_angle_alpha   89.95535410
_cell_angle_beta   90.00000000
_cell_angle_gamma   119.91467446
_symmetry_Int_Tables_number   1
_chemical_formula_structural   Tb5SmSi10
_chemical_formula_sum   'Tb5 Sm1 Si10'
_cell_volume   319.66252250
_cell_formula_units_Z   1
loop_
 _symmetry_equiv_pos_site_id
 _symmetry_equiv_pos_as_xyz
  1  'x, y, z'
loop_
 _atom_site_type_symbol
 _atom_site_label
 _atom_site_symmetry_multiplicity
 _atom_site_fract_x
 _atom_site_fract_y
 _atom_site_fract_z
 _atom_site_occupancy
  Tb  Tb0  1  0.330456  0.000000  0.500000  1
  Tb  Tb1  1  0.669099  0.669056  0.499824  1
  Tb  Tb2  1  0.000042  0.330944  0.500176  1
  Tb  Tb3  1  0.999960  0.330743  0.999795  1
  Tb  Tb4  1  0.669217  0.669257  0.000205  1
  Sm  Sm5  1  0.330736  0.000000  0.000000  1
  Si  Si6  1  0.999872  0.000637  0.748528  1
  Si  Si7  1  0.669294  0.049115  0.748211  1
  Si  Si8  1  0.380962  0.332389  0.747898  1
  Si  Si9  1  0.950266  0.619412  0.749143  1
  Si  Si10  1  0.333803  0.666352  0.748781  1
  Si  Si11  1  0.999235  0.999363  0.251472  1
  Si  Si12  1  0.667452  0.333648  0.251219  1
  Si  Si13  1  0.330854  0.380588  0.250857  1
  Si  Si14  1  0.048574  0.667611  0.252102  1
  Si  Si15  1  0.620179  0.950885  0.251789  1
