# generated using pymatgen
data_Y4Tm16Bi11Os
_symmetry_space_group_name_H-M   'P 1'
_cell_length_a   8.08951918
_cell_length_b   9.43627000
_cell_length_c   11.99369251
_cell_angle_alpha   90.00000000
_cell_angle_beta   90.56806746
_cell_angle_gamma   90.00000000
_symmetry_Int_Tables_number   1
_chemical_formula_structural   Y4Tm16Bi11Os
_chemical_formula_sum   'Y4 Tm16 Bi11 Os1'
_cell_volume   915.49216544
_cell_formula_units_Z   1
loop_
 _symmetry_equiv_pos_site_id
 _symmetry_equiv_pos_as_xyz
  1  'x, y, z'
loop_
 _atom_site_type_symbol
 _atom_site_label
 _atom_site_symmetry_multiplicity
 _atom_site_fract_x
 _atom_site_fract_y
 _atom_site_fract_z
 _atom_site_occupancy
  Y  Y0  1  0.810701  0.250000  0.281008  1
  Y  Y1  1  0.314689  0.250000  0.222036  1
  Y  Y2  1  0.654962  0.250000  0.783942  1
  Y  Y3  1  0.145869  0.250000  0.718145  1
  Tm  Tm4  1  0.050622  0.750000  0.993193  1
  Tm  Tm5  1  0.528179  0.750000  0.509344  1
  Tm  Tm6  1  0.983874  0.250000  0.007472  1
  Tm  Tm7  1  0.477198  0.250000  0.487581  1
  Tm  Tm8  1  0.206490  0.750000  0.730557  1
  Tm  Tm9  1  0.643790  0.750000  0.797458  1
  Tm  Tm10  1  0.315284  0.470610  0.941408  1
  Tm  Tm11  1  0.806632  0.063810  0.558669  1
  Tm  Tm12  1  0.676876  0.926358  0.053343  1
  Tm  Tm13  1  0.193538  0.564976  0.435812  1
  Tm  Tm14  1  0.676876  0.573642  0.053343  1
  Tm  Tm15  1  0.193538  0.935024  0.435812  1
  Tm  Tm16  1  0.315284  0.029390  0.941408  1
  Tm  Tm17  1  0.806632  0.436190  0.558669  1
  Tm  Tm18  1  0.356474  0.750000  0.196194  1
  Tm  Tm19  1  0.849274  0.750000  0.285059  1
  Bi  Bi20  1  0.433998  0.006978  0.668919  1
  Bi  Bi21  1  0.931210  0.502108  0.825785  1
  Bi  Bi22  1  0.565337  0.506365  0.326268  1
  Bi  Bi23  1  0.058316  0.998121  0.176008  1
  Bi  Bi24  1  0.565337  0.993635  0.326268  1
  Bi  Bi25  1  0.058316  0.501879  0.176008  1
  Bi  Bi26  1  0.433998  0.493022  0.668919  1
  Bi  Bi27  1  0.931210  0.997892  0.825785  1
  Bi  Bi28  1  0.914446  0.750000  0.547208  1
  Bi  Bi29  1  0.592942  0.250000  0.041372  1
  Bi  Bi30  1  0.094068  0.250000  0.458255  1
  Os  Os31  1  0.414040  0.750000  0.968753  1
