# generated using pymatgen
data_Y10Ag3Pd
_symmetry_space_group_name_H-M   'P 1'
_cell_length_a   9.62781300
_cell_length_b   9.62781306
_cell_length_c   9.66238100
_cell_angle_alpha   90.00000000
_cell_angle_beta   90.00000000
_cell_angle_gamma   119.99999635
_symmetry_Int_Tables_number   1
_chemical_formula_structural   Y10Ag3Pd
_chemical_formula_sum   'Y20 Ag6 Pd2'
_cell_volume   775.65768824
_cell_formula_units_Z   2
loop_
 _symmetry_equiv_pos_site_id
 _symmetry_equiv_pos_as_xyz
  1  'x, y, z'
loop_
 _atom_site_type_symbol
 _atom_site_label
 _atom_site_symmetry_multiplicity
 _atom_site_fract_x
 _atom_site_fract_y
 _atom_site_fract_z
 _atom_site_occupancy
  Y  Y0  1  0.206760  0.793240  0.943326  1
  Y  Y1  1  0.206760  0.413521  0.943326  1
  Y  Y2  1  0.586479  0.793240  0.943326  1
  Y  Y3  1  0.793240  0.206760  0.056674  1
  Y  Y4  1  0.793240  0.586479  0.056674  1
  Y  Y5  1  0.413521  0.206760  0.056674  1
  Y  Y6  1  0.793240  0.206760  0.443326  1
  Y  Y7  1  0.793240  0.586479  0.443326  1
  Y  Y8  1  0.413521  0.206760  0.443326  1
  Y  Y9  1  0.206760  0.793240  0.556674  1
  Y  Y10  1  0.206760  0.413521  0.556674  1
  Y  Y11  1  0.586479  0.793240  0.556674  1
  Y  Y12  1  0.543861  0.456139  0.750000  1
  Y  Y13  1  0.543861  0.087722  0.750000  1
  Y  Y14  1  0.912278  0.456139  0.750000  1
  Y  Y15  1  0.456139  0.543861  0.250000  1
  Y  Y16  1  0.456139  0.912278  0.250000  1
  Y  Y17  1  0.087722  0.543861  0.250000  1
  Y  Y18  1  0.000000  0.000000  0.000000  1
  Y  Y19  1  0.000000  0.000000  0.500000  1
  Ag  Ag20  1  0.883384  0.116616  0.750000  1
  Ag  Ag21  1  0.883384  0.766769  0.750000  1
  Ag  Ag22  1  0.233231  0.116616  0.750000  1
  Ag  Ag23  1  0.116616  0.883384  0.250000  1
  Ag  Ag24  1  0.116616  0.233231  0.250000  1
  Ag  Ag25  1  0.766769  0.883384  0.250000  1
  Pd  Pd26  1  0.333333  0.666667  0.750000  1
  Pd  Pd27  1  0.666667  0.333333  0.250000  1
