# generated using pymatgen
data_Tb2Mn3FeNi8P7
_symmetry_space_group_name_H-M   'P 1'
_cell_length_a   9.11386235
_cell_length_b   9.13230817
_cell_length_c   3.67217200
_cell_angle_alpha   90.00000000
_cell_angle_beta   90.00000000
_cell_angle_gamma   120.01465827
_symmetry_Int_Tables_number   1
_chemical_formula_structural   Tb2Mn3FeNi8P7
_chemical_formula_sum   'Tb2 Mn3 Fe1 Ni8 P7'
_cell_volume   264.65036842
_cell_formula_units_Z   1
loop_
 _symmetry_equiv_pos_site_id
 _symmetry_equiv_pos_as_xyz
  1  'x, y, z'
loop_
 _atom_site_type_symbol
 _atom_site_label
 _atom_site_symmetry_multiplicity
 _atom_site_fract_x
 _atom_site_fract_y
 _atom_site_fract_z
 _atom_site_occupancy
  Tb  Tb0  1  0.666785  0.332030  0.000000  1
  Tb  Tb1  1  0.334469  0.667964  0.500000  1
  Mn  Mn2  1  0.097120  0.880123  0.500000  1
  Mn  Mn3  1  0.779377  0.900784  0.500000  1
  Mn  Mn4  1  0.123146  0.222316  0.500000  1
  Fe  Fe5  1  0.879490  0.155553  0.000000  1
  Ni  Ni6  1  0.060206  0.625304  0.000000  1
  Ni  Ni7  1  0.565506  0.937852  0.000000  1
  Ni  Ni8  1  0.371365  0.433327  0.000000  1
  Ni  Ni9  1  0.276124  0.122118  0.000000  1
  Ni  Ni10  1  0.846454  0.722605  0.000000  1
  Ni  Ni11  1  0.436562  0.052020  0.500000  1
  Ni  Ni12  1  0.614581  0.564127  0.500000  1
  Ni  Ni13  1  0.948981  0.384170  0.500000  1
  P  P14  1  0.294281  0.886807  0.000000  1
  P  P15  1  0.593563  0.706081  0.000000  1
  P  P16  1  0.110511  0.405505  0.000000  1
  P  P17  1  0.405162  0.291358  0.500000  1
  P  P18  1  0.886405  0.596118  0.500000  1
  P  P19  1  0.713337  0.112662  0.500000  1
  P  P20  1  0.996573  0.001175  0.000000  1
