# generated using pymatgen
data_Y3In3Cu2Pd
_symmetry_space_group_name_H-M   'P 1'
_cell_length_a   7.56877100
_cell_length_b   7.56877078
_cell_length_c   3.92496000
_cell_angle_alpha   90.00000000
_cell_angle_beta   90.00000000
_cell_angle_gamma   119.99999658
_symmetry_Int_Tables_number   1
_chemical_formula_structural   Y3In3Cu2Pd
_chemical_formula_sum   'Y3 In3 Cu2 Pd1'
_cell_volume   194.72270785
_cell_formula_units_Z   1
loop_
 _symmetry_equiv_pos_site_id
 _symmetry_equiv_pos_as_xyz
  1  'x, y, z'
loop_
 _atom_site_type_symbol
 _atom_site_label
 _atom_site_symmetry_multiplicity
 _atom_site_fract_x
 _atom_site_fract_y
 _atom_site_fract_z
 _atom_site_occupancy
  Y  Y0  1  0.409760  0.998555  0.500000  1
  Y  Y1  1  0.001445  0.411206  0.500000  1
  Y  Y2  1  0.588794  0.590240  0.500000  1
  In  In3  1  0.749581  0.002406  0.000000  1
  In  In4  1  0.997594  0.747175  0.000000  1
  In  In5  1  0.252825  0.250419  0.000000  1
  Cu  Cu6  1  0.666667  0.333333  0.000000  1
  Cu  Cu7  1  0.000000  0.000000  0.500000  1
  Pd  Pd8  1  0.333333  0.666667  0.000000  1
