# generated using pymatgen
data_Hf6Ta4Ga5Si
_symmetry_space_group_name_H-M   'P 1'
_cell_length_a   7.90772600
_cell_length_b   7.89502256
_cell_length_c   5.43860300
_cell_angle_alpha   90.00000000
_cell_angle_beta   90.00000000
_cell_angle_gamma   120.05324103
_symmetry_Int_Tables_number   1
_chemical_formula_structural   Hf6Ta4Ga5Si
_chemical_formula_sum   'Hf6 Ta4 Ga5 Si1'
_cell_volume   293.89333170
_cell_formula_units_Z   1
loop_
 _symmetry_equiv_pos_site_id
 _symmetry_equiv_pos_as_xyz
  1  'x, y, z'
loop_
 _atom_site_type_symbol
 _atom_site_label
 _atom_site_symmetry_multiplicity
 _atom_site_fract_x
 _atom_site_fract_y
 _atom_site_fract_z
 _atom_site_occupancy
  Hf  Hf0  1  0.252631  0.000000  0.250000  1
  Hf  Hf1  1  0.747688  0.000000  0.750000  1
  Hf  Hf2  1  0.997481  0.246810  0.250000  1
  Hf  Hf3  1  0.998801  0.751507  0.750000  1
  Hf  Hf4  1  0.750670  0.753190  0.250000  1
  Hf  Hf5  1  0.247294  0.248493  0.750000  1
  Ta  Ta6  1  0.336620  0.670541  0.000596  1
  Ta  Ta7  1  0.666080  0.329459  0.000596  1
  Ta  Ta8  1  0.666080  0.329459  0.499404  1
  Ta  Ta9  1  0.336620  0.670541  0.499404  1
  Ga  Ga10  1  0.394300  0.000000  0.750000  1
  Ga  Ga11  1  0.999702  0.603223  0.250000  1
  Ga  Ga12  1  0.002000  0.399176  0.750000  1
  Ga  Ga13  1  0.396479  0.396777  0.250000  1
  Ga  Ga14  1  0.602824  0.600824  0.750000  1
  Si  Si15  1  0.604729  0.000000  0.250000  1
