# generated using pymatgen
data_Ba3YbIrO6
_symmetry_space_group_name_H-M   'P 1'
_cell_length_a   7.15513114
_cell_length_b   7.15513159
_cell_length_c   7.15513073
_cell_angle_alpha   92.75345849
_cell_angle_beta   92.75345407
_cell_angle_gamma   92.75346100
_symmetry_Int_Tables_number   1
_chemical_formula_structural   Ba3YbIrO6
_chemical_formula_sum   'Ba6 Yb2 Ir2 O12'
_cell_volume   365.00243156
_cell_formula_units_Z   2
loop_
 _symmetry_equiv_pos_site_id
 _symmetry_equiv_pos_as_xyz
  1  'x, y, z'
loop_
 _atom_site_type_symbol
 _atom_site_label
 _atom_site_symmetry_multiplicity
 _atom_site_fract_x
 _atom_site_fract_y
 _atom_site_fract_z
 _atom_site_occupancy
  Ba  Ba0  1  0.750000  0.389467  0.110533  1
  Ba  Ba1  1  0.110533  0.750000  0.389467  1
  Ba  Ba2  1  0.389467  0.110533  0.750000  1
  Ba  Ba3  1  0.250000  0.610533  0.889467  1
  Ba  Ba4  1  0.889467  0.250000  0.610533  1
  Ba  Ba5  1  0.610533  0.889467  0.250000  1
  Yb  Yb6  1  0.250000  0.250000  0.250000  1
  Yb  Yb7  1  0.750000  0.750000  0.750000  1
  Ir  Ir8  1  0.000000  0.000000  0.000000  1
  Ir  Ir9  1  0.500000  0.500000  0.500000  1
  O  O10  1  0.458920  0.774152  0.590867  1
  O  O11  1  0.590867  0.458920  0.774152  1
  O  O12  1  0.774152  0.590867  0.458920  1
  O  O13  1  0.041080  0.909133  0.725848  1
  O  O14  1  0.725848  0.041080  0.909133  1
  O  O15  1  0.909133  0.725848  0.041080  1
  O  O16  1  0.541080  0.225848  0.409133  1
  O  O17  1  0.409133  0.541080  0.225848  1
  O  O18  1  0.225848  0.409133  0.541080  1
  O  O19  1  0.958920  0.090867  0.274152  1
  O  O20  1  0.090867  0.274152  0.958920  1
  O  O21  1  0.274152  0.958920  0.090867  1
