# generated using pymatgen
data_Nd3Zr(NiSb)4
_symmetry_space_group_name_H-M   'P 1'
_cell_length_a   4.32682500
_cell_length_b   4.32682393
_cell_length_c   16.27222900
_cell_angle_alpha   90.00000000
_cell_angle_beta   90.00000000
_cell_angle_gamma   119.99998523
_symmetry_Int_Tables_number   1
_chemical_formula_structural   Nd3Zr(NiSb)4
_chemical_formula_sum   'Nd3 Zr1 Ni4 Sb4'
_cell_volume   263.82521289
_cell_formula_units_Z   1
loop_
 _symmetry_equiv_pos_site_id
 _symmetry_equiv_pos_as_xyz
  1  'x, y, z'
loop_
 _atom_site_type_symbol
 _atom_site_label
 _atom_site_symmetry_multiplicity
 _atom_site_fract_x
 _atom_site_fract_y
 _atom_site_fract_z
 _atom_site_occupancy
  Nd  Nd0  1  0.000000  0.000000  0.493287  1
  Nd  Nd1  1  0.000000  0.000000  0.006713  1
  Nd  Nd2  1  0.000000  0.000000  0.750000  1
  Zr  Zr3  1  0.000000  0.000000  0.250000  1
  Ni  Ni4  1  0.333333  0.666667  0.328867  1
  Ni  Ni5  1  0.666667  0.333333  0.610564  1
  Ni  Ni6  1  0.666667  0.333333  0.889436  1
  Ni  Ni7  1  0.333333  0.666667  0.171133  1
  Sb  Sb8  1  0.333333  0.666667  0.877663  1
  Sb  Sb9  1  0.666667  0.333333  0.130910  1
  Sb  Sb10  1  0.666667  0.333333  0.369090  1
  Sb  Sb11  1  0.333333  0.666667  0.622337  1
