# generated using pymatgen
data_Tm2ZnGaPt4
_symmetry_space_group_name_H-M   'P 1'
_cell_length_a   4.37290900
_cell_length_b   4.37290901
_cell_length_c   9.01795500
_cell_angle_alpha   90.00000000
_cell_angle_beta   90.00000000
_cell_angle_gamma   120.00000752
_symmetry_Int_Tables_number   1
_chemical_formula_structural   Tm2ZnGaPt4
_chemical_formula_sum   'Tm2 Zn1 Ga1 Pt4'
_cell_volume   149.34116769
_cell_formula_units_Z   1
loop_
 _symmetry_equiv_pos_site_id
 _symmetry_equiv_pos_as_xyz
  1  'x, y, z'
loop_
 _atom_site_type_symbol
 _atom_site_label
 _atom_site_symmetry_multiplicity
 _atom_site_fract_x
 _atom_site_fract_y
 _atom_site_fract_z
 _atom_site_occupancy
  Tm  Tm0  1  0.666666  0.333333  0.246309  1
  Tm  Tm1  1  0.333333  0.666667  0.753691  1
  Zn  Zn2  1  0.000000  0.000000  0.000000  1
  Ga  Ga3  1  0.000000  0.000000  0.500000  1
  Pt  Pt4  1  0.333333  0.666667  0.086915  1
  Pt  Pt5  1  0.333333  0.666667  0.413800  1
  Pt  Pt6  1  0.666666  0.333333  0.586201  1
  Pt  Pt7  1  0.666666  0.333333  0.913085  1
