# generated using pymatgen
data_Tb6Ho(ErSb2)3
_symmetry_space_group_name_H-M   'P 1'
_cell_length_a   9.00801800
_cell_length_b   9.00801713
_cell_length_c   6.27785200
_cell_angle_alpha   90.00000000
_cell_angle_beta   90.00000000
_cell_angle_gamma   119.99999585
_symmetry_Int_Tables_number   1
_chemical_formula_structural   Tb6Ho(ErSb2)3
_chemical_formula_sum   'Tb6 Ho1 Er3 Sb6'
_cell_volume   441.16410755
_cell_formula_units_Z   1
loop_
 _symmetry_equiv_pos_site_id
 _symmetry_equiv_pos_as_xyz
  1  'x, y, z'
loop_
 _atom_site_type_symbol
 _atom_site_label
 _atom_site_symmetry_multiplicity
 _atom_site_fract_x
 _atom_site_fract_y
 _atom_site_fract_z
 _atom_site_occupancy
  Tb  Tb0  1  0.000049  0.752693  0.750005  1
  Tb  Tb1  1  0.000049  0.247355  0.249995  1
  Tb  Tb2  1  0.752645  0.752693  0.249995  1
  Tb  Tb3  1  0.752645  0.999951  0.750005  1
  Tb  Tb4  1  0.247307  0.247355  0.750005  1
  Tb  Tb5  1  0.247307  0.999951  0.249995  1
  Ho  Ho6  1  0.333333  0.666667  0.500000  1
  Er  Er7  1  0.666667  0.333333  0.000000  1
  Er  Er8  1  0.666667  0.333333  0.500000  1
  Er  Er9  1  0.333333  0.666667  0.000000  1
  Sb  Sb10  1  0.390337  0.000499  0.750379  1
  Sb  Sb11  1  0.390337  0.389838  0.249621  1
  Sb  Sb12  1  0.999501  0.609663  0.249621  1
  Sb  Sb13  1  0.999501  0.389838  0.750379  1
  Sb  Sb14  1  0.610162  0.609663  0.750379  1
  Sb  Sb15  1  0.610162  0.000499  0.249621  1
