# generated using pymatgen
data_Dy3Np7O20
_symmetry_space_group_name_H-M   'P 1'
_cell_length_a   10.05871439
_cell_length_b   10.05871565
_cell_length_c   6.55866106
_cell_angle_alpha   83.72343089
_cell_angle_beta   83.72341875
_cell_angle_gamma   141.87264323
_symmetry_Int_Tables_number   1
_chemical_formula_structural   Dy3Np7O20
_chemical_formula_sum   'Dy3 Np7 O20'
_cell_volume   386.07458272
_cell_formula_units_Z   1
loop_
 _symmetry_equiv_pos_site_id
 _symmetry_equiv_pos_as_xyz
  1  'x, y, z'
loop_
 _atom_site_type_symbol
 _atom_site_label
 _atom_site_symmetry_multiplicity
 _atom_site_fract_x
 _atom_site_fract_y
 _atom_site_fract_z
 _atom_site_occupancy
  Dy  Dy0  1  0.500000  0.500000  0.000000  1
  Dy  Dy1  1  0.201163  0.798837  0.500000  1
  Dy  Dy2  1  0.798837  0.201163  0.500000  1
  Np  Np3  1  0.900069  0.099931  0.000000  1
  Np  Np4  1  0.399370  0.600630  0.500000  1
  Np  Np5  1  0.099931  0.900069  0.000000  1
  Np  Np6  1  0.000000  0.000000  0.500000  1
  Np  Np7  1  0.699677  0.300323  0.000000  1
  Np  Np8  1  0.600630  0.399370  0.500000  1
  Np  Np9  1  0.300323  0.699677  0.000000  1
  O  O10  1  0.269404  0.470966  0.875526  1
  O  O11  1  0.882039  0.882039  0.872334  1
  O  O12  1  0.774827  0.972602  0.372017  1
  O  O13  1  0.027398  0.225173  0.627983  1
  O  O14  1  0.470966  0.269404  0.875526  1
  O  O15  1  0.371594  0.371594  0.382261  1
  O  O16  1  0.628406  0.628406  0.617739  1
  O  O17  1  0.072811  0.673008  0.883983  1
  O  O18  1  0.529034  0.730596  0.124474  1
  O  O19  1  0.972602  0.774827  0.372017  1
  O  O20  1  0.225173  0.027398  0.627983  1
  O  O21  1  0.673008  0.072811  0.883983  1
  O  O22  1  0.117961  0.117961  0.127666  1
  O  O23  1  0.579217  0.183662  0.365914  1
  O  O24  1  0.816338  0.420783  0.634086  1
  O  O25  1  0.420783  0.816338  0.634086  1
  O  O26  1  0.730596  0.529034  0.124474  1
  O  O27  1  0.183662  0.579217  0.365914  1
  O  O28  1  0.326992  0.927189  0.116017  1
  O  O29  1  0.927189  0.326992  0.116017  1
