# generated using pymatgen
data_Be4CoNi3
_symmetry_space_group_name_H-M   'P 1'
_cell_length_a   3.66658737
_cell_length_b   5.21449516
_cell_length_c   5.80137024
_cell_angle_alpha   63.33401798
_cell_angle_beta   50.79963987
_cell_angle_gamma   90.01983488
_symmetry_Int_Tables_number   1
_chemical_formula_structural   Be4CoNi3
_chemical_formula_sum   'Be4 Co1 Ni3'
_cell_volume   70.05685076
_cell_formula_units_Z   1
loop_
 _symmetry_equiv_pos_site_id
 _symmetry_equiv_pos_as_xyz
  1  'x, y, z'
loop_
 _atom_site_type_symbol
 _atom_site_label
 _atom_site_symmetry_multiplicity
 _atom_site_fract_x
 _atom_site_fract_y
 _atom_site_fract_z
 _atom_site_occupancy
  Be  Be0  1  0.558107  0.647222  0.751499  1
  Be  Be1  1  0.554446  0.401837  0.253845  1
  Be  Be2  1  0.554455  0.889519  0.253534  1
  Be  Be3  1  0.557969  0.145978  0.751667  1
  Co  Co4  1  0.056434  0.645918  0.251922  1
  Ni  Ni5  1  0.061465  0.898250  0.748000  1
  Ni  Ni6  1  0.055840  0.146561  0.252566  1
  Ni  Ni7  1  0.052037  0.394122  0.757198  1
