# generated using pymatgen
data_Nd10SiBi2Pb4Au
_symmetry_space_group_name_H-M   'P 1'
_cell_length_a   9.60602601
_cell_length_b   9.60602475
_cell_length_c   6.88030700
_cell_angle_alpha   89.99692228
_cell_angle_beta   89.99692228
_cell_angle_gamma   119.99676021
_symmetry_Int_Tables_number   1
_chemical_formula_structural   Nd10SiBi2Pb4Au
_chemical_formula_sum   'Nd10 Si1 Bi2 Pb4 Au1'
_cell_volume   549.84475034
_cell_formula_units_Z   1
loop_
 _symmetry_equiv_pos_site_id
 _symmetry_equiv_pos_as_xyz
  1  'x, y, z'
loop_
 _atom_site_type_symbol
 _atom_site_label
 _atom_site_symmetry_multiplicity
 _atom_site_fract_x
 _atom_site_fract_y
 _atom_site_fract_z
 _atom_site_occupancy
  Nd  Nd0  1  0.666995  0.334187  0.998350  1
  Nd  Nd1  1  0.334187  0.666995  0.998350  1
  Nd  Nd2  1  0.336443  0.666503  0.501954  1
  Nd  Nd3  1  0.666503  0.336443  0.501954  1
  Nd  Nd4  1  0.745883  0.745883  0.764151  1
  Nd  Nd5  1  0.253457  0.000389  0.762555  1
  Nd  Nd6  1  0.000389  0.253457  0.762555  1
  Nd  Nd7  1  0.251379  0.251379  0.237631  1
  Nd  Nd8  1  0.747630  0.997559  0.237060  1
  Nd  Nd9  1  0.997559  0.747630  0.237060  1
  Si  Si10  1  0.000286  0.000286  0.998202  1
  Bi  Bi11  1  0.391986  0.000358  0.248869  1
  Bi  Bi12  1  0.000358  0.391986  0.248869  1
  Pb  Pb13  1  0.391171  0.391171  0.750303  1
  Pb  Pb14  1  0.610028  0.001305  0.749743  1
  Pb  Pb15  1  0.001305  0.610028  0.749743  1
  Pb  Pb16  1  0.605980  0.605980  0.248667  1
  Au  Au17  1  0.998460  0.998460  0.503980  1
