# generated using pymatgen
data_Ca7USb6
_symmetry_space_group_name_H-M   'P 1'
_cell_length_a   8.23975912
_cell_length_b   8.23975820
_cell_length_c   8.14995500
_cell_angle_alpha   109.25059514
_cell_angle_beta   109.25059291
_cell_angle_gamma   109.69093946
_symmetry_Int_Tables_number   1
_chemical_formula_structural   Ca7USb6
_chemical_formula_sum   'Ca7 U1 Sb6'
_cell_volume   427.10789037
_cell_formula_units_Z   1
loop_
 _symmetry_equiv_pos_site_id
 _symmetry_equiv_pos_as_xyz
  1  'x, y, z'
loop_
 _atom_site_type_symbol
 _atom_site_label
 _atom_site_symmetry_multiplicity
 _atom_site_fract_x
 _atom_site_fract_y
 _atom_site_fract_z
 _atom_site_occupancy
  Ca  Ca0  1  0.649072  0.649415  0.650389  1
  Ca  Ca1  1  0.007925  0.363275  0.504880  1
  Ca  Ca2  1  0.355350  0.492075  0.996955  1
  Ca  Ca3  1  0.000343  0.850928  0.501317  1
  Ca  Ca4  1  0.850585  0.499657  0.000974  1
  Ca  Ca5  1  0.500000  0.000000  0.852569  1
  Ca  Ca6  1  0.136725  0.144650  0.141605  1
  U  U7  1  0.500000  0.000000  0.348646  1
  Sb  Sb8  1  0.867531  0.123056  0.739735  1
  Sb  Sb9  1  0.376944  0.244476  0.616680  1
  Sb  Sb10  1  0.133439  0.756355  0.887947  1
  Sb  Sb11  1  0.743645  0.877084  0.131592  1
  Sb  Sb12  1  0.255524  0.632469  0.372203  1
  Sb  Sb13  1  0.622916  0.366561  0.254509  1
