# generated using pymatgen
data_SrSb12Ru3Rh
_symmetry_space_group_name_H-M   'P 1'
_cell_length_a   8.15715484
_cell_length_b   8.15715530
_cell_length_c   8.15715539
_cell_angle_alpha   109.43666902
_cell_angle_beta   109.43665117
_cell_angle_gamma   109.43665056
_symmetry_Int_Tables_number   1
_chemical_formula_structural   SrSb12Ru3Rh
_chemical_formula_sum   'Sr1 Sb12 Ru3 Rh1'
_cell_volume   418.35869670
_cell_formula_units_Z   1
loop_
 _symmetry_equiv_pos_site_id
 _symmetry_equiv_pos_as_xyz
  1  'x, y, z'
loop_
 _atom_site_type_symbol
 _atom_site_label
 _atom_site_symmetry_multiplicity
 _atom_site_fract_x
 _atom_site_fract_y
 _atom_site_fract_z
 _atom_site_occupancy
  Sr  Sr0  1  0.000000  0.000000  0.000000  1
  Sb  Sb1  1  0.155678  0.500119  0.341130  1
  Sb  Sb2  1  0.499881  0.658870  0.844322  1
  Sb  Sb3  1  0.341257  0.840989  0.182508  1
  Sb  Sb4  1  0.817492  0.658743  0.159011  1
  Sb  Sb5  1  0.658870  0.844322  0.499881  1
  Sb  Sb6  1  0.182508  0.341257  0.840989  1
  Sb  Sb7  1  0.658743  0.159011  0.817492  1
  Sb  Sb8  1  0.341130  0.155678  0.500119  1
  Sb  Sb9  1  0.500119  0.341130  0.155678  1
  Sb  Sb10  1  0.844322  0.499881  0.658870  1
  Sb  Sb11  1  0.840989  0.182508  0.341257  1
  Sb  Sb12  1  0.159011  0.817492  0.658743  1
  Ru  Ru13  1  0.500000  0.000000  0.000000  1
  Ru  Ru14  1  0.000000  0.500000  0.000000  1
  Ru  Ru15  1  0.000000  0.000000  0.500000  1
  Rh  Rh16  1  0.500000  0.500000  0.500000  1
