# generated using pymatgen
data_MnS27
_symmetry_space_group_name_H-M   'P 1'
_cell_length_a   15.08501595
_cell_length_b   15.08479968
_cell_length_c   15.08497813
_cell_angle_alpha   118.66043989
_cell_angle_beta   118.66190570
_cell_angle_gamma   118.66067313
_symmetry_Int_Tables_number   1
_chemical_formula_structural   MnS27
_chemical_formula_sum   'Mn1 S27'
_cell_volume   1025.25212950
_cell_formula_units_Z   1
loop_
 _symmetry_equiv_pos_site_id
 _symmetry_equiv_pos_as_xyz
  1  'x, y, z'
loop_
 _atom_site_type_symbol
 _atom_site_label
 _atom_site_symmetry_multiplicity
 _atom_site_fract_x
 _atom_site_fract_y
 _atom_site_fract_z
 _atom_site_occupancy
  Mn  Mn0  1  0.945488  0.945483  0.945485  1
  S  S1  1  0.801273  0.519107  0.519107  1
  S  S2  1  0.519107  0.519107  0.801274  1
  S  S3  1  0.519104  0.801270  0.519104  1
  S  S4  1  0.246914  0.376320  0.636318  1
  S  S5  1  0.349775  0.949538  0.349774  1
  S  S6  1  0.349770  0.349769  0.949534  1
  S  S7  1  0.949532  0.349768  0.349768  1
  S  S8  1  0.128087  0.740933  0.257432  1
  S  S9  1  0.257433  0.128085  0.740933  1
  S  S10  1  0.740931  0.257431  0.128085  1
  S  S11  1  0.740931  0.128085  0.257431  1
  S  S12  1  0.257432  0.740932  0.128086  1
  S  S13  1  0.128087  0.257432  0.740935  1
  S  S14  1  0.345629  0.877933  0.528206  1
  S  S15  1  0.528207  0.345629  0.877934  1
  S  S16  1  0.877932  0.528205  0.345628  1
  S  S17  1  0.877933  0.345627  0.528206  1
  S  S18  1  0.528208  0.877933  0.345630  1
  S  S19  1  0.345629  0.528207  0.877934  1
  S  S20  1  0.246915  0.636318  0.376320  1
  S  S21  1  0.376320  0.246914  0.636319  1
  S  S22  1  0.636318  0.376321  0.246916  1
  S  S23  1  0.636318  0.246916  0.376321  1
  S  S24  1  0.376322  0.636319  0.246916  1
  S  S25  1  0.849597  0.983055  0.983055  1
  S  S26  1  0.983054  0.983055  0.849595  1
  S  S27  1  0.983051  0.849605  0.983051  1
