# generated using pymatgen
data_Tb2Hf4Sn6(IrRh)3
_symmetry_space_group_name_H-M   'P 1'
_cell_length_a   7.49449387
_cell_length_b   7.46203692
_cell_length_c   7.39744096
_cell_angle_alpha   90.05789295
_cell_angle_beta   90.02329842
_cell_angle_gamma   119.97587925
_symmetry_Int_Tables_number   1
_chemical_formula_structural   Tb2Hf4Sn6(IrRh)3
_chemical_formula_sum   'Tb2 Hf4 Sn6 Ir3 Rh3'
_cell_volume   358.35782021
_cell_formula_units_Z   1
loop_
 _symmetry_equiv_pos_site_id
 _symmetry_equiv_pos_as_xyz
  1  'x, y, z'
loop_
 _atom_site_type_symbol
 _atom_site_label
 _atom_site_symmetry_multiplicity
 _atom_site_fract_x
 _atom_site_fract_y
 _atom_site_fract_z
 _atom_site_occupancy
  Tb  Tb0  1  0.001700  0.406733  0.250417  1
  Tb  Tb1  1  0.595801  0.592212  0.250468  1
  Hf  Hf2  1  0.996629  0.390938  0.749504  1
  Hf  Hf3  1  0.604294  0.611965  0.749334  1
  Hf  Hf4  1  0.393956  0.998194  0.749735  1
  Hf  Hf5  1  0.398707  0.991352  0.251453  1
  Sn  Sn6  1  0.268069  0.266755  0.508545  1
  Sn  Sn7  1  0.998289  0.732902  0.509400  1
  Sn  Sn8  1  0.996762  0.731798  0.990865  1
  Sn  Sn9  1  0.734357  0.001304  0.494853  1
  Sn  Sn10  1  0.734496  0.003162  0.005172  1
  Sn  Sn11  1  0.269571  0.266249  0.991690  1
  Ir  Ir12  1  0.334417  0.675001  0.530006  1
  Ir  Ir13  1  0.662410  0.327537  0.533846  1
  Ir  Ir14  1  0.334635  0.675303  0.970408  1
  Rh  Rh15  1  0.995222  0.001121  0.749724  1
  Rh  Rh16  1  0.017988  0.999718  0.250402  1
  Rh  Rh17  1  0.662698  0.327753  0.964180  1
