# generated using pymatgen
data_Pr8Nd12Si15Br
_symmetry_space_group_name_H-M   'P 1'
_cell_length_a   7.87153274
_cell_length_b   7.96512333
_cell_length_c   15.35705348
_cell_angle_alpha   89.83957771
_cell_angle_beta   83.50053371
_cell_angle_gamma   89.69184503
_symmetry_Int_Tables_number   1
_chemical_formula_structural   Pr8Nd12Si15Br
_chemical_formula_sum   'Pr8 Nd12 Si15 Br1'
_cell_volume   956.64787728
_cell_formula_units_Z   1
loop_
 _symmetry_equiv_pos_site_id
 _symmetry_equiv_pos_as_xyz
  1  'x, y, z'
loop_
 _atom_site_type_symbol
 _atom_site_label
 _atom_site_symmetry_multiplicity
 _atom_site_fract_x
 _atom_site_fract_y
 _atom_site_fract_z
 _atom_site_occupancy
  Pr  Pr0  1  0.188521  0.507786  0.747735  1
  Pr  Pr1  1  0.899503  0.324639  0.616569  1
  Pr  Pr2  1  0.477564  0.689687  0.895715  1
  Pr  Pr3  1  0.976174  0.813561  0.897122  1
  Pr  Pr4  1  0.168512  0.679317  0.120913  1
  Pr  Pr5  1  0.667383  0.816038  0.120933  1
  Pr  Pr6  1  0.334700  0.184335  0.880679  1
  Pr  Pr7  1  0.113649  0.672917  0.386980  1
  Nd  Nd8  1  0.023384  0.186037  0.104369  1
  Nd  Nd9  1  0.391494  0.166121  0.612428  1
  Nd  Nd10  1  0.812566  0.493697  0.241543  1
  Nd  Nd11  1  0.312039  0.002803  0.251337  1
  Nd  Nd12  1  0.451821  0.316694  0.389544  1
  Nd  Nd13  1  0.832115  0.320511  0.878701  1
  Nd  Nd14  1  0.044369  0.830138  0.610041  1
  Nd  Nd15  1  0.526181  0.685674  0.612821  1
  Nd  Nd16  1  0.965661  0.163784  0.390210  1
  Nd  Nd17  1  0.605753  0.842205  0.386238  1
  Nd  Nd18  1  0.689540  0.997105  0.747169  1
  Nd  Nd19  1  0.523225  0.310525  0.104681  1
  Si  Si20  1  0.430602  0.605766  0.254182  1
  Si  Si21  1  0.199320  0.377618  0.249887  1
  Si  Si22  1  0.571107  0.394957  0.748986  1
  Si  Si23  1  0.641589  0.028557  0.959808  1
  Si  Si24  1  0.070081  0.108173  0.751685  1
  Si  Si25  1  0.795286  0.621143  0.751212  1
  Si  Si26  1  0.701720  0.119834  0.249433  1
  Si  Si27  1  0.268778  0.990899  0.451827  1
  Si  Si28  1  0.930736  0.892533  0.251560  1
  Si  Si29  1  0.360724  0.975464  0.042595  1
  Si  Si30  1  0.735995  0.006636  0.544976  1
  Si  Si31  1  0.137737  0.473339  0.959184  1
  Si  Si32  1  0.233929  0.491392  0.545148  1
  Si  Si33  1  0.858662  0.521920  0.041653  1
  Si  Si34  1  0.298753  0.884559  0.752746  1
  Br  Br35  1  0.760822  0.503634  0.449389  1
