# generated using pymatgen
data_Pr7PaZn8(IrRh3)2
_symmetry_space_group_name_H-M   'P 1'
_cell_length_a   4.00519200
_cell_length_b   7.39896114
_cell_length_c   16.69857286
_cell_angle_alpha   89.71387455
_cell_angle_beta   90.00000000
_cell_angle_gamma   90.00000000
_symmetry_Int_Tables_number   1
_chemical_formula_structural   Pr7PaZn8(IrRh3)2
_chemical_formula_sum   'Pr7 Pa1 Zn8 Ir2 Rh6'
_cell_volume   494.84367873
_cell_formula_units_Z   1
loop_
 _symmetry_equiv_pos_site_id
 _symmetry_equiv_pos_as_xyz
  1  'x, y, z'
loop_
 _atom_site_type_symbol
 _atom_site_label
 _atom_site_symmetry_multiplicity
 _atom_site_fract_x
 _atom_site_fract_y
 _atom_site_fract_z
 _atom_site_occupancy
  Pr  Pr0  1  0.750000  0.950435  0.283020  1
  Pr  Pr1  1  0.750000  0.823520  0.060690  1
  Pr  Pr2  1  0.250000  0.048535  0.715895  1
  Pr  Pr3  1  0.250000  0.169010  0.940298  1
  Pr  Pr4  1  0.250000  0.547655  0.784082  1
  Pr  Pr5  1  0.750000  0.334004  0.439488  1
  Pr  Pr6  1  0.250000  0.670038  0.560523  1
  Pa  Pa7  1  0.750000  0.445289  0.215049  1
  Zn  Zn8  1  0.250000  0.002818  0.439282  1
  Zn  Zn9  1  0.750000  0.502040  0.940015  1
  Zn  Zn10  1  0.750000  0.003580  0.559974  1
  Zn  Zn11  1  0.250000  0.623557  0.350756  1
  Zn  Zn12  1  0.750000  0.377254  0.650385  1
  Zn  Zn13  1  0.750000  0.878996  0.849228  1
  Zn  Zn14  1  0.250000  0.498827  0.057529  1
  Zn  Zn15  1  0.250000  0.118984  0.151577  1
  Ir  Ir16  1  0.250000  0.244822  0.564935  1
  Ir  Ir17  1  0.250000  0.266315  0.300181  1
  Rh  Rh18  1  0.750000  0.269271  0.075395  1
  Rh  Rh19  1  0.750000  0.253534  0.816526  1
  Rh  Rh20  1  0.250000  0.748678  0.934705  1
  Rh  Rh21  1  0.750000  0.753003  0.686584  1
  Rh  Rh22  1  0.750000  0.764513  0.434043  1
  Rh  Rh23  1  0.250000  0.705321  0.189840  1
