# generated using pymatgen
data_LuPa(Si2Ni)2
_symmetry_space_group_name_H-M   'P 1'
_cell_length_a   8.39731948
_cell_length_b   8.39731935
_cell_length_c   3.95113700
_cell_angle_alpha   90.00000000
_cell_angle_beta   90.00000000
_cell_angle_gamma   152.80500901
_symmetry_Int_Tables_number   1
_chemical_formula_structural   LuPa(Si2Ni)2
_chemical_formula_sum   'Lu1 Pa1 Si4 Ni2'
_cell_volume   127.33236368
_cell_formula_units_Z   1
loop_
 _symmetry_equiv_pos_site_id
 _symmetry_equiv_pos_as_xyz
  1  'x, y, z'
loop_
 _atom_site_type_symbol
 _atom_site_label
 _atom_site_symmetry_multiplicity
 _atom_site_fract_x
 _atom_site_fract_y
 _atom_site_fract_z
 _atom_site_occupancy
  Lu  Lu0  1  0.101521  0.898479  0.250000  1
  Pa  Pa1  1  0.894468  0.105532  0.750000  1
  Si  Si2  1  0.540581  0.459419  0.750000  1
  Si  Si3  1  0.462553  0.537447  0.250000  1
  Si  Si4  1  0.249188  0.750812  0.750000  1
  Si  Si5  1  0.749021  0.250979  0.250000  1
  Ni  Ni6  1  0.677725  0.322275  0.750000  1
  Ni  Ni7  1  0.324943  0.675057  0.250000  1
