# generated using pymatgen
data_Dy8Lu11Si16Ag
_symmetry_space_group_name_H-M   'P 1'
_cell_length_a   7.20202875
_cell_length_b   7.59307139
_cell_length_c   14.35586500
_cell_angle_alpha   90.00000000
_cell_angle_beta   90.00000000
_cell_angle_gamma   89.96456094
_symmetry_Int_Tables_number   1
_chemical_formula_structural   Dy8Lu11Si16Ag
_chemical_formula_sum   'Dy8 Lu11 Si16 Ag1'
_cell_volume   785.05776985
_cell_formula_units_Z   1
loop_
 _symmetry_equiv_pos_site_id
 _symmetry_equiv_pos_as_xyz
  1  'x, y, z'
loop_
 _atom_site_type_symbol
 _atom_site_label
 _atom_site_symmetry_multiplicity
 _atom_site_fract_x
 _atom_site_fract_y
 _atom_site_fract_z
 _atom_site_occupancy
  Dy  Dy0  1  0.015820  0.179613  0.096367  1
  Dy  Dy1  1  0.985477  0.809144  0.900157  1
  Dy  Dy2  1  0.478804  0.674752  0.900713  1
  Dy  Dy3  1  0.985477  0.809144  0.599843  1
  Dy  Dy4  1  0.514321  0.322179  0.095676  1
  Dy  Dy5  1  0.015820  0.179613  0.403633  1
  Dy  Dy6  1  0.514321  0.322179  0.404324  1
  Dy  Dy7  1  0.478804  0.674752  0.599287  1
  Lu  Lu8  1  0.840017  0.491299  0.250000  1
  Lu  Lu9  1  0.343528  0.010812  0.250000  1
  Lu  Lu10  1  0.652702  0.990617  0.750000  1
  Lu  Lu11  1  0.320371  0.184718  0.627195  1
  Lu  Lu12  1  0.674962  0.823252  0.376522  1
  Lu  Lu13  1  0.174023  0.681754  0.375383  1
  Lu  Lu14  1  0.674962  0.823252  0.123478  1
  Lu  Lu15  1  0.836815  0.326147  0.627132  1
  Lu  Lu16  1  0.320371  0.184718  0.872805  1
  Lu  Lu17  1  0.836815  0.326147  0.872868  1
  Lu  Lu18  1  0.174023  0.681754  0.124617  1
  Si  Si19  1  0.023043  0.084553  0.750000  1
  Si  Si20  1  0.972111  0.895736  0.250000  1
  Si  Si21  1  0.469668  0.611552  0.250000  1
  Si  Si22  1  0.531955  0.394409  0.750000  1
  Si  Si23  1  0.279079  0.873337  0.750000  1
  Si  Si24  1  0.720541  0.130361  0.250000  1
  Si  Si25  1  0.219271  0.371898  0.250000  1
  Si  Si26  1  0.770566  0.629246  0.750000  1
  Si  Si27  1  0.161092  0.462492  0.531191  1
  Si  Si28  1  0.845152  0.531989  0.462075  1
  Si  Si29  1  0.346752  0.969252  0.464017  1
  Si  Si30  1  0.845152  0.531989  0.037925  1
  Si  Si31  1  0.655324  0.031384  0.540839  1
  Si  Si32  1  0.161092  0.462492  0.968809  1
  Si  Si33  1  0.655324  0.031384  0.959161  1
  Si  Si34  1  0.346752  0.969252  0.035983  1
  Ag  Ag35  1  0.159690  0.522820  0.750000  1
