# generated using pymatgen
data_DyHo(Tm4Bi3)2
_symmetry_space_group_name_H-M   'P 1'
_cell_length_a   8.18834800
_cell_length_b   9.45010500
_cell_length_c   11.91502000
_cell_angle_alpha   90.00000000
_cell_angle_beta   90.00000000
_cell_angle_gamma   90.00000000
_symmetry_Int_Tables_number   1
_chemical_formula_structural   DyHo(Tm4Bi3)2
_chemical_formula_sum   'Dy2 Ho2 Tm16 Bi12'
_cell_volume   921.99316452
_cell_formula_units_Z   2
loop_
 _symmetry_equiv_pos_site_id
 _symmetry_equiv_pos_as_xyz
  1  'x, y, z'
loop_
 _atom_site_type_symbol
 _atom_site_label
 _atom_site_symmetry_multiplicity
 _atom_site_fract_x
 _atom_site_fract_y
 _atom_site_fract_z
 _atom_site_occupancy
  Dy  Dy0  1  0.313880  0.250000  0.218134  1
  Dy  Dy1  1  0.813880  0.250000  0.281866  1
  Ho  Ho2  1  0.686166  0.750000  0.781940  1
  Ho  Ho3  1  0.186166  0.750000  0.718060  1
  Tm  Tm4  1  0.353587  0.750000  0.217404  1
  Tm  Tm5  1  0.853587  0.750000  0.282596  1
  Tm  Tm6  1  0.646413  0.250000  0.782610  1
  Tm  Tm7  1  0.146413  0.250000  0.717390  1
  Tm  Tm8  1  0.692252  0.565709  0.059513  1
  Tm  Tm9  1  0.192252  0.934291  0.440487  1
  Tm  Tm10  1  0.307739  0.065717  0.940455  1
  Tm  Tm11  1  0.807739  0.434283  0.559545  1
  Tm  Tm12  1  0.307739  0.434283  0.940455  1
  Tm  Tm13  1  0.807739  0.065717  0.559545  1
  Tm  Tm14  1  0.692252  0.934291  0.059513  1
  Tm  Tm15  1  0.192252  0.565709  0.440487  1
  Tm  Tm16  1  0.476813  0.250000  0.489406  1
  Tm  Tm17  1  0.976813  0.250000  0.010594  1
  Tm  Tm18  1  0.523164  0.750000  0.510655  1
  Tm  Tm19  1  0.023164  0.750000  0.989345  1
  Bi  Bi20  1  0.404343  0.750000  0.958226  1
  Bi  Bi21  1  0.904343  0.750000  0.541774  1
  Bi  Bi22  1  0.595728  0.250000  0.041622  1
  Bi  Bi23  1  0.095728  0.250000  0.458378  1
  Bi  Bi24  1  0.566066  0.995395  0.325940  1
  Bi  Bi25  1  0.066066  0.504605  0.174060  1
  Bi  Bi26  1  0.433897  0.495556  0.674103  1
  Bi  Bi27  1  0.933897  0.004444  0.825897  1
  Bi  Bi28  1  0.433897  0.004444  0.674103  1
  Bi  Bi29  1  0.933897  0.495556  0.825897  1
  Bi  Bi30  1  0.566066  0.504605  0.325940  1
  Bi  Bi31  1  0.066066  0.995395  0.174060  1
