# generated using pymatgen
data_Cs2Ba(ThSe3)2
_symmetry_space_group_name_H-M   'P 1'
_cell_length_a   7.77104700
_cell_length_b   7.77104715
_cell_length_c   8.89296600
_cell_angle_alpha   90.00000000
_cell_angle_beta   90.00000000
_cell_angle_gamma   120.00000362
_symmetry_Int_Tables_number   1
_chemical_formula_structural   Cs2Ba(ThSe3)2
_chemical_formula_sum   'Cs2 Ba1 Th2 Se6'
_cell_volume   465.08927778
_cell_formula_units_Z   1
loop_
 _symmetry_equiv_pos_site_id
 _symmetry_equiv_pos_as_xyz
  1  'x, y, z'
loop_
 _atom_site_type_symbol
 _atom_site_label
 _atom_site_symmetry_multiplicity
 _atom_site_fract_x
 _atom_site_fract_y
 _atom_site_fract_z
 _atom_site_occupancy
  Cs  Cs0  1  0.333333  0.666666  0.501464  1
  Cs  Cs1  1  0.666667  0.333334  0.498536  1
  Ba  Ba2  1  0.000000  0.000000  0.000000  1
  Th  Th3  1  0.666667  0.333334  0.999457  1
  Th  Th4  1  0.333333  0.666666  0.000543  1
  Se  Se5  1  0.627901  0.000237  0.182549  1
  Se  Se6  1  0.372336  0.372100  0.182549  1
  Se  Se7  1  0.999763  0.627663  0.182549  1
  Se  Se8  1  0.000237  0.372337  0.817450  1
  Se  Se9  1  0.627664  0.627900  0.817450  1
  Se  Se10  1  0.372099  0.999763  0.817450  1
