# generated using pymatgen
data_DyHfGePt8
_symmetry_space_group_name_H-M   'P 1'
_cell_length_a   4.08862600
_cell_length_b   4.08862600
_cell_length_c   11.23042900
_cell_angle_alpha   90.00000000
_cell_angle_beta   90.00000000
_cell_angle_gamma   90.00000000
_symmetry_Int_Tables_number   1
_chemical_formula_structural   DyHfGePt8
_chemical_formula_sum   'Dy1 Hf1 Ge1 Pt8'
_cell_volume   187.73753817
_cell_formula_units_Z   1
loop_
 _symmetry_equiv_pos_site_id
 _symmetry_equiv_pos_as_xyz
  1  'x, y, z'
loop_
 _atom_site_type_symbol
 _atom_site_label
 _atom_site_symmetry_multiplicity
 _atom_site_fract_x
 _atom_site_fract_y
 _atom_site_fract_z
 _atom_site_occupancy
  Dy  Dy0  1  0.500000  0.500000  0.182268  1
  Hf  Hf1  1  0.500000  0.500000  0.817146  1
  Ge  Ge2  1  0.000000  0.000000  0.502415  1
  Pt  Pt3  1  0.500000  0.000000  0.991635  1
  Pt  Pt4  1  0.000000  0.500000  0.991635  1
  Pt  Pt5  1  0.500000  0.000000  0.641908  1
  Pt  Pt6  1  0.000000  0.500000  0.641908  1
  Pt  Pt7  1  0.500000  0.000000  0.367364  1
  Pt  Pt8  1  0.000000  0.500000  0.367364  1
  Pt  Pt9  1  0.000000  0.000000  0.819102  1
  Pt  Pt10  1  0.000000  0.000000  0.177257  1
