# generated using pymatgen
data_La2Pr2GeI5
_symmetry_space_group_name_H-M   'P 1'
_cell_length_a   10.16610394
_cell_length_b   10.16610354
_cell_length_c   9.13776829
_cell_angle_alpha   77.83110677
_cell_angle_beta   77.83110636
_cell_angle_gamma   25.01786757
_symmetry_Int_Tables_number   1
_chemical_formula_structural   La2Pr2GeI5
_chemical_formula_sum   'La2 Pr2 Ge1 I5'
_cell_volume   389.96041890
_cell_formula_units_Z   1
loop_
 _symmetry_equiv_pos_site_id
 _symmetry_equiv_pos_as_xyz
  1  'x, y, z'
loop_
 _atom_site_type_symbol
 _atom_site_label
 _atom_site_symmetry_multiplicity
 _atom_site_fract_x
 _atom_site_fract_y
 _atom_site_fract_z
 _atom_site_occupancy
  La  La0  1  0.849293  0.849293  0.076569  1
  La  La1  1  0.150707  0.150707  0.923431  1
  Pr  Pr2  1  0.500742  0.500742  0.215985  1
  Pr  Pr3  1  0.499258  0.499258  0.784015  1
  Ge  Ge4  1  0.000000  0.000000  0.000000  1
  I  I5  1  0.670339  0.670339  0.177730  1
  I  I6  1  0.329661  0.329661  0.822270  1
  I  I7  1  0.665204  0.665204  0.659188  1
  I  I8  1  0.334796  0.334796  0.340812  1
  I  I9  1  0.000000  0.000000  0.500000  1
