# generated using pymatgen
data_PrPd3PtAu
_symmetry_space_group_name_H-M   'P 1'
_cell_length_a   5.41319594
_cell_length_b   5.41319595
_cell_length_c   5.41319500
_cell_angle_alpha   59.63405920
_cell_angle_beta   59.63405912
_cell_angle_gamma   59.63405349
_symmetry_Int_Tables_number   1
_chemical_formula_structural   PrPd3PtAu
_chemical_formula_sum   'Pr1 Pd3 Pt1 Au1'
_cell_volume   111.22940108
_cell_formula_units_Z   1
loop_
 _symmetry_equiv_pos_site_id
 _symmetry_equiv_pos_as_xyz
  1  'x, y, z'
loop_
 _atom_site_type_symbol
 _atom_site_label
 _atom_site_symmetry_multiplicity
 _atom_site_fract_x
 _atom_site_fract_y
 _atom_site_fract_z
 _atom_site_occupancy
  Pr  Pr0  1  0.998991  0.998991  0.998991  1
  Pd  Pd1  1  0.624984  0.624984  0.126968  1
  Pd  Pd2  1  0.624984  0.126968  0.624984  1
  Pd  Pd3  1  0.126968  0.624984  0.624984  1
  Pt  Pt4  1  0.625208  0.625208  0.625208  1
  Au  Au5  1  0.248865  0.248865  0.248865  1
