# generated using pymatgen
data_K4MnV3F12
_symmetry_space_group_name_H-M   'P 1'
_cell_length_a   5.95349104
_cell_length_b   5.98348801
_cell_length_c   8.42330205
_cell_angle_alpha   89.99987517
_cell_angle_beta   90.01258864
_cell_angle_gamma   90.00511664
_symmetry_Int_Tables_number   1
_chemical_formula_structural   K4MnV3F12
_chemical_formula_sum   'K4 Mn1 V3 F12'
_cell_volume   300.06026706
_cell_formula_units_Z   1
loop_
 _symmetry_equiv_pos_site_id
 _symmetry_equiv_pos_as_xyz
  1  'x, y, z'
loop_
 _atom_site_type_symbol
 _atom_site_label
 _atom_site_symmetry_multiplicity
 _atom_site_fract_x
 _atom_site_fract_y
 _atom_site_fract_z
 _atom_site_occupancy
  K  K0  1  0.990920  0.001664  0.249495  1
  K  K1  1  0.491030  0.498330  0.249443  1
  K  K2  1  0.508970  0.501670  0.750557  1
  K  K3  1  0.009080  0.998336  0.750505  1
  Mn  Mn4  1  0.000000  0.500000  0.500000  1
  V  V5  1  0.000000  0.500000  0.000000  1
  V  V6  1  0.500000  0.000000  0.500000  1
  V  V7  1  0.500000  0.000000  0.000000  1
  F  F8  1  0.734119  0.264231  0.477538  1
  F  F9  1  0.235074  0.235054  0.022571  1
  F  F10  1  0.764248  0.765655  0.522478  1
  F  F11  1  0.265048  0.735105  0.977419  1
  F  F12  1  0.265881  0.735769  0.522462  1
  F  F13  1  0.764926  0.764946  0.977429  1
  F  F14  1  0.235752  0.234345  0.477522  1
  F  F15  1  0.734952  0.264895  0.022581  1
  F  F16  1  0.503184  0.956374  0.249852  1
  F  F17  1  0.003205  0.543355  0.249080  1
  F  F18  1  0.996795  0.456645  0.750920  1
  F  F19  1  0.496816  0.043626  0.750148  1
