# generated using pymatgen
data_La16Cd2Hg2IrRu3
_symmetry_space_group_name_H-M   'P 1'
_cell_length_a   10.08644569
_cell_length_b   10.08968085
_cell_length_c   10.07729813
_cell_angle_alpha   59.95935249
_cell_angle_beta   59.94198016
_cell_angle_gamma   59.98939154
_symmetry_Int_Tables_number   1
_chemical_formula_structural   La16Cd2Hg2IrRu3
_chemical_formula_sum   'La16 Cd2 Hg2 Ir1 Ru3'
_cell_volume   724.57884060
_cell_formula_units_Z   1
loop_
 _symmetry_equiv_pos_site_id
 _symmetry_equiv_pos_as_xyz
  1  'x, y, z'
loop_
 _atom_site_type_symbol
 _atom_site_label
 _atom_site_symmetry_multiplicity
 _atom_site_fract_x
 _atom_site_fract_y
 _atom_site_fract_z
 _atom_site_occupancy
  La  La0  1  0.903070  0.901960  0.904446  1
  La  La1  1  0.438732  0.439171  0.060326  1
  La  La2  1  0.059856  0.060620  0.436543  1
  La  La3  1  0.438732  0.061771  0.060326  1
  La  La4  1  0.308549  0.691506  0.308440  1
  La  La5  1  0.689958  0.690488  0.308623  1
  La  La6  1  0.689958  0.310931  0.308623  1
  La  La7  1  0.290137  0.902495  0.904874  1
  La  La8  1  0.903070  0.290525  0.904446  1
  La  La9  1  0.308740  0.689946  0.690369  1
  La  La10  1  0.904202  0.903275  0.289249  1
  La  La11  1  0.060234  0.440140  0.059485  1
  La  La12  1  0.308740  0.310947  0.690369  1
  La  La13  1  0.059856  0.442981  0.436543  1
  La  La14  1  0.442156  0.061093  0.435657  1
  La  La15  1  0.688642  0.310873  0.689611  1
  Cd  Cd16  1  0.670767  0.986876  0.670976  1
  Cd  Cd17  1  0.670767  0.671380  0.670976  1
  Hg  Hg18  1  0.666742  0.668384  0.996490  1
  Hg  Hg19  1  0.996872  0.668195  0.666738  1
  Ir  Ir20  1  0.111279  0.110189  0.668340  1
  Ru  Ru21  1  0.113644  0.111495  0.112579  1
  Ru  Ru22  1  0.113644  0.662280  0.112579  1
  Ru  Ru23  1  0.661652  0.112478  0.113390  1
