# generated using pymatgen
data_TlOsCl8
_symmetry_space_group_name_H-M   'P 1'
_cell_length_a   10.27961713
_cell_length_b   10.27961539
_cell_length_c   9.17860800
_cell_angle_alpha   90.00000000
_cell_angle_beta   90.00000000
_cell_angle_gamma   129.91809630
_symmetry_Int_Tables_number   1
_chemical_formula_structural   TlOsCl8
_chemical_formula_sum   'Tl2 Os2 Cl16'
_cell_volume   743.88323015
_cell_formula_units_Z   2
loop_
 _symmetry_equiv_pos_site_id
 _symmetry_equiv_pos_as_xyz
  1  'x, y, z'
loop_
 _atom_site_type_symbol
 _atom_site_label
 _atom_site_symmetry_multiplicity
 _atom_site_fract_x
 _atom_site_fract_y
 _atom_site_fract_z
 _atom_site_occupancy
  Tl  Tl0  1  0.325750  0.674250  0.750000  1
  Tl  Tl1  1  0.674250  0.325750  0.250000  1
  Os  Os2  1  0.878737  0.121263  0.250000  1
  Os  Os3  1  0.121263  0.878737  0.750000  1
  Cl  Cl4  1  0.382114  0.617886  0.517592  1
  Cl  Cl5  1  0.617886  0.382114  0.482408  1
  Cl  Cl6  1  0.410487  0.977163  0.750000  1
  Cl  Cl7  1  0.977163  0.410487  0.250000  1
  Cl  Cl8  1  0.589513  0.022837  0.250000  1
  Cl  Cl9  1  0.022837  0.589513  0.750000  1
  Cl  Cl10  1  0.232901  0.152268  0.750000  1
  Cl  Cl11  1  0.152268  0.232901  0.250000  1
  Cl  Cl12  1  0.767099  0.847732  0.250000  1
  Cl  Cl13  1  0.847732  0.767099  0.750000  1
  Cl  Cl14  1  0.128583  0.871417  0.500362  1
  Cl  Cl15  1  0.871417  0.128583  0.499638  1
  Cl  Cl16  1  0.871417  0.128583  0.000362  1
  Cl  Cl17  1  0.128583  0.871417  0.999638  1
  Cl  Cl18  1  0.382114  0.617886  0.982408  1
  Cl  Cl19  1  0.617886  0.382114  0.017592  1
