# generated using pymatgen
data_Tm5IrOs
_symmetry_space_group_name_H-M   'P 1'
_cell_length_a   6.33605703
_cell_length_b   7.27069686
_cell_length_c   8.29461805
_cell_angle_alpha   96.67998489
_cell_angle_beta   112.45376270
_cell_angle_gamma   89.99999780
_symmetry_Int_Tables_number   1
_chemical_formula_structural   Tm5IrOs
_chemical_formula_sum   'Tm10 Ir2 Os2'
_cell_volume   350.33556072
_cell_formula_units_Z   2
loop_
 _symmetry_equiv_pos_site_id
 _symmetry_equiv_pos_as_xyz
  1  'x, y, z'
loop_
 _atom_site_type_symbol
 _atom_site_label
 _atom_site_symmetry_multiplicity
 _atom_site_fract_x
 _atom_site_fract_y
 _atom_site_fract_z
 _atom_site_occupancy
  Tm  Tm0  1  0.969391  0.915940  0.178676  1
  Tm  Tm1  1  0.790714  0.584060  0.821324  1
  Tm  Tm2  1  0.026110  0.081852  0.816735  1
  Tm  Tm3  1  0.209377  0.418148  0.183265  1
  Tm  Tm4  1  0.652756  0.818003  0.440207  1
  Tm  Tm5  1  0.212550  0.681997  0.559793  1
  Tm  Tm6  1  0.350322  0.178579  0.561740  1
  Tm  Tm7  1  0.788582  0.321421  0.438260  1
  Tm  Tm8  1  0.422645  0.750000  0.000000  1
  Tm  Tm9  1  0.578709  0.250000  0.000000  1
  Ir  Ir10  1  0.173496  0.423281  0.780055  1
  Ir  Ir11  1  0.393440  0.076719  0.219945  1
  Os  Os12  1  0.824601  0.574785  0.217293  1
  Os  Os13  1  0.607308  0.925215  0.782707  1
