# generated using pymatgen
data_Nd2Lu2ScBi3
_symmetry_space_group_name_H-M   'P 1'
_cell_length_a   8.20066100
_cell_length_b   9.38738700
_cell_length_c   12.22209400
_cell_angle_alpha   90.00000000
_cell_angle_beta   90.00000000
_cell_angle_gamma   90.00000000
_symmetry_Int_Tables_number   1
_chemical_formula_structural   Nd2Lu2ScBi3
_chemical_formula_sum   'Nd8 Lu8 Sc4 Bi12'
_cell_volume   940.89075475
_cell_formula_units_Z   4
loop_
 _symmetry_equiv_pos_site_id
 _symmetry_equiv_pos_as_xyz
  1  'x, y, z'
loop_
 _atom_site_type_symbol
 _atom_site_label
 _atom_site_symmetry_multiplicity
 _atom_site_fract_x
 _atom_site_fract_y
 _atom_site_fract_z
 _atom_site_occupancy
  Nd  Nd0  1  0.352644  0.250000  0.284217  1
  Nd  Nd1  1  0.647356  0.750000  0.715783  1
  Nd  Nd2  1  0.147356  0.750000  0.784217  1
  Nd  Nd3  1  0.852644  0.250000  0.215783  1
  Nd  Nd4  1  0.183370  0.250000  0.779255  1
  Nd  Nd5  1  0.816630  0.750000  0.220745  1
  Nd  Nd6  1  0.316630  0.750000  0.279255  1
  Nd  Nd7  1  0.683370  0.250000  0.720745  1
  Lu  Lu8  1  0.194935  0.067303  0.056981  1
  Lu  Lu9  1  0.805065  0.932697  0.943019  1
  Lu  Lu10  1  0.305065  0.932697  0.556981  1
  Lu  Lu11  1  0.805065  0.567303  0.943019  1
  Lu  Lu12  1  0.694935  0.067303  0.443019  1
  Lu  Lu13  1  0.194935  0.432697  0.056981  1
  Lu  Lu14  1  0.694935  0.432697  0.443019  1
  Lu  Lu15  1  0.305065  0.567303  0.556981  1
  Sc  Sc16  1  0.023709  0.250000  0.511684  1
  Sc  Sc17  1  0.976291  0.750000  0.488316  1
  Sc  Sc18  1  0.476291  0.750000  0.011684  1
  Sc  Sc19  1  0.523709  0.250000  0.988316  1
  Bi  Bi20  1  0.400401  0.250000  0.542642  1
  Bi  Bi21  1  0.599599  0.750000  0.457358  1
  Bi  Bi22  1  0.099599  0.750000  0.042642  1
  Bi  Bi23  1  0.900401  0.250000  0.957358  1
  Bi  Bi24  1  0.063468  0.004408  0.337661  1
  Bi  Bi25  1  0.936532  0.995592  0.662339  1
  Bi  Bi26  1  0.436532  0.995592  0.837661  1
  Bi  Bi27  1  0.936532  0.504408  0.662339  1
  Bi  Bi28  1  0.563468  0.004408  0.162339  1
  Bi  Bi29  1  0.063468  0.495592  0.337661  1
  Bi  Bi30  1  0.563468  0.495592  0.162339  1
  Bi  Bi31  1  0.436532  0.504408  0.837661  1
