# generated using pymatgen
data_Ho4Er2ScFeO12
_symmetry_space_group_name_H-M   'P 1'
_cell_length_a   6.53086546
_cell_length_b   6.53268893
_cell_length_c   6.53116001
_cell_angle_alpha   92.63149257
_cell_angle_beta   92.62536129
_cell_angle_gamma   92.61886736
_symmetry_Int_Tables_number   1
_chemical_formula_structural   Ho4Er2ScFeO12
_chemical_formula_sum   'Ho4 Er2 Sc1 Fe1 O12'
_cell_volume   277.74103079
_cell_formula_units_Z   1
loop_
 _symmetry_equiv_pos_site_id
 _symmetry_equiv_pos_as_xyz
  1  'x, y, z'
loop_
 _atom_site_type_symbol
 _atom_site_label
 _atom_site_symmetry_multiplicity
 _atom_site_fract_x
 _atom_site_fract_y
 _atom_site_fract_z
 _atom_site_occupancy
  Ho  Ho0  1  0.436684  0.743610  0.927175  1
  Ho  Ho1  1  0.256104  0.072752  0.563392  1
  Ho  Ho2  1  0.072259  0.563506  0.256319  1
  Ho  Ho3  1  0.563770  0.256091  0.072693  1
  Er  Er4  1  0.743997  0.927217  0.436697  1
  Er  Er5  1  0.927012  0.436362  0.743711  1
  Sc  Sc6  1  0.999529  0.999953  0.999707  1
  Fe  Fe7  1  0.500654  0.500002  0.500239  1
  O  O8  1  0.590286  0.461103  0.801292  1
  O  O9  1  0.462090  0.801897  0.588694  1
  O  O10  1  0.801834  0.589924  0.462086  1
  O  O11  1  0.410798  0.538814  0.198632  1
  O  O12  1  0.539650  0.197942  0.410948  1
  O  O13  1  0.197991  0.411017  0.539794  1
  O  O14  1  0.067788  0.914459  0.308497  1
  O  O15  1  0.914553  0.308662  0.067615  1
  O  O16  1  0.691573  0.931090  0.086807  1
  O  O17  1  0.085012  0.690962  0.930413  1
  O  O18  1  0.930190  0.086114  0.690899  1
  O  O19  1  0.308224  0.068525  0.914390  1
