# generated using pymatgen
data_Tm15Lu(Ga3Ir)2
_symmetry_space_group_name_H-M   'P 1'
_cell_length_a   9.92727705
_cell_length_b   9.92727575
_cell_length_c   6.91520201
_cell_angle_alpha   90.00391000
_cell_angle_beta   89.99608817
_cell_angle_gamma   119.98972032
_symmetry_Int_Tables_number   1
_chemical_formula_structural   Tm15Lu(Ga3Ir)2
_chemical_formula_sum   'Tm15 Lu1 Ga6 Ir2'
_cell_volume   590.25640179
_cell_formula_units_Z   1
loop_
 _symmetry_equiv_pos_site_id
 _symmetry_equiv_pos_as_xyz
  1  'x, y, z'
loop_
 _atom_site_type_symbol
 _atom_site_label
 _atom_site_symmetry_multiplicity
 _atom_site_fract_x
 _atom_site_fract_y
 _atom_site_fract_z
 _atom_site_occupancy
  Tm  Tm0  1  0.342292  0.171139  0.490128  1
  Tm  Tm1  1  0.828861  0.657708  0.490128  1
  Tm  Tm2  1  0.171152  0.342330  0.990127  1
  Tm  Tm3  1  0.657670  0.828848  0.990127  1
  Tm  Tm4  1  0.828841  0.171159  0.490171  1
  Tm  Tm5  1  0.333236  0.666764  0.662465  1
  Tm  Tm6  1  0.666674  0.333326  0.162235  1
  Tm  Tm7  1  0.465905  0.534095  0.294516  1
  Tm  Tm8  1  0.932006  0.466164  0.794669  1
  Tm  Tm9  1  0.533836  0.067994  0.794669  1
  Tm  Tm10  1  0.465712  0.931816  0.294300  1
  Tm  Tm11  1  0.068184  0.534288  0.294300  1
  Tm  Tm12  1  0.534099  0.465901  0.794565  1
  Tm  Tm13  1  0.000095  0.999905  0.265939  1
  Tm  Tm14  1  0.000063  0.999937  0.766470  1
  Lu  Lu15  1  0.171412  0.828588  0.990206  1
  Ga  Ga16  1  0.163460  0.836540  0.541417  1
  Ga  Ga17  1  0.326671  0.162961  0.040946  1
  Ga  Ga18  1  0.837039  0.673329  0.040946  1
  Ga  Ga19  1  0.163484  0.326974  0.541029  1
  Ga  Ga20  1  0.673026  0.836516  0.541029  1
  Ga  Ga21  1  0.836555  0.163445  0.041005  1
  Ir  Ir22  1  0.333051  0.666949  0.056220  1
  Ir  Ir23  1  0.666677  0.333323  0.556396  1
