# generated using pymatgen
data_Ho3Lu3Th2(MgIr)2
_symmetry_space_group_name_H-M   'P 1'
_cell_length_a   9.70168417
_cell_length_b   9.70168417
_cell_length_c   9.70168400
_cell_angle_alpha   60.00000058
_cell_angle_beta   60.00000058
_cell_angle_gamma   60.00000039
_symmetry_Int_Tables_number   1
_chemical_formula_structural   Ho3Lu3Th2(MgIr)2
_chemical_formula_sum   'Ho6 Lu6 Th4 Mg4 Ir4'
_cell_volume   645.69347386
_cell_formula_units_Z   2
loop_
 _symmetry_equiv_pos_site_id
 _symmetry_equiv_pos_as_xyz
  1  'x, y, z'
loop_
 _atom_site_type_symbol
 _atom_site_label
 _atom_site_symmetry_multiplicity
 _atom_site_fract_x
 _atom_site_fract_y
 _atom_site_fract_z
 _atom_site_occupancy
  Ho  Ho0  1  0.934989  0.565011  0.565011  1
  Ho  Ho1  1  0.565011  0.934989  0.934989  1
  Ho  Ho2  1  0.565011  0.934989  0.565011  1
  Ho  Ho3  1  0.934989  0.565011  0.934989  1
  Ho  Ho4  1  0.565011  0.565011  0.934989  1
  Ho  Ho5  1  0.934989  0.934989  0.565011  1
  Lu  Lu6  1  0.814520  0.185480  0.185480  1
  Lu  Lu7  1  0.185480  0.814520  0.814520  1
  Lu  Lu8  1  0.185480  0.814520  0.185480  1
  Lu  Lu9  1  0.814520  0.185480  0.814520  1
  Lu  Lu10  1  0.185480  0.185480  0.814520  1
  Lu  Lu11  1  0.814520  0.814520  0.185480  1
  Th  Th12  1  0.349080  0.349080  0.349080  1
  Th  Th13  1  0.349080  0.349080  0.952760  1
  Th  Th14  1  0.349080  0.952760  0.349080  1
  Th  Th15  1  0.952760  0.349080  0.349080  1
  Mg  Mg16  1  0.580942  0.580942  0.580942  1
  Mg  Mg17  1  0.580942  0.580942  0.257174  1
  Mg  Mg18  1  0.580942  0.257174  0.580942  1
  Mg  Mg19  1  0.257174  0.580942  0.580942  1
  Ir  Ir20  1  0.142047  0.142047  0.142047  1
  Ir  Ir21  1  0.142047  0.142047  0.573862  1
  Ir  Ir22  1  0.142047  0.573862  0.142047  1
  Ir  Ir23  1  0.573862  0.142047  0.142047  1
