# generated using pymatgen
data_Si4Pd7Rh
_symmetry_space_group_name_H-M   'P 1'
_cell_length_a   3.82472400
_cell_length_b   6.16019867
_cell_length_c   7.35448315
_cell_angle_alpha   90.39905685
_cell_angle_beta   90.00000000
_cell_angle_gamma   90.00000000
_symmetry_Int_Tables_number   1
_chemical_formula_structural   Si4Pd7Rh
_chemical_formula_sum   'Si4 Pd7 Rh1'
_cell_volume   173.27521377
_cell_formula_units_Z   1
loop_
 _symmetry_equiv_pos_site_id
 _symmetry_equiv_pos_as_xyz
  1  'x, y, z'
loop_
 _atom_site_type_symbol
 _atom_site_label
 _atom_site_symmetry_multiplicity
 _atom_site_fract_x
 _atom_site_fract_y
 _atom_site_fract_z
 _atom_site_occupancy
  Si  Si0  1  0.250000  0.248512  0.880817  1
  Si  Si1  1  0.750000  0.746563  0.128228  1
  Si  Si2  1  0.250000  0.753824  0.609318  1
  Si  Si3  1  0.750000  0.258848  0.379428  1
  Pd  Pd4  1  0.750000  0.524389  0.843118  1
  Pd  Pd5  1  0.250000  0.465905  0.164257  1
  Pd  Pd6  1  0.750000  0.033271  0.662550  1
  Pd  Pd7  1  0.250000  0.974968  0.330530  1
  Pd  Pd8  1  0.250000  0.853134  0.925791  1
  Pd  Pd9  1  0.750000  0.138567  0.069543  1
  Pd  Pd10  1  0.250000  0.357337  0.573507  1
  Rh  Rh11  1  0.750000  0.644683  0.432914  1
