# generated using pymatgen
data_Nd2GaIrI
_symmetry_space_group_name_H-M   'P 1'
_cell_length_a   4.37022900
_cell_length_b   4.37022759
_cell_length_c   17.17482400
_cell_angle_alpha   90.00000000
_cell_angle_beta   90.00000000
_cell_angle_gamma   120.00000307
_symmetry_Int_Tables_number   1
_chemical_formula_structural   Nd2GaIrI
_chemical_formula_sum   'Nd4 Ga2 Ir2 I2'
_cell_volume   284.07378841
_cell_formula_units_Z   2
loop_
 _symmetry_equiv_pos_site_id
 _symmetry_equiv_pos_as_xyz
  1  'x, y, z'
loop_
 _atom_site_type_symbol
 _atom_site_label
 _atom_site_symmetry_multiplicity
 _atom_site_fract_x
 _atom_site_fract_y
 _atom_site_fract_z
 _atom_site_occupancy
  Nd  Nd0  1  0.000000  0.000000  0.396645  1
  Nd  Nd1  1  0.000000  0.000000  0.896645  1
  Nd  Nd2  1  0.000000  0.000000  0.605856  1
  Nd  Nd3  1  0.000000  0.000000  0.105856  1
  Ga  Ga4  1  0.333333  0.666667  0.502464  1
  Ga  Ga5  1  0.666667  0.333333  0.002464  1
  Ir  Ir6  1  0.666667  0.333333  0.496951  1
  Ir  Ir7  1  0.333333  0.666667  0.996951  1
  I  I8  1  0.333333  0.666667  0.248084  1
  I  I9  1  0.666667  0.333333  0.748084  1
