# generated using pymatgen
data_La3Ho7(InSb)4
_symmetry_space_group_name_H-M   'P 1'
_cell_length_a   9.24824580
_cell_length_b   8.51853312
_cell_length_c   8.23098285
_cell_angle_alpha   89.85571751
_cell_angle_beta   90.08061909
_cell_angle_gamma   125.05457323
_symmetry_Int_Tables_number   1
_chemical_formula_structural   La3Ho7(InSb)4
_chemical_formula_sum   'La3 Ho7 In4 Sb4'
_cell_volume   530.82220155
_cell_formula_units_Z   1
loop_
 _symmetry_equiv_pos_site_id
 _symmetry_equiv_pos_as_xyz
  1  'x, y, z'
loop_
 _atom_site_type_symbol
 _atom_site_label
 _atom_site_symmetry_multiplicity
 _atom_site_fract_x
 _atom_site_fract_y
 _atom_site_fract_z
 _atom_site_occupancy
  La  La0  1  0.054845  0.361843  0.317457  1
  La  La1  1  0.946481  0.643416  0.682571  1
  La  La2  1  0.444032  0.141443  0.818550  1
  Ho  Ho3  1  0.778022  0.516412  0.159309  1
  Ho  Ho4  1  0.553686  0.844452  0.180430  1
  Ho  Ho5  1  0.221300  0.483420  0.838174  1
  Ho  Ho6  1  0.724983  0.988494  0.658759  1
  Ho  Ho7  1  0.277058  0.015939  0.339152  1
  Ho  Ho8  1  0.999537  0.999548  0.001547  1
  Ho  Ho9  1  0.500753  0.502348  0.498711  1
  In  In10  1  0.373420  0.377758  0.128018  1
  In  In11  1  0.627449  0.628433  0.872343  1
  In  In12  1  0.125656  0.125407  0.626565  1
  In  In13  1  0.869861  0.876868  0.368061  1
  Sb  Sb14  1  0.816875  0.224221  0.970993  1
  Sb  Sb15  1  0.182124  0.763236  0.042032  1
  Sb  Sb16  1  0.673193  0.266934  0.463544  1
  Sb  Sb17  1  0.330727  0.739828  0.533785  1
