# generated using pymatgen
data_NdPa5(Co3P2)6
_symmetry_space_group_name_H-M   'P 1'
_cell_length_a   3.77662800
_cell_length_b   10.41033900
_cell_length_c   12.33612300
_cell_angle_alpha   90.00000000
_cell_angle_beta   90.00000000
_cell_angle_gamma   90.00000000
_symmetry_Int_Tables_number   1
_chemical_formula_structural   NdPa5(Co3P2)6
_chemical_formula_sum   'Nd1 Pa5 Co18 P12'
_cell_volume   485.00673747
_cell_formula_units_Z   1
loop_
 _symmetry_equiv_pos_site_id
 _symmetry_equiv_pos_as_xyz
  1  'x, y, z'
loop_
 _atom_site_type_symbol
 _atom_site_label
 _atom_site_symmetry_multiplicity
 _atom_site_fract_x
 _atom_site_fract_y
 _atom_site_fract_z
 _atom_site_occupancy
  Nd  Nd0  1  0.500000  0.000000  0.480705  1
  Pa  Pa1  1  0.000000  0.500000  0.522678  1
  Pa  Pa2  1  0.500000  0.817068  0.208401  1
  Pa  Pa3  1  0.500000  0.182932  0.208401  1
  Pa  Pa4  1  0.000000  0.683312  0.791864  1
  Pa  Pa5  1  0.000000  0.316688  0.791864  1
  Co  Co6  1  0.500000  0.500000  0.159757  1
  Co  Co7  1  0.000000  0.000000  0.840847  1
  Co  Co8  1  0.500000  0.500000  0.701965  1
  Co  Co9  1  0.000000  0.000000  0.289916  1
  Co  Co10  1  0.000000  0.500000  0.980305  1
  Co  Co11  1  0.500000  0.000000  0.018530  1
  Co  Co12  1  0.500000  0.333809  0.994895  1
  Co  Co13  1  0.500000  0.666191  0.994895  1
  Co  Co14  1  0.000000  0.167476  0.004414  1
  Co  Co15  1  0.000000  0.832524  0.004414  1
  Co  Co16  1  0.500000  0.305275  0.428434  1
  Co  Co17  1  0.500000  0.694725  0.428434  1
  Co  Co18  1  0.000000  0.204270  0.573611  1
  Co  Co19  1  0.000000  0.795730  0.573611  1
  Co  Co20  1  0.500000  0.876646  0.716053  1
  Co  Co21  1  0.500000  0.123354  0.716053  1
  Co  Co22  1  0.000000  0.621815  0.286041  1
  Co  Co23  1  0.000000  0.378185  0.286041  1
  P  P24  1  0.500000  0.500000  0.881861  1
  P  P25  1  0.000000  0.000000  0.114175  1
  P  P26  1  0.500000  0.500000  0.340587  1
  P  P27  1  0.000000  0.000000  0.660001  1
  P  P28  1  0.500000  0.309782  0.612830  1
  P  P29  1  0.500000  0.690218  0.612830  1
  P  P30  1  0.000000  0.191183  0.387452  1
  P  P31  1  0.000000  0.808817  0.387452  1
  P  P32  1  0.500000  0.848700  0.896617  1
  P  P33  1  0.500000  0.151300  0.896617  1
  P  P34  1  0.000000  0.650547  0.103724  1
  P  P35  1  0.000000  0.349453  0.103724  1
