# generated using pymatgen
data_Ta3Nb17Ir10
_symmetry_space_group_name_H-M   'P 1'
_cell_length_a   9.98118315
_cell_length_b   9.99229315
_cell_length_c   5.12263700
_cell_angle_alpha   90.00000000
_cell_angle_beta   90.00000000
_cell_angle_gamma   89.94503200
_symmetry_Int_Tables_number   1
_chemical_formula_structural   Ta3Nb17Ir10
_chemical_formula_sum   'Ta3 Nb17 Ir10'
_cell_volume   510.90549478
_cell_formula_units_Z   1
loop_
 _symmetry_equiv_pos_site_id
 _symmetry_equiv_pos_as_xyz
  1  'x, y, z'
loop_
 _atom_site_type_symbol
 _atom_site_label
 _atom_site_symmetry_multiplicity
 _atom_site_fract_x
 _atom_site_fract_y
 _atom_site_fract_z
 _atom_site_occupancy
  Ta  Ta0  1  0.127490  0.462890  0.000000  1
  Ta  Ta1  1  0.962374  0.370561  0.500000  1
  Ta  Ta2  1  0.037770  0.629345  0.500000  1
  Nb  Nb3  1  0.394914  0.393444  0.000000  1
  Nb  Nb4  1  0.893228  0.105109  0.500000  1
  Nb  Nb5  1  0.106712  0.894946  0.500000  1
  Nb  Nb6  1  0.606166  0.606371  0.000000  1
  Nb  Nb7  1  0.870827  0.537751  0.000000  1
  Nb  Nb8  1  0.372476  0.962756  0.500000  1
  Nb  Nb9  1  0.627440  0.037135  0.500000  1
  Nb  Nb10  1  0.462848  0.127765  0.000000  1
  Nb  Nb11  1  0.537201  0.872193  0.000000  1
  Nb  Nb12  1  0.178350  0.179028  0.251135  1
  Nb  Nb13  1  0.678910  0.321413  0.751129  1
  Nb  Nb14  1  0.321064  0.678161  0.751250  1
  Nb  Nb15  1  0.821720  0.821263  0.251169  1
  Nb  Nb16  1  0.321064  0.678161  0.248750  1
  Nb  Nb17  1  0.678910  0.321413  0.248871  1
  Nb  Nb18  1  0.178350  0.179028  0.748865  1
  Nb  Nb19  1  0.821720  0.821263  0.748831  1
  Ir  Ir20  1  0.000010  0.999835  0.000000  1
  Ir  Ir21  1  0.499896  0.499927  0.500000  1
  Ir  Ir22  1  0.261717  0.930510  0.000000  1
  Ir  Ir23  1  0.430408  0.238537  0.500000  1
  Ir  Ir24  1  0.569548  0.761577  0.500000  1
  Ir  Ir25  1  0.738397  0.069714  0.000000  1
  Ir  Ir26  1  0.236884  0.430920  0.500000  1
  Ir  Ir27  1  0.762609  0.569210  0.500000  1
  Ir  Ir28  1  0.931324  0.262085  0.000000  1
  Ir  Ir29  1  0.069674  0.737689  0.000000  1
