# generated using pymatgen
data_Sc8Ta11Si16Au
_symmetry_space_group_name_H-M   'P 1'
_cell_length_a   6.67142794
_cell_length_b   6.90862550
_cell_length_c   13.12349400
_cell_angle_alpha   90.00000000
_cell_angle_beta   90.00000000
_cell_angle_gamma   89.40938531
_symmetry_Int_Tables_number   1
_chemical_formula_structural   Sc8Ta11Si16Au
_chemical_formula_sum   'Sc8 Ta11 Si16 Au1'
_cell_volume   604.83491599
_cell_formula_units_Z   1
loop_
 _symmetry_equiv_pos_site_id
 _symmetry_equiv_pos_as_xyz
  1  'x, y, z'
loop_
 _atom_site_type_symbol
 _atom_site_label
 _atom_site_symmetry_multiplicity
 _atom_site_fract_x
 _atom_site_fract_y
 _atom_site_fract_z
 _atom_site_occupancy
  Sc  Sc0  1  0.498839  0.671876  0.597717  1
  Sc  Sc1  1  0.002801  0.827704  0.904779  1
  Sc  Sc2  1  0.497289  0.328086  0.092078  1
  Sc  Sc3  1  0.002726  0.175366  0.408463  1
  Sc  Sc4  1  0.497289  0.328086  0.407922  1
  Sc  Sc5  1  0.002726  0.175366  0.091537  1
  Sc  Sc6  1  0.498839  0.671876  0.902283  1
  Sc  Sc7  1  0.002801  0.827704  0.595221  1
  Ta  Ta8  1  0.663200  0.174778  0.623908  1
  Ta  Ta9  1  0.163005  0.326477  0.875096  1
  Ta  Ta10  1  0.341827  0.822538  0.126087  1
  Ta  Ta11  1  0.831474  0.672281  0.373700  1
  Ta  Ta12  1  0.341827  0.822538  0.373913  1
  Ta  Ta13  1  0.831474  0.672281  0.126300  1
  Ta  Ta14  1  0.663200  0.174778  0.876092  1
  Ta  Ta15  1  0.163005  0.326477  0.624904  1
  Ta  Ta16  1  0.837323  0.495122  0.750000  1
  Ta  Ta17  1  0.337988  0.006529  0.750000  1
  Ta  Ta18  1  0.161946  0.500229  0.250000  1
  Si  Si19  1  0.670604  0.958735  0.467802  1
  Si  Si20  1  0.167090  0.534577  0.039895  1
  Si  Si21  1  0.331442  0.032577  0.961335  1
  Si  Si22  1  0.829589  0.468414  0.539753  1
  Si  Si23  1  0.331442  0.032577  0.538665  1
  Si  Si24  1  0.829589  0.468414  0.960247  1
  Si  Si25  1  0.670604  0.958735  0.032198  1
  Si  Si26  1  0.167090  0.534577  0.460105  1
  Si  Si27  1  0.459704  0.387033  0.750000  1
  Si  Si28  1  0.960686  0.113170  0.750000  1
  Si  Si29  1  0.536075  0.601747  0.250000  1
  Si  Si30  1  0.039521  0.880690  0.250000  1
  Si  Si31  1  0.706876  0.862843  0.750000  1
  Si  Si32  1  0.203301  0.638825  0.750000  1
  Si  Si33  1  0.286942  0.133085  0.250000  1
  Si  Si34  1  0.798862  0.367686  0.250000  1
  Au  Au35  1  0.670998  0.026219  0.250000  1
