# generated using pymatgen
data_Dy2Er(Ga2Ni3)3
_symmetry_space_group_name_H-M   'P 1'
_cell_length_a   4.07973000
_cell_length_b   8.74912608
_cell_length_c   8.74912629
_cell_angle_alpha   59.89657495
_cell_angle_beta   90.00000000
_cell_angle_gamma   90.00000000
_symmetry_Int_Tables_number   1
_chemical_formula_structural   Dy2Er(Ga2Ni3)3
_chemical_formula_sum   'Dy2 Er1 Ga6 Ni9'
_cell_volume   270.17045702
_cell_formula_units_Z   1
loop_
 _symmetry_equiv_pos_site_id
 _symmetry_equiv_pos_as_xyz
  1  'x, y, z'
loop_
 _atom_site_type_symbol
 _atom_site_label
 _atom_site_symmetry_multiplicity
 _atom_site_fract_x
 _atom_site_fract_y
 _atom_site_fract_z
 _atom_site_occupancy
  Dy  Dy0  1  0.500000  0.333355  0.333247  1
  Dy  Dy1  1  0.500000  0.666753  0.666645  1
  Er  Er2  1  0.000000  0.999870  0.000130  1
  Ga  Ga3  1  0.000000  0.520037  0.479963  1
  Ga  Ga4  1  0.000000  0.479844  0.999951  1
  Ga  Ga5  1  0.000000  0.000049  0.520156  1
  Ga  Ga6  1  0.500000  0.270677  0.729323  1
  Ga  Ga7  1  0.500000  0.729612  0.999701  1
  Ga  Ga8  1  0.500000  0.000299  0.270388  1
  Ni  Ni9  1  0.000000  0.172909  0.200684  1
  Ni  Ni10  1  0.000000  0.199013  0.627513  1
  Ni  Ni11  1  0.000000  0.626196  0.172648  1
  Ni  Ni12  1  0.000000  0.799316  0.827091  1
  Ni  Ni13  1  0.000000  0.372487  0.800987  1
  Ni  Ni14  1  0.000000  0.827352  0.373804  1
  Ni  Ni15  1  0.500000  0.708360  0.291640  1
  Ni  Ni16  1  0.500000  0.292973  0.999204  1
  Ni  Ni17  1  0.500000  0.000796  0.707027  1
