# generated using pymatgen
data_Ca16Yb4(CdHg3)3
_symmetry_space_group_name_H-M   'P 1'
_cell_length_a   8.24989300
_cell_length_b   8.24989300
_cell_length_c   14.83157700
_cell_angle_alpha   90.00000000
_cell_angle_beta   90.00000000
_cell_angle_gamma   90.00000000
_symmetry_Int_Tables_number   1
_chemical_formula_structural   Ca16Yb4(CdHg3)3
_chemical_formula_sum   'Ca16 Yb4 Cd3 Hg9'
_cell_volume   1009.44802458
_cell_formula_units_Z   1
loop_
 _symmetry_equiv_pos_site_id
 _symmetry_equiv_pos_as_xyz
  1  'x, y, z'
loop_
 _atom_site_type_symbol
 _atom_site_label
 _atom_site_symmetry_multiplicity
 _atom_site_fract_x
 _atom_site_fract_y
 _atom_site_fract_z
 _atom_site_occupancy
  Ca  Ca0  1  0.667154  0.160797  0.101169  1
  Ca  Ca1  1  0.164366  0.663537  0.602726  1
  Ca  Ca2  1  0.332846  0.839203  0.101169  1
  Ca  Ca3  1  0.835634  0.336463  0.602726  1
  Ca  Ca4  1  0.839203  0.667154  0.101169  1
  Ca  Ca5  1  0.336463  0.164366  0.602726  1
  Ca  Ca6  1  0.160797  0.332846  0.101169  1
  Ca  Ca7  1  0.663537  0.835634  0.602726  1
  Ca  Ca8  1  0.839203  0.332846  0.898831  1
  Ca  Ca9  1  0.336463  0.835634  0.397274  1
  Ca  Ca10  1  0.160797  0.667154  0.898831  1
  Ca  Ca11  1  0.663537  0.164366  0.397274  1
  Ca  Ca12  1  0.667154  0.839203  0.898831  1
  Ca  Ca13  1  0.164366  0.336463  0.397274  1
  Ca  Ca14  1  0.332846  0.160797  0.898831  1
  Ca  Ca15  1  0.835634  0.663537  0.397274  1
  Yb  Yb16  1  0.500000  0.500000  0.753961  1
  Yb  Yb17  1  0.000000  0.000000  0.250758  1
  Yb  Yb18  1  0.000000  0.000000  0.749242  1
  Yb  Yb19  1  0.500000  0.500000  0.246039  1
  Cd  Cd20  1  0.500000  0.500000  0.500000  1
  Cd  Cd21  1  0.500000  0.500000  0.000000  1
  Cd  Cd22  1  0.000000  0.000000  0.500000  1
  Hg  Hg23  1  0.635867  0.136439  0.750984  1
  Hg  Hg24  1  0.136439  0.635867  0.249016  1
  Hg  Hg25  1  0.863561  0.364133  0.249016  1
  Hg  Hg26  1  0.364133  0.863561  0.750984  1
  Hg  Hg27  1  0.863561  0.635867  0.750984  1
  Hg  Hg28  1  0.364133  0.136439  0.249016  1
  Hg  Hg29  1  0.136439  0.364133  0.750984  1
  Hg  Hg30  1  0.635867  0.863561  0.249016  1
  Hg  Hg31  1  0.000000  0.000000  0.000000  1
