# generated using pymatgen
data_YbEr3Al22Si2Pt9
_symmetry_space_group_name_H-M   'P 1'
_cell_length_a   7.52512154
_cell_length_b   7.51780631
_cell_length_c   13.05874774
_cell_angle_alpha   84.44448711
_cell_angle_beta   101.01844657
_cell_angle_gamma   120.00915675
_symmetry_Int_Tables_number   1
_chemical_formula_structural   YbEr3Al22Si2Pt9
_chemical_formula_sum   'Yb1 Er3 Al22 Si2 Pt9'
_cell_volume   627.93640481
_cell_formula_units_Z   1
loop_
 _symmetry_equiv_pos_site_id
 _symmetry_equiv_pos_as_xyz
  1  'x, y, z'
loop_
 _atom_site_type_symbol
 _atom_site_label
 _atom_site_symmetry_multiplicity
 _atom_site_fract_x
 _atom_site_fract_y
 _atom_site_fract_z
 _atom_site_occupancy
  Yb  Yb0  1  0.737163  0.998457  0.192300  1
  Er  Er1  1  0.263318  0.001490  0.807972  1
  Er  Er2  1  0.062398  0.673408  0.192247  1
  Er  Er3  1  0.937509  0.326470  0.808041  1
  Al  Al4  1  0.981439  0.664925  0.942957  1
  Al  Al5  1  0.017849  0.334142  0.056612  1
  Al  Al6  1  0.399639  0.669494  0.816006  1
  Al  Al7  1  0.601994  0.334455  0.183636  1
  Al  Al8  1  0.883579  0.663243  0.671332  1
  Al  Al9  1  0.114785  0.335891  0.329048  1
  Al  Al10  1  0.608047  0.460546  0.815804  1
  Al  Al11  1  0.389907  0.539079  0.183901  1
  Al  Al12  1  0.231033  0.340905  0.670162  1
  Al  Al13  1  0.769104  0.659956  0.330263  1
  Al  Al14  1  0.853538  0.333228  0.559587  1
  Al  Al15  1  0.185585  0.999705  0.557904  1
  Al  Al16  1  0.814633  0.000374  0.441722  1
  Al  Al17  1  0.353878  0.999505  0.056736  1
  Al  Al18  1  0.646758  0.000140  0.944068  1
  Al  Al19  1  0.554092  0.993867  0.671371  1
  Al  Al20  1  0.446281  0.005358  0.329300  1
  Al  Al21  1  0.520812  0.667375  0.561935  1
  Al  Al22  1  0.479428  0.332995  0.438457  1
  Al  Al23  1  0.681899  0.665734  0.049221  1
  Al  Al24  1  0.317824  0.334291  0.950199  1
  Al  Al25  1  0.146747  0.666932  0.440541  1
  Si  Si26  1  0.806194  0.867147  0.816705  1
  Si  Si27  1  0.196747  0.132529  0.182725  1
  Pt  Pt28  1  0.327729  0.670755  0.999087  1
  Pt  Pt29  1  0.545616  0.325005  0.637836  1
  Pt  Pt30  1  0.453546  0.673158  0.363103  1
  Pt  Pt31  1  0.887345  0.005850  0.642759  1
  Pt  Pt32  1  0.113727  0.994986  0.357639  1
  Pt  Pt33  1  0.670696  0.328419  0.999096  1
  Pt  Pt34  1  0.204551  0.667314  0.638854  1
  Pt  Pt35  1  0.794239  0.332717  0.362031  1
  Pt  Pt36  1  0.000370  0.000160  0.998845  1
