# generated using pymatgen
data_K8SnBi4Pb3
_symmetry_space_group_name_H-M   'P 1'
_cell_length_a   6.75272733
_cell_length_b   6.88711000
_cell_length_c   13.81995617
_cell_angle_alpha   90.00000000
_cell_angle_beta   90.51860967
_cell_angle_gamma   90.00000000
_symmetry_Int_Tables_number   1
_chemical_formula_structural   K8SnBi4Pb3
_chemical_formula_sum   'K8 Sn1 Bi4 Pb3'
_cell_volume   642.69527653
_cell_formula_units_Z   1
loop_
 _symmetry_equiv_pos_site_id
 _symmetry_equiv_pos_as_xyz
  1  'x, y, z'
loop_
 _atom_site_type_symbol
 _atom_site_label
 _atom_site_symmetry_multiplicity
 _atom_site_fract_x
 _atom_site_fract_y
 _atom_site_fract_z
 _atom_site_occupancy
  K  K0  1  0.748300  0.390443  0.666560  1
  K  K1  1  0.250042  0.607090  0.334277  1
  K  K2  1  0.749958  0.607090  0.165723  1
  K  K3  1  0.251298  0.160030  0.510913  1
  K  K4  1  0.250521  0.841116  0.008912  1
  K  K5  1  0.749479  0.841116  0.491088  1
  K  K6  1  0.748702  0.160030  0.989087  1
  K  K7  1  0.251700  0.390443  0.833440  1
  Sn  Sn8  1  0.500000  0.902533  0.750000  1
  Bi  Bi9  1  0.248810  0.343830  0.103724  1
  Bi  Bi10  1  0.255167  0.659335  0.605591  1
  Bi  Bi11  1  0.744833  0.659335  0.894409  1
  Bi  Bi12  1  0.751190  0.343830  0.396276  1
  Pb  Pb13  1  0.500000  0.091986  0.250000  1
  Pb  Pb14  1  0.000000  0.093268  0.250000  1
  Pb  Pb15  1  0.000000  0.908525  0.750000  1
