# generated using pymatgen
data_HoEr(MnOs)2
_symmetry_space_group_name_H-M   'P 1'
_cell_length_a   5.31004138
_cell_length_b   5.30021344
_cell_length_c   5.30021303
_cell_angle_alpha   58.89558850
_cell_angle_beta   59.93864128
_cell_angle_gamma   59.93863853
_symmetry_Int_Tables_number   1
_chemical_formula_structural   HoEr(MnOs)2
_chemical_formula_sum   'Ho1 Er1 Mn2 Os2'
_cell_volume   104.47594830
_cell_formula_units_Z   1
loop_
 _symmetry_equiv_pos_site_id
 _symmetry_equiv_pos_as_xyz
  1  'x, y, z'
loop_
 _atom_site_type_symbol
 _atom_site_label
 _atom_site_symmetry_multiplicity
 _atom_site_fract_x
 _atom_site_fract_y
 _atom_site_fract_z
 _atom_site_occupancy
  Ho  Ho0  1  0.251782  0.248218  0.248218  1
  Er  Er1  1  0.998022  0.001978  0.001978  1
  Mn  Mn2  1  0.125050  0.624942  0.624942  1
  Mn  Mn3  1  0.625065  0.624942  0.624942  1
  Os  Os4  1  0.625040  0.624873  0.125047  1
  Os  Os5  1  0.625040  0.125047  0.624873  1
