# generated using pymatgen
data_Np(OF3)2
_symmetry_space_group_name_H-M   'P 1'
_cell_length_a   5.57050433
_cell_length_b   5.69555530
_cell_length_c   5.70660246
_cell_angle_alpha   92.13658452
_cell_angle_beta   101.57920804
_cell_angle_gamma   100.31137893
_symmetry_Int_Tables_number   1
_chemical_formula_structural   Np(OF3)2
_chemical_formula_sum   'Np1 O2 F6'
_cell_volume   174.00050566
_cell_formula_units_Z   1
loop_
 _symmetry_equiv_pos_site_id
 _symmetry_equiv_pos_as_xyz
  1  'x, y, z'
loop_
 _atom_site_type_symbol
 _atom_site_label
 _atom_site_symmetry_multiplicity
 _atom_site_fract_x
 _atom_site_fract_y
 _atom_site_fract_z
 _atom_site_occupancy
  Np  Np0  1  0.000000  0.000000  0.000000  1
  O  O1  1  0.416565  0.540570  0.533406  1
  O  O2  1  0.583435  0.459430  0.466594  1
  F  F3  1  0.794527  0.695448  0.074570  1
  F  F4  1  0.690379  0.079090  0.795581  1
  F  F5  1  0.309621  0.920910  0.204419  1
  F  F6  1  0.063047  0.824743  0.712404  1
  F  F7  1  0.936953  0.175257  0.287596  1
  F  F8  1  0.205473  0.304552  0.925430  1
