# generated using pymatgen
data_DyZr(Si7Ir3)2
_symmetry_space_group_name_H-M   'P 1'
_cell_length_a   8.01967249
_cell_length_b   8.01967277
_cell_length_c   8.01967231
_cell_angle_alpha   56.66069726
_cell_angle_beta   56.66068845
_cell_angle_gamma   56.66069400
_symmetry_Int_Tables_number   1
_chemical_formula_structural   DyZr(Si7Ir3)2
_chemical_formula_sum   'Dy1 Zr1 Si14 Ir6'
_cell_volume   336.58763953
_cell_formula_units_Z   1
loop_
 _symmetry_equiv_pos_site_id
 _symmetry_equiv_pos_as_xyz
  1  'x, y, z'
loop_
 _atom_site_type_symbol
 _atom_site_label
 _atom_site_symmetry_multiplicity
 _atom_site_fract_x
 _atom_site_fract_y
 _atom_site_fract_z
 _atom_site_occupancy
  Dy  Dy0  1  0.500000  0.500000  0.500000  1
  Zr  Zr1  1  0.000000  0.000000  0.000000  1
  Si  Si2  1  0.851953  0.062100  0.675574  1
  Si  Si3  1  0.675574  0.851953  0.062100  1
  Si  Si4  1  0.062100  0.675574  0.851953  1
  Si  Si5  1  0.649735  0.828716  0.433522  1
  Si  Si6  1  0.250230  0.250230  0.250230  1
  Si  Si7  1  0.749770  0.749770  0.749770  1
  Si  Si8  1  0.171284  0.566478  0.350265  1
  Si  Si9  1  0.566478  0.350265  0.171284  1
  Si  Si10  1  0.350265  0.171284  0.566478  1
  Si  Si11  1  0.937900  0.324426  0.148047  1
  Si  Si12  1  0.324426  0.148047  0.937900  1
  Si  Si13  1  0.148047  0.937900  0.324426  1
  Si  Si14  1  0.828716  0.433522  0.649735  1
  Si  Si15  1  0.433522  0.649735  0.828716  1
  Ir  Ir16  1  0.751473  0.070084  0.428092  1
  Ir  Ir17  1  0.428092  0.751473  0.070084  1
  Ir  Ir18  1  0.070084  0.428092  0.751473  1
  Ir  Ir19  1  0.248527  0.929916  0.571908  1
  Ir  Ir20  1  0.571908  0.248527  0.929916  1
  Ir  Ir21  1  0.929916  0.571908  0.248527  1
