# generated using pymatgen
data_Pr7NdCo3Si12Rh
_symmetry_space_group_name_H-M   'P 1'
_cell_length_a   8.16312400
_cell_length_b   8.16589042
_cell_length_c   8.50902700
_cell_angle_alpha   89.99740264
_cell_angle_beta   90.00011675
_cell_angle_gamma   119.98868813
_symmetry_Int_Tables_number   1
_chemical_formula_structural   Pr7NdCo3Si12Rh
_chemical_formula_sum   'Pr7 Nd1 Co3 Si12 Rh1'
_cell_volume   491.26968572
_cell_formula_units_Z   1
loop_
 _symmetry_equiv_pos_site_id
 _symmetry_equiv_pos_as_xyz
  1  'x, y, z'
loop_
 _atom_site_type_symbol
 _atom_site_label
 _atom_site_symmetry_multiplicity
 _atom_site_fract_x
 _atom_site_fract_y
 _atom_site_fract_z
 _atom_site_occupancy
  Pr  Pr0  1  0.999989  0.999986  0.749181  1
  Pr  Pr1  1  0.000027  0.000054  0.250800  1
  Pr  Pr2  1  0.500359  0.499598  0.749497  1
  Pr  Pr3  1  0.500382  0.000759  0.749557  1
  Pr  Pr4  1  0.999243  0.499602  0.749493  1
  Pr  Pr5  1  0.500975  0.499060  0.250663  1
  Pr  Pr6  1  0.998088  0.499056  0.250658  1
  Nd  Nd7  1  0.500899  0.001804  0.250634  1
  Co  Co8  1  0.666628  0.333251  0.998579  1
  Co  Co9  1  0.666629  0.333248  0.501172  1
  Co  Co10  1  0.333369  0.666734  0.497700  1
  Si  Si11  1  0.828132  0.171303  0.000710  1
  Si  Si12  1  0.828568  0.657150  0.999955  1
  Si  Si13  1  0.343176  0.171311  0.000715  1
  Si  Si14  1  0.828497  0.170900  0.499434  1
  Si  Si15  1  0.828997  0.657989  0.500105  1
  Si  Si16  1  0.342410  0.170901  0.499436  1
  Si  Si17  1  0.171883  0.828749  0.499281  1
  Si  Si18  1  0.656871  0.828747  0.499282  1
  Si  Si19  1  0.171383  0.342758  0.499902  1
  Si  Si20  1  0.166313  0.834152  0.000490  1
  Si  Si21  1  0.667819  0.834146  0.000496  1
  Si  Si22  1  0.165960  0.331918  0.999842  1
  Rh  Rh23  1  0.333403  0.666823  0.002418  1
