# generated using pymatgen
data_Sc4Bi2Ru
_symmetry_space_group_name_H-M   'P 1'
_cell_length_a   8.32459756
_cell_length_b   8.32447211
_cell_length_c   8.32459694
_cell_angle_alpha   96.60195362
_cell_angle_beta   96.60657302
_cell_angle_gamma   140.35310670
_symmetry_Int_Tables_number   1
_chemical_formula_structural   Sc4Bi2Ru
_chemical_formula_sum   'Sc8 Bi4 Ru2'
_cell_volume   346.26463920
_cell_formula_units_Z   2
loop_
 _symmetry_equiv_pos_site_id
 _symmetry_equiv_pos_as_xyz
  1  'x, y, z'
loop_
 _atom_site_type_symbol
 _atom_site_label
 _atom_site_symmetry_multiplicity
 _atom_site_fract_x
 _atom_site_fract_y
 _atom_site_fract_z
 _atom_site_occupancy
  Sc  Sc0  1  0.695577  0.580304  0.275824  1
  Sc  Sc1  1  0.304423  0.419696  0.724176  1
  Sc  Sc2  1  0.580257  0.304439  0.884744  1
  Sc  Sc3  1  0.080306  0.195561  0.275820  1
  Sc  Sc4  1  0.804480  0.080304  0.884726  1
  Sc  Sc5  1  0.419743  0.695561  0.115256  1
  Sc  Sc6  1  0.919694  0.804439  0.724180  1
  Sc  Sc7  1  0.195520  0.919696  0.115274  1
  Bi  Bi8  1  0.140120  0.640127  0.780226  1
  Bi  Bi9  1  0.359902  0.140127  0.500009  1
  Bi  Bi10  1  0.859880  0.359873  0.219774  1
  Bi  Bi11  1  0.640098  0.859873  0.499991  1
  Ru  Ru12  1  0.249915  0.250000  0.999915  1
  Ru  Ru13  1  0.750085  0.750000  0.000085  1
