# generated using pymatgen
data_DyNiP3Rh4
_symmetry_space_group_name_H-M   'P 1'
_cell_length_a   3.86955700
_cell_length_b   10.73316800
_cell_length_c   12.44298900
_cell_angle_alpha   90.00000000
_cell_angle_beta   90.00000000
_cell_angle_gamma   90.00000000
_symmetry_Int_Tables_number   1
_chemical_formula_structural   DyNiP3Rh4
_chemical_formula_sum   'Dy4 Ni4 P12 Rh16'
_cell_volume   516.78975172
_cell_formula_units_Z   4
loop_
 _symmetry_equiv_pos_site_id
 _symmetry_equiv_pos_as_xyz
  1  'x, y, z'
loop_
 _atom_site_type_symbol
 _atom_site_label
 _atom_site_symmetry_multiplicity
 _atom_site_fract_x
 _atom_site_fract_y
 _atom_site_fract_z
 _atom_site_occupancy
  Dy  Dy0  1  0.250000  0.586103  0.707306  1
  Dy  Dy1  1  0.250000  0.913897  0.207306  1
  Dy  Dy2  1  0.750000  0.413897  0.292694  1
  Dy  Dy3  1  0.750000  0.086103  0.792694  1
  Ni  Ni4  1  0.250000  0.463554  0.935182  1
  Ni  Ni5  1  0.250000  0.036446  0.435182  1
  Ni  Ni6  1  0.750000  0.536446  0.064818  1
  Ni  Ni7  1  0.750000  0.963554  0.564818  1
  P  P8  1  0.250000  0.419288  0.108473  1
  P  P9  1  0.250000  0.080712  0.608473  1
  P  P10  1  0.750000  0.580712  0.891527  1
  P  P11  1  0.750000  0.919288  0.391527  1
  P  P12  1  0.250000  0.270664  0.871834  1
  P  P13  1  0.250000  0.229336  0.371834  1
  P  P14  1  0.750000  0.729336  0.128166  1
  P  P15  1  0.750000  0.770664  0.628166  1
  P  P16  1  0.250000  0.597829  0.386840  1
  P  P17  1  0.250000  0.902171  0.886840  1
  P  P18  1  0.750000  0.402171  0.613160  1
  P  P19  1  0.750000  0.097829  0.113160  1
  Rh  Rh20  1  0.250000  0.711984  0.979069  1
  Rh  Rh21  1  0.250000  0.788016  0.479069  1
  Rh  Rh22  1  0.750000  0.288016  0.020931  1
  Rh  Rh23  1  0.750000  0.211984  0.520931  1
  Rh  Rh24  1  0.250000  0.407323  0.479969  1
  Rh  Rh25  1  0.250000  0.092677  0.979969  1
  Rh  Rh26  1  0.750000  0.592677  0.520031  1
  Rh  Rh27  1  0.750000  0.907323  0.020031  1
  Rh  Rh28  1  0.250000  0.225010  0.179988  1
  Rh  Rh29  1  0.250000  0.274990  0.679988  1
  Rh  Rh30  1  0.750000  0.774990  0.820012  1
  Rh  Rh31  1  0.750000  0.725010  0.320012  1
  Rh  Rh32  1  0.250000  0.887364  0.696521  1
  Rh  Rh33  1  0.250000  0.612636  0.196521  1
  Rh  Rh34  1  0.750000  0.112636  0.303479  1
  Rh  Rh35  1  0.750000  0.387364  0.803479  1
