# generated using pymatgen
data_Ce5PtPb3
_symmetry_space_group_name_H-M   'P 1'
_cell_length_a   9.68452301
_cell_length_b   9.67850509
_cell_length_c   6.58700500
_cell_angle_alpha   90.00000000
_cell_angle_beta   90.00000000
_cell_angle_gamma   120.02523046
_symmetry_Int_Tables_number   1
_chemical_formula_structural   Ce5PtPb3
_chemical_formula_sum   'Ce10 Pt2 Pb6'
_cell_volume   534.55780155
_cell_formula_units_Z   2
loop_
 _symmetry_equiv_pos_site_id
 _symmetry_equiv_pos_as_xyz
  1  'x, y, z'
loop_
 _atom_site_type_symbol
 _atom_site_label
 _atom_site_symmetry_multiplicity
 _atom_site_fract_x
 _atom_site_fract_y
 _atom_site_fract_z
 _atom_site_occupancy
  Ce  Ce0  1  0.247584  0.247608  0.750000  1
  Ce  Ce1  1  0.752416  0.752392  0.250000  1
  Ce  Ce2  1  0.247540  0.999995  0.250000  1
  Ce  Ce3  1  0.752460  0.000005  0.750000  1
  Ce  Ce4  1  0.333306  0.666593  0.499981  1
  Ce  Ce5  1  0.666694  0.333407  0.500019  1
  Ce  Ce6  1  0.000041  0.247626  0.250000  1
  Ce  Ce7  1  0.999959  0.752374  0.750000  1
  Ce  Ce8  1  0.333306  0.666593  0.000019  1
  Ce  Ce9  1  0.666694  0.333407  0.999981  1
  Pt  Pt10  1  0.000000  0.000000  0.000000  1
  Pt  Pt11  1  0.000000  0.000000  0.500000  1
  Pb  Pb12  1  0.395117  0.395155  0.250000  1
  Pb  Pb13  1  0.604883  0.604845  0.750000  1
  Pb  Pb14  1  0.000059  0.395152  0.750000  1
  Pb  Pb15  1  0.604947  0.999992  0.250000  1
  Pb  Pb16  1  0.395053  0.000008  0.750000  1
  Pb  Pb17  1  0.999941  0.604848  0.250000  1
