# generated using pymatgen
data_Ho5Tm7(TcRh)2
_symmetry_space_group_name_H-M   'P 1'
_cell_length_a   6.28604980
_cell_length_b   7.29852029
_cell_length_c   9.12958100
_cell_angle_alpha   89.98503727
_cell_angle_beta   89.94592217
_cell_angle_gamma   89.99373702
_symmetry_Int_Tables_number   1
_chemical_formula_structural   Ho5Tm7(TcRh)2
_chemical_formula_sum   'Ho5 Tm7 Tc2 Rh2'
_cell_volume   418.85458369
_cell_formula_units_Z   1
loop_
 _symmetry_equiv_pos_site_id
 _symmetry_equiv_pos_as_xyz
  1  'x, y, z'
loop_
 _atom_site_type_symbol
 _atom_site_label
 _atom_site_symmetry_multiplicity
 _atom_site_fract_x
 _atom_site_fract_y
 _atom_site_fract_z
 _atom_site_occupancy
  Ho  Ho0  1  0.670969  0.176222  0.065071  1
  Ho  Ho1  1  0.868142  0.959688  0.749567  1
  Ho  Ho2  1  0.367352  0.540184  0.250187  1
  Ho  Ho3  1  0.630137  0.461054  0.749771  1
  Ho  Ho4  1  0.130407  0.038912  0.250409  1
  Tm  Tm5  1  0.170675  0.324000  0.934421  1
  Tm  Tm6  1  0.832635  0.678721  0.438200  1
  Tm  Tm7  1  0.332490  0.821357  0.561811  1
  Tm  Tm8  1  0.332176  0.820999  0.937923  1
  Tm  Tm9  1  0.832779  0.678557  0.061810  1
  Tm  Tm10  1  0.170805  0.323904  0.565294  1
  Tm  Tm11  1  0.670955  0.176228  0.435148  1
  Tc  Tc12  1  0.038800  0.612170  0.750122  1
  Tc  Tc13  1  0.538760  0.887586  0.250310  1
  Rh  Rh14  1  0.455998  0.115230  0.749462  1
  Rh  Rh15  1  0.956918  0.385189  0.250493  1
