# generated using pymatgen
data_Ca3MnFe2(BO3)4
_symmetry_space_group_name_H-M   'P 1'
_cell_length_a   4.74354889
_cell_length_b   5.84658035
_cell_length_c   9.30200000
_cell_angle_alpha   89.99969868
_cell_angle_beta   89.99924587
_cell_angle_gamma   89.87544503
_symmetry_Int_Tables_number   1
_chemical_formula_structural   Ca3MnFe2(BO3)4
_chemical_formula_sum   'Ca3 Mn1 Fe2 B4 O12'
_cell_volume   257.97677684
_cell_formula_units_Z   1
loop_
 _symmetry_equiv_pos_site_id
 _symmetry_equiv_pos_as_xyz
  1  'x, y, z'
loop_
 _atom_site_type_symbol
 _atom_site_label
 _atom_site_symmetry_multiplicity
 _atom_site_fract_x
 _atom_site_fract_y
 _atom_site_fract_z
 _atom_site_occupancy
  Ca  Ca0  1  0.499986  0.999990  0.687287  1
  Ca  Ca1  1  0.999992  0.500024  0.190625  1
  Ca  Ca2  1  0.000012  0.499972  0.812042  1
  Mn  Mn3  1  0.500002  0.000007  0.309586  1
  Fe  Fe4  1  0.999998  0.999990  0.004858  1
  Fe  Fe5  1  0.500002  0.500007  0.495216  1
  B  B6  1  0.044634  0.250641  0.495729  1
  B  B7  1  0.462582  0.759726  0.004433  1
  B  B8  1  0.955366  0.749357  0.495731  1
  B  B9  1  0.537419  0.240278  0.004447  1
  O  O10  1  0.252609  0.294804  0.002044  1
  O  O11  1  0.756525  0.205483  0.493568  1
  O  O12  1  0.243473  0.794516  0.493550  1
  O  O13  1  0.747391  0.705204  0.001992  1
  O  O14  1  0.316180  0.799356  0.132794  1
  O  O15  1  0.797926  0.721148  0.369802  1
  O  O16  1  0.309367  0.792623  0.878099  1
  O  O17  1  0.690594  0.207363  0.878096  1
  O  O18  1  0.810889  0.709406  0.623759  1
  O  O19  1  0.189130  0.290591  0.623751  1
  O  O20  1  0.683865  0.200657  0.132794  1
  O  O21  1  0.202058  0.278853  0.369793  1
