# generated using pymatgen
data_Er6SbO11F
_symmetry_space_group_name_H-M   'P 1'
_cell_length_a   6.44334479
_cell_length_b   6.46994055
_cell_length_c   6.43154976
_cell_angle_alpha   99.12916199
_cell_angle_beta   98.83439864
_cell_angle_gamma   98.97796179
_symmetry_Int_Tables_number   1
_chemical_formula_structural   Er6SbO11F
_chemical_formula_sum   'Er6 Sb1 O11 F1'
_cell_volume   257.07017713
_cell_formula_units_Z   1
loop_
 _symmetry_equiv_pos_site_id
 _symmetry_equiv_pos_as_xyz
  1  'x, y, z'
loop_
 _atom_site_type_symbol
 _atom_site_label
 _atom_site_symmetry_multiplicity
 _atom_site_fract_x
 _atom_site_fract_y
 _atom_site_fract_z
 _atom_site_occupancy
  Er  Er0  1  0.702169  0.871092  0.402082  1
  Er  Er1  1  0.389874  0.692269  0.843154  1
  Er  Er2  1  0.856364  0.393880  0.690820  1
  Er  Er3  1  0.311423  0.145634  0.609251  1
  Er  Er4  1  0.619285  0.289740  0.135954  1
  Er  Er5  1  0.126035  0.609472  0.313151  1
  Sb  Sb6  1  0.003679  0.998218  0.002053  1
  O  O7  1  0.174873  0.432726  0.585032  1
  O  O8  1  0.589402  0.180432  0.434513  1
  O  O9  1  0.567240  0.417318  0.830780  1
  O  O10  1  0.813378  0.568026  0.405303  1
  O  O11  1  0.411072  0.818917  0.558910  1
  O  O12  1  0.926290  0.043643  0.697345  1
  O  O13  1  0.961872  0.303763  0.075718  1
  O  O14  1  0.307380  0.073289  0.956147  1
  O  O15  1  0.070896  0.957186  0.308413  1
  O  O16  1  0.048678  0.694321  0.928879  1
  O  O17  1  0.693632  0.927305  0.045968  1
  F  F18  1  0.426457  0.582768  0.176528  1
