# generated using pymatgen
data_Lu2Ni6P7Ru6
_symmetry_space_group_name_H-M   'P 1'
_cell_length_a   9.28367300
_cell_length_b   9.28367228
_cell_length_c   3.70062200
_cell_angle_alpha   90.00000000
_cell_angle_beta   90.00000000
_cell_angle_gamma   120.00000041
_symmetry_Int_Tables_number   1
_chemical_formula_structural   Lu2Ni6P7Ru6
_chemical_formula_sum   'Lu2 Ni6 P7 Ru6'
_cell_volume   276.21355798
_cell_formula_units_Z   1
loop_
 _symmetry_equiv_pos_site_id
 _symmetry_equiv_pos_as_xyz
  1  'x, y, z'
loop_
 _atom_site_type_symbol
 _atom_site_label
 _atom_site_symmetry_multiplicity
 _atom_site_fract_x
 _atom_site_fract_y
 _atom_site_fract_z
 _atom_site_occupancy
  Lu  Lu0  1  0.333333  0.666667  0.000000  1
  Lu  Lu1  1  0.666667  0.333333  0.500000  1
  Ni  Ni2  1  0.162696  0.281629  0.000000  1
  Ni  Ni3  1  0.718371  0.881066  0.000000  1
  Ni  Ni4  1  0.118934  0.837304  0.000000  1
  Ni  Ni5  1  0.432051  0.067668  0.000000  1
  Ni  Ni6  1  0.932332  0.364383  0.000000  1
  Ni  Ni7  1  0.635617  0.567949  0.000000  1
  P  P8  1  0.117205  0.403922  0.500000  1
  P  P9  1  0.596078  0.713282  0.500000  1
  P  P10  1  0.286718  0.882795  0.500000  1
  P  P11  1  0.416147  0.296466  0.000000  1
  P  P12  1  0.703534  0.119681  0.000000  1
  P  P13  1  0.880319  0.583853  0.000000  1
  P  P14  1  0.000000  0.000000  0.000000  1
  Ru  Ru15  1  0.389736  0.437611  0.500000  1
  Ru  Ru16  1  0.562389  0.952125  0.500000  1
  Ru  Ru17  1  0.047875  0.610264  0.500000  1
  Ru  Ru18  1  0.209863  0.087221  0.500000  1
  Ru  Ru19  1  0.912779  0.122642  0.500000  1
  Ru  Ru20  1  0.877358  0.790137  0.500000  1
