# generated using pymatgen
data_Ca19Pr(Cd3Pd)2
_symmetry_space_group_name_H-M   'P 1'
_cell_length_a   10.25883000
_cell_length_b   10.25883053
_cell_length_c   10.14269000
_cell_angle_alpha   90.00000000
_cell_angle_beta   90.00000000
_cell_angle_gamma   119.99999831
_symmetry_Int_Tables_number   1
_chemical_formula_structural   Ca19Pr(Cd3Pd)2
_chemical_formula_sum   'Ca19 Pr1 Cd6 Pd2'
_cell_volume   924.44159798
_cell_formula_units_Z   1
loop_
 _symmetry_equiv_pos_site_id
 _symmetry_equiv_pos_as_xyz
  1  'x, y, z'
loop_
 _atom_site_type_symbol
 _atom_site_label
 _atom_site_symmetry_multiplicity
 _atom_site_fract_x
 _atom_site_fract_y
 _atom_site_fract_z
 _atom_site_occupancy
  Ca  Ca0  1  0.205581  0.794419  0.937178  1
  Ca  Ca1  1  0.205581  0.411163  0.937178  1
  Ca  Ca2  1  0.588837  0.794419  0.937178  1
  Ca  Ca3  1  0.794419  0.205581  0.062822  1
  Ca  Ca4  1  0.794419  0.588837  0.062822  1
  Ca  Ca5  1  0.411163  0.205581  0.062822  1
  Ca  Ca6  1  0.794670  0.205330  0.436714  1
  Ca  Ca7  1  0.794670  0.589338  0.436714  1
  Ca  Ca8  1  0.410662  0.205330  0.436714  1
  Ca  Ca9  1  0.205330  0.794670  0.563286  1
  Ca  Ca10  1  0.205330  0.410662  0.563286  1
  Ca  Ca11  1  0.589338  0.794670  0.563286  1
  Ca  Ca12  1  0.539440  0.460560  0.750103  1
  Ca  Ca13  1  0.539440  0.078878  0.750103  1
  Ca  Ca14  1  0.921122  0.460560  0.750103  1
  Ca  Ca15  1  0.460560  0.539440  0.249897  1
  Ca  Ca16  1  0.460560  0.921122  0.249897  1
  Ca  Ca17  1  0.078878  0.539440  0.249897  1
  Ca  Ca18  1  0.000000  0.000000  0.500000  1
  Pr  Pr19  1  0.000000  0.000000  0.000000  1
  Cd  Cd20  1  0.882360  0.117640  0.749860  1
  Cd  Cd21  1  0.882360  0.764720  0.749860  1
  Cd  Cd22  1  0.235280  0.117640  0.749860  1
  Cd  Cd23  1  0.117640  0.882360  0.250140  1
  Cd  Cd24  1  0.117640  0.235280  0.250140  1
  Cd  Cd25  1  0.764720  0.882360  0.250140  1
  Pd  Pd26  1  0.333333  0.666667  0.749604  1
  Pd  Pd27  1  0.666667  0.333333  0.250396  1
