# generated using pymatgen
data_SmNpB6Os
_symmetry_space_group_name_H-M   'P 1'
_cell_length_a   3.62001800
_cell_length_b   9.34199100
_cell_length_c   11.45748300
_cell_angle_alpha   90.00000000
_cell_angle_beta   90.00000000
_cell_angle_gamma   90.00000000
_symmetry_Int_Tables_number   1
_chemical_formula_structural   SmNpB6Os
_chemical_formula_sum   'Sm4 Np4 B24 Os4'
_cell_volume   387.47117175
_cell_formula_units_Z   4
loop_
 _symmetry_equiv_pos_site_id
 _symmetry_equiv_pos_as_xyz
  1  'x, y, z'
loop_
 _atom_site_type_symbol
 _atom_site_label
 _atom_site_symmetry_multiplicity
 _atom_site_fract_x
 _atom_site_fract_y
 _atom_site_fract_z
 _atom_site_occupancy
  Sm  Sm0  1  0.000000  0.338126  0.406983  1
  Sm  Sm1  1  0.000000  0.661874  0.593017  1
  Sm  Sm2  1  0.000000  0.838126  0.093017  1
  Sm  Sm3  1  0.000000  0.161874  0.906983  1
  Np  Np4  1  0.000000  0.959066  0.401466  1
  Np  Np5  1  0.000000  0.040934  0.598534  1
  Np  Np6  1  0.000000  0.459066  0.098534  1
  Np  Np7  1  0.000000  0.540934  0.901466  1
  B  B8  1  0.500000  0.554652  0.428969  1
  B  B9  1  0.500000  0.445348  0.571031  1
  B  B10  1  0.500000  0.054652  0.071031  1
  B  B11  1  0.500000  0.945348  0.928969  1
  B  B12  1  0.500000  0.745554  0.422297  1
  B  B13  1  0.500000  0.254446  0.577703  1
  B  B14  1  0.500000  0.245554  0.077703  1
  B  B15  1  0.500000  0.754446  0.922297  1
  B  B16  1  0.500000  0.804161  0.274598  1
  B  B17  1  0.500000  0.195839  0.725402  1
  B  B18  1  0.500000  0.304161  0.225402  1
  B  B19  1  0.500000  0.695839  0.774598  1
  B  B20  1  0.500000  0.644341  0.188070  1
  B  B21  1  0.500000  0.355659  0.811930  1
  B  B22  1  0.500000  0.144341  0.311930  1
  B  B23  1  0.500000  0.855659  0.688070  1
  B  B24  1  0.500000  0.990473  0.220917  1
  B  B25  1  0.500000  0.009527  0.779083  1
  B  B26  1  0.500000  0.490473  0.279083  1
  B  B27  1  0.500000  0.509527  0.720917  1
  B  B28  1  0.500000  0.640188  0.038840  1
  B  B29  1  0.500000  0.359812  0.961160  1
  B  B30  1  0.500000  0.140188  0.461160  1
  B  B31  1  0.500000  0.859812  0.538840  1
  Os  Os32  1  0.000000  0.647529  0.318513  1
  Os  Os33  1  0.000000  0.352471  0.681487  1
  Os  Os34  1  0.000000  0.147529  0.181487  1
  Os  Os35  1  0.000000  0.852471  0.818513  1
