# generated using pymatgen
data_HfZn3(GaRh2)4
_symmetry_space_group_name_H-M   'P 1'
_cell_length_a   6.13300700
_cell_length_b   6.13305500
_cell_length_c   6.12991100
_cell_angle_alpha   90.00000000
_cell_angle_beta   90.00009342
_cell_angle_gamma   90.00000000
_symmetry_Int_Tables_number   1
_chemical_formula_structural   HfZn3(GaRh2)4
_chemical_formula_sum   'Hf1 Zn3 Ga4 Rh8'
_cell_volume   230.57089683
_cell_formula_units_Z   1
loop_
 _symmetry_equiv_pos_site_id
 _symmetry_equiv_pos_as_xyz
  1  'x, y, z'
loop_
 _atom_site_type_symbol
 _atom_site_label
 _atom_site_symmetry_multiplicity
 _atom_site_fract_x
 _atom_site_fract_y
 _atom_site_fract_z
 _atom_site_occupancy
  Hf  Hf0  1  0.749895  0.249901  0.999955  1
  Zn  Zn1  1  0.250316  0.750023  0.999968  1
  Zn  Zn2  1  0.750333  0.249993  0.500013  1
  Zn  Zn3  1  0.249728  0.750022  0.500029  1
  Ga  Ga4  1  0.249998  0.249984  0.999936  1
  Ga  Ga5  1  0.749846  0.750020  0.999944  1
  Ga  Ga6  1  0.750105  0.750035  0.500066  1
  Ga  Ga7  1  0.249829  0.249979  0.500073  1
  Rh  Rh8  1  0.003231  0.996748  0.253683  1
  Rh  Rh9  1  0.003210  0.503273  0.253680  1
  Rh  Rh10  1  0.496748  0.996821  0.254007  1
  Rh  Rh11  1  0.496787  0.503202  0.253978  1
  Rh  Rh12  1  0.496754  0.996792  0.745977  1
  Rh  Rh13  1  0.496756  0.503201  0.746028  1
  Rh  Rh14  1  0.003246  0.996715  0.746327  1
  Rh  Rh15  1  0.003221  0.503298  0.746335  1
