# generated using pymatgen
data_Pr4NdIn3
_symmetry_space_group_name_H-M   'P 1'
_cell_length_a   6.20810021
_cell_length_b   9.53871595
_cell_length_c   9.53871541
_cell_angle_alpha   83.90444269
_cell_angle_beta   71.00572788
_cell_angle_gamma   71.00572874
_symmetry_Int_Tables_number   1
_chemical_formula_structural   Pr4NdIn3
_chemical_formula_sum   'Pr8 Nd2 In6'
_cell_volume   505.01995202
_cell_formula_units_Z   2
loop_
 _symmetry_equiv_pos_site_id
 _symmetry_equiv_pos_as_xyz
  1  'x, y, z'
loop_
 _atom_site_type_symbol
 _atom_site_label
 _atom_site_symmetry_multiplicity
 _atom_site_fract_x
 _atom_site_fract_y
 _atom_site_fract_z
 _atom_site_occupancy
  Pr  Pr0  1  0.719881  0.865824  0.694455  1
  Pr  Pr1  1  0.280119  0.134176  0.305545  1
  Pr  Pr2  1  0.780119  0.305545  0.134176  1
  Pr  Pr3  1  0.219881  0.694455  0.865824  1
  Pr  Pr4  1  0.585647  0.694500  0.134155  1
  Pr  Pr5  1  0.414353  0.305500  0.865845  1
  Pr  Pr6  1  0.085647  0.134155  0.694500  1
  Pr  Pr7  1  0.914353  0.865845  0.305500  1
  Nd  Nd8  1  0.750000  0.500005  0.499995  1
  Nd  Nd9  1  0.250000  0.499995  0.500005  1
  In  In10  1  0.160740  0.500111  0.179270  1
  In  In11  1  0.839260  0.499889  0.820730  1
  In  In12  1  0.339260  0.820730  0.499889  1
  In  In13  1  0.660740  0.179270  0.500111  1
  In  In14  1  0.250000  0.000000  0.000000  1
  In  In15  1  0.750000  0.000000  0.000000  1
