# generated using pymatgen
data_TbEr3Al2(ZnPd2)2
_symmetry_space_group_name_H-M   'P 1'
_cell_length_a   4.36805400
_cell_length_b   6.87188050
_cell_length_c   7.85317522
_cell_angle_alpha   89.79511213
_cell_angle_beta   90.00000000
_cell_angle_gamma   90.00000000
_symmetry_Int_Tables_number   1
_chemical_formula_structural   TbEr3Al2(ZnPd2)2
_chemical_formula_sum   'Tb1 Er3 Al2 Zn2 Pd4'
_cell_volume   235.72525164
_cell_formula_units_Z   1
loop_
 _symmetry_equiv_pos_site_id
 _symmetry_equiv_pos_as_xyz
  1  'x, y, z'
loop_
 _atom_site_type_symbol
 _atom_site_label
 _atom_site_symmetry_multiplicity
 _atom_site_fract_x
 _atom_site_fract_y
 _atom_site_fract_z
 _atom_site_occupancy
  Tb  Tb0  1  0.750000  0.967812  0.319164  1
  Er  Er1  1  0.250000  0.528449  0.811657  1
  Er  Er2  1  0.750000  0.471408  0.187589  1
  Er  Er3  1  0.250000  0.032573  0.682383  1
  Al  Al4  1  0.250000  0.146426  0.060441  1
  Al  Al5  1  0.750000  0.853850  0.938272  1
  Zn  Zn6  1  0.250000  0.648716  0.434506  1
  Zn  Zn7  1  0.750000  0.351194  0.566079  1
  Pd  Pd8  1  0.750000  0.736591  0.624569  1
  Pd  Pd9  1  0.250000  0.264126  0.376940  1
  Pd  Pd10  1  0.750000  0.228256  0.890647  1
  Pd  Pd11  1  0.250000  0.770597  0.107753  1
