# generated using pymatgen
data_Dy8Lu2Ir3Ru
_symmetry_space_group_name_H-M   'P 1'
_cell_length_a   6.39872729
_cell_length_b   7.22000053
_cell_length_c   8.51058053
_cell_angle_alpha   96.78842127
_cell_angle_beta   112.50815275
_cell_angle_gamma   89.96782418
_symmetry_Int_Tables_number   1
_chemical_formula_structural   Dy8Lu2Ir3Ru
_chemical_formula_sum   'Dy8 Lu2 Ir3 Ru1'
_cell_volume   360.25369858
_cell_formula_units_Z   1
loop_
 _symmetry_equiv_pos_site_id
 _symmetry_equiv_pos_as_xyz
  1  'x, y, z'
loop_
 _atom_site_type_symbol
 _atom_site_label
 _atom_site_symmetry_multiplicity
 _atom_site_fract_x
 _atom_site_fract_y
 _atom_site_fract_z
 _atom_site_occupancy
  Dy  Dy0  1  0.524821  0.081201  0.816585  1
  Dy  Dy1  1  0.477485  0.919191  0.185227  1
  Dy  Dy2  1  0.710397  0.416176  0.185033  1
  Dy  Dy3  1  0.291378  0.581460  0.815704  1
  Dy  Dy4  1  0.292883  0.312000  0.435311  1
  Dy  Dy5  1  0.705146  0.687483  0.563702  1
  Dy  Dy6  1  0.859495  0.188200  0.564022  1
  Dy  Dy7  1  0.139009  0.813555  0.433743  1
  Lu  Lu8  1  0.072504  0.250267  0.999946  1
  Lu  Lu9  1  0.927787  0.750573  0.000797  1
  Ir  Ir10  1  0.318984  0.574662  0.217472  1
  Ir  Ir11  1  0.682782  0.425936  0.782619  1
  Ir  Ir12  1  0.100538  0.924591  0.784176  1
  Ru  Ru13  1  0.896792  0.074705  0.215661  1
