# generated using pymatgen
data_Er3Tm7ZnSb5
_symmetry_space_group_name_H-M   'P 1'
_cell_length_a   8.78942700
_cell_length_b   8.79815767
_cell_length_c   6.32913400
_cell_angle_alpha   90.00000000
_cell_angle_beta   90.00000000
_cell_angle_gamma   119.96717567
_symmetry_Int_Tables_number   1
_chemical_formula_structural   Er3Tm7ZnSb5
_chemical_formula_sum   'Er3 Tm7 Zn1 Sb5'
_cell_volume   424.00480541
_cell_formula_units_Z   1
loop_
 _symmetry_equiv_pos_site_id
 _symmetry_equiv_pos_as_xyz
  1  'x, y, z'
loop_
 _atom_site_type_symbol
 _atom_site_label
 _atom_site_symmetry_multiplicity
 _atom_site_fract_x
 _atom_site_fract_y
 _atom_site_fract_z
 _atom_site_occupancy
  Er  Er0  1  0.758864  0.000000  0.750000  1
  Er  Er1  1  0.243655  0.242506  0.750000  1
  Er  Er2  1  0.001149  0.757494  0.750000  1
  Tm  Tm3  1  0.342379  0.677815  0.000729  1
  Tm  Tm4  1  0.664565  0.322185  0.499271  1
  Tm  Tm5  1  0.664565  0.322185  0.000729  1
  Tm  Tm6  1  0.342379  0.677815  0.499271  1
  Tm  Tm7  1  0.246394  0.000000  0.250000  1
  Tm  Tm8  1  0.985469  0.231856  0.250000  1
  Tm  Tm9  1  0.753614  0.768144  0.250000  1
  Zn  Zn10  1  0.603787  0.000000  0.250000  1
  Sb  Sb11  1  0.392677  0.000000  0.750000  1
  Sb  Sb12  1  0.997230  0.608957  0.250000  1
  Sb  Sb13  1  0.388274  0.391043  0.250000  1
  Sb  Sb14  1  0.610148  0.605299  0.750000  1
  Sb  Sb15  1  0.004849  0.394701  0.750000  1
