# generated using pymatgen
data_Sr2Zn21Pt
_symmetry_space_group_name_H-M   'P 1'
_cell_length_a   8.39049830
_cell_length_b   8.40511280
_cell_length_c   8.39049860
_cell_angle_alpha   100.13991109
_cell_angle_beta   99.15577265
_cell_angle_gamma   131.55711405
_symmetry_Int_Tables_number   1
_chemical_formula_structural   Sr2Zn21Pt
_chemical_formula_sum   'Sr2 Zn21 Pt1'
_cell_volume   404.13724362
_cell_formula_units_Z   1
loop_
 _symmetry_equiv_pos_site_id
 _symmetry_equiv_pos_as_xyz
  1  'x, y, z'
loop_
 _atom_site_type_symbol
 _atom_site_label
 _atom_site_symmetry_multiplicity
 _atom_site_fract_x
 _atom_site_fract_y
 _atom_site_fract_z
 _atom_site_occupancy
  Sr  Sr0  1  0.997891  0.996150  0.998259  1
  Sr  Sr1  1  0.252109  0.753850  0.501741  1
  Zn  Zn2  1  0.065622  0.649238  0.827468  1
  Zn  Zn3  1  0.821719  0.236618  0.169534  1
  Zn  Zn4  1  0.746900  0.240621  0.493722  1
  Zn  Zn5  1  0.503100  0.509379  0.006278  1
  Zn  Zn6  1  0.625000  0.375000  0.750000  1
  Zn  Zn7  1  0.625000  0.375000  0.250000  1
  Zn  Zn8  1  0.125000  0.375000  0.750000  1
  Zn  Zn9  1  0.821770  0.649238  0.583616  1
  Zn  Zn10  1  0.898579  0.816058  0.327577  1
  Zn  Zn11  1  0.486560  0.571212  0.670609  1
  Zn  Zn12  1  0.067084  0.236618  0.414899  1
  Zn  Zn13  1  0.761519  0.933942  0.582520  1
  Zn  Zn14  1  0.349397  0.178788  0.415348  1
  Zn  Zn15  1  0.428281  0.513382  0.330466  1
  Zn  Zn16  1  0.184378  0.100762  0.672532  1
  Zn  Zn17  1  0.428230  0.100762  0.916384  1
  Zn  Zn18  1  0.351421  0.933942  0.172423  1
  Zn  Zn19  1  0.763440  0.178788  0.829391  1
  Zn  Zn20  1  0.182916  0.513382  0.085101  1
  Zn  Zn21  1  0.488481  0.816058  0.917480  1
  Zn  Zn22  1  0.900603  0.571212  0.084652  1
  Pt  Pt23  1  0.625000  0.875000  0.250000  1
