# generated using pymatgen
data_Nd4ErPb4
_symmetry_space_group_name_H-M   'P 1'
_cell_length_a   8.36506600
_cell_length_b   8.47749800
_cell_length_c   16.16442800
_cell_angle_alpha   90.00000000
_cell_angle_beta   90.00000000
_cell_angle_gamma   90.00000000
_symmetry_Int_Tables_number   1
_chemical_formula_structural   Nd4ErPb4
_chemical_formula_sum   'Nd16 Er4 Pb16'
_cell_volume   1146.29766827
_cell_formula_units_Z   4
loop_
 _symmetry_equiv_pos_site_id
 _symmetry_equiv_pos_as_xyz
  1  'x, y, z'
loop_
 _atom_site_type_symbol
 _atom_site_label
 _atom_site_symmetry_multiplicity
 _atom_site_fract_x
 _atom_site_fract_y
 _atom_site_fract_z
 _atom_site_occupancy
  Nd  Nd0  1  0.376550  0.842072  0.880657  1
  Nd  Nd1  1  0.876550  0.657928  0.619343  1
  Nd  Nd2  1  0.623450  0.157928  0.380657  1
  Nd  Nd3  1  0.123450  0.342072  0.119343  1
  Nd  Nd4  1  0.623450  0.157928  0.119343  1
  Nd  Nd5  1  0.123450  0.342072  0.380657  1
  Nd  Nd6  1  0.376550  0.842072  0.619343  1
  Nd  Nd7  1  0.876550  0.657928  0.880657  1
  Nd  Nd8  1  0.533795  0.322207  0.899709  1
  Nd  Nd9  1  0.033795  0.177793  0.600291  1
  Nd  Nd10  1  0.466205  0.677793  0.399709  1
  Nd  Nd11  1  0.966205  0.822207  0.100291  1
  Nd  Nd12  1  0.466205  0.677793  0.100291  1
  Nd  Nd13  1  0.966205  0.822207  0.399709  1
  Nd  Nd14  1  0.533795  0.322207  0.600291  1
  Nd  Nd15  1  0.033795  0.177793  0.899709  1
  Er  Er16  1  0.208009  0.503827  0.750000  1
  Er  Er17  1  0.708009  0.996173  0.750000  1
  Er  Er18  1  0.791991  0.496173  0.250000  1
  Er  Er19  1  0.291991  0.003827  0.250000  1
  Pb  Pb20  1  0.281310  0.030988  0.045956  1
  Pb  Pb21  1  0.781310  0.469012  0.454044  1
  Pb  Pb22  1  0.718690  0.969012  0.545956  1
  Pb  Pb23  1  0.218690  0.530988  0.954044  1
  Pb  Pb24  1  0.718690  0.969012  0.954044  1
  Pb  Pb25  1  0.218690  0.530988  0.545956  1
  Pb  Pb26  1  0.281310  0.030988  0.454044  1
  Pb  Pb27  1  0.781310  0.469012  0.045956  1
  Pb  Pb28  1  0.570658  0.625851  0.750000  1
  Pb  Pb29  1  0.070658  0.874149  0.750000  1
  Pb  Pb30  1  0.429342  0.374149  0.250000  1
  Pb  Pb31  1  0.929342  0.125851  0.250000  1
  Pb  Pb32  1  0.343830  0.153622  0.750000  1
  Pb  Pb33  1  0.843830  0.346378  0.750000  1
  Pb  Pb34  1  0.656170  0.846378  0.250000  1
  Pb  Pb35  1  0.156170  0.653622  0.250000  1
