# generated using pymatgen
data_Ta5Nb7Al8(TcC)4
_symmetry_space_group_name_H-M   'P 1'
_cell_length_a   8.35959584
_cell_length_b   8.35970648
_cell_length_c   8.36579012
_cell_angle_alpha   59.97013921
_cell_angle_beta   59.96085981
_cell_angle_gamma   59.95651025
_symmetry_Int_Tables_number   1
_chemical_formula_structural   Ta5Nb7Al8(TcC)4
_chemical_formula_sum   'Ta5 Nb7 Al8 Tc4 C4'
_cell_volume   413.04636570
_cell_formula_units_Z   1
loop_
 _symmetry_equiv_pos_site_id
 _symmetry_equiv_pos_as_xyz
  1  'x, y, z'
loop_
 _atom_site_type_symbol
 _atom_site_label
 _atom_site_symmetry_multiplicity
 _atom_site_fract_x
 _atom_site_fract_y
 _atom_site_fract_z
 _atom_site_occupancy
  Ta  Ta0  1  0.941291  0.558664  0.559024  1
  Ta  Ta1  1  0.559172  0.941024  0.941064  1
  Ta  Ta2  1  0.940833  0.940599  0.559499  1
  Ta  Ta3  1  0.691689  0.308542  0.691314  1
  Ta  Ta4  1  0.940529  0.559621  0.940323  1
  Nb  Nb5  1  0.559995  0.940083  0.560065  1
  Nb  Nb6  1  0.309992  0.690443  0.690321  1
  Nb  Nb7  1  0.690522  0.309620  0.309853  1
  Nb  Nb8  1  0.309149  0.691064  0.308963  1
  Nb  Nb9  1  0.690914  0.690724  0.309380  1
  Nb  Nb10  1  0.309648  0.309183  0.690627  1
  Nb  Nb11  1  0.559594  0.559389  0.940684  1
  Al  Al12  1  0.916300  0.914370  0.915563  1
  Al  Al13  1  0.996642  0.334470  0.333289  1
  Al  Al14  1  0.334289  0.997006  0.335149  1
  Al  Al15  1  0.333415  0.335439  0.996666  1
  Al  Al16  1  0.915306  0.253559  0.916577  1
  Al  Al17  1  0.914347  0.916471  0.253565  1
  Al  Al18  1  0.253296  0.915566  0.914682  1
  Al  Al19  1  0.335317  0.333488  0.334147  1
  Tc  Tc20  1  0.125465  0.124567  0.125014  1
  Tc  Tc21  1  0.625574  0.124790  0.121054  1
  Tc  Tc22  1  0.122750  0.625133  0.126526  1
  Tc  Tc23  1  0.120141  0.127491  0.625371  1
  C  C24  1  0.627647  0.622568  0.625142  1
  C  C25  1  0.122428  0.625841  0.625955  1
  C  C26  1  0.627094  0.123876  0.627047  1
  C  C27  1  0.626659  0.626408  0.123137  1
