# generated using pymatgen
data_Ca2HoTh(ZnSn)4
_symmetry_space_group_name_H-M   'P 1'
_cell_length_a   4.52062600
_cell_length_b   4.52062554
_cell_length_c   16.95624900
_cell_angle_alpha   90.00000000
_cell_angle_beta   90.00000000
_cell_angle_gamma   119.99998875
_symmetry_Int_Tables_number   1
_chemical_formula_structural   Ca2HoTh(ZnSn)4
_chemical_formula_sum   'Ca2 Ho1 Th1 Zn4 Sn4'
_cell_volume   300.09418424
_cell_formula_units_Z   1
loop_
 _symmetry_equiv_pos_site_id
 _symmetry_equiv_pos_as_xyz
  1  'x, y, z'
loop_
 _atom_site_type_symbol
 _atom_site_label
 _atom_site_symmetry_multiplicity
 _atom_site_fract_x
 _atom_site_fract_y
 _atom_site_fract_z
 _atom_site_occupancy
  Ca  Ca0  1  0.000000  0.000000  0.496432  1
  Ca  Ca1  1  0.000000  0.000000  0.003568  1
  Ho  Ho2  1  0.000000  0.000000  0.250000  1
  Th  Th3  1  0.000000  0.000000  0.750000  1
  Zn  Zn4  1  0.666667  0.333333  0.846134  1
  Zn  Zn5  1  0.666667  0.333333  0.653866  1
  Zn  Zn6  1  0.333333  0.666667  0.163787  1
  Zn  Zn7  1  0.333333  0.666667  0.336213  1
  Sn  Sn8  1  0.666667  0.333333  0.121165  1
  Sn  Sn9  1  0.666667  0.333333  0.378835  1
  Sn  Sn10  1  0.333333  0.666667  0.883952  1
  Sn  Sn11  1  0.333333  0.666667  0.616048  1
