# generated using pymatgen
data_RbNa2Tl3(TcH9)3
_symmetry_space_group_name_H-M   'P 1'
_cell_length_a   9.24644438
_cell_length_b   9.24644328
_cell_length_c   5.67361400
_cell_angle_alpha   90.00000000
_cell_angle_beta   90.00000000
_cell_angle_gamma   118.07809430
_symmetry_Int_Tables_number   1
_chemical_formula_structural   RbNa2Tl3(TcH9)3
_chemical_formula_sum   'Rb1 Na2 Tl3 Tc3 H27'
_cell_volume   427.98537006
_cell_formula_units_Z   1
loop_
 _symmetry_equiv_pos_site_id
 _symmetry_equiv_pos_as_xyz
  1  'x, y, z'
loop_
 _atom_site_type_symbol
 _atom_site_label
 _atom_site_symmetry_multiplicity
 _atom_site_fract_x
 _atom_site_fract_y
 _atom_site_fract_z
 _atom_site_occupancy
  Rb  Rb0  1  0.744668  0.744668  0.500000  1
  Na  Na1  1  0.270781  0.004632  0.500000  1
  Na  Na2  1  0.004632  0.270781  0.500000  1
  Tl  Tl3  1  0.587778  0.010242  0.000000  1
  Tl  Tl4  1  0.010242  0.587778  0.000000  1
  Tl  Tl5  1  0.404158  0.404158  0.000000  1
  Tc  Tc6  1  0.019399  0.019399  0.000000  1
  Tc  Tc7  1  0.314237  0.661494  0.500000  1
  Tc  Tc8  1  0.661494  0.314237  0.500000  1
  H  H9  1  0.888506  0.023263  0.205557  1
  H  H10  1  0.023263  0.888506  0.205557  1
  H  H11  1  0.888506  0.023263  0.794443  1
  H  H12  1  0.023263  0.888506  0.794443  1
  H  H13  1  0.139573  0.139573  0.221387  1
  H  H14  1  0.139573  0.139573  0.778613  1
  H  H15  1  0.198931  0.017566  0.000000  1
  H  H16  1  0.017566  0.198931  0.000000  1
  H  H17  1  0.844902  0.844902  0.000000  1
  H  H18  1  0.205706  0.517998  0.291437  1
  H  H19  1  0.444926  0.687299  0.278512  1
  H  H20  1  0.205706  0.517998  0.708563  1
  H  H21  1  0.517998  0.205706  0.708563  1
  H  H22  1  0.291390  0.780804  0.290896  1
  H  H23  1  0.444926  0.687299  0.721488  1
  H  H24  1  0.687299  0.444926  0.721488  1
  H  H25  1  0.517998  0.205706  0.291437  1
  H  H26  1  0.291390  0.780804  0.709104  1
  H  H27  1  0.687299  0.444926  0.278512  1
  H  H28  1  0.780804  0.291390  0.709104  1
  H  H29  1  0.780804  0.291390  0.290896  1
  H  H30  1  0.372234  0.515875  0.500000  1
  H  H31  1  0.475398  0.847614  0.500000  1
  H  H32  1  0.515875  0.372234  0.500000  1
  H  H33  1  0.121745  0.629414  0.500000  1
  H  H34  1  0.847614  0.475398  0.500000  1
  H  H35  1  0.629414  0.121745  0.500000  1
