# generated using pymatgen
data_Er10TcRh3
_symmetry_space_group_name_H-M   'P 1'
_cell_length_a   6.28694943
_cell_length_b   7.28678015
_cell_length_c   8.42433384
_cell_angle_alpha   96.78188298
_cell_angle_beta   111.47482747
_cell_angle_gamma   90.00144672
_symmetry_Int_Tables_number   1
_chemical_formula_structural   Er10TcRh3
_chemical_formula_sum   'Er10 Tc1 Rh3'
_cell_volume   356.23646183
_cell_formula_units_Z   1
loop_
 _symmetry_equiv_pos_site_id
 _symmetry_equiv_pos_as_xyz
  1  'x, y, z'
loop_
 _atom_site_type_symbol
 _atom_site_label
 _atom_site_symmetry_multiplicity
 _atom_site_fract_x
 _atom_site_fract_y
 _atom_site_fract_z
 _atom_site_occupancy
  Er  Er0  1  0.787517  0.582156  0.809789  1
  Er  Er1  1  0.978833  0.916083  0.187783  1
  Er  Er2  1  0.207722  0.416823  0.181182  1
  Er  Er3  1  0.022292  0.083562  0.810852  1
  Er  Er4  1  0.203931  0.683034  0.565039  1
  Er  Er5  1  0.639533  0.815432  0.435657  1
  Er  Er6  1  0.800376  0.314945  0.438660  1
  Er  Er7  1  0.357082  0.187095  0.565616  1
  Er  Er8  1  0.415224  0.748672  0.998897  1
  Er  Er9  1  0.584587  0.250871  0.999442  1
  Tc  Tc10  1  0.181976  0.423895  0.785820  1
  Rh  Rh11  1  0.600209  0.922277  0.778490  1
  Rh  Rh12  1  0.817236  0.579185  0.220761  1
  Rh  Rh13  1  0.403482  0.075970  0.222011  1
