# generated using pymatgen
data_Dy3ZnHg2C
_symmetry_space_group_name_H-M   'P 1'
_cell_length_a   9.44718644
_cell_length_b   9.44718653
_cell_length_c   9.44718800
_cell_angle_alpha   59.99999487
_cell_angle_beta   59.99999453
_cell_angle_gamma   59.99999467
_symmetry_Int_Tables_number   1
_chemical_formula_structural   Dy3ZnHg2C
_chemical_formula_sum   'Dy12 Zn4 Hg8 C4'
_cell_volume   596.20070404
_cell_formula_units_Z   4
loop_
 _symmetry_equiv_pos_site_id
 _symmetry_equiv_pos_as_xyz
  1  'x, y, z'
loop_
 _atom_site_type_symbol
 _atom_site_label
 _atom_site_symmetry_multiplicity
 _atom_site_fract_x
 _atom_site_fract_y
 _atom_site_fract_z
 _atom_site_occupancy
  Dy  Dy0  1  0.442386  0.442386  0.057614  1
  Dy  Dy1  1  0.057614  0.442386  0.057614  1
  Dy  Dy2  1  0.442386  0.057614  0.057614  1
  Dy  Dy3  1  0.057614  0.057614  0.442386  1
  Dy  Dy4  1  0.442386  0.057614  0.442386  1
  Dy  Dy5  1  0.057614  0.442386  0.442386  1
  Dy  Dy6  1  0.807614  0.807614  0.192386  1
  Dy  Dy7  1  0.192386  0.807614  0.192386  1
  Dy  Dy8  1  0.807614  0.192386  0.192386  1
  Dy  Dy9  1  0.192386  0.192386  0.807614  1
  Dy  Dy10  1  0.807614  0.192386  0.807614  1
  Dy  Dy11  1  0.192386  0.807614  0.807614  1
  Zn  Zn12  1  0.625000  0.625000  0.125000  1
  Zn  Zn13  1  0.625000  0.125000  0.625000  1
  Zn  Zn14  1  0.125000  0.625000  0.625000  1
  Zn  Zn15  1  0.625000  0.625000  0.625000  1
  Hg  Hg16  1  0.835037  0.835037  0.494890  1
  Hg  Hg17  1  0.835037  0.494890  0.835037  1
  Hg  Hg18  1  0.494890  0.835037  0.835037  1
  Hg  Hg19  1  0.835037  0.835037  0.835037  1
  Hg  Hg20  1  0.414963  0.414963  0.755110  1
  Hg  Hg21  1  0.414963  0.755110  0.414963  1
  Hg  Hg22  1  0.755110  0.414963  0.414963  1
  Hg  Hg23  1  0.414963  0.414963  0.414963  1
  C  C24  1  0.125000  0.125000  0.625000  1
  C  C25  1  0.125000  0.625000  0.125000  1
  C  C26  1  0.625000  0.125000  0.125000  1
  C  C27  1  0.125000  0.125000  0.125000  1
