# generated using pymatgen
data_SmY7Al8
_symmetry_space_group_name_H-M   'P 1'
_cell_length_a   5.65101000
_cell_length_b   5.87673739
_cell_length_c   11.46991982
_cell_angle_alpha   89.92039088
_cell_angle_beta   90.00000000
_cell_angle_gamma   90.00000000
_symmetry_Int_Tables_number   1
_chemical_formula_structural   SmY7Al8
_chemical_formula_sum   'Sm1 Y7 Al8'
_cell_volume   380.90995486
_cell_formula_units_Z   1
loop_
 _symmetry_equiv_pos_site_id
 _symmetry_equiv_pos_as_xyz
  1  'x, y, z'
loop_
 _atom_site_type_symbol
 _atom_site_label
 _atom_site_symmetry_multiplicity
 _atom_site_fract_x
 _atom_site_fract_y
 _atom_site_fract_z
 _atom_site_occupancy
  Sm  Sm0  1  0.750000  0.835748  0.487002  1
  Y  Y1  1  0.250000  0.163134  0.515537  1
  Y  Y2  1  0.250000  0.398453  0.832734  1
  Y  Y3  1  0.250000  0.838843  0.014987  1
  Y  Y4  1  0.250000  0.600639  0.331591  1
  Y  Y5  1  0.750000  0.399286  0.667654  1
  Y  Y6  1  0.750000  0.161896  0.984627  1
  Y  Y7  1  0.750000  0.601610  0.166751  1
  Al  Al8  1  0.000672  0.932949  0.750829  1
  Al  Al9  1  0.000076  0.067814  0.249278  1
  Al  Al10  1  0.250000  0.661118  0.599830  1
  Al  Al11  1  0.250000  0.338259  0.098611  1
  Al  Al12  1  0.499328  0.932949  0.750829  1
  Al  Al13  1  0.499924  0.067814  0.249278  1
  Al  Al14  1  0.750000  0.661820  0.901124  1
  Al  Al15  1  0.750000  0.337668  0.399337  1
