# generated using pymatgen
data_Tb4ZnCuRu6
_symmetry_space_group_name_H-M   'P 1'
_cell_length_a   5.34222341
_cell_length_b   5.34222387
_cell_length_c   8.73016393
_cell_angle_alpha   89.73943917
_cell_angle_beta   90.26056211
_cell_angle_gamma   120.17956798
_symmetry_Int_Tables_number   1
_chemical_formula_structural   Tb4ZnCuRu6
_chemical_formula_sum   'Tb4 Zn1 Cu1 Ru6'
_cell_volume   215.37857662
_cell_formula_units_Z   1
loop_
 _symmetry_equiv_pos_site_id
 _symmetry_equiv_pos_as_xyz
  1  'x, y, z'
loop_
 _atom_site_type_symbol
 _atom_site_label
 _atom_site_symmetry_multiplicity
 _atom_site_fract_x
 _atom_site_fract_y
 _atom_site_fract_z
 _atom_site_occupancy
  Tb  Tb0  1  0.331632  0.668368  0.428823  1
  Tb  Tb1  1  0.662261  0.337739  0.570961  1
  Tb  Tb2  1  0.667586  0.332414  0.937122  1
  Tb  Tb3  1  0.335538  0.664462  0.065050  1
  Zn  Zn4  1  0.002642  0.997358  0.501471  1
  Cu  Cu5  1  0.833262  0.166738  0.249670  1
  Ru  Ru6  1  0.004237  0.995763  0.994605  1
  Ru  Ru7  1  0.823367  0.658894  0.250069  1
  Ru  Ru8  1  0.341106  0.176633  0.250069  1
  Ru  Ru9  1  0.172227  0.827773  0.754735  1
  Ru  Ru10  1  0.168283  0.342141  0.748712  1
  Ru  Ru11  1  0.657859  0.831717  0.748712  1
