# generated using pymatgen
data_Mg4NpNb7N12
_symmetry_space_group_name_H-M   'P 1'
_cell_length_a   5.30544500
_cell_length_b   5.30544599
_cell_length_c   10.68052000
_cell_angle_alpha   90.00000000
_cell_angle_beta   90.00000000
_cell_angle_gamma   120.00000008
_symmetry_Int_Tables_number   1
_chemical_formula_structural   Mg4NpNb7N12
_chemical_formula_sum   'Mg4 Np1 Nb7 N12'
_cell_volume   260.35549197
_cell_formula_units_Z   1
loop_
 _symmetry_equiv_pos_site_id
 _symmetry_equiv_pos_as_xyz
  1  'x, y, z'
loop_
 _atom_site_type_symbol
 _atom_site_label
 _atom_site_symmetry_multiplicity
 _atom_site_fract_x
 _atom_site_fract_y
 _atom_site_fract_z
 _atom_site_occupancy
  Mg  Mg0  1  0.333333  0.666667  0.000000  1
  Mg  Mg1  1  0.333333  0.666667  0.500000  1
  Mg  Mg2  1  0.666667  0.333333  0.500000  1
  Mg  Mg3  1  0.666667  0.333333  0.000000  1
  Np  Np4  1  0.000000  0.000000  0.000000  1
  Nb  Nb5  1  0.000000  0.335665  0.255140  1
  Nb  Nb6  1  0.664335  0.000000  0.744860  1
  Nb  Nb7  1  0.335665  0.335665  0.744860  1
  Nb  Nb8  1  0.000000  0.000000  0.500000  1
  Nb  Nb9  1  0.664335  0.664335  0.255140  1
  Nb  Nb10  1  0.335665  0.000000  0.255140  1
  Nb  Nb11  1  0.000000  0.664335  0.744860  1
  N  N12  1  0.669591  0.669591  0.618505  1
  N  N13  1  0.664149  0.664149  0.872457  1
  N  N14  1  0.335851  0.335851  0.127543  1
  N  N15  1  0.330409  0.330409  0.381495  1
  N  N16  1  0.335851  0.000000  0.872457  1
  N  N17  1  0.330409  0.000000  0.618505  1
  N  N18  1  0.000000  0.669591  0.381495  1
  N  N19  1  0.000000  0.664149  0.127543  1
  N  N20  1  0.664149  0.000000  0.127543  1
  N  N21  1  0.669591  0.000000  0.381495  1
  N  N22  1  0.000000  0.335851  0.872457  1
  N  N23  1  0.000000  0.330409  0.618505  1
