# generated using pymatgen
data_Lu10(InSb)3
_symmetry_space_group_name_H-M   'P 1'
_cell_length_a   6.37113609
_cell_length_b   8.78038528
_cell_length_c   8.78038526
_cell_angle_alpha   59.99758711
_cell_angle_beta   90.00168637
_cell_angle_gamma   89.99831803
_symmetry_Int_Tables_number   1
_chemical_formula_structural   Lu10(InSb)3
_chemical_formula_sum   'Lu10 In3 Sb3'
_cell_volume   425.36729761
_cell_formula_units_Z   1
loop_
 _symmetry_equiv_pos_site_id
 _symmetry_equiv_pos_as_xyz
  1  'x, y, z'
loop_
 _atom_site_type_symbol
 _atom_site_label
 _atom_site_symmetry_multiplicity
 _atom_site_fract_x
 _atom_site_fract_y
 _atom_site_fract_z
 _atom_site_occupancy
  Lu  Lu0  1  0.503826  0.333240  0.333300  1
  Lu  Lu1  1  0.503826  0.666700  0.666760  1
  Lu  Lu2  1  0.996133  0.666618  0.666631  1
  Lu  Lu3  1  0.996133  0.333369  0.333382  1
  Lu  Lu4  1  0.750045  0.236761  0.763239  1
  Lu  Lu5  1  0.750025  0.763256  0.000032  1
  Lu  Lu6  1  0.750025  0.999968  0.236744  1
  Lu  Lu7  1  0.250105  0.763913  0.236087  1
  Lu  Lu8  1  0.250022  0.236173  0.999959  1
  Lu  Lu9  1  0.250022  0.000041  0.763827  1
  In  In10  1  0.749772  0.606905  0.393095  1
  In  In11  1  0.750056  0.393031  0.000076  1
  In  In12  1  0.750056  0.999924  0.606969  1
  Sb  Sb13  1  0.250100  0.395053  0.604947  1
  Sb  Sb14  1  0.249927  0.605041  0.999992  1
  Sb  Sb15  1  0.249927  0.000008  0.394959  1
