# generated using pymatgen
data_Dy8In2OsRu
_symmetry_space_group_name_H-M   'P 1'
_cell_length_a   9.65227061
_cell_length_b   9.65227180
_cell_length_c   9.65291900
_cell_angle_alpha   59.99777851
_cell_angle_beta   59.99777442
_cell_angle_gamma   60.02506934
_symmetry_Int_Tables_number   1
_chemical_formula_structural   Dy8In2OsRu
_chemical_formula_sum   'Dy16 In4 Os2 Ru2'
_cell_volume   636.01932041
_cell_formula_units_Z   2
loop_
 _symmetry_equiv_pos_site_id
 _symmetry_equiv_pos_as_xyz
  1  'x, y, z'
loop_
 _atom_site_type_symbol
 _atom_site_label
 _atom_site_symmetry_multiplicity
 _atom_site_fract_x
 _atom_site_fract_y
 _atom_site_fract_z
 _atom_site_occupancy
  Dy  Dy0  1  0.597847  0.597847  0.597590  1
  Dy  Dy1  1  0.597847  0.597847  0.206716  1
  Dy  Dy2  1  0.597619  0.207562  0.597410  1
  Dy  Dy3  1  0.207562  0.597619  0.597410  1
  Dy  Dy4  1  0.058434  0.440902  0.443052  1
  Dy  Dy5  1  0.440902  0.058434  0.057611  1
  Dy  Dy6  1  0.440902  0.058434  0.443052  1
  Dy  Dy7  1  0.058434  0.440902  0.057611  1
  Dy  Dy8  1  0.441921  0.441921  0.058079  1
  Dy  Dy9  1  0.057385  0.057385  0.442615  1
  Dy  Dy10  1  0.192536  0.808223  0.805606  1
  Dy  Dy11  1  0.808223  0.192536  0.193635  1
  Dy  Dy12  1  0.808223  0.192536  0.805606  1
  Dy  Dy13  1  0.192536  0.808223  0.193635  1
  Dy  Dy14  1  0.806432  0.806432  0.193568  1
  Dy  Dy15  1  0.192696  0.192696  0.807304  1
  In  In16  1  0.832539  0.832539  0.832416  1
  In  In17  1  0.832539  0.832539  0.502507  1
  In  In18  1  0.833072  0.501357  0.832785  1
  In  In19  1  0.501357  0.833072  0.832785  1
  Os  Os20  1  0.390775  0.832018  0.388603  1
  Os  Os21  1  0.832018  0.390775  0.388603  1
  Ru  Ru22  1  0.389102  0.389102  0.386451  1
  Ru  Ru23  1  0.389102  0.389102  0.835347  1
