# generated using pymatgen
data_Hf7Zr9(CoPt)4
_symmetry_space_group_name_H-M   'P 1'
_cell_length_a   8.71493380
_cell_length_b   8.70366141
_cell_length_c   8.70366043
_cell_angle_alpha   59.97305391
_cell_angle_beta   59.95715079
_cell_angle_gamma   59.95714568
_symmetry_Int_Tables_number   1
_chemical_formula_structural   Hf7Zr9(CoPt)4
_chemical_formula_sum   'Hf7 Zr9 Co4 Pt4'
_cell_volume   466.42628640
_cell_formula_units_Z   1
loop_
 _symmetry_equiv_pos_site_id
 _symmetry_equiv_pos_as_xyz
  1  'x, y, z'
loop_
 _atom_site_type_symbol
 _atom_site_label
 _atom_site_symmetry_multiplicity
 _atom_site_fract_x
 _atom_site_fract_y
 _atom_site_fract_z
 _atom_site_occupancy
  Hf  Hf0  1  0.806779  0.193221  0.193221  1
  Hf  Hf1  1  0.437706  0.436155  0.062964  1
  Hf  Hf2  1  0.063175  0.062964  0.436155  1
  Hf  Hf3  1  0.437706  0.062964  0.436155  1
  Hf  Hf4  1  0.063175  0.436155  0.062964  1
  Hf  Hf5  1  0.063121  0.436879  0.436879  1
  Hf  Hf6  1  0.437532  0.062468  0.062468  1
  Zr  Zr7  1  0.066369  0.644619  0.644619  1
  Zr  Zr8  1  0.644806  0.066918  0.643472  1
  Zr  Zr9  1  0.644806  0.643472  0.066918  1
  Zr  Zr10  1  0.644394  0.644619  0.644619  1
  Zr  Zr11  1  0.808199  0.809526  0.191651  1
  Zr  Zr12  1  0.190624  0.191651  0.809526  1
  Zr  Zr13  1  0.808199  0.191651  0.809526  1
  Zr  Zr14  1  0.190624  0.809526  0.191651  1
  Zr  Zr15  1  0.191819  0.808181  0.808181  1
  Co  Co16  1  0.430761  0.856143  0.856143  1
  Co  Co17  1  0.856080  0.429124  0.858718  1
  Co  Co18  1  0.856080  0.858718  0.429124  1
  Co  Co19  1  0.856954  0.856143  0.856143  1
  Pt  Pt20  1  0.780838  0.405703  0.405703  1
  Pt  Pt21  1  0.406250  0.780248  0.407251  1
  Pt  Pt22  1  0.406250  0.407251  0.780248  1
  Pt  Pt23  1  0.407756  0.405703  0.405703  1
