# generated using pymatgen
data_BaSr2CrF9
_symmetry_space_group_name_H-M   'P 1'
_cell_length_a   5.76889878
_cell_length_b   5.77024723
_cell_length_c   12.98610437
_cell_angle_alpha   91.50242047
_cell_angle_beta   101.29715461
_cell_angle_gamma   91.29887387
_symmetry_Int_Tables_number   1
_chemical_formula_structural   BaSr2CrF9
_chemical_formula_sum   'Ba2 Sr4 Cr2 F18'
_cell_volume   423.58915634
_cell_formula_units_Z   2
loop_
 _symmetry_equiv_pos_site_id
 _symmetry_equiv_pos_as_xyz
  1  'x, y, z'
loop_
 _atom_site_type_symbol
 _atom_site_label
 _atom_site_symmetry_multiplicity
 _atom_site_fract_x
 _atom_site_fract_y
 _atom_site_fract_z
 _atom_site_occupancy
  Ba  Ba0  1  0.715457  0.732297  0.899686  1
  Ba  Ba1  1  0.284543  0.267703  0.100314  1
  Sr  Sr2  1  0.959141  0.243575  0.384401  1
  Sr  Sr3  1  0.040859  0.756425  0.615599  1
  Sr  Sr4  1  0.553643  0.265947  0.614996  1
  Sr  Sr5  1  0.446357  0.734053  0.385004  1
  Cr  Cr6  1  0.796547  0.791663  0.178742  1
  Cr  Cr7  1  0.203453  0.208337  0.821258  1
  F  F8  1  0.154479  0.961397  0.914239  1
  F  F9  1  0.845521  0.038603  0.085761  1
  F  F10  1  0.267597  0.449521  0.726801  1
  F  F11  1  0.732403  0.550479  0.273199  1
  F  F12  1  0.621948  0.004127  0.257284  1
  F  F13  1  0.378052  0.995873  0.742716  1
  F  F14  1  0.958516  0.591382  0.096821  1
  F  F15  1  0.041484  0.408618  0.903179  1
  F  F16  1  0.082963  0.898820  0.277176  1
  F  F17  1  0.917037  0.101180  0.722824  1
  F  F18  1  0.504207  0.700934  0.082879  1
  F  F19  1  0.495793  0.299066  0.917121  1
  F  F20  1  0.748144  0.995504  0.497901  1
  F  F21  1  0.251856  0.004496  0.502099  1
  F  F22  1  0.749839  0.491301  0.493993  1
  F  F23  1  0.250161  0.508699  0.506007  1
  F  F24  1  0.746926  0.610070  0.709886  1
  F  F25  1  0.253074  0.389930  0.290114  1
