# generated using pymatgen
data_Sr2Sb2S3O2
_symmetry_space_group_name_H-M   'P 1'
_cell_length_a   9.57439844
_cell_length_b   3.93329500
_cell_length_c   13.12421206
_cell_angle_alpha   90.00000000
_cell_angle_beta   124.92307890
_cell_angle_gamma   90.00000000
_symmetry_Int_Tables_number   1
_chemical_formula_structural   Sr2Sb2S3O2
_chemical_formula_sum   'Sr4 Sb4 S6 O4'
_cell_volume   405.24106662
_cell_formula_units_Z   2
loop_
 _symmetry_equiv_pos_site_id
 _symmetry_equiv_pos_as_xyz
  1  'x, y, z'
loop_
 _atom_site_type_symbol
 _atom_site_label
 _atom_site_symmetry_multiplicity
 _atom_site_fract_x
 _atom_site_fract_y
 _atom_site_fract_z
 _atom_site_occupancy
  Sr  Sr0  1  0.112807  0.489548  0.406654  1
  Sr  Sr1  1  0.887193  0.989548  0.093346  1
  Sr  Sr2  1  0.887193  0.510452  0.593346  1
  Sr  Sr3  1  0.112807  0.010452  0.906654  1
  Sb  Sb4  1  0.640759  0.489043  0.190974  1
  Sb  Sb5  1  0.359241  0.989043  0.309026  1
  Sb  Sb6  1  0.359241  0.510957  0.809026  1
  Sb  Sb7  1  0.640759  0.010957  0.690974  1
  S  S8  1  0.500000  0.500000  0.500000  1
  S  S9  1  0.500000  0.000000  0.000000  1
  S  S10  1  0.208508  0.495668  0.134201  1
  S  S11  1  0.791492  0.995668  0.365799  1
  S  S12  1  0.791492  0.504332  0.865799  1
  S  S13  1  0.208508  0.004332  0.634201  1
  O  O14  1  0.156483  0.509805  0.813752  1
  O  O15  1  0.843517  0.009805  0.686248  1
  O  O16  1  0.843517  0.490195  0.186248  1
  O  O17  1  0.156483  0.990195  0.313752  1
