# generated using pymatgen
data_LiPr2Tm3(P2Ru3)6
_symmetry_space_group_name_H-M   'P 1'
_cell_length_a   12.46228700
_cell_length_b   12.65583408
_cell_length_c   3.98854500
_cell_angle_alpha   90.00000000
_cell_angle_beta   90.00000000
_cell_angle_gamma   119.49538696
_symmetry_Int_Tables_number   1
_chemical_formula_structural   LiPr2Tm3(P2Ru3)6
_chemical_formula_sum   'Li1 Pr2 Tm3 P12 Ru18'
_cell_volume   547.54469342
_cell_formula_units_Z   1
loop_
 _symmetry_equiv_pos_site_id
 _symmetry_equiv_pos_as_xyz
  1  'x, y, z'
loop_
 _atom_site_type_symbol
 _atom_site_label
 _atom_site_symmetry_multiplicity
 _atom_site_fract_x
 _atom_site_fract_y
 _atom_site_fract_z
 _atom_site_occupancy
  Li  Li0  1  0.439746  0.000000  0.000000  1
  Pr  Pr1  1  0.002482  0.817061  0.500000  1
  Pr  Pr2  1  0.185422  0.182939  0.500000  1
  Tm  Tm3  1  0.817734  0.000000  0.500000  1
  Tm  Tm4  1  0.330201  0.657272  0.000000  1
  Tm  Tm5  1  0.672930  0.342728  0.000000  1
  P  P6  1  0.197030  0.000000  0.000000  1
  P  P7  1  0.994622  0.181679  0.000000  1
  P  P8  1  0.812942  0.818321  0.000000  1
  P  P9  1  0.517302  0.692687  0.500000  1
  P  P10  1  0.300379  0.815913  0.500000  1
  P  P11  1  0.167222  0.472339  0.500000  1
  P  P12  1  0.484467  0.184087  0.500000  1
  P  P13  1  0.694883  0.527661  0.500000  1
  P  P14  1  0.824615  0.307313  0.500000  1
  P  P15  1  0.632600  0.000000  0.000000  1
  P  P16  1  0.000024  0.623814  0.000000  1
  P  P17  1  0.376210  0.376186  0.000000  1
  Ru  Ru18  1  0.996649  0.442361  0.000000  1
  Ru  Ru19  1  0.554288  0.557639  0.000000  1
  Ru  Ru20  1  0.294778  0.000000  0.500000  1
  Ru  Ru21  1  0.994390  0.280149  0.500000  1
  Ru  Ru22  1  0.714242  0.719851  0.500000  1
  Ru  Ru23  1  0.617670  0.806756  0.000000  1
  Ru  Ru24  1  0.198249  0.811296  0.000000  1
  Ru  Ru25  1  0.182308  0.375460  0.000000  1
  Ru  Ru26  1  0.386952  0.188704  0.000000  1
  Ru  Ru27  1  0.806849  0.624540  0.000000  1
  Ru  Ru28  1  0.810915  0.193244  0.000000  1
  Ru  Ru29  1  0.507311  0.875579  0.500000  1
  Ru  Ru30  1  0.122375  0.628048  0.500000  1
  Ru  Ru31  1  0.364322  0.493320  0.500000  1
  Ru  Ru32  1  0.494326  0.371952  0.500000  1
  Ru  Ru33  1  0.871001  0.506680  0.500000  1
  Ru  Ru34  1  0.631732  0.124421  0.500000  1
  Ru  Ru35  1  0.000832  0.000000  0.000000  1
