# generated using pymatgen
data_Dy8ZnHgRh2
_symmetry_space_group_name_H-M   'P 1'
_cell_length_a   9.55052442
_cell_length_b   9.56131043
_cell_length_c   9.55052336
_cell_angle_alpha   59.96263060
_cell_angle_beta   59.89969408
_cell_angle_gamma   59.96263477
_symmetry_Int_Tables_number   1
_chemical_formula_structural   Dy8ZnHgRh2
_chemical_formula_sum   'Dy16 Zn2 Hg2 Rh4'
_cell_volume   615.85909003
_cell_formula_units_Z   2
loop_
 _symmetry_equiv_pos_site_id
 _symmetry_equiv_pos_as_xyz
  1  'x, y, z'
loop_
 _atom_site_type_symbol
 _atom_site_label
 _atom_site_symmetry_multiplicity
 _atom_site_fract_x
 _atom_site_fract_y
 _atom_site_fract_z
 _atom_site_occupancy
  Dy  Dy0  1  0.937139  0.936240  0.565699  1
  Dy  Dy1  1  0.565699  0.560921  0.937139  1
  Dy  Dy2  1  0.690949  0.689931  0.309546  1
  Dy  Dy3  1  0.147246  0.555932  0.147246  1
  Dy  Dy4  1  0.690990  0.309010  0.690990  1
  Dy  Dy5  1  0.147246  0.149575  0.147246  1
  Dy  Dy6  1  0.559066  0.148109  0.144715  1
  Dy  Dy7  1  0.690949  0.309574  0.309546  1
  Dy  Dy8  1  0.144715  0.148109  0.559066  1
  Dy  Dy9  1  0.309570  0.690430  0.309570  1
  Dy  Dy10  1  0.309546  0.689931  0.690949  1
  Dy  Dy11  1  0.937139  0.560921  0.565699  1
  Dy  Dy12  1  0.935916  0.564084  0.935916  1
  Dy  Dy13  1  0.562755  0.937245  0.562755  1
  Dy  Dy14  1  0.565699  0.936240  0.937139  1
  Dy  Dy15  1  0.309546  0.309574  0.690949  1
  Zn  Zn16  1  0.917628  0.920743  0.917628  1
  Zn  Zn17  1  0.917628  0.244001  0.917628  1
  Hg  Hg18  1  0.913050  0.918752  0.249447  1
  Hg  Hg19  1  0.249447  0.918752  0.913050  1
  Rh  Rh20  1  0.356557  0.357542  0.928360  1
  Rh  Rh21  1  0.356580  0.929537  0.356580  1
  Rh  Rh22  1  0.928360  0.357542  0.356557  1
  Rh  Rh23  1  0.356580  0.357304  0.356580  1
