# generated using pymatgen
data_Pr4Nd4Cd2CoPt
_symmetry_space_group_name_H-M   'P 1'
_cell_length_a   9.94350312
_cell_length_b   9.94350321
_cell_length_c   9.95440600
_cell_angle_alpha   59.96371565
_cell_angle_beta   59.96371537
_cell_angle_gamma   60.31708430
_symmetry_Int_Tables_number   1
_chemical_formula_structural   Pr4Nd4Cd2CoPt
_chemical_formula_sum   'Pr8 Nd8 Cd4 Co2 Pt2'
_cell_volume   697.21956080
_cell_formula_units_Z   2
loop_
 _symmetry_equiv_pos_site_id
 _symmetry_equiv_pos_as_xyz
  1  'x, y, z'
loop_
 _atom_site_type_symbol
 _atom_site_label
 _atom_site_symmetry_multiplicity
 _atom_site_fract_x
 _atom_site_fract_y
 _atom_site_fract_z
 _atom_site_occupancy
  Pr  Pr0  1  0.188522  0.188522  0.811478  1
  Pr  Pr1  1  0.808164  0.808164  0.191836  1
  Pr  Pr2  1  0.938270  0.560869  0.562905  1
  Pr  Pr3  1  0.560869  0.938270  0.937956  1
  Pr  Pr4  1  0.560869  0.938270  0.562905  1
  Pr  Pr5  1  0.938270  0.560869  0.937956  1
  Pr  Pr6  1  0.559284  0.559284  0.940716  1
  Pr  Pr7  1  0.936212  0.936212  0.563788  1
  Nd  Nd8  1  0.345121  0.345121  0.358014  1
  Nd  Nd9  1  0.345121  0.345121  0.951745  1
  Nd  Nd10  1  0.340307  0.957163  0.351265  1
  Nd  Nd11  1  0.957163  0.340307  0.351265  1
  Nd  Nd12  1  0.819259  0.189617  0.190316  1
  Nd  Nd13  1  0.189617  0.819259  0.800807  1
  Nd  Nd14  1  0.189617  0.819259  0.190316  1
  Nd  Nd15  1  0.819259  0.189617  0.800807  1
  Cd  Cd16  1  0.579519  0.579519  0.579343  1
  Cd  Cd17  1  0.579519  0.579519  0.261616  1
  Cd  Cd18  1  0.581801  0.259271  0.579463  1
  Cd  Cd19  1  0.259271  0.581801  0.579463  1
  Co  Co20  1  0.142524  0.142524  0.141967  1
  Co  Co21  1  0.142524  0.142524  0.572986  1
  Pt  Pt22  1  0.146371  0.572547  0.140541  1
  Pt  Pt23  1  0.572547  0.146371  0.140541  1
