# generated using pymatgen
data_Er2AlRuRh
_symmetry_space_group_name_H-M   'P 1'
_cell_length_a   5.51585005
_cell_length_b   5.51584986
_cell_length_c   5.51585039
_cell_angle_alpha   137.40076267
_cell_angle_beta   115.20573199
_cell_angle_gamma   80.67839328
_symmetry_Int_Tables_number   1
_chemical_formula_structural   Er2AlRuRh
_chemical_formula_sum   'Er2 Al1 Ru1 Rh1'
_cell_volume   99.57969827
_cell_formula_units_Z   1
loop_
 _symmetry_equiv_pos_site_id
 _symmetry_equiv_pos_as_xyz
  1  'x, y, z'
loop_
 _atom_site_type_symbol
 _atom_site_label
 _atom_site_symmetry_multiplicity
 _atom_site_fract_x
 _atom_site_fract_y
 _atom_site_fract_z
 _atom_site_occupancy
  Er  Er0  1  0.697292  0.201481  0.495809  1
  Er  Er1  1  0.294328  0.798519  0.495809  1
  Al  Al2  1  0.005079  0.000000  0.005079  1
  Ru  Ru3  1  0.261342  0.500000  0.761342  1
  Rh  Rh4  1  0.741959  0.500000  0.241959  1
