# generated using pymatgen
data_Nd2HfIr3
_symmetry_space_group_name_H-M   'P 1'
_cell_length_a   5.36865618
_cell_length_b   5.36865640
_cell_length_c   5.36865670
_cell_angle_alpha   65.60716262
_cell_angle_beta   65.60716549
_cell_angle_gamma   65.60716150
_symmetry_Int_Tables_number   1
_chemical_formula_structural   Nd2HfIr3
_chemical_formula_sum   'Nd2 Hf1 Ir3'
_cell_volume   122.74111262
_cell_formula_units_Z   1
loop_
 _symmetry_equiv_pos_site_id
 _symmetry_equiv_pos_as_xyz
  1  'x, y, z'
loop_
 _atom_site_type_symbol
 _atom_site_label
 _atom_site_symmetry_multiplicity
 _atom_site_fract_x
 _atom_site_fract_y
 _atom_site_fract_z
 _atom_site_occupancy
  Nd  Nd0  1  0.249749  0.249749  0.249749  1
  Nd  Nd1  1  0.000250  0.000250  0.000250  1
  Hf  Hf2  1  0.625000  0.625000  0.625000  1
  Ir  Ir3  1  0.625000  0.125002  0.625000  1
  Ir  Ir4  1  0.125002  0.625000  0.625000  1
  Ir  Ir5  1  0.625000  0.625000  0.125002  1
