# generated using pymatgen
data_CaEr(Si2Rh3)2
_symmetry_space_group_name_H-M   'P 1'
_cell_length_a   6.63899862
_cell_length_b   6.63899826
_cell_length_c   6.63899861
_cell_angle_alpha   130.13281347
_cell_angle_beta   114.97181514
_cell_angle_gamma   86.17357912
_symmetry_Int_Tables_number   1
_chemical_formula_structural   CaEr(Si2Rh3)2
_chemical_formula_sum   'Ca1 Er1 Si4 Rh6'
_cell_volume   193.70110707
_cell_formula_units_Z   1
loop_
 _symmetry_equiv_pos_site_id
 _symmetry_equiv_pos_as_xyz
  1  'x, y, z'
loop_
 _atom_site_type_symbol
 _atom_site_label
 _atom_site_symmetry_multiplicity
 _atom_site_fract_x
 _atom_site_fract_y
 _atom_site_fract_z
 _atom_site_occupancy
  Ca  Ca0  1  0.750000  0.032982  0.282982  1
  Er  Er1  1  0.250000  0.947143  0.697143  1
  Si  Si2  1  0.579874  0.383779  0.803905  1
  Si  Si3  1  0.920126  0.724030  0.803905  1
  Si  Si4  1  0.424191  0.618427  0.194236  1
  Si  Si5  1  0.075809  0.270045  0.194236  1
  Rh  Rh6  1  0.217113  0.506960  0.719067  1
  Rh  Rh7  1  0.787893  0.506960  0.289847  1
  Rh  Rh8  1  0.495404  0.502883  0.498287  1
  Rh  Rh9  1  0.004596  0.502883  0.007480  1
  Rh  Rh10  1  0.712107  0.001954  0.719067  1
  Rh  Rh11  1  0.282887  0.001954  0.289847  1
