# generated using pymatgen
data_Lu12TlInFe2Ru
_symmetry_space_group_name_H-M   'P 1'
_cell_length_a   8.19351077
_cell_length_b   8.19354534
_cell_length_c   8.19351101
_cell_angle_alpha   108.44182207
_cell_angle_beta   108.70153619
_cell_angle_gamma   111.28560298
_symmetry_Int_Tables_number   1
_chemical_formula_structural   Lu12TlInFe2Ru
_chemical_formula_sum   'Lu12 Tl1 In1 Fe2 Ru1'
_cell_volume   423.11741651
_cell_formula_units_Z   1
loop_
 _symmetry_equiv_pos_site_id
 _symmetry_equiv_pos_as_xyz
  1  'x, y, z'
loop_
 _atom_site_type_symbol
 _atom_site_label
 _atom_site_symmetry_multiplicity
 _atom_site_fract_x
 _atom_site_fract_y
 _atom_site_fract_z
 _atom_site_occupancy
  Lu  Lu0  1  0.307925  0.308712  0.616634  1
  Lu  Lu1  1  0.692075  0.691288  0.383366  1
  Lu  Lu2  1  0.692078  0.308712  0.000787  1
  Lu  Lu3  1  0.307922  0.691288  0.999213  1
  Lu  Lu4  1  0.192408  0.429801  0.237392  1
  Lu  Lu5  1  0.807592  0.570199  0.762608  1
  Lu  Lu6  1  0.192402  0.955010  0.762609  1
  Lu  Lu7  1  0.954682  0.192858  0.761823  1
  Lu  Lu8  1  0.807598  0.044990  0.237391  1
  Lu  Lu9  1  0.045318  0.807142  0.238177  1
  Lu  Lu10  1  0.431036  0.192858  0.238175  1
  Lu  Lu11  1  0.568964  0.807142  0.761825  1
  Tl  Tl12  1  0.500000  0.000000  0.500000  1
  In  In13  1  0.000000  0.500000  0.500000  1
  Fe  Fe14  1  0.383126  0.383117  0.999991  1
  Fe  Fe15  1  0.616874  0.616883  0.000009  1
  Ru  Ru16  1  0.000000  0.000000  0.000000  1
