# generated using pymatgen
data_Tb3Dy3(Ho3Ni2)2
_symmetry_space_group_name_H-M   'P 1'
_cell_length_a   6.34116409
_cell_length_b   6.83316104
_cell_length_c   9.54651913
_cell_angle_alpha   89.99903250
_cell_angle_beta   90.01909327
_cell_angle_gamma   90.00620755
_symmetry_Int_Tables_number   1
_chemical_formula_structural   Tb3Dy3(Ho3Ni2)2
_chemical_formula_sum   'Tb3 Dy3 Ho6 Ni4'
_cell_volume   413.65251390
_cell_formula_units_Z   1
loop_
 _symmetry_equiv_pos_site_id
 _symmetry_equiv_pos_as_xyz
  1  'x, y, z'
loop_
 _atom_site_type_symbol
 _atom_site_label
 _atom_site_symmetry_multiplicity
 _atom_site_fract_x
 _atom_site_fract_y
 _atom_site_fract_z
 _atom_site_occupancy
  Tb  Tb0  1  0.861795  0.532108  0.250070  1
  Tb  Tb1  1  0.639078  0.032476  0.249936  1
  Tb  Tb2  1  0.138599  0.467718  0.749964  1
  Dy  Dy3  1  0.321594  0.678266  0.065947  1
  Dy  Dy4  1  0.179064  0.177658  0.434030  1
  Dy  Dy5  1  0.360847  0.967108  0.750033  1
  Ho  Ho6  1  0.678095  0.322012  0.566718  1
  Ho  Ho7  1  0.820796  0.822292  0.933406  1
  Ho  Ho8  1  0.678221  0.321964  0.933325  1
  Ho  Ho9  1  0.820680  0.822247  0.566536  1
  Ho  Ho10  1  0.321712  0.678259  0.434016  1
  Ho  Ho11  1  0.178936  0.177624  0.066007  1
  Ni  Ni12  1  0.056792  0.890995  0.250004  1
  Ni  Ni13  1  0.443722  0.391412  0.250002  1
  Ni  Ni14  1  0.944652  0.108429  0.750075  1
  Ni  Ni15  1  0.555416  0.609432  0.749929  1
