# generated using pymatgen
data_Nb5Sn(B2Ru5)2
_symmetry_space_group_name_H-M   'P 1'
_cell_length_a   9.49563300
_cell_length_b   9.49563300
_cell_length_c   3.02521400
_cell_angle_alpha   90.00000000
_cell_angle_beta   90.00000000
_cell_angle_gamma   90.00000000
_symmetry_Int_Tables_number   1
_chemical_formula_structural   Nb5Sn(B2Ru5)2
_chemical_formula_sum   'Nb5 Sn1 B4 Ru10'
_cell_volume   272.77461011
_cell_formula_units_Z   1
loop_
 _symmetry_equiv_pos_site_id
 _symmetry_equiv_pos_as_xyz
  1  'x, y, z'
loop_
 _atom_site_type_symbol
 _atom_site_label
 _atom_site_symmetry_multiplicity
 _atom_site_fract_x
 _atom_site_fract_y
 _atom_site_fract_z
 _atom_site_occupancy
  Nb  Nb0  1  0.823507  0.676886  0.000000  1
  Nb  Nb1  1  0.176493  0.323114  0.000000  1
  Nb  Nb2  1  0.323114  0.823507  0.000000  1
  Nb  Nb3  1  0.676886  0.176493  0.000000  1
  Nb  Nb4  1  0.000000  0.000000  0.000000  1
  Sn  Sn5  1  0.500000  0.500000  0.000000  1
  B  B6  1  0.619585  0.877233  0.000000  1
  B  B7  1  0.380415  0.122767  0.000000  1
  B  B8  1  0.122767  0.619585  0.000000  1
  B  B9  1  0.877233  0.380415  0.000000  1
  Ru  Ru10  1  0.574102  0.721787  0.500000  1
  Ru  Ru11  1  0.425898  0.278213  0.500000  1
  Ru  Ru12  1  0.068635  0.780998  0.500000  1
  Ru  Ru13  1  0.931365  0.219002  0.500000  1
  Ru  Ru14  1  0.278213  0.574102  0.500000  1
  Ru  Ru15  1  0.721787  0.425898  0.500000  1
  Ru  Ru16  1  0.219002  0.068635  0.500000  1
  Ru  Ru17  1  0.780998  0.931365  0.500000  1
  Ru  Ru18  1  0.500000  0.000000  0.500000  1
  Ru  Ru19  1  0.000000  0.500000  0.500000  1
