# generated using pymatgen
data_Dy(HfSe2)8
_symmetry_space_group_name_H-M   'P 1'
_cell_length_a   7.52077100
_cell_length_b   7.52076961
_cell_length_c   13.67777300
_cell_angle_alpha   90.00000000
_cell_angle_beta   90.00000000
_cell_angle_gamma   119.99999293
_symmetry_Int_Tables_number   1
_chemical_formula_structural   Dy(HfSe2)8
_chemical_formula_sum   'Dy1 Hf8 Se16'
_cell_volume   669.99367698
_cell_formula_units_Z   1
loop_
 _symmetry_equiv_pos_site_id
 _symmetry_equiv_pos_as_xyz
  1  'x, y, z'
loop_
 _atom_site_type_symbol
 _atom_site_label
 _atom_site_symmetry_multiplicity
 _atom_site_fract_x
 _atom_site_fract_y
 _atom_site_fract_z
 _atom_site_occupancy
  Dy  Dy0  1  0.000000  0.000000  0.000000  1
  Hf  Hf1  1  0.503978  0.496022  0.745977  1
  Hf  Hf2  1  0.496022  0.503978  0.254023  1
  Hf  Hf3  1  0.503978  0.007955  0.745977  1
  Hf  Hf4  1  0.496022  0.992045  0.254023  1
  Hf  Hf5  1  0.992045  0.496022  0.745977  1
  Hf  Hf6  1  0.007955  0.503978  0.254023  1
  Hf  Hf7  1  0.000000  0.000000  0.741783  1
  Hf  Hf8  1  0.000000  0.000000  0.258217  1
  Se  Se9  1  0.832402  0.664805  0.134489  1
  Se  Se10  1  0.832751  0.665504  0.629348  1
  Se  Se11  1  0.832402  0.167598  0.134489  1
  Se  Se12  1  0.832751  0.167249  0.629348  1
  Se  Se13  1  0.333333  0.666667  0.134631  1
  Se  Se14  1  0.333333  0.666667  0.637097  1
  Se  Se15  1  0.335195  0.167598  0.134489  1
  Se  Se16  1  0.334496  0.167249  0.629348  1
  Se  Se17  1  0.664805  0.832402  0.865511  1
  Se  Se18  1  0.665504  0.832751  0.370652  1
  Se  Se19  1  0.666667  0.333333  0.865369  1
  Se  Se20  1  0.666667  0.333333  0.362903  1
  Se  Se21  1  0.167598  0.832402  0.865511  1
  Se  Se22  1  0.167249  0.832751  0.370652  1
  Se  Se23  1  0.167598  0.335195  0.865511  1
  Se  Se24  1  0.167249  0.334496  0.370652  1
