# generated using pymatgen
data_Sc2NO
_symmetry_space_group_name_H-M   'P 1'
_cell_length_a   5.51940038
_cell_length_b   5.51940041
_cell_length_c   5.51940009
_cell_angle_alpha   33.42554854
_cell_angle_beta   33.42554301
_cell_angle_gamma   33.42556396
_symmetry_Int_Tables_number   1
_chemical_formula_structural   Sc2NO
_chemical_formula_sum   'Sc2 N1 O1'
_cell_volume   45.43558348
_cell_formula_units_Z   1
loop_
 _symmetry_equiv_pos_site_id
 _symmetry_equiv_pos_as_xyz
  1  'x, y, z'
loop_
 _atom_site_type_symbol
 _atom_site_label
 _atom_site_symmetry_multiplicity
 _atom_site_fract_x
 _atom_site_fract_y
 _atom_site_fract_z
 _atom_site_occupancy
  Sc  Sc0  1  0.245919  0.245919  0.245919  1
  Sc  Sc1  1  0.754081  0.754081  0.754081  1
  N  N2  1  0.500000  0.500000  0.500000  1
  O  O3  1  0.000000  0.000000  0.000000  1
