# generated using pymatgen
data_Tb4Dy2InCoRu
_symmetry_space_group_name_H-M   'P 1'
_cell_length_a   8.45819760
_cell_length_b   8.45819866
_cell_length_c   8.45819724
_cell_angle_alpha   112.60421377
_cell_angle_beta   110.24272008
_cell_angle_gamma   105.64277861
_symmetry_Int_Tables_number   1
_chemical_formula_structural   Tb4Dy2InCoRu
_chemical_formula_sum   'Tb8 Dy4 In2 Co2 Ru2'
_cell_volume   464.05473504
_cell_formula_units_Z   2
loop_
 _symmetry_equiv_pos_site_id
 _symmetry_equiv_pos_as_xyz
  1  'x, y, z'
loop_
 _atom_site_type_symbol
 _atom_site_label
 _atom_site_symmetry_multiplicity
 _atom_site_fract_x
 _atom_site_fract_y
 _atom_site_fract_z
 _atom_site_occupancy
  Tb  Tb0  1  0.442777  0.241019  0.201760  1
  Tb  Tb1  1  0.557223  0.758981  0.798240  1
  Tb  Tb2  1  0.039259  0.241019  0.798240  1
  Tb  Tb3  1  0.960741  0.758981  0.201760  1
  Tb  Tb4  1  0.184102  0.285428  0.469530  1
  Tb  Tb5  1  0.815898  0.714572  0.530470  1
  Tb  Tb6  1  0.184102  0.714572  0.898674  1
  Tb  Tb7  1  0.815898  0.285428  0.101326  1
  Dy  Dy8  1  0.322270  0.637728  0.315458  1
  Dy  Dy9  1  0.677730  0.362272  0.684542  1
  Dy  Dy10  1  0.322270  0.006810  0.684542  1
  Dy  Dy11  1  0.677730  0.993190  0.315458  1
  In  In12  1  0.500000  0.500000  0.000000  1
  In  In13  1  0.000000  0.000000  0.000000  1
  Co  Co14  1  0.111011  0.611011  0.500000  1
  Co  Co15  1  0.888989  0.388989  0.500000  1
  Ru  Ru16  1  0.331296  0.000000  0.331296  1
  Ru  Ru17  1  0.668704  0.000000  0.668704  1
