# generated using pymatgen
data_NaLu(TaSe2)8
_symmetry_space_group_name_H-M   'P 1'
_cell_length_a   7.00387300
_cell_length_b   7.00387367
_cell_length_c   14.59079800
_cell_angle_alpha   90.00000000
_cell_angle_beta   90.00000000
_cell_angle_gamma   119.99999213
_symmetry_Int_Tables_number   1
_chemical_formula_structural   NaLu(TaSe2)8
_chemical_formula_sum   'Na1 Lu1 Ta8 Se16'
_cell_volume   619.84953160
_cell_formula_units_Z   1
loop_
 _symmetry_equiv_pos_site_id
 _symmetry_equiv_pos_as_xyz
  1  'x, y, z'
loop_
 _atom_site_type_symbol
 _atom_site_label
 _atom_site_symmetry_multiplicity
 _atom_site_fract_x
 _atom_site_fract_y
 _atom_site_fract_z
 _atom_site_occupancy
  Na  Na0  1  0.000000  0.000000  0.500000  1
  Lu  Lu1  1  0.000000  0.000000  0.000000  1
  Ta  Ta2  1  0.000000  0.000000  0.238178  1
  Ta  Ta3  1  0.000000  0.000000  0.761822  1
  Ta  Ta4  1  0.509534  0.490466  0.238779  1
  Ta  Ta5  1  0.509534  0.019066  0.238779  1
  Ta  Ta6  1  0.980934  0.490466  0.238779  1
  Ta  Ta7  1  0.490466  0.509534  0.761221  1
  Ta  Ta8  1  0.490466  0.980934  0.761221  1
  Ta  Ta9  1  0.019066  0.509534  0.761221  1
  Se  Se10  1  0.333333  0.666667  0.881285  1
  Se  Se11  1  0.666667  0.333333  0.118715  1
  Se  Se12  1  0.666667  0.333333  0.358098  1
  Se  Se13  1  0.333333  0.666667  0.641902  1
  Se  Se14  1  0.168666  0.831334  0.350226  1
  Se  Se15  1  0.168666  0.337332  0.350226  1
  Se  Se16  1  0.662668  0.831334  0.350226  1
  Se  Se17  1  0.831334  0.168666  0.649774  1
  Se  Se18  1  0.831334  0.662668  0.649774  1
  Se  Se19  1  0.337332  0.168666  0.649774  1
  Se  Se20  1  0.829591  0.170409  0.874322  1
  Se  Se21  1  0.829591  0.659182  0.874322  1
  Se  Se22  1  0.340818  0.170409  0.874322  1
  Se  Se23  1  0.170409  0.829591  0.125678  1
  Se  Se24  1  0.170409  0.340818  0.125678  1
  Se  Se25  1  0.659182  0.829591  0.125678  1
