# generated using pymatgen
data_Sc4BeVOs6
_symmetry_space_group_name_H-M   'P 1'
_cell_length_a   5.16926331
_cell_length_b   5.13042212
_cell_length_c   8.61701500
_cell_angle_alpha   90.00000000
_cell_angle_beta   90.00000000
_cell_angle_gamma   121.73853882
_symmetry_Int_Tables_number   1
_chemical_formula_structural   Sc4BeVOs6
_chemical_formula_sum   'Sc4 Be1 V1 Os6'
_cell_volume   194.35297929
_cell_formula_units_Z   1
loop_
 _symmetry_equiv_pos_site_id
 _symmetry_equiv_pos_as_xyz
  1  'x, y, z'
loop_
 _atom_site_type_symbol
 _atom_site_label
 _atom_site_symmetry_multiplicity
 _atom_site_fract_x
 _atom_site_fract_y
 _atom_site_fract_z
 _atom_site_occupancy
  Sc  Sc0  1  0.332630  0.662285  0.435869  1
  Sc  Sc1  1  0.661808  0.334283  0.561480  1
  Sc  Sc2  1  0.661808  0.334283  0.938520  1
  Sc  Sc3  1  0.332630  0.662285  0.064131  1
  Be  Be4  1  0.343923  0.170158  0.250000  1
  V  V5  1  0.169004  0.337865  0.750000  1
  Os  Os6  1  0.174206  0.826945  0.750000  1
  Os  Os7  1  0.832788  0.656968  0.250000  1
  Os  Os8  1  0.660148  0.831546  0.750000  1
  Os  Os9  1  0.999475  0.001630  0.004210  1
  Os  Os10  1  0.832099  0.180126  0.250000  1
  Os  Os11  1  0.999475  0.001630  0.495790  1
