# generated using pymatgen
data_Li4Eu4BiSb3
_symmetry_space_group_name_H-M   'P 1'
_cell_length_a   4.80860100
_cell_length_b   7.82990704
_cell_length_c   8.40560909
_cell_angle_alpha   89.94137125
_cell_angle_beta   90.00000000
_cell_angle_gamma   90.00000000
_symmetry_Int_Tables_number   1
_chemical_formula_structural   Li4Eu4BiSb3
_chemical_formula_sum   'Li4 Eu4 Bi1 Sb3'
_cell_volume   316.47857147
_cell_formula_units_Z   1
loop_
 _symmetry_equiv_pos_site_id
 _symmetry_equiv_pos_as_xyz
  1  'x, y, z'
loop_
 _atom_site_type_symbol
 _atom_site_label
 _atom_site_symmetry_multiplicity
 _atom_site_fract_x
 _atom_site_fract_y
 _atom_site_fract_z
 _atom_site_occupancy
  Li  Li0  1  0.250000  0.162772  0.925098  1
  Li  Li1  1  0.250000  0.665382  0.577095  1
  Li  Li2  1  0.750000  0.836488  0.077179  1
  Li  Li3  1  0.750000  0.337419  0.420180  1
  Eu  Eu4  1  0.250000  0.001921  0.287267  1
  Eu  Eu5  1  0.250000  0.504803  0.208785  1
  Eu  Eu6  1  0.750000  0.992235  0.711790  1
  Eu  Eu7  1  0.750000  0.498911  0.792494  1
  Bi  Bi8  1  0.250000  0.275283  0.592998  1
  Sb  Sb9  1  0.250000  0.775180  0.907055  1
  Sb  Sb10  1  0.750000  0.724692  0.407193  1
  Sb  Sb11  1  0.750000  0.224914  0.092864  1
