# generated using pymatgen
data_Sc4Cr2Re5Tc
_symmetry_space_group_name_H-M   'P 1'
_cell_length_a   5.17577747
_cell_length_b   5.25638242
_cell_length_c   8.57157918
_cell_angle_alpha   89.99999791
_cell_angle_beta   89.91482251
_cell_angle_gamma   120.51652789
_symmetry_Int_Tables_number   1
_chemical_formula_structural   Sc4Cr2Re5Tc
_chemical_formula_sum   'Sc4 Cr2 Re5 Tc1'
_cell_volume   200.89508619
_cell_formula_units_Z   1
loop_
 _symmetry_equiv_pos_site_id
 _symmetry_equiv_pos_as_xyz
  1  'x, y, z'
loop_
 _atom_site_type_symbol
 _atom_site_label
 _atom_site_symmetry_multiplicity
 _atom_site_fract_x
 _atom_site_fract_y
 _atom_site_fract_z
 _atom_site_occupancy
  Sc  Sc0  1  0.333996  0.666999  0.438781  1
  Sc  Sc1  1  0.666354  0.333176  0.938464  1
  Sc  Sc2  1  0.666004  0.333001  0.561219  1
  Sc  Sc3  1  0.333646  0.666824  0.061536  1
  Cr  Cr4  1  0.662476  0.831238  0.750419  1
  Cr  Cr5  1  0.337524  0.168762  0.249581  1
  Re  Re6  1  0.824994  0.170495  0.249862  1
  Re  Re7  1  0.175006  0.345501  0.750138  1
  Re  Re8  1  0.175006  0.829505  0.750138  1
  Re  Re9  1  0.824994  0.654499  0.249862  1
  Re  Re10  1  0.000000  0.000000  0.000000  1
  Tc  Tc11  1  0.000000  0.000000  0.500000  1
