# generated using pymatgen
data_Y3Sn6Ru
_symmetry_space_group_name_H-M   'P 1'
_cell_length_a   8.61670711
_cell_length_b   8.61670688
_cell_length_c   13.18869100
_cell_angle_alpha   90.00000000
_cell_angle_beta   90.00000000
_cell_angle_gamma   148.76626357
_symmetry_Int_Tables_number   1
_chemical_formula_structural   Y3Sn6Ru
_chemical_formula_sum   'Y6 Sn12 Ru2'
_cell_volume   507.76025994
_cell_formula_units_Z   2
loop_
 _symmetry_equiv_pos_site_id
 _symmetry_equiv_pos_as_xyz
  1  'x, y, z'
loop_
 _atom_site_type_symbol
 _atom_site_label
 _atom_site_symmetry_multiplicity
 _atom_site_fract_x
 _atom_site_fract_y
 _atom_site_fract_z
 _atom_site_occupancy
  Y  Y0  1  0.601063  0.398937  0.250000  1
  Y  Y1  1  0.398937  0.601063  0.750000  1
  Y  Y2  1  0.397778  0.602222  0.402570  1
  Y  Y3  1  0.602222  0.397778  0.597430  1
  Y  Y4  1  0.397778  0.602222  0.097430  1
  Y  Y5  1  0.602222  0.397778  0.902570  1
  Sn  Sn6  1  0.925813  0.074187  0.926379  1
  Sn  Sn7  1  0.074187  0.925813  0.073621  1
  Sn  Sn8  1  0.925813  0.074187  0.573621  1
  Sn  Sn9  1  0.074187  0.925813  0.426379  1
  Sn  Sn10  1  0.960948  0.039052  0.250000  1
  Sn  Sn11  1  0.039052  0.960948  0.750000  1
  Sn  Sn12  1  0.742511  0.257490  0.432749  1
  Sn  Sn13  1  0.257490  0.742510  0.567251  1
  Sn  Sn14  1  0.742511  0.257490  0.067251  1
  Sn  Sn15  1  0.257490  0.742510  0.932749  1
  Sn  Sn16  1  0.231224  0.768776  0.250000  1
  Sn  Sn17  1  0.768776  0.231224  0.750000  1
  Ru  Ru18  1  0.803222  0.196778  0.250000  1
  Ru  Ru19  1  0.196778  0.803222  0.750000  1
