# generated using pymatgen
data_Li2Er3Lu(ZnPt2)2
_symmetry_space_group_name_H-M   'P 1'
_cell_length_a   4.01824500
_cell_length_b   6.94676845
_cell_length_c   8.29650312
_cell_angle_alpha   89.88579306
_cell_angle_beta   90.00000000
_cell_angle_gamma   90.00000000
_symmetry_Int_Tables_number   1
_chemical_formula_structural   Li2Er3Lu(ZnPt2)2
_chemical_formula_sum   'Li2 Er3 Lu1 Zn2 Pt4'
_cell_volume   231.58661468
_cell_formula_units_Z   1
loop_
 _symmetry_equiv_pos_site_id
 _symmetry_equiv_pos_as_xyz
  1  'x, y, z'
loop_
 _atom_site_type_symbol
 _atom_site_label
 _atom_site_symmetry_multiplicity
 _atom_site_fract_x
 _atom_site_fract_y
 _atom_site_fract_z
 _atom_site_occupancy
  Li  Li0  1  0.250000  0.629820  0.559571  1
  Li  Li1  1  0.250000  0.129098  0.940252  1
  Er  Er2  1  0.250000  0.045578  0.319545  1
  Er  Er3  1  0.250000  0.545713  0.181206  1
  Er  Er4  1  0.750000  0.455074  0.814676  1
  Lu  Lu5  1  0.750000  0.954907  0.684750  1
  Zn  Zn6  1  0.750000  0.370904  0.437538  1
  Zn  Zn7  1  0.750000  0.870989  0.062144  1
  Pt  Pt8  1  0.250000  0.244475  0.622541  1
  Pt  Pt9  1  0.250000  0.748119  0.876817  1
  Pt  Pt10  1  0.750000  0.753067  0.378692  1
  Pt  Pt11  1  0.750000  0.252259  0.122268  1
