# generated using pymatgen
data_CaLa3(Sn2Ir)8
_symmetry_space_group_name_H-M   'P 1'
_cell_length_a   4.54340900
_cell_length_b   7.27608907
_cell_length_c   18.68058177
_cell_angle_alpha   90.06230764
_cell_angle_beta   90.00000000
_cell_angle_gamma   90.00000000
_symmetry_Int_Tables_number   1
_chemical_formula_structural   CaLa3(Sn2Ir)8
_chemical_formula_sum   'Ca1 La3 Sn16 Ir8'
_cell_volume   617.54695054
_cell_formula_units_Z   1
loop_
 _symmetry_equiv_pos_site_id
 _symmetry_equiv_pos_as_xyz
  1  'x, y, z'
loop_
 _atom_site_type_symbol
 _atom_site_label
 _atom_site_symmetry_multiplicity
 _atom_site_fract_x
 _atom_site_fract_y
 _atom_site_fract_z
 _atom_site_occupancy
  Ca  Ca0  1  0.250000  0.996932  0.857932  1
  La  La1  1  0.250000  0.502616  0.358024  1
  La  La2  1  0.750000  0.002063  0.140920  1
  La  La3  1  0.750000  0.498285  0.643132  1
  Sn  Sn4  1  0.250000  0.303515  0.182650  1
  Sn  Sn5  1  0.250000  0.196013  0.683133  1
  Sn  Sn6  1  0.750000  0.699810  0.818926  1
  Sn  Sn7  1  0.750000  0.803868  0.317333  1
  Sn  Sn8  1  0.250000  0.722563  0.193460  1
  Sn  Sn9  1  0.250000  0.779621  0.695486  1
  Sn  Sn10  1  0.750000  0.273489  0.807603  1
  Sn  Sn11  1  0.750000  0.222262  0.305825  1
  Sn  Sn12  1  0.250000  0.866244  0.029581  1
  Sn  Sn13  1  0.250000  0.635885  0.532156  1
  Sn  Sn14  1  0.750000  0.134696  0.965832  1
  Sn  Sn15  1  0.750000  0.364171  0.468691  1
  Sn  Sn16  1  0.250000  0.518332  0.931473  1
  Sn  Sn17  1  0.250000  0.980606  0.432099  1
  Sn  Sn18  1  0.750000  0.480350  0.067554  1
  Sn  Sn19  1  0.750000  0.018955  0.568049  1
  Ir  Ir20  1  0.250000  0.252950  0.036091  1
  Ir  Ir21  1  0.250000  0.248456  0.535297  1
  Ir  Ir22  1  0.750000  0.748348  0.964516  1
  Ir  Ir23  1  0.750000  0.751285  0.464339  1
  Ir  Ir24  1  0.250000  0.016822  0.286220  1
  Ir  Ir25  1  0.250000  0.482512  0.785156  1
  Ir  Ir26  1  0.750000  0.982600  0.714208  1
  Ir  Ir27  1  0.750000  0.516750  0.214312  1
