# generated using pymatgen
data_Ho2ScGa5Ir
_symmetry_space_group_name_H-M   'P 1'
_cell_length_a   6.91398800
_cell_length_b   6.92521375
_cell_length_c   4.25226600
_cell_angle_alpha   90.00000000
_cell_angle_beta   90.00000000
_cell_angle_gamma   120.05373464
_symmetry_Int_Tables_number   1
_chemical_formula_structural   Ho2ScGa5Ir
_chemical_formula_sum   'Ho2 Sc1 Ga5 Ir1'
_cell_volume   176.22902930
_cell_formula_units_Z   1
loop_
 _symmetry_equiv_pos_site_id
 _symmetry_equiv_pos_as_xyz
  1  'x, y, z'
loop_
 _atom_site_type_symbol
 _atom_site_label
 _atom_site_symmetry_multiplicity
 _atom_site_fract_x
 _atom_site_fract_y
 _atom_site_fract_z
 _atom_site_occupancy
  Ho  Ho0  1  0.588021  0.001591  0.500000  1
  Ho  Ho1  1  0.411979  0.413570  0.500000  1
  Sc  Sc2  1  0.000000  0.594125  0.500000  1
  Ga  Ga3  1  0.236789  0.999109  0.000000  1
  Ga  Ga4  1  0.000000  0.237407  0.000000  1
  Ga  Ga5  1  0.676782  0.340073  0.000000  1
  Ga  Ga6  1  0.323218  0.663291  0.000000  1
  Ga  Ga7  1  0.763211  0.762320  0.000000  1
  Ir  Ir8  1  0.000000  0.988513  0.500000  1
