# generated using pymatgen
data_CsPr(SeO4)2
_symmetry_space_group_name_H-M   'P 1'
_cell_length_a   5.56767000
_cell_length_b   5.56766943
_cell_length_c   9.40548300
_cell_angle_alpha   90.00000000
_cell_angle_beta   90.00000000
_cell_angle_gamma   120.00000340
_symmetry_Int_Tables_number   1
_chemical_formula_structural   CsPr(SeO4)2
_chemical_formula_sum   'Cs1 Pr1 Se2 O8'
_cell_volume   252.49841011
_cell_formula_units_Z   1
loop_
 _symmetry_equiv_pos_site_id
 _symmetry_equiv_pos_as_xyz
  1  'x, y, z'
loop_
 _atom_site_type_symbol
 _atom_site_label
 _atom_site_symmetry_multiplicity
 _atom_site_fract_x
 _atom_site_fract_y
 _atom_site_fract_z
 _atom_site_occupancy
  Cs  Cs0  1  0.000000  0.000000  0.000000  1
  Pr  Pr1  1  0.000000  0.000000  0.500000  1
  Se  Se2  1  0.333334  0.666668  0.279013  1
  Se  Se3  1  0.666666  0.333334  0.720987  1
  O  O4  1  0.333334  0.666668  0.104087  1
  O  O5  1  0.291211  0.365466  0.342243  1
  O  O6  1  0.074256  0.708789  0.342243  1
  O  O7  1  0.634534  0.925745  0.342243  1
  O  O8  1  0.365466  0.074257  0.657756  1
  O  O9  1  0.925743  0.291211  0.657756  1
  O  O10  1  0.708788  0.634533  0.657756  1
  O  O11  1  0.666666  0.333334  0.895912  1
