# generated using pymatgen
data_PrTm2Si5PPd20
_symmetry_space_group_name_H-M   'P 1'
_cell_length_a   8.71892133
_cell_length_b   8.71623272
_cell_length_c   8.71623243
_cell_angle_alpha   60.00519677
_cell_angle_beta   59.98978871
_cell_angle_gamma   59.98979127
_symmetry_Int_Tables_number   1
_chemical_formula_structural   PrTm2Si5PPd20
_chemical_formula_sum   'Pr1 Tm2 Si5 P1 Pd20'
_cell_volume   468.33367925
_cell_formula_units_Z   1
loop_
 _symmetry_equiv_pos_site_id
 _symmetry_equiv_pos_as_xyz
  1  'x, y, z'
loop_
 _atom_site_type_symbol
 _atom_site_label
 _atom_site_symmetry_multiplicity
 _atom_site_fract_x
 _atom_site_fract_y
 _atom_site_fract_z
 _atom_site_occupancy
  Pr  Pr0  1  0.248569  0.251431  0.251431  1
  Tm  Tm1  1  0.747932  0.752068  0.752068  1
  Tm  Tm2  1  0.001918  0.998082  0.998082  1
  Si  Si3  1  0.267355  0.732645  0.732645  1
  Si  Si4  1  0.264641  0.735227  0.267076  1
  Si  Si5  1  0.733056  0.267076  0.735227  1
  Si  Si6  1  0.264641  0.267076  0.735227  1
  Si  Si7  1  0.733056  0.735227  0.267076  1
  P  P8  1  0.734989  0.265011  0.265011  1
  Pd  Pd9  1  0.389430  0.387040  0.387040  1
  Pd  Pd10  1  0.618970  0.618695  0.618695  1
  Pd  Pd11  1  0.386622  0.386497  0.840258  1
  Pd  Pd12  1  0.386622  0.840258  0.386497  1
  Pd  Pd13  1  0.618058  0.617688  0.146193  1
  Pd  Pd14  1  0.618058  0.146193  0.617688  1
  Pd  Pd15  1  0.836490  0.387040  0.387040  1
  Pd  Pd16  1  0.143639  0.618695  0.618695  1
  Pd  Pd17  1  0.348562  0.996780  0.996780  1
  Pd  Pd18  1  0.657880  0.996780  0.996780  1
  Pd  Pd19  1  0.001097  0.344293  0.653514  1
  Pd  Pd20  1  0.001097  0.653514  0.344293  1
  Pd  Pd21  1  0.996633  0.345980  0.000880  1
  Pd  Pd22  1  0.656508  0.000880  0.345980  1
  Pd  Pd23  1  0.999224  0.655934  0.998547  1
  Pd  Pd24  1  0.346296  0.998547  0.655934  1
  Pd  Pd25  1  0.996633  0.000880  0.345980  1
  Pd  Pd26  1  0.999224  0.998547  0.655934  1
  Pd  Pd27  1  0.656508  0.345980  0.000880  1
  Pd  Pd28  1  0.346296  0.655934  0.998547  1
