# generated using pymatgen
data_Sc10In8CoNi3
_symmetry_space_group_name_H-M   'P 1'
_cell_length_a   3.36180400
_cell_length_b   7.61726500
_cell_length_c   17.16399100
_cell_angle_alpha   90.00139684
_cell_angle_beta   90.00003373
_cell_angle_gamma   90.00003209
_symmetry_Int_Tables_number   1
_chemical_formula_structural   Sc10In8CoNi3
_chemical_formula_sum   'Sc10 In8 Co1 Ni3'
_cell_volume   439.53122388
_cell_formula_units_Z   1
loop_
 _symmetry_equiv_pos_site_id
 _symmetry_equiv_pos_as_xyz
  1  'x, y, z'
loop_
 _atom_site_type_symbol
 _atom_site_label
 _atom_site_symmetry_multiplicity
 _atom_site_fract_x
 _atom_site_fract_y
 _atom_site_fract_z
 _atom_site_occupancy
  Sc  Sc0  1  0.000000  0.500542  0.499979  1
  Sc  Sc1  1  0.000000  0.000454  0.000085  1
  Sc  Sc2  1  0.000000  0.739847  0.277058  1
  Sc  Sc3  1  0.000000  0.253564  0.722234  1
  Sc  Sc4  1  0.000000  0.753604  0.777740  1
  Sc  Sc5  1  0.000000  0.255085  0.221316  1
  Sc  Sc6  1  0.000000  0.618321  0.089532  1
  Sc  Sc7  1  0.000000  0.380166  0.912241  1
  Sc  Sc8  1  0.000000  0.880376  0.587710  1
  Sc  Sc9  1  0.000000  0.119370  0.411254  1
  In  In10  1  0.500000  0.703972  0.933156  1
  In  In11  1  0.500000  0.296203  0.067598  1
  In  In12  1  0.500000  0.796442  0.432694  1
  In  In13  1  0.500000  0.204213  0.566975  1
  In  In14  1  0.500000  0.574291  0.650894  1
  In  In15  1  0.500000  0.426526  0.349153  1
  In  In16  1  0.500000  0.925115  0.151701  1
  In  In17  1  0.500000  0.073812  0.849072  1
  Co  Co18  1  0.500000  0.529076  0.194292  1
  Ni  Ni19  1  0.500000  0.470371  0.804994  1
  Ni  Ni20  1  0.500000  0.970485  0.694824  1
  Ni  Ni21  1  0.500000  0.028166  0.305500  1
