# generated using pymatgen
data_Yb11Er(SiRh)8
_symmetry_space_group_name_H-M   'P 1'
_cell_length_a   5.66553300
_cell_length_b   7.61676321
_cell_length_c   13.30548500
_cell_angle_alpha   90.00000000
_cell_angle_beta   90.00000000
_cell_angle_gamma   90.07314712
_symmetry_Int_Tables_number   1
_chemical_formula_structural   Yb11Er(SiRh)8
_chemical_formula_sum   'Yb11 Er1 Si8 Rh8'
_cell_volume   574.17143636
_cell_formula_units_Z   1
loop_
 _symmetry_equiv_pos_site_id
 _symmetry_equiv_pos_as_xyz
  1  'x, y, z'
loop_
 _atom_site_type_symbol
 _atom_site_label
 _atom_site_symmetry_multiplicity
 _atom_site_fract_x
 _atom_site_fract_y
 _atom_site_fract_z
 _atom_site_occupancy
  Yb  Yb0  1  0.142625  0.603329  0.096983  1
  Yb  Yb1  1  0.142483  0.900205  0.904062  1
  Yb  Yb2  1  0.858099  0.103480  0.401424  1
  Yb  Yb3  1  0.860293  0.392667  0.596626  1
  Yb  Yb4  1  0.860293  0.392667  0.903374  1
  Yb  Yb5  1  0.858099  0.103480  0.098576  1
  Yb  Yb6  1  0.142483  0.900205  0.595938  1
  Yb  Yb7  1  0.142625  0.603329  0.403017  1
  Yb  Yb8  1  0.364220  0.261593  0.250000  1
  Yb  Yb9  1  0.361788  0.245121  0.750000  1
  Yb  Yb10  1  0.637087  0.760681  0.250000  1
  Er  Er11  1  0.631687  0.737773  0.750000  1
  Si  Si12  1  0.848624  0.411132  0.250000  1
  Si  Si13  1  0.843219  0.085726  0.750000  1
  Si  Si14  1  0.153584  0.908493  0.250000  1
  Si  Si15  1  0.143295  0.600771  0.750000  1
  Si  Si16  1  0.398231  0.249183  0.999657  1
  Si  Si17  1  0.601815  0.748902  0.500707  1
  Si  Si18  1  0.601815  0.748902  0.999293  1
  Si  Si19  1  0.398231  0.249183  0.500343  1
  Rh  Rh20  1  0.639039  0.470409  0.090613  1
  Rh  Rh21  1  0.638164  0.026070  0.907981  1
  Rh  Rh22  1  0.363589  0.969784  0.407915  1
  Rh  Rh23  1  0.363912  0.530326  0.592706  1
  Rh  Rh24  1  0.363912  0.530326  0.907294  1
  Rh  Rh25  1  0.363589  0.969784  0.092085  1
  Rh  Rh26  1  0.638164  0.026070  0.592019  1
  Rh  Rh27  1  0.639039  0.470409  0.409387  1
