# generated using pymatgen
data_YTm2HfAl17GaIr6
_symmetry_space_group_name_H-M   'P 1'
_cell_length_a   7.52752600
_cell_length_b   7.52085511
_cell_length_c   9.38314400
_cell_angle_alpha   90.00000000
_cell_angle_beta   90.00000000
_cell_angle_gamma   119.60944369
_symmetry_Int_Tables_number   1
_chemical_formula_structural   YTm2HfAl17GaIr6
_chemical_formula_sum   'Y1 Tm2 Hf1 Al17 Ga1 Ir6'
_cell_volume   461.84287659
_cell_formula_units_Z   1
loop_
 _symmetry_equiv_pos_site_id
 _symmetry_equiv_pos_as_xyz
  1  'x, y, z'
loop_
 _atom_site_type_symbol
 _atom_site_label
 _atom_site_symmetry_multiplicity
 _atom_site_fract_x
 _atom_site_fract_y
 _atom_site_fract_z
 _atom_site_occupancy
  Y  Y0  1  0.994166  0.674536  0.250000  1
  Tm  Tm1  1  0.673725  0.993435  0.250000  1
  Tm  Tm2  1  0.327829  0.004238  0.750000  1
  Hf  Hf3  1  0.002748  0.326404  0.750000  1
  Al  Al4  1  0.872393  0.874847  0.750000  1
  Al  Al5  1  0.000586  0.334726  0.070758  1
  Al  Al6  1  0.000002  0.661953  0.919793  1
  Al  Al7  1  0.000002  0.661953  0.580207  1
  Al  Al8  1  0.336290  0.001983  0.425928  1
  Al  Al9  1  0.000586  0.334726  0.429242  1
  Al  Al10  1  0.666448  0.001651  0.579616  1
  Al  Al11  1  0.666448  0.001651  0.920384  1
  Al  Al12  1  0.336290  0.001983  0.074072  1
  Al  Al13  1  0.331029  0.332948  0.559323  1
  Al  Al14  1  0.665862  0.666143  0.449618  1
  Al  Al15  1  0.665862  0.666143  0.050382  1
  Al  Al16  1  0.331029  0.332948  0.940677  1
  Al  Al17  1  0.339652  0.549263  0.250000  1
  Al  Al18  1  0.663171  0.450017  0.750000  1
  Al  Al19  1  0.549733  0.338990  0.250000  1
  Al  Al20  1  0.444603  0.656111  0.750000  1
  Ga  Ga21  1  0.133055  0.135053  0.250000  1
  Ir  Ir22  1  0.671587  0.326816  0.998321  1
  Ir  Ir23  1  0.327068  0.671245  0.998973  1
  Ir  Ir24  1  0.327068  0.671245  0.501027  1
  Ir  Ir25  1  0.671587  0.326816  0.501679  1
  Ir  Ir26  1  0.000590  0.001088  0.996034  1
  Ir  Ir27  1  0.000590  0.001088  0.503966  1
