# generated using pymatgen
data_LiDy8Sc10Si16Rh
_symmetry_space_group_name_H-M   'P 1'
_cell_length_a   6.96825700
_cell_length_b   7.35638812
_cell_length_c   13.92822100
_cell_angle_alpha   90.00000000
_cell_angle_beta   90.00000000
_cell_angle_gamma   89.98972687
_symmetry_Int_Tables_number   1
_chemical_formula_structural   LiDy8Sc10Si16Rh
_chemical_formula_sum   'Li1 Dy8 Sc10 Si16 Rh1'
_cell_volume   713.97735263
_cell_formula_units_Z   1
loop_
 _symmetry_equiv_pos_site_id
 _symmetry_equiv_pos_as_xyz
  1  'x, y, z'
loop_
 _atom_site_type_symbol
 _atom_site_label
 _atom_site_symmetry_multiplicity
 _atom_site_fract_x
 _atom_site_fract_y
 _atom_site_fract_z
 _atom_site_occupancy
  Li  Li0  1  0.841938  0.493136  0.250000  1
  Dy  Dy1  1  0.012039  0.185135  0.096445  1
  Dy  Dy2  1  0.990485  0.816753  0.902037  1
  Dy  Dy3  1  0.487948  0.673328  0.902675  1
  Dy  Dy4  1  0.990485  0.816753  0.597963  1
  Dy  Dy5  1  0.516182  0.325503  0.096306  1
  Dy  Dy6  1  0.012039  0.185135  0.403555  1
  Dy  Dy7  1  0.516182  0.325503  0.403694  1
  Dy  Dy8  1  0.487948  0.673328  0.597325  1
  Sc  Sc9  1  0.344603  0.001533  0.250000  1
  Sc  Sc10  1  0.653291  0.998389  0.750000  1
  Sc  Sc11  1  0.321224  0.176740  0.627231  1
  Sc  Sc12  1  0.676583  0.819965  0.374345  1
  Sc  Sc13  1  0.168056  0.670774  0.374699  1
  Sc  Sc14  1  0.676583  0.819965  0.125655  1
  Sc  Sc15  1  0.828703  0.327739  0.629050  1
  Sc  Sc16  1  0.321224  0.176740  0.872769  1
  Sc  Sc17  1  0.828703  0.327739  0.870950  1
  Sc  Sc18  1  0.168056  0.670774  0.125301  1
  Si  Si19  1  0.024371  0.099742  0.750000  1
  Si  Si20  1  0.974044  0.896315  0.250000  1
  Si  Si21  1  0.467857  0.614068  0.250000  1
  Si  Si22  1  0.517339  0.393401  0.750000  1
  Si  Si23  1  0.282177  0.863766  0.750000  1
  Si  Si24  1  0.715604  0.120501  0.250000  1
  Si  Si25  1  0.222530  0.373448  0.250000  1
  Si  Si26  1  0.791901  0.627291  0.750000  1
  Si  Si27  1  0.157434  0.463107  0.541367  1
  Si  Si28  1  0.842576  0.538471  0.467563  1
  Si  Si29  1  0.344468  0.965770  0.461773  1
  Si  Si30  1  0.842576  0.538471  0.032437  1
  Si  Si31  1  0.656420  0.033740  0.539188  1
  Si  Si32  1  0.157434  0.463107  0.958633  1
  Si  Si33  1  0.656420  0.033740  0.960812  1
  Si  Si34  1  0.344468  0.965770  0.038227  1
  Rh  Rh35  1  0.160106  0.524355  0.750000  1
