# generated using pymatgen
data_Y3(In2Ru)2
_symmetry_space_group_name_H-M   'P 1'
_cell_length_a   8.05799000
_cell_length_b   8.05798996
_cell_length_c   3.64714000
_cell_angle_alpha   90.00000000
_cell_angle_beta   90.00000000
_cell_angle_gamma   120.00000015
_symmetry_Int_Tables_number   1
_chemical_formula_structural   Y3(In2Ru)2
_chemical_formula_sum   'Y3 In4 Ru2'
_cell_volume   205.08623473
_cell_formula_units_Z   1
loop_
 _symmetry_equiv_pos_site_id
 _symmetry_equiv_pos_as_xyz
  1  'x, y, z'
loop_
 _atom_site_type_symbol
 _atom_site_label
 _atom_site_symmetry_multiplicity
 _atom_site_fract_x
 _atom_site_fract_y
 _atom_site_fract_z
 _atom_site_occupancy
  Y  Y0  1  0.295685  0.256145  0.500000  1
  Y  Y1  1  0.743855  0.039540  0.500000  1
  Y  Y2  1  0.960460  0.704315  0.500000  1
  In  In3  1  0.067146  0.401680  0.000000  1
  In  In4  1  0.598320  0.665466  0.000000  1
  In  In5  1  0.334534  0.932854  0.000000  1
  In  In6  1  0.666667  0.333333  0.000000  1
  Ru  Ru7  1  0.333333  0.666667  0.500000  1
  Ru  Ru8  1  0.000000  0.000000  0.000000  1
