# generated using pymatgen
data_Pr3Nd7CuBi5AsPb
_symmetry_space_group_name_H-M   'P 1'
_cell_length_a   9.68109400
_cell_length_b   9.68109457
_cell_length_c   6.62429300
_cell_angle_alpha   90.00000000
_cell_angle_beta   90.00000000
_cell_angle_gamma   119.99999805
_symmetry_Int_Tables_number   1
_chemical_formula_structural   Pr3Nd7CuBi5AsPb
_chemical_formula_sum   'Pr3 Nd7 Cu1 Bi5 As1 Pb1'
_cell_volume   537.67404622
_cell_formula_units_Z   1
loop_
 _symmetry_equiv_pos_site_id
 _symmetry_equiv_pos_as_xyz
  1  'x, y, z'
loop_
 _atom_site_type_symbol
 _atom_site_label
 _atom_site_symmetry_multiplicity
 _atom_site_fract_x
 _atom_site_fract_y
 _atom_site_fract_z
 _atom_site_occupancy
  Pr  Pr0  1  0.665820  0.333449  0.999396  1
  Pr  Pr1  1  0.333448  0.665734  0.999430  1
  Pr  Pr2  1  0.332887  0.666151  0.500469  1
  Nd  Nd3  1  0.666085  0.332854  0.500500  1
  Nd  Nd4  1  0.746721  0.746798  0.750620  1
  Nd  Nd5  1  0.253679  0.001196  0.750896  1
  Nd  Nd6  1  0.001342  0.253770  0.750899  1
  Nd  Nd7  1  0.252775  0.252826  0.249237  1
  Nd  Nd8  1  0.747079  0.999547  0.249101  1
  Nd  Nd9  1  0.999758  0.747197  0.249135  1
  Cu  Cu10  1  0.000552  0.000728  0.500828  1
  Bi  Bi11  1  0.613700  0.000644  0.747564  1
  Bi  Bi12  1  0.999248  0.612967  0.747555  1
  Bi  Bi13  1  0.612323  0.611598  0.252774  1
  Bi  Bi14  1  0.387285  0.000652  0.252111  1
  Bi  Bi15  1  0.999246  0.386572  0.252179  1
  As  As16  1  0.999864  0.999844  0.999849  1
  Pb  Pb17  1  0.388189  0.387475  0.747456  1
