# generated using pymatgen
data_MgZr3(Al8Pt3)3
_symmetry_space_group_name_H-M   'P 1'
_cell_length_a   7.47014943
_cell_length_b   7.46973612
_cell_length_c   13.00071651
_cell_angle_alpha   84.47009665
_cell_angle_beta   100.94153421
_cell_angle_gamma   119.93626182
_symmetry_Int_Tables_number   1
_chemical_formula_structural   MgZr3(Al8Pt3)3
_chemical_formula_sum   'Mg1 Zr3 Al24 Pt9'
_cell_volume   617.22387569
_cell_formula_units_Z   1
loop_
 _symmetry_equiv_pos_site_id
 _symmetry_equiv_pos_as_xyz
  1  'x, y, z'
loop_
 _atom_site_type_symbol
 _atom_site_label
 _atom_site_symmetry_multiplicity
 _atom_site_fract_x
 _atom_site_fract_y
 _atom_site_fract_z
 _atom_site_occupancy
  Mg  Mg0  1  0.932056  0.329574  0.793885  1
  Zr  Zr1  1  0.734827  0.002305  0.188477  1
  Zr  Zr2  1  0.269329  0.001569  0.812974  1
  Zr  Zr3  1  0.059637  0.665110  0.188571  1
  Al  Al4  1  0.816048  0.870369  0.817451  1
  Al  Al5  1  0.187545  0.125869  0.185580  1
  Al  Al6  1  0.985186  0.662607  0.939195  1
  Al  Al7  1  0.017847  0.334024  0.054613  1
  Al  Al8  1  0.394724  0.669629  0.818625  1
  Al  Al9  1  0.604791  0.336228  0.183584  1
  Al  Al10  1  0.887787  0.666222  0.678845  1
  Al  Al11  1  0.113853  0.334680  0.322867  1
  Al  Al12  1  0.596890  0.449558  0.817643  1
  Al  Al13  1  0.397709  0.548034  0.185095  1
  Al  Al14  1  0.229623  0.336693  0.677047  1
  Al  Al15  1  0.770676  0.662858  0.324493  1
  Al  Al16  1  0.851626  0.333082  0.558819  1
  Al  Al17  1  0.186808  0.999531  0.562386  1
  Al  Al18  1  0.813168  0.000826  0.439708  1
  Al  Al19  1  0.353345  0.997432  0.058918  1
  Al  Al20  1  0.650927  0.008116  0.939162  1
  Al  Al21  1  0.556454  0.995673  0.679151  1
  Al  Al22  1  0.441776  0.003675  0.322669  1
  Al  Al23  1  0.521665  0.667533  0.564632  1
  Al  Al24  1  0.478813  0.332469  0.436670  1
  Al  Al25  1  0.686179  0.669475  0.050261  1
  Al  Al26  1  0.309007  0.329686  0.947430  1
  Al  Al27  1  0.146106  0.666304  0.439653  1
  Pt  Pt28  1  0.333879  0.676075  0.003916  1
  Pt  Pt29  1  0.545713  0.325074  0.637448  1
  Pt  Pt30  1  0.454889  0.676698  0.363558  1
  Pt  Pt31  1  0.886928  0.009554  0.639494  1
  Pt  Pt32  1  0.111323  0.990227  0.362115  1
  Pt  Pt33  1  0.672823  0.329005  0.002664  1
  Pt  Pt34  1  0.202313  0.664865  0.639347  1
  Pt  Pt35  1  0.797141  0.333144  0.359517  1
  Pt  Pt36  1  0.000590  0.996227  0.003536  1
