# generated using pymatgen
data_Pr(DyS2)3
_symmetry_space_group_name_H-M   'P 1'
_cell_length_a   4.00133300
_cell_length_b   11.10192977
_cell_length_c   11.36606280
_cell_angle_alpha   71.25153254
_cell_angle_beta   90.00000000
_cell_angle_gamma   90.00000000
_symmetry_Int_Tables_number   1
_chemical_formula_structural   Pr(DyS2)3
_chemical_formula_sum   'Pr2 Dy6 S12'
_cell_volume   478.11800782
_cell_formula_units_Z   2
loop_
 _symmetry_equiv_pos_site_id
 _symmetry_equiv_pos_as_xyz
  1  'x, y, z'
loop_
 _atom_site_type_symbol
 _atom_site_label
 _atom_site_symmetry_multiplicity
 _atom_site_fract_x
 _atom_site_fract_y
 _atom_site_fract_z
 _atom_site_occupancy
  Pr  Pr0  1  0.750000  0.549008  0.805446  1
  Pr  Pr1  1  0.250000  0.450992  0.194554  1
  Dy  Dy2  1  0.750000  0.179635  0.998527  1
  Dy  Dy3  1  0.250000  0.820365  0.001473  1
  Dy  Dy4  1  0.750000  0.941198  0.666960  1
  Dy  Dy5  1  0.250000  0.058802  0.333040  1
  Dy  Dy6  1  0.750000  0.661334  0.412905  1
  Dy  Dy7  1  0.250000  0.338666  0.587095  1
  S  S8  1  0.750000  0.978190  0.888163  1
  S  S9  1  0.250000  0.021810  0.111837  1
  S  S10  1  0.750000  0.303831  0.748889  1
  S  S11  1  0.250000  0.696169  0.251111  1
  S  S12  1  0.750000  0.894710  0.441077  1
  S  S13  1  0.250000  0.105290  0.558923  1
  S  S14  1  0.750000  0.418103  0.405861  1
  S  S15  1  0.250000  0.581897  0.594139  1
  S  S16  1  0.750000  0.234750  0.228627  1
  S  S17  1  0.250000  0.765250  0.771373  1
  S  S18  1  0.750000  0.618785  0.036416  1
  S  S19  1  0.250000  0.381215  0.963584  1
