# generated using pymatgen
data_Y7Th(MgNi)2
_symmetry_space_group_name_H-M   'P 1'
_cell_length_a   9.70153165
_cell_length_b   9.70153247
_cell_length_c   9.74406000
_cell_angle_alpha   59.85488578
_cell_angle_beta   59.85488299
_cell_angle_gamma   59.75985266
_symmetry_Int_Tables_number   1
_chemical_formula_structural   Y7Th(MgNi)2
_chemical_formula_sum   'Y14 Th2 Mg4 Ni4'
_cell_volume   645.89001019
_cell_formula_units_Z   2
loop_
 _symmetry_equiv_pos_site_id
 _symmetry_equiv_pos_as_xyz
  1  'x, y, z'
loop_
 _atom_site_type_symbol
 _atom_site_label
 _atom_site_symmetry_multiplicity
 _atom_site_fract_x
 _atom_site_fract_y
 _atom_site_fract_z
 _atom_site_occupancy
  Y  Y0  1  0.596581  0.207251  0.598083  1
  Y  Y1  1  0.207251  0.596581  0.598083  1
  Y  Y2  1  0.062235  0.438770  0.437307  1
  Y  Y3  1  0.438770  0.062235  0.061689  1
  Y  Y4  1  0.438770  0.062235  0.437307  1
  Y  Y5  1  0.062235  0.438770  0.061689  1
  Y  Y6  1  0.438219  0.438219  0.061781  1
  Y  Y7  1  0.063140  0.063140  0.436860  1
  Y  Y8  1  0.186858  0.814839  0.816020  1
  Y  Y9  1  0.814839  0.186858  0.182283  1
  Y  Y10  1  0.814839  0.186858  0.816020  1
  Y  Y11  1  0.186858  0.814839  0.182283  1
  Y  Y12  1  0.814346  0.814346  0.185654  1
  Y  Y13  1  0.184769  0.184769  0.815231  1
  Th  Th14  1  0.591449  0.591449  0.598490  1
  Th  Th15  1  0.591449  0.591449  0.218612  1
  Mg  Mg16  1  0.829970  0.829970  0.829179  1
  Mg  Mg17  1  0.829970  0.829970  0.510879  1
  Mg  Mg18  1  0.830095  0.511020  0.829442  1
  Mg  Mg19  1  0.511020  0.830095  0.829442  1
  Ni  Ni20  1  0.394681  0.394681  0.388789  1
  Ni  Ni21  1  0.394681  0.394681  0.821851  1
  Ni  Ni22  1  0.398817  0.818156  0.391514  1
  Ni  Ni23  1  0.818156  0.398817  0.391514  1
