# generated using pymatgen
data_Ba2PrInS5
_symmetry_space_group_name_H-M   'P 1'
_cell_length_a   9.55282263
_cell_length_b   9.55282230
_cell_length_c   13.05740800
_cell_angle_alpha   90.00000000
_cell_angle_beta   90.00000000
_cell_angle_gamma   154.38999002
_symmetry_Int_Tables_number   1
_chemical_formula_structural   Ba2PrInS5
_chemical_formula_sum   'Ba4 Pr2 In2 S10'
_cell_volume   515.04912859
_cell_formula_units_Z   2
loop_
 _symmetry_equiv_pos_site_id
 _symmetry_equiv_pos_as_xyz
  1  'x, y, z'
loop_
 _atom_site_type_symbol
 _atom_site_label
 _atom_site_symmetry_multiplicity
 _atom_site_fract_x
 _atom_site_fract_y
 _atom_site_fract_z
 _atom_site_occupancy
  Ba  Ba0  1  0.871288  0.128712  0.186507  1
  Ba  Ba1  1  0.128712  0.871288  0.686507  1
  Ba  Ba2  1  0.885535  0.114465  0.819960  1
  Ba  Ba3  1  0.114465  0.885535  0.319960  1
  Pr  Pr4  1  0.787815  0.212185  0.482476  1
  Pr  Pr5  1  0.212185  0.787815  0.982476  1
  In  In6  1  0.551888  0.448112  0.062206  1
  In  In7  1  0.448112  0.551888  0.562206  1
  S  S8  1  0.640992  0.359008  0.499714  1
  S  S9  1  0.359008  0.640992  0.999714  1
  S  S10  1  0.709505  0.290495  0.838802  1
  S  S11  1  0.290495  0.709505  0.338802  1
  S  S12  1  0.682351  0.317649  0.131939  1
  S  S13  1  0.317649  0.682351  0.631939  1
  S  S14  1  0.495618  0.504382  0.230233  1
  S  S15  1  0.504382  0.495618  0.730233  1
  S  S16  1  0.951727  0.048273  0.455053  1
  S  S17  1  0.048273  0.951727  0.955053  1
