# generated using pymatgen
data_Ho3Hf(P3Rh4)2
_symmetry_space_group_name_H-M   'P 1'
_cell_length_a   3.92866300
_cell_length_b   11.22118100
_cell_length_c   12.91425600
_cell_angle_alpha   90.00000000
_cell_angle_beta   90.00000000
_cell_angle_gamma   90.00000000
_symmetry_Int_Tables_number   1
_chemical_formula_structural   Ho3Hf(P3Rh4)2
_chemical_formula_sum   'Ho6 Hf2 P12 Rh16'
_cell_volume   569.31514299
_cell_formula_units_Z   2
loop_
 _symmetry_equiv_pos_site_id
 _symmetry_equiv_pos_as_xyz
  1  'x, y, z'
loop_
 _atom_site_type_symbol
 _atom_site_label
 _atom_site_symmetry_multiplicity
 _atom_site_fract_x
 _atom_site_fract_y
 _atom_site_fract_z
 _atom_site_occupancy
  Ho  Ho0  1  0.000000  0.500000  0.522611  1
  Ho  Ho1  1  0.500000  0.000000  0.477389  1
  Ho  Ho2  1  0.500000  0.819367  0.201252  1
  Ho  Ho3  1  0.500000  0.180633  0.201252  1
  Ho  Ho4  1  0.000000  0.680633  0.798748  1
  Ho  Ho5  1  0.000000  0.319367  0.798748  1
  Hf  Hf6  1  0.500000  0.500000  0.158142  1
  Hf  Hf7  1  0.000000  0.000000  0.841858  1
  P  P8  1  0.500000  0.313653  0.616447  1
  P  P9  1  0.500000  0.686347  0.616447  1
  P  P10  1  0.000000  0.186347  0.383553  1
  P  P11  1  0.000000  0.813653  0.383553  1
  P  P12  1  0.500000  0.500000  0.876662  1
  P  P13  1  0.000000  0.000000  0.123338  1
  P  P14  1  0.500000  0.842215  0.888428  1
  P  P15  1  0.500000  0.157785  0.888428  1
  P  P16  1  0.000000  0.657785  0.111572  1
  P  P17  1  0.000000  0.342215  0.111572  1
  P  P18  1  0.500000  0.500000  0.359287  1
  P  P19  1  0.000000  0.000000  0.640713  1
  Rh  Rh20  1  0.000000  0.500000  0.983555  1
  Rh  Rh21  1  0.500000  0.000000  0.016445  1
  Rh  Rh22  1  0.500000  0.291937  0.432072  1
  Rh  Rh23  1  0.500000  0.708063  0.432072  1
  Rh  Rh24  1  0.000000  0.208063  0.567928  1
  Rh  Rh25  1  0.000000  0.791937  0.567928  1
  Rh  Rh26  1  0.500000  0.873231  0.706680  1
  Rh  Rh27  1  0.500000  0.126769  0.706680  1
  Rh  Rh28  1  0.000000  0.626769  0.293320  1
  Rh  Rh29  1  0.000000  0.373231  0.293320  1
  Rh  Rh30  1  0.500000  0.331933  0.990021  1
  Rh  Rh31  1  0.500000  0.668067  0.990021  1
  Rh  Rh32  1  0.000000  0.168067  0.009979  1
  Rh  Rh33  1  0.000000  0.831933  0.009979  1
  Rh  Rh34  1  0.500000  0.500000  0.698675  1
  Rh  Rh35  1  0.000000  0.000000  0.301325  1
