# generated using pymatgen
data_Ca2Nd8InGa5
_symmetry_space_group_name_H-M   'P 1'
_cell_length_a   9.28226094
_cell_length_b   9.28226087
_cell_length_c   9.28226058
_cell_angle_alpha   129.41591468
_cell_angle_beta   129.41591539
_cell_angle_gamma   74.34226189
_symmetry_Int_Tables_number   1
_chemical_formula_structural   Ca2Nd8InGa5
_chemical_formula_sum   'Ca2 Nd8 In1 Ga5'
_cell_volume   465.28338300
_cell_formula_units_Z   1
loop_
 _symmetry_equiv_pos_site_id
 _symmetry_equiv_pos_as_xyz
  1  'x, y, z'
loop_
 _atom_site_type_symbol
 _atom_site_label
 _atom_site_symmetry_multiplicity
 _atom_site_fract_x
 _atom_site_fract_y
 _atom_site_fract_z
 _atom_site_occupancy
  Ca  Ca0  1  0.495007  0.495007  0.000000  1
  Ca  Ca1  1  0.004993  0.004993  0.000000  1
  Nd  Nd2  1  0.531111  0.019868  0.843289  1
  Nd  Nd3  1  0.176578  0.687821  0.156711  1
  Nd  Nd4  1  0.019868  0.176578  0.488757  1
  Nd  Nd5  1  0.687821  0.531111  0.511243  1
  Nd  Nd6  1  0.480132  0.968889  0.156711  1
  Nd  Nd7  1  0.812179  0.323422  0.843289  1
  Nd  Nd8  1  0.968889  0.812179  0.488757  1
  Nd  Nd9  1  0.323422  0.480132  0.511243  1
  In  In10  1  0.250000  0.250000  0.000000  1
  Ga  Ga11  1  0.750000  0.750000  0.000000  1
  Ga  Ga12  1  0.882853  0.382853  0.265704  1
  Ga  Ga13  1  0.117147  0.617147  0.734296  1
  Ga  Ga14  1  0.382853  0.117147  0.500000  1
  Ga  Ga15  1  0.617147  0.882853  0.500000  1
