# generated using pymatgen
data_Ta6Ti(B4Ru3)2
_symmetry_space_group_name_H-M   'P 1'
_cell_length_a   9.54351900
_cell_length_b   9.54351934
_cell_length_c   3.12802300
_cell_angle_alpha   90.00000000
_cell_angle_beta   90.00000000
_cell_angle_gamma   120.00000229
_symmetry_Int_Tables_number   1
_chemical_formula_structural   Ta6Ti(B4Ru3)2
_chemical_formula_sum   'Ta6 Ti1 B8 Ru6'
_cell_volume   246.72755774
_cell_formula_units_Z   1
loop_
 _symmetry_equiv_pos_site_id
 _symmetry_equiv_pos_as_xyz
  1  'x, y, z'
loop_
 _atom_site_type_symbol
 _atom_site_label
 _atom_site_symmetry_multiplicity
 _atom_site_fract_x
 _atom_site_fract_y
 _atom_site_fract_z
 _atom_site_occupancy
  Ta  Ta0  1  0.725434  0.639577  0.000000  1
  Ta  Ta1  1  0.360423  0.085857  0.000000  1
  Ta  Ta2  1  0.914143  0.274566  0.000000  1
  Ta  Ta3  1  0.274566  0.360423  0.000000  1
  Ta  Ta4  1  0.639577  0.914143  0.000000  1
  Ta  Ta5  1  0.085857  0.725434  0.000000  1
  Ti  Ti6  1  0.000000  0.000000  0.000000  1
  B  B7  1  0.666667  0.333333  0.000000  1
  B  B8  1  0.333333  0.666667  0.000000  1
  B  B9  1  0.150400  0.936003  0.500000  1
  B  B10  1  0.063997  0.214397  0.500000  1
  B  B11  1  0.785603  0.849600  0.500000  1
  B  B12  1  0.849600  0.063997  0.500000  1
  B  B13  1  0.936003  0.785603  0.500000  1
  B  B14  1  0.214397  0.150400  0.500000  1
  Ru  Ru15  1  0.358671  0.845501  0.500000  1
  Ru  Ru16  1  0.154499  0.513170  0.500000  1
  Ru  Ru17  1  0.486830  0.641329  0.500000  1
  Ru  Ru18  1  0.641329  0.154499  0.500000  1
  Ru  Ru19  1  0.845501  0.486830  0.500000  1
  Ru  Ru20  1  0.513170  0.358671  0.500000  1
