# generated using pymatgen
data_Cs2LiHoAs2
_symmetry_space_group_name_H-M   'P 1'
_cell_length_a   11.07836912
_cell_length_b   11.07836996
_cell_length_c   6.92805400
_cell_angle_alpha   90.00000000
_cell_angle_beta   90.00000000
_cell_angle_gamma   102.66626443
_symmetry_Int_Tables_number   1
_chemical_formula_structural   Cs2LiHoAs2
_chemical_formula_sum   'Cs8 Li4 Ho4 As8'
_cell_volume   829.58933482
_cell_formula_units_Z   4
loop_
 _symmetry_equiv_pos_site_id
 _symmetry_equiv_pos_as_xyz
  1  'x, y, z'
loop_
 _atom_site_type_symbol
 _atom_site_label
 _atom_site_symmetry_multiplicity
 _atom_site_fract_x
 _atom_site_fract_y
 _atom_site_fract_z
 _atom_site_occupancy
  Cs  Cs0  1  0.072329  0.427671  0.750000  1
  Cs  Cs1  1  0.674248  0.325752  0.790572  1
  Cs  Cs2  1  0.325752  0.674248  0.209428  1
  Cs  Cs3  1  0.572329  0.927671  0.750000  1
  Cs  Cs4  1  0.427671  0.072329  0.250000  1
  Cs  Cs5  1  0.927671  0.572329  0.250000  1
  Cs  Cs6  1  0.825752  0.174248  0.290572  1
  Cs  Cs7  1  0.174248  0.825752  0.709428  1
  Li  Li8  1  0.119755  0.119755  0.500000  1
  Li  Li9  1  0.880245  0.880245  0.500000  1
  Li  Li10  1  0.380245  0.380245  0.000000  1
  Li  Li11  1  0.619755  0.619755  0.000000  1
  Ho  Ho12  1  0.868514  0.868514  0.000000  1
  Ho  Ho13  1  0.368514  0.368514  0.500000  1
  Ho  Ho14  1  0.631486  0.631486  0.500000  1
  Ho  Ho15  1  0.131486  0.131486  0.000000  1
  As  As16  1  0.834834  0.665166  0.750000  1
  As  As17  1  0.083688  0.916312  0.231988  1
  As  As18  1  0.416312  0.583688  0.731988  1
  As  As19  1  0.583688  0.416312  0.268012  1
  As  As20  1  0.665166  0.834834  0.250000  1
  As  As21  1  0.165166  0.334834  0.250000  1
  As  As22  1  0.334834  0.165166  0.750000  1
  As  As23  1  0.916312  0.083688  0.768012  1
