# generated using pymatgen
data_SrPdCl6
_symmetry_space_group_name_H-M   'P 1'
_cell_length_a   6.67482124
_cell_length_b   6.67482184
_cell_length_c   10.29118978
_cell_angle_alpha   89.97494595
_cell_angle_beta   89.97494699
_cell_angle_gamma   72.19860769
_symmetry_Int_Tables_number   1
_chemical_formula_structural   SrPdCl6
_chemical_formula_sum   'Sr2 Pd2 Cl12'
_cell_volume   436.55345034
_cell_formula_units_Z   2
loop_
 _symmetry_equiv_pos_site_id
 _symmetry_equiv_pos_as_xyz
  1  'x, y, z'
loop_
 _atom_site_type_symbol
 _atom_site_label
 _atom_site_symmetry_multiplicity
 _atom_site_fract_x
 _atom_site_fract_y
 _atom_site_fract_z
 _atom_site_occupancy
  Sr  Sr0  1  0.990139  0.009861  0.250000  1
  Sr  Sr1  1  0.009861  0.990139  0.750000  1
  Pd  Pd2  1  0.000000  0.500000  0.000000  1
  Pd  Pd3  1  0.500000  0.000000  0.500000  1
  Cl  Cl4  1  0.150315  0.542961  0.200017  1
  Cl  Cl5  1  0.457039  0.849685  0.299983  1
  Cl  Cl6  1  0.849685  0.457039  0.799983  1
  Cl  Cl7  1  0.542961  0.150315  0.700017  1
  Cl  Cl8  1  0.797955  0.859245  0.004212  1
  Cl  Cl9  1  0.140755  0.202045  0.495788  1
  Cl  Cl10  1  0.202045  0.140755  0.995788  1
  Cl  Cl11  1  0.859245  0.797955  0.504212  1
  Cl  Cl12  1  0.739781  0.397761  0.110977  1
  Cl  Cl13  1  0.602239  0.260219  0.389023  1
  Cl  Cl14  1  0.260219  0.602239  0.889023  1
  Cl  Cl15  1  0.397761  0.739781  0.610977  1
