# generated using pymatgen
data_Sc6Mn5Al14Si10Ir
_symmetry_space_group_name_H-M   'P 1'
_cell_length_a   8.36361143
_cell_length_b   8.36361166
_cell_length_c   8.97372777
_cell_angle_alpha   90.14604465
_cell_angle_beta   89.85395272
_cell_angle_gamma   119.95408911
_symmetry_Int_Tables_number   1
_chemical_formula_structural   Sc6Mn5Al14Si10Ir
_chemical_formula_sum   'Sc6 Mn5 Al14 Si10 Ir1'
_cell_volume   543.86370698
_cell_formula_units_Z   1
loop_
 _symmetry_equiv_pos_site_id
 _symmetry_equiv_pos_as_xyz
  1  'x, y, z'
loop_
 _atom_site_type_symbol
 _atom_site_label
 _atom_site_symmetry_multiplicity
 _atom_site_fract_x
 _atom_site_fract_y
 _atom_site_fract_z
 _atom_site_occupancy
  Sc  Sc0  1  0.199703  0.800297  0.246411  1
  Sc  Sc1  1  0.197795  0.399969  0.248713  1
  Sc  Sc2  1  0.600031  0.802205  0.248713  1
  Sc  Sc3  1  0.800297  0.199703  0.753589  1
  Sc  Sc4  1  0.802205  0.600031  0.751287  1
  Sc  Sc5  1  0.399969  0.197795  0.751287  1
  Mn  Mn6  1  0.500000  0.000000  0.500000  1
  Mn  Mn7  1  0.000000  0.500000  0.500000  1
  Mn  Mn8  1  0.500000  0.500000  0.000000  1
  Mn  Mn9  1  0.500000  0.000000  0.000000  1
  Mn  Mn10  1  0.000000  0.500000  0.000000  1
  Al  Al11  1  0.163985  0.836015  0.920698  1
  Al  Al12  1  0.162311  0.325034  0.921705  1
  Al  Al13  1  0.674966  0.837689  0.921705  1
  Al  Al14  1  0.836015  0.163985  0.079302  1
  Al  Al15  1  0.837689  0.674966  0.078295  1
  Al  Al16  1  0.325034  0.162311  0.078295  1
  Al  Al17  1  0.837003  0.162997  0.419606  1
  Al  Al18  1  0.844828  0.678956  0.419674  1
  Al  Al19  1  0.321044  0.155172  0.419674  1
  Al  Al20  1  0.162997  0.837003  0.580394  1
  Al  Al21  1  0.155172  0.321044  0.580326  1
  Al  Al22  1  0.678956  0.844828  0.580326  1
  Al  Al23  1  0.000058  0.999942  0.250178  1
  Al  Al24  1  0.999942  0.000058  0.749822  1
  Si  Si25  1  0.563598  0.436402  0.241862  1
  Si  Si26  1  0.559314  0.119963  0.249949  1
  Si  Si27  1  0.880037  0.440686  0.249949  1
  Si  Si28  1  0.436402  0.563598  0.758138  1
  Si  Si29  1  0.440686  0.880037  0.750051  1
  Si  Si30  1  0.119963  0.559314  0.750051  1
  Si  Si31  1  0.328092  0.671908  0.457390  1
  Si  Si32  1  0.671908  0.328092  0.542610  1
  Si  Si33  1  0.666575  0.333425  0.960693  1
  Si  Si34  1  0.333425  0.666575  0.039307  1
  Ir  Ir35  1  0.500000  0.500000  0.500000  1
