# generated using pymatgen
data_YLu11InCo4Pd
_symmetry_space_group_name_H-M   'P 1'
_cell_length_a   8.17067821
_cell_length_b   8.17067781
_cell_length_c   8.15824758
_cell_angle_alpha   110.87269164
_cell_angle_beta   110.97819919
_cell_angle_gamma   106.66536031
_symmetry_Int_Tables_number   1
_chemical_formula_structural   YLu11InCo4Pd
_chemical_formula_sum   'Y1 Lu11 In1 Co4 Pd1'
_cell_volume   418.16377285
_cell_formula_units_Z   1
loop_
 _symmetry_equiv_pos_site_id
 _symmetry_equiv_pos_as_xyz
  1  'x, y, z'
loop_
 _atom_site_type_symbol
 _atom_site_label
 _atom_site_symmetry_multiplicity
 _atom_site_fract_x
 _atom_site_fract_y
 _atom_site_fract_z
 _atom_site_occupancy
  Y  Y0  1  0.189129  0.291183  0.480312  1
  Lu  Lu1  1  0.811823  0.709035  0.520856  1
  Lu  Lu2  1  0.187752  0.709898  0.897650  1
  Lu  Lu3  1  0.810322  0.292255  0.102577  1
  Lu  Lu4  1  0.314359  0.618900  0.303761  1
  Lu  Lu5  1  0.687688  0.381830  0.696583  1
  Lu  Lu6  1  0.314753  0.008894  0.696583  1
  Lu  Lu7  1  0.684861  0.989403  0.303761  1
  Lu  Lu8  1  0.422033  0.219419  0.200564  1
  Lu  Lu9  1  0.586857  0.786338  0.802594  1
  Lu  Lu10  1  0.016256  0.215737  0.802594  1
  Lu  Lu11  1  0.981145  0.778531  0.200564  1
  In  In12  1  0.497977  0.499650  0.997627  1
  Co  Co13  1  0.108514  0.614993  0.497228  1
  Co  Co14  1  0.882235  0.388714  0.497228  1
  Co  Co15  1  0.376795  0.998010  0.374806  1
  Co  Co16  1  0.620977  0.999974  0.620951  1
  Pd  Pd17  1  0.006523  0.997237  0.003760  1
