# generated using pymatgen
data_RbLaB12
_symmetry_space_group_name_H-M   'P 1'
_cell_length_a   5.96095572
_cell_length_b   5.96095672
_cell_length_c   5.96095600
_cell_angle_alpha   60.00000402
_cell_angle_beta   59.99999843
_cell_angle_gamma   60.00000134
_symmetry_Int_Tables_number   1
_chemical_formula_structural   RbLaB12
_chemical_formula_sum   'Rb1 La1 B12'
_cell_volume   149.77274694
_cell_formula_units_Z   1
loop_
 _symmetry_equiv_pos_site_id
 _symmetry_equiv_pos_as_xyz
  1  'x, y, z'
loop_
 _atom_site_type_symbol
 _atom_site_label
 _atom_site_symmetry_multiplicity
 _atom_site_fract_x
 _atom_site_fract_y
 _atom_site_fract_z
 _atom_site_occupancy
  Rb  Rb0  1  0.000000  0.000000  0.000000  1
  La  La1  1  0.500000  0.500000  0.500000  1
  B  B2  1  0.398244  0.101756  0.101756  1
  B  B3  1  0.898244  0.601756  0.601756  1
  B  B4  1  0.398244  0.398244  0.101756  1
  B  B5  1  0.898244  0.898244  0.601756  1
  B  B6  1  0.101756  0.398244  0.101756  1
  B  B7  1  0.601756  0.898244  0.601756  1
  B  B8  1  0.101756  0.101756  0.398244  1
  B  B9  1  0.601756  0.601756  0.898244  1
  B  B10  1  0.398244  0.101756  0.398244  1
  B  B11  1  0.898244  0.601756  0.898244  1
  B  B12  1  0.101756  0.398244  0.398244  1
  B  B13  1  0.601756  0.898244  0.898244  1
