# generated using pymatgen
data_Dy3Y3Al24PdRu7
_symmetry_space_group_name_H-M   'P 1'
_cell_length_a   8.81521797
_cell_length_b   8.81474389
_cell_length_c   9.55199200
_cell_angle_alpha   89.82200389
_cell_angle_beta   90.17254631
_cell_angle_gamma   119.71584567
_symmetry_Int_Tables_number   1
_chemical_formula_structural   Dy3Y3Al24PdRu7
_chemical_formula_sum   'Dy3 Y3 Al24 Pd1 Ru7'
_cell_volume   644.61593398
_cell_formula_units_Z   1
loop_
 _symmetry_equiv_pos_site_id
 _symmetry_equiv_pos_as_xyz
  1  'x, y, z'
loop_
 _atom_site_type_symbol
 _atom_site_label
 _atom_site_symmetry_multiplicity
 _atom_site_fract_x
 _atom_site_fract_y
 _atom_site_fract_z
 _atom_site_occupancy
  Dy  Dy0  1  0.386753  0.191434  0.749217  1
  Dy  Dy1  1  0.194136  0.805836  0.251848  1
  Dy  Dy2  1  0.805667  0.194154  0.748158  1
  Y  Y3  1  0.191375  0.386454  0.250692  1
  Y  Y4  1  0.808477  0.613407  0.749298  1
  Y  Y5  1  0.613556  0.808617  0.250715  1
  Al  Al6  1  0.330237  0.669773  0.019595  1
  Al  Al7  1  0.669597  0.330164  0.980219  1
  Al  Al8  1  0.666659  0.333075  0.516328  1
  Al  Al9  1  0.333179  0.666843  0.483847  1
  Al  Al10  1  0.162906  0.324044  0.578685  1
  Al  Al11  1  0.837211  0.675880  0.421435  1
  Al  Al12  1  0.675891  0.837210  0.578588  1
  Al  Al13  1  0.843855  0.677211  0.079294  1
  Al  Al14  1  0.324132  0.162791  0.421585  1
  Al  Al15  1  0.156248  0.322729  0.920598  1
  Al  Al16  1  0.162787  0.837488  0.578446  1
  Al  Al17  1  0.322801  0.156158  0.079161  1
  Al  Al18  1  0.837317  0.162684  0.421662  1
  Al  Al19  1  0.677222  0.843852  0.920672  1
  Al  Al20  1  0.837330  0.162685  0.077597  1
  Al  Al21  1  0.162771  0.837491  0.922276  1
  Al  Al22  1  0.560418  0.121785  0.248899  1
  Al  Al23  1  0.439527  0.878393  0.751100  1
  Al  Al24  1  0.878207  0.439575  0.248898  1
  Al  Al25  1  0.121820  0.560437  0.751103  1
  Al  Al26  1  0.561818  0.438185  0.252302  1
  Al  Al27  1  0.438129  0.561591  0.747711  1
  Al  Al28  1  0.999581  0.000437  0.250079  1
  Al  Al29  1  0.000839  0.999762  0.749914  1
  Pd  Pd30  1  0.499977  0.499937  0.999956  1
  Ru  Ru31  1  0.499941  0.000099  0.999865  1
  Ru  Ru32  1  0.999946  0.499969  0.999971  1
  Ru  Ru33  1  0.499939  0.000101  0.500147  1
  Ru  Ru34  1  0.999938  0.499968  0.500030  1
  Ru  Ru35  1  0.499947  0.499850  0.500116  1
  Ru  Ru36  1  0.999944  0.999967  0.000046  1
  Ru  Ru37  1  0.999920  0.999966  0.499947  1
