# generated using pymatgen
data_YbZrUFe2Si7
_symmetry_space_group_name_H-M   'P 1'
_cell_length_a   12.16736801
_cell_length_b   12.16736975
_cell_length_c   3.98129900
_cell_angle_alpha   90.00000000
_cell_angle_beta   90.00000000
_cell_angle_gamma   161.07928209
_symmetry_Int_Tables_number   1
_chemical_formula_structural   YbZrUFe2Si7
_chemical_formula_sum   'Yb1 Zr1 U1 Fe2 Si7'
_cell_volume   191.12207406
_cell_formula_units_Z   1
loop_
 _symmetry_equiv_pos_site_id
 _symmetry_equiv_pos_as_xyz
  1  'x, y, z'
loop_
 _atom_site_type_symbol
 _atom_site_label
 _atom_site_symmetry_multiplicity
 _atom_site_fract_x
 _atom_site_fract_y
 _atom_site_fract_z
 _atom_site_occupancy
  Yb  Yb0  1  0.684773  0.315227  0.000000  1
  Zr  Zr1  1  0.316254  0.683746  0.000000  1
  U  U2  1  0.999389  0.000611  0.500000  1
  Fe  Fe3  1  0.126678  0.873322  0.500000  1
  Fe  Fe4  1  0.873260  0.126740  0.500000  1
  Si  Si5  1  0.224212  0.775788  0.500000  1
  Si  Si6  1  0.780537  0.219463  0.500000  1
  Si  Si7  1  0.085185  0.914815  0.000000  1
  Si  Si8  1  0.912727  0.087273  0.000000  1
  Si  Si9  1  0.412104  0.587896  0.500000  1
  Si  Si10  1  0.499294  0.500706  0.000000  1
  Si  Si11  1  0.585585  0.414415  0.500000  1
