# generated using pymatgen
data_Sc2BiRh5
_symmetry_space_group_name_H-M   'P 1'
_cell_length_a   4.18149000
_cell_length_b   5.64480100
_cell_length_c   11.22054200
_cell_angle_alpha   90.00000000
_cell_angle_beta   90.00000000
_cell_angle_gamma   90.00000000
_symmetry_Int_Tables_number   1
_chemical_formula_structural   Sc2BiRh5
_chemical_formula_sum   'Sc4 Bi2 Rh10'
_cell_volume   264.84607083
_cell_formula_units_Z   2
loop_
 _symmetry_equiv_pos_site_id
 _symmetry_equiv_pos_as_xyz
  1  'x, y, z'
loop_
 _atom_site_type_symbol
 _atom_site_label
 _atom_site_symmetry_multiplicity
 _atom_site_fract_x
 _atom_site_fract_y
 _atom_site_fract_z
 _atom_site_occupancy
  Sc  Sc0  1  0.500000  0.314353  0.358488  1
  Sc  Sc1  1  0.500000  0.685647  0.641512  1
  Sc  Sc2  1  0.500000  0.185647  0.858488  1
  Sc  Sc3  1  0.500000  0.814353  0.141512  1
  Bi  Bi4  1  0.000000  0.000000  0.500000  1
  Bi  Bi5  1  0.000000  0.500000  0.000000  1
  Rh  Rh6  1  0.500000  0.288279  0.119586  1
  Rh  Rh7  1  0.500000  0.711721  0.880414  1
  Rh  Rh8  1  0.500000  0.788279  0.380414  1
  Rh  Rh9  1  0.500000  0.211721  0.619586  1
  Rh  Rh10  1  0.000000  0.945880  0.752968  1
  Rh  Rh11  1  0.000000  0.054120  0.247032  1
  Rh  Rh12  1  0.000000  0.445880  0.747032  1
  Rh  Rh13  1  0.000000  0.554120  0.252968  1
  Rh  Rh14  1  0.000000  0.500000  0.500000  1
  Rh  Rh15  1  0.000000  0.000000  0.000000  1
