# generated using pymatgen
data_YHf3Si4W
_symmetry_space_group_name_H-M   'P 1'
_cell_length_a   7.05340400
_cell_length_b   7.05340400
_cell_length_c   12.87636500
_cell_angle_alpha   90.00000000
_cell_angle_beta   90.00000000
_cell_angle_gamma   90.00000000
_symmetry_Int_Tables_number   1
_chemical_formula_structural   YHf3Si4W
_chemical_formula_sum   'Y4 Hf12 Si16 W4'
_cell_volume   640.60569978
_cell_formula_units_Z   4
loop_
 _symmetry_equiv_pos_site_id
 _symmetry_equiv_pos_as_xyz
  1  'x, y, z'
loop_
 _atom_site_type_symbol
 _atom_site_label
 _atom_site_symmetry_multiplicity
 _atom_site_fract_x
 _atom_site_fract_y
 _atom_site_fract_z
 _atom_site_occupancy
  Y  Y0  1  0.495119  0.156659  0.532377  1
  Y  Y1  1  0.504881  0.843341  0.032377  1
  Y  Y2  1  0.656659  0.004881  0.282377  1
  Y  Y3  1  0.343341  0.995119  0.782377  1
  Hf  Hf4  1  0.847151  0.498825  0.968712  1
  Hf  Hf5  1  0.152849  0.501175  0.468712  1
  Hf  Hf6  1  0.998825  0.652849  0.718712  1
  Hf  Hf7  1  0.001175  0.347151  0.218712  1
  Hf  Hf8  1  0.493307  0.355897  0.124896  1
  Hf  Hf9  1  0.506693  0.644103  0.624896  1
  Hf  Hf10  1  0.855897  0.006693  0.874896  1
  Hf  Hf11  1  0.144103  0.993307  0.374896  1
  Hf  Hf12  1  0.645932  0.503020  0.374635  1
  Hf  Hf13  1  0.354068  0.496980  0.874635  1
  Hf  Hf14  1  0.003020  0.854068  0.124635  1
  Hf  Hf15  1  0.996980  0.145932  0.624635  1
  Si  Si16  1  0.804165  0.151431  0.069942  1
  Si  Si17  1  0.195835  0.848569  0.569942  1
  Si  Si18  1  0.651431  0.695835  0.819942  1
  Si  Si19  1  0.348569  0.304165  0.319942  1
  Si  Si20  1  0.864580  0.209997  0.429431  1
  Si  Si21  1  0.135420  0.790003  0.929431  1
  Si  Si22  1  0.709997  0.635420  0.179431  1
  Si  Si23  1  0.290003  0.364580  0.679431  1
  Si  Si24  1  0.552687  0.206734  0.933355  1
  Si  Si25  1  0.447313  0.793266  0.433355  1
  Si  Si26  1  0.706734  0.947313  0.683355  1
  Si  Si27  1  0.293266  0.052687  0.183355  1
  Si  Si28  1  0.805449  0.455041  0.566468  1
  Si  Si29  1  0.194551  0.544959  0.066468  1
  Si  Si30  1  0.955041  0.694551  0.316468  1
  Si  Si31  1  0.044959  0.305449  0.816468  1
  W  W32  1  0.680278  0.330293  0.750184  1
  W  W33  1  0.319722  0.669707  0.250184  1
  W  W34  1  0.830293  0.819722  0.500184  1
  W  W35  1  0.169707  0.180278  0.000184  1
