# generated using pymatgen
data_Tb2Nd17MgIr12
_symmetry_space_group_name_H-M   'P 1'
_cell_length_a   11.22647200
_cell_length_b   11.22647200
_cell_length_c   6.48424700
_cell_angle_alpha   90.00000000
_cell_angle_beta   90.00000000
_cell_angle_gamma   90.00000000
_symmetry_Int_Tables_number   1
_chemical_formula_structural   Tb2Nd17MgIr12
_chemical_formula_sum   'Tb2 Nd17 Mg1 Ir12'
_cell_volume   817.23346972
_cell_formula_units_Z   1
loop_
 _symmetry_equiv_pos_site_id
 _symmetry_equiv_pos_as_xyz
  1  'x, y, z'
loop_
 _atom_site_type_symbol
 _atom_site_label
 _atom_site_symmetry_multiplicity
 _atom_site_fract_x
 _atom_site_fract_y
 _atom_site_fract_z
 _atom_site_occupancy
  Tb  Tb0  1  0.500000  0.500000  0.000000  1
  Tb  Tb1  1  0.500000  0.500000  0.500000  1
  Nd  Nd2  1  0.281165  0.085059  0.383801  1
  Nd  Nd3  1  0.291491  0.911715  0.882246  1
  Nd  Nd4  1  0.708509  0.088285  0.882246  1
  Nd  Nd5  1  0.718835  0.914941  0.383801  1
  Nd  Nd6  1  0.588890  0.789610  0.884562  1
  Nd  Nd7  1  0.586354  0.209973  0.381285  1
  Nd  Nd8  1  0.413646  0.790027  0.381285  1
  Nd  Nd9  1  0.411110  0.210390  0.884562  1
  Nd  Nd10  1  0.209973  0.413646  0.618715  1
  Nd  Nd11  1  0.210390  0.588890  0.115438  1
  Nd  Nd12  1  0.789610  0.411110  0.115438  1
  Nd  Nd13  1  0.790027  0.586354  0.618715  1
  Nd  Nd14  1  0.911715  0.708509  0.117754  1
  Nd  Nd15  1  0.914941  0.281165  0.616199  1
  Nd  Nd16  1  0.085059  0.718835  0.616199  1
  Nd  Nd17  1  0.088285  0.291491  0.117754  1
  Nd  Nd18  1  0.000000  0.000000  0.000000  1
  Mg  Mg19  1  0.000000  0.000000  0.500000  1
  Ir  Ir20  1  0.846985  0.155138  0.245711  1
  Ir  Ir21  1  0.844862  0.846985  0.754289  1
  Ir  Ir22  1  0.155138  0.153015  0.754289  1
  Ir  Ir23  1  0.153015  0.844862  0.245711  1
  Ir  Ir24  1  0.650243  0.350390  0.747415  1
  Ir  Ir25  1  0.649610  0.650243  0.252585  1
  Ir  Ir26  1  0.350390  0.349757  0.252585  1
  Ir  Ir27  1  0.349757  0.649610  0.747415  1
  Ir  Ir28  1  0.500000  0.000000  0.122326  1
  Ir  Ir29  1  0.500000  0.000000  0.614745  1
  Ir  Ir30  1  0.000000  0.500000  0.877674  1
  Ir  Ir31  1  0.000000  0.500000  0.385255  1
