# generated using pymatgen
data_Dy4Ta4Mn9Fe7P12
_symmetry_space_group_name_H-M   'P 1'
_cell_length_a   3.67035100
_cell_length_b   10.70402307
_cell_length_c   12.38676934
_cell_angle_alpha   89.88624770
_cell_angle_beta   90.00000000
_cell_angle_gamma   90.00000000
_symmetry_Int_Tables_number   1
_chemical_formula_structural   Dy4Ta4Mn9Fe7P12
_chemical_formula_sum   'Dy4 Ta4 Mn9 Fe7 P12'
_cell_volume   486.64451127
_cell_formula_units_Z   1
loop_
 _symmetry_equiv_pos_site_id
 _symmetry_equiv_pos_as_xyz
  1  'x, y, z'
loop_
 _atom_site_type_symbol
 _atom_site_label
 _atom_site_symmetry_multiplicity
 _atom_site_fract_x
 _atom_site_fract_y
 _atom_site_fract_z
 _atom_site_occupancy
  Dy  Dy0  1  0.250000  0.581797  0.711862  1
  Dy  Dy1  1  0.250000  0.916579  0.212134  1
  Dy  Dy2  1  0.750000  0.416120  0.288106  1
  Dy  Dy3  1  0.750000  0.086031  0.790108  1
  Ta  Ta4  1  0.250000  0.702905  0.989107  1
  Ta  Ta5  1  0.250000  0.795285  0.487778  1
  Ta  Ta6  1  0.750000  0.297299  0.010871  1
  Ta  Ta7  1  0.750000  0.202881  0.509996  1
  Mn  Mn8  1  0.250000  0.407455  0.491882  1
  Mn  Mn9  1  0.250000  0.092859  0.993013  1
  Mn  Mn10  1  0.750000  0.590779  0.506753  1
  Mn  Mn11  1  0.750000  0.908134  0.008770  1
  Mn  Mn12  1  0.250000  0.216659  0.174579  1
  Mn  Mn13  1  0.250000  0.284898  0.674882  1
  Mn  Mn14  1  0.750000  0.783114  0.825120  1
  Mn  Mn15  1  0.750000  0.716314  0.325013  1
  Mn  Mn16  1  0.250000  0.878128  0.700684  1
  Fe  Fe17  1  0.250000  0.623137  0.200961  1
  Fe  Fe18  1  0.750000  0.122769  0.299175  1
  Fe  Fe19  1  0.750000  0.377410  0.798883  1
  Fe  Fe20  1  0.250000  0.463210  0.933148  1
  Fe  Fe21  1  0.250000  0.036968  0.434075  1
  Fe  Fe22  1  0.750000  0.537601  0.066520  1
  Fe  Fe23  1  0.750000  0.962066  0.568074  1
  P  P24  1  0.250000  0.431033  0.112909  1
  P  P25  1  0.250000  0.073158  0.613036  1
  P  P26  1  0.750000  0.569818  0.886811  1
  P  P27  1  0.750000  0.930743  0.387365  1
  P  P28  1  0.250000  0.270892  0.862999  1
  P  P29  1  0.250000  0.229645  0.361978  1
  P  P30  1  0.750000  0.730558  0.137242  1
  P  P31  1  0.750000  0.764398  0.635053  1
  P  P32  1  0.250000  0.587025  0.382701  1
  P  P33  1  0.250000  0.912838  0.885685  1
  P  P34  1  0.750000  0.411643  0.615874  1
  P  P35  1  0.750000  0.087850  0.116852  1
