# generated using pymatgen
data_Sr8Cu4Si11Ge
_symmetry_space_group_name_H-M   'P 1'
_cell_length_a   11.73569650
_cell_length_b   10.20469370
_cell_length_c   8.23080375
_cell_angle_alpha   78.25548324
_cell_angle_beta   58.36443867
_cell_angle_gamma   43.31869390
_symmetry_Int_Tables_number   1
_chemical_formula_structural   Sr8Cu4Si11Ge
_chemical_formula_sum   'Sr8 Cu4 Si11 Ge1'
_cell_volume   548.35958349
_cell_formula_units_Z   1
loop_
 _symmetry_equiv_pos_site_id
 _symmetry_equiv_pos_as_xyz
  1  'x, y, z'
loop_
 _atom_site_type_symbol
 _atom_site_label
 _atom_site_symmetry_multiplicity
 _atom_site_fract_x
 _atom_site_fract_y
 _atom_site_fract_z
 _atom_site_occupancy
  Sr  Sr0  1  0.123260  0.123502  0.877150  1
  Sr  Sr1  1  0.875402  0.876725  0.124004  1
  Sr  Sr2  1  0.125688  0.124989  0.374768  1
  Sr  Sr3  1  0.375343  0.374278  0.125283  1
  Sr  Sr4  1  0.622225  0.622959  0.377466  1
  Sr  Sr5  1  0.377536  0.377685  0.622448  1
  Sr  Sr6  1  0.626110  0.626709  0.874107  1
  Sr  Sr7  1  0.872998  0.873948  0.627328  1
  Cu  Cu8  1  0.087071  0.412977  0.075775  1
  Cu  Cu9  1  0.833426  0.166799  0.833202  1
  Cu  Cu10  1  0.166326  0.832999  0.167043  1
  Cu  Cu11  1  0.416757  0.082829  0.416322  1
  Si  Si12  1  0.085872  0.409765  0.589094  1
  Si  Si13  1  0.413142  0.083041  0.918272  1
  Si  Si14  1  0.584773  0.918819  0.084251  1
  Si  Si15  1  0.332733  0.664926  0.836563  1
  Si  Si16  1  0.664925  0.332913  0.165899  1
  Si  Si17  1  0.836855  0.165334  0.332414  1
  Si  Si18  1  0.165202  0.836802  0.665801  1
  Si  Si19  1  0.917609  0.582625  0.917599  1
  Si  Si20  1  0.576491  0.923821  0.585241  1
  Si  Si21  1  0.332414  0.668158  0.332325  1
  Si  Si22  1  0.667756  0.332475  0.667462  1
  Ge  Ge23  1  0.920089  0.584930  0.410177  1
