# generated using pymatgen
data_YbCo2(Sn3Ru)2
_symmetry_space_group_name_H-M   'P 1'
_cell_length_a   6.78810436
_cell_length_b   6.78810469
_cell_length_c   6.86806617
_cell_angle_alpha   120.13356699
_cell_angle_beta   120.13356329
_cell_angle_gamma   89.09112695
_symmetry_Int_Tables_number   1
_chemical_formula_structural   YbCo2(Sn3Ru)2
_chemical_formula_sum   'Yb1 Co2 Sn6 Ru2'
_cell_volume   224.60411529
_cell_formula_units_Z   1
loop_
 _symmetry_equiv_pos_site_id
 _symmetry_equiv_pos_as_xyz
  1  'x, y, z'
loop_
 _atom_site_type_symbol
 _atom_site_label
 _atom_site_symmetry_multiplicity
 _atom_site_fract_x
 _atom_site_fract_y
 _atom_site_fract_z
 _atom_site_occupancy
  Yb  Yb0  1  0.007845  0.007845  0.000000  1
  Co  Co1  1  0.405819  0.405819  0.658779  1
  Co  Co2  1  0.747041  0.747041  0.341221  1
  Sn  Sn3  1  0.000862  0.500862  0.500000  1
  Sn  Sn4  1  0.471544  0.471544  0.365830  1
  Sn  Sn5  1  0.536395  0.878000  0.000000  1
  Sn  Sn6  1  0.878000  0.536395  0.000000  1
  Sn  Sn7  1  0.105714  0.105714  0.634170  1
  Sn  Sn8  1  0.500862  0.000862  0.500000  1
  Ru  Ru9  1  0.260071  0.585846  0.000000  1
  Ru  Ru10  1  0.585846  0.260071  0.000000  1
