# generated using pymatgen
data_MgPaNi12P7
_symmetry_space_group_name_H-M   'P 1'
_cell_length_a   9.07626300
_cell_length_b   9.07626210
_cell_length_c   3.62207400
_cell_angle_alpha   90.00000000
_cell_angle_beta   90.00000000
_cell_angle_gamma   120.00000693
_symmetry_Int_Tables_number   1
_chemical_formula_structural   MgPaNi12P7
_chemical_formula_sum   'Mg1 Pa1 Ni12 P7'
_cell_volume   258.40565921
_cell_formula_units_Z   1
loop_
 _symmetry_equiv_pos_site_id
 _symmetry_equiv_pos_as_xyz
  1  'x, y, z'
loop_
 _atom_site_type_symbol
 _atom_site_label
 _atom_site_symmetry_multiplicity
 _atom_site_fract_x
 _atom_site_fract_y
 _atom_site_fract_z
 _atom_site_occupancy
  Mg  Mg0  1  0.000000  0.000000  0.500000  1
  Pa  Pa1  1  0.666667  0.333333  0.000000  1
  Ni  Ni2  1  0.770138  0.038418  0.000000  1
  Ni  Ni3  1  0.961582  0.731721  0.000000  1
  Ni  Ni4  1  0.268279  0.229862  0.000000  1
  Ni  Ni5  1  0.487796  0.543961  0.000000  1
  Ni  Ni6  1  0.456039  0.943835  0.000000  1
  Ni  Ni7  1  0.056165  0.512204  0.000000  1
  Ni  Ni8  1  0.719556  0.625251  0.500000  1
  Ni  Ni9  1  0.374749  0.094304  0.500000  1
  Ni  Ni10  1  0.905696  0.280444  0.500000  1
  Ni  Ni11  1  0.544903  0.786917  0.500000  1
  Ni  Ni12  1  0.213083  0.757987  0.500000  1
  Ni  Ni13  1  0.242013  0.455097  0.500000  1
  P  P14  1  0.745465  0.785404  0.000000  1
  P  P15  1  0.214596  0.960060  0.000000  1
  P  P16  1  0.039940  0.254535  0.000000  1
  P  P17  1  0.444892  0.373443  0.500000  1
  P  P18  1  0.626557  0.071448  0.500000  1
  P  P19  1  0.928552  0.555108  0.500000  1
  P  P20  1  0.333333  0.666667  0.000000  1
