# generated using pymatgen
data_Pr3Mg2CdSn2Au
_symmetry_space_group_name_H-M   'P 1'
_cell_length_a   7.71795605
_cell_length_b   7.71795545
_cell_length_c   4.60768600
_cell_angle_alpha   90.00000000
_cell_angle_beta   90.00000000
_cell_angle_gamma   119.55171633
_symmetry_Int_Tables_number   1
_chemical_formula_structural   Pr3Mg2CdSn2Au
_chemical_formula_sum   'Pr3 Mg2 Cd1 Sn2 Au1'
_cell_volume   238.76034716
_cell_formula_units_Z   1
loop_
 _symmetry_equiv_pos_site_id
 _symmetry_equiv_pos_as_xyz
  1  'x, y, z'
loop_
 _atom_site_type_symbol
 _atom_site_label
 _atom_site_symmetry_multiplicity
 _atom_site_fract_x
 _atom_site_fract_y
 _atom_site_fract_z
 _atom_site_occupancy
  Pr  Pr0  1  0.595202  0.997413  0.000000  1
  Pr  Pr1  1  0.997413  0.595202  0.000000  1
  Pr  Pr2  1  0.408498  0.408498  0.000000  1
  Mg  Mg3  1  0.232152  0.999255  0.500000  1
  Mg  Mg4  1  0.999255  0.232152  0.500000  1
  Cd  Cd5  1  0.760112  0.760112  0.500000  1
  Sn  Sn6  1  0.329295  0.665964  0.500000  1
  Sn  Sn7  1  0.665964  0.329295  0.500000  1
  Au  Au8  1  0.012111  0.012111  0.000000  1
