# generated using pymatgen
data_ThRe2(SiOs)2
_symmetry_space_group_name_H-M   'P 1'
_cell_length_a   7.31438500
_cell_length_b   7.31438552
_cell_length_c   4.07682600
_cell_angle_alpha   90.00000000
_cell_angle_beta   90.00000000
_cell_angle_gamma   147.79163600
_symmetry_Int_Tables_number   1
_chemical_formula_structural   ThRe2(SiOs)2
_chemical_formula_sum   'Th1 Re2 Si2 Os2'
_cell_volume   116.25319115
_cell_formula_units_Z   1
loop_
 _symmetry_equiv_pos_site_id
 _symmetry_equiv_pos_as_xyz
  1  'x, y, z'
loop_
 _atom_site_type_symbol
 _atom_site_label
 _atom_site_symmetry_multiplicity
 _atom_site_fract_x
 _atom_site_fract_y
 _atom_site_fract_z
 _atom_site_occupancy
  Th  Th0  1  0.000000  0.000000  0.000000  1
  Re  Re1  1  0.306484  0.693516  0.000000  1
  Re  Re2  1  0.693516  0.306484  0.000000  1
  Si  Si3  1  0.413007  0.586993  0.500000  1
  Si  Si4  1  0.586993  0.413007  0.500000  1
  Os  Os5  1  0.185767  0.814233  0.500000  1
  Os  Os6  1  0.814233  0.185767  0.500000  1
