# generated using pymatgen
data_LuZrSi2MoW
_symmetry_space_group_name_H-M   'P 1'
_cell_length_a   3.57400100
_cell_length_b   7.09197500
_cell_length_c   8.31415500
_cell_angle_alpha   90.00000000
_cell_angle_beta   90.00000000
_cell_angle_gamma   90.00000000
_symmetry_Int_Tables_number   1
_chemical_formula_structural   LuZrSi2MoW
_chemical_formula_sum   'Lu2 Zr2 Si4 Mo2 W2'
_cell_volume   210.73660656
_cell_formula_units_Z   2
loop_
 _symmetry_equiv_pos_site_id
 _symmetry_equiv_pos_as_xyz
  1  'x, y, z'
loop_
 _atom_site_type_symbol
 _atom_site_label
 _atom_site_symmetry_multiplicity
 _atom_site_fract_x
 _atom_site_fract_y
 _atom_site_fract_z
 _atom_site_occupancy
  Lu  Lu0  1  0.250000  0.042527  0.335925  1
  Lu  Lu1  1  0.250000  0.542527  0.164075  1
  Zr  Zr2  1  0.750000  0.957563  0.670047  1
  Zr  Zr3  1  0.750000  0.457563  0.829953  1
  Si  Si4  1  0.250000  0.258121  0.638096  1
  Si  Si5  1  0.250000  0.758121  0.861904  1
  Si  Si6  1  0.750000  0.738777  0.365496  1
  Si  Si7  1  0.750000  0.238777  0.134504  1
  Mo  Mo8  1  0.750000  0.873760  0.055519  1
  Mo  Mo9  1  0.750000  0.373760  0.444481  1
  W  W10  1  0.250000  0.129253  0.936896  1
  W  W11  1  0.250000  0.629253  0.563104  1
