# generated using pymatgen
data_Ho5PtSe4
_symmetry_space_group_name_H-M   'P 1'
_cell_length_a   7.06332664
_cell_length_b   7.06332632
_cell_length_c   7.06332602
_cell_angle_alpha   99.68547800
_cell_angle_beta   99.68548031
_cell_angle_gamma   131.56894576
_symmetry_Int_Tables_number   1
_chemical_formula_structural   Ho5PtSe4
_chemical_formula_sum   'Ho5 Pt1 Se4'
_cell_volume   240.44745046
_cell_formula_units_Z   1
loop_
 _symmetry_equiv_pos_site_id
 _symmetry_equiv_pos_as_xyz
  1  'x, y, z'
loop_
 _atom_site_type_symbol
 _atom_site_label
 _atom_site_symmetry_multiplicity
 _atom_site_fract_x
 _atom_site_fract_y
 _atom_site_fract_z
 _atom_site_occupancy
  Ho  Ho0  1  0.402228  0.788039  0.190267  1
  Ho  Ho1  1  0.000000  0.000000  0.000000  1
  Ho  Ho2  1  0.597772  0.211961  0.809733  1
  Ho  Ho3  1  0.211961  0.402228  0.614188  1
  Ho  Ho4  1  0.788039  0.597772  0.385812  1
  Pt  Pt5  1  0.500000  0.500000  0.000000  1
  Se  Se6  1  0.094004  0.694766  0.788769  1
  Se  Se7  1  0.694766  0.905996  0.600761  1
  Se  Se8  1  0.305234  0.094004  0.399239  1
  Se  Se9  1  0.905996  0.305234  0.211231  1
