# generated using pymatgen
data_MgAl7Pt16
_symmetry_space_group_name_H-M   'P 1'
_cell_length_a   16.51351211
_cell_length_b   3.96983000
_cell_length_c   5.51632004
_cell_angle_alpha   90.00001039
_cell_angle_beta   89.98689195
_cell_angle_gamma   90.00002137
_symmetry_Int_Tables_number   1
_chemical_formula_structural   MgAl7Pt16
_chemical_formula_sum   'Mg1 Al7 Pt16'
_cell_volume   361.62696089
_cell_formula_units_Z   1
loop_
 _symmetry_equiv_pos_site_id
 _symmetry_equiv_pos_as_xyz
  1  'x, y, z'
loop_
 _atom_site_type_symbol
 _atom_site_label
 _atom_site_symmetry_multiplicity
 _atom_site_fract_x
 _atom_site_fract_y
 _atom_site_fract_z
 _atom_site_occupancy
  Mg  Mg0  1  0.249977  0.000000  0.793102  1
  Al  Al1  1  0.092765  0.000000  0.308638  1
  Al  Al2  1  0.407199  0.999999  0.308632  1
  Al  Al3  1  0.591366  0.999999  0.690836  1
  Al  Al4  1  0.908662  0.999999  0.690833  1
  Al  Al5  1  0.750019  0.000000  0.208334  1
  Al  Al6  1  0.000167  0.500000  0.000760  1
  Al  Al7  1  0.499833  0.500000  0.000755  1
  Pt  Pt8  1  0.249938  0.999999  0.279551  1
  Pt  Pt9  1  0.750063  0.999999  0.731689  1
  Pt  Pt10  1  0.165517  0.499999  0.548938  1
  Pt  Pt11  1  0.334389  0.499999  0.548938  1
  Pt  Pt12  1  0.667957  0.500000  0.445842  1
  Pt  Pt13  1  0.832132  0.500000  0.445836  1
  Pt  Pt14  1  0.155643  0.500000  0.049976  1
  Pt  Pt15  1  0.344280  0.500000  0.050008  1
  Pt  Pt16  1  0.656440  0.500000  0.949994  1
  Pt  Pt17  1  0.843642  0.500000  0.950022  1
  Pt  Pt18  1  0.998983  0.500000  0.499602  1
  Pt  Pt19  1  0.501017  0.500000  0.499594  1
  Pt  Pt20  1  0.067725  0.000000  0.796315  1
  Pt  Pt21  1  0.432241  0.999999  0.796367  1
  Pt  Pt22  1  0.568841  0.999999  0.202693  1
  Pt  Pt23  1  0.931204  0.999999  0.202744  1
