# generated using pymatgen
data_LiPr2Be4Ir5
_symmetry_space_group_name_H-M   'P 1'
_cell_length_a   6.46830781
_cell_length_b   6.46830802
_cell_length_c   6.45361408
_cell_angle_alpha   129.40036204
_cell_angle_beta   113.55403269
_cell_angle_gamma   88.16625869
_symmetry_Int_Tables_number   1
_chemical_formula_structural   LiPr2Be4Ir5
_chemical_formula_sum   'Li1 Pr2 Be4 Ir5'
_cell_volume   181.65844756
_cell_formula_units_Z   1
loop_
 _symmetry_equiv_pos_site_id
 _symmetry_equiv_pos_as_xyz
  1  'x, y, z'
loop_
 _atom_site_type_symbol
 _atom_site_label
 _atom_site_symmetry_multiplicity
 _atom_site_fract_x
 _atom_site_fract_y
 _atom_site_fract_z
 _atom_site_occupancy
  Li  Li0  1  0.000000  0.500000  0.000000  1
  Pr  Pr1  1  0.249930  0.992866  0.742795  1
  Pr  Pr2  1  0.750070  0.007134  0.257205  1
  Be  Be3  1  0.076278  0.300824  0.236575  1
  Be  Be4  1  0.923722  0.699176  0.763425  1
  Be  Be5  1  0.435751  0.660297  0.236575  1
  Be  Be6  1  0.564249  0.339703  0.763425  1
  Ir  Ir7  1  0.500000  0.500000  0.500000  1
  Ir  Ir8  1  0.258057  0.989832  0.250964  1
  Ir  Ir9  1  0.741943  0.010168  0.749036  1
  Ir  Ir10  1  0.238868  0.507093  0.749036  1
  Ir  Ir11  1  0.761132  0.492907  0.250964  1
