# generated using pymatgen
data_HoSiPRu2
_symmetry_space_group_name_H-M   'P 1'
_cell_length_a   5.58151661
_cell_length_b   5.58151609
_cell_length_c   5.58151736
_cell_angle_alpha   136.73622742
_cell_angle_beta   136.73622326
_cell_angle_gamma   62.84414761
_symmetry_Int_Tables_number   1
_chemical_formula_structural   HoSiPRu2
_chemical_formula_sum   'Ho1 Si1 P1 Ru2'
_cell_volume   80.65910276
_cell_formula_units_Z   1
loop_
 _symmetry_equiv_pos_site_id
 _symmetry_equiv_pos_as_xyz
  1  'x, y, z'
loop_
 _atom_site_type_symbol
 _atom_site_label
 _atom_site_symmetry_multiplicity
 _atom_site_fract_x
 _atom_site_fract_y
 _atom_site_fract_z
 _atom_site_occupancy
  Ho  Ho0  1  0.000894  0.000894  0.000000  1
  Si  Si1  1  0.374484  0.374484  0.000000  1
  P  P2  1  0.629422  0.629422  0.000000  1
  Ru  Ru3  1  0.247600  0.747600  0.500000  1
  Ru  Ru4  1  0.747600  0.247600  0.500000  1
