# generated using pymatgen
data_Y2Zn2In
_symmetry_space_group_name_H-M   'P 1'
_cell_length_a   4.24072200
_cell_length_b   7.38166600
_cell_length_c   7.38166600
_cell_angle_alpha   90.00000000
_cell_angle_beta   90.00000000
_cell_angle_gamma   90.00000000
_symmetry_Int_Tables_number   1
_chemical_formula_structural   Y2Zn2In
_chemical_formula_sum   'Y4 Zn4 In2'
_cell_volume   231.07267110
_cell_formula_units_Z   2
loop_
 _symmetry_equiv_pos_site_id
 _symmetry_equiv_pos_as_xyz
  1  'x, y, z'
loop_
 _atom_site_type_symbol
 _atom_site_label
 _atom_site_symmetry_multiplicity
 _atom_site_fract_x
 _atom_site_fract_y
 _atom_site_fract_z
 _atom_site_occupancy
  Y  Y0  1  0.500000  0.171867  0.671867  1
  Y  Y1  1  0.500000  0.828133  0.328133  1
  Y  Y2  1  0.500000  0.328133  0.171867  1
  Y  Y3  1  0.500000  0.671867  0.828133  1
  Zn  Zn4  1  0.000000  0.623053  0.123053  1
  Zn  Zn5  1  0.000000  0.376947  0.876947  1
  Zn  Zn6  1  0.000000  0.876947  0.623053  1
  Zn  Zn7  1  0.000000  0.123053  0.376947  1
  In  In8  1  0.000000  0.000000  0.000000  1
  In  In9  1  0.000000  0.500000  0.500000  1
