# generated using pymatgen
data_Zr10SiSn6
_symmetry_space_group_name_H-M   'P 1'
_cell_length_a   5.89517804
_cell_length_b   8.61963730
_cell_length_c   8.61922604
_cell_angle_alpha   120.00158499
_cell_angle_beta   90.00731989
_cell_angle_gamma   89.98535413
_symmetry_Int_Tables_number   1
_chemical_formula_structural   Zr10SiSn6
_chemical_formula_sum   'Zr10 Si1 Sn6'
_cell_volume   379.29565613
_cell_formula_units_Z   1
loop_
 _symmetry_equiv_pos_site_id
 _symmetry_equiv_pos_as_xyz
  1  'x, y, z'
loop_
 _atom_site_type_symbol
 _atom_site_label
 _atom_site_symmetry_multiplicity
 _atom_site_fract_x
 _atom_site_fract_y
 _atom_site_fract_z
 _atom_site_occupancy
  Zr  Zr0  1  0.500000  0.333325  0.666651  1
  Zr  Zr1  1  0.500000  0.666674  0.333349  1
  Zr  Zr2  1  0.000000  0.666670  0.333336  1
  Zr  Zr3  1  0.000000  0.333333  0.666664  1
  Zr  Zr4  1  0.755587  0.254495  0.000000  1
  Zr  Zr5  1  0.755335  0.745515  0.745349  1
  Zr  Zr6  1  0.755335  0.000164  0.254651  1
  Zr  Zr7  1  0.244414  0.745507  0.000000  1
  Zr  Zr8  1  0.244664  0.254486  0.254652  1
  Zr  Zr9  1  0.244664  0.999834  0.745348  1
  Si  Si10  1  0.500000  0.000000  0.000000  1
  Sn  Sn11  1  0.748015  0.608469  0.000000  1
  Sn  Sn12  1  0.748145  0.391641  0.391631  1
  Sn  Sn13  1  0.748145  0.000009  0.608369  1
  Sn  Sn14  1  0.251984  0.391532  0.000000  1
  Sn  Sn15  1  0.251856  0.608359  0.608369  1
  Sn  Sn16  1  0.251856  0.999990  0.391631  1
