# generated using pymatgen
data_LiTh4ScSi4
_symmetry_space_group_name_H-M   'P 1'
_cell_length_a   7.40843400
_cell_length_b   7.40843400
_cell_length_c   4.28773300
_cell_angle_alpha   90.00000000
_cell_angle_beta   90.00000000
_cell_angle_gamma   90.00000000
_symmetry_Int_Tables_number   1
_chemical_formula_structural   LiTh4ScSi4
_chemical_formula_sum   'Li1 Th4 Sc1 Si4'
_cell_volume   235.33177263
_cell_formula_units_Z   1
loop_
 _symmetry_equiv_pos_site_id
 _symmetry_equiv_pos_as_xyz
  1  'x, y, z'
loop_
 _atom_site_type_symbol
 _atom_site_label
 _atom_site_symmetry_multiplicity
 _atom_site_fract_x
 _atom_site_fract_y
 _atom_site_fract_z
 _atom_site_occupancy
  Li  Li0  1  0.000000  0.000000  0.000000  1
  Th  Th1  1  0.687425  0.171452  0.500000  1
  Th  Th2  1  0.312575  0.828548  0.500000  1
  Th  Th3  1  0.171452  0.312575  0.500000  1
  Th  Th4  1  0.828548  0.687425  0.500000  1
  Sc  Sc5  1  0.500000  0.500000  0.000000  1
  Si  Si6  1  0.126736  0.607245  0.000000  1
  Si  Si7  1  0.873264  0.392755  0.000000  1
  Si  Si8  1  0.607245  0.873264  0.000000  1
  Si  Si9  1  0.392755  0.126736  0.000000  1
