# generated using pymatgen
data_Zr12Si12RuRh3
_symmetry_space_group_name_H-M   'P 1'
_cell_length_a   3.91416400
_cell_length_b   10.42086749
_cell_length_c   11.79384703
_cell_angle_alpha   90.05711729
_cell_angle_beta   90.00000000
_cell_angle_gamma   90.00000000
_symmetry_Int_Tables_number   1
_chemical_formula_structural   Zr12Si12RuRh3
_chemical_formula_sum   'Zr12 Si12 Ru1 Rh3'
_cell_volume   481.05880331
_cell_formula_units_Z   1
loop_
 _symmetry_equiv_pos_site_id
 _symmetry_equiv_pos_as_xyz
  1  'x, y, z'
loop_
 _atom_site_type_symbol
 _atom_site_label
 _atom_site_symmetry_multiplicity
 _atom_site_fract_x
 _atom_site_fract_y
 _atom_site_fract_z
 _atom_site_occupancy
  Zr  Zr0  1  0.250000  0.876266  0.022397  1
  Zr  Zr1  1  0.250000  0.623342  0.522366  1
  Zr  Zr2  1  0.750000  0.123007  0.977629  1
  Zr  Zr3  1  0.750000  0.376777  0.478953  1
  Zr  Zr4  1  0.250000  0.927178  0.595678  1
  Zr  Zr5  1  0.250000  0.572929  0.095762  1
  Zr  Zr6  1  0.750000  0.073147  0.404342  1
  Zr  Zr7  1  0.750000  0.427038  0.902686  1
  Zr  Zr8  1  0.250000  0.657833  0.800356  1
  Zr  Zr9  1  0.250000  0.841991  0.300656  1
  Zr  Zr10  1  0.750000  0.341564  0.199547  1
  Zr  Zr11  1  0.750000  0.159078  0.699759  1
  Si  Si12  1  0.250000  0.016387  0.825103  1
  Si  Si13  1  0.250000  0.483255  0.324608  1
  Si  Si14  1  0.750000  0.983178  0.175278  1
  Si  Si15  1  0.750000  0.515542  0.675318  1
  Si  Si16  1  0.250000  0.249894  0.842878  1
  Si  Si17  1  0.250000  0.250166  0.343102  1
  Si  Si18  1  0.750000  0.750085  0.156484  1
  Si  Si19  1  0.750000  0.750017  0.656643  1
  Si  Si20  1  0.250000  0.195343  0.543054  1
  Si  Si21  1  0.250000  0.306636  0.042174  1
  Si  Si22  1  0.750000  0.806895  0.457816  1
  Si  Si23  1  0.750000  0.692774  0.957556  1
  Ru  Ru24  1  0.250000  0.385700  0.680509  1
  Rh  Rh25  1  0.250000  0.114208  0.181641  1
  Rh  Rh26  1  0.750000  0.614643  0.318697  1
  Rh  Rh27  1  0.750000  0.885126  0.819008  1
