# generated using pymatgen
data_H(AuF6)2
_symmetry_space_group_name_H-M   'P 1'
_cell_length_a   6.96888214
_cell_length_b   6.96888143
_cell_length_c   10.54607689
_cell_angle_alpha   69.27529824
_cell_angle_beta   69.27529893
_cell_angle_gamma   80.58370332
_symmetry_Int_Tables_number   1
_chemical_formula_structural   H(AuF6)2
_chemical_formula_sum   'H2 Au4 F24'
_cell_volume   447.60282519
_cell_formula_units_Z   2
loop_
 _symmetry_equiv_pos_site_id
 _symmetry_equiv_pos_as_xyz
  1  'x, y, z'
loop_
 _atom_site_type_symbol
 _atom_site_label
 _atom_site_symmetry_multiplicity
 _atom_site_fract_x
 _atom_site_fract_y
 _atom_site_fract_z
 _atom_site_occupancy
  H  H0  1  0.330363  0.669637  0.750000  1
  H  H1  1  0.669637  0.330363  0.250000  1
  Au  Au2  1  0.261964  0.249219  0.379995  1
  Au  Au3  1  0.249219  0.261964  0.879995  1
  Au  Au4  1  0.738036  0.750781  0.620005  1
  Au  Au5  1  0.750781  0.738036  0.120005  1
  F  F6  1  0.876130  0.831523  0.223449  1
  F  F7  1  0.123870  0.168477  0.776551  1
  F  F8  1  0.283392  0.982156  0.516932  1
  F  F9  1  0.984450  0.281614  0.494905  1
  F  F10  1  0.281614  0.984450  0.994905  1
  F  F11  1  0.362659  0.373493  0.480825  1
  F  F12  1  0.373493  0.362659  0.980825  1
  F  F13  1  0.831523  0.876130  0.723449  1
  F  F14  1  0.782722  0.442113  0.242925  1
  F  F15  1  0.017844  0.716608  0.983068  1
  F  F16  1  0.716608  0.017844  0.483068  1
  F  F17  1  0.982156  0.283392  0.016932  1
  F  F18  1  0.514856  0.242391  0.740701  1
  F  F19  1  0.637341  0.626507  0.519175  1
  F  F20  1  0.217278  0.557887  0.757075  1
  F  F21  1  0.626507  0.637341  0.019175  1
  F  F22  1  0.442113  0.782722  0.742925  1
  F  F23  1  0.757609  0.485144  0.759299  1
  F  F24  1  0.557887  0.217278  0.257075  1
  F  F25  1  0.485144  0.757609  0.259299  1
  F  F26  1  0.242391  0.514856  0.240701  1
  F  F27  1  0.718386  0.015550  0.005095  1
  F  F28  1  0.168477  0.123870  0.276551  1
  F  F29  1  0.015550  0.718386  0.505095  1
