# generated using pymatgen
data_NaMn(NbS2)6
_symmetry_space_group_name_H-M   'P 1'
_cell_length_a   5.82798400
_cell_length_b   5.82798556
_cell_length_c   13.47009000
_cell_angle_alpha   90.00000000
_cell_angle_beta   90.00000000
_cell_angle_gamma   119.99999114
_symmetry_Int_Tables_number   1
_chemical_formula_structural   NaMn(NbS2)6
_chemical_formula_sum   'Na1 Mn1 Nb6 S12'
_cell_volume   396.22145267
_cell_formula_units_Z   1
loop_
 _symmetry_equiv_pos_site_id
 _symmetry_equiv_pos_as_xyz
  1  'x, y, z'
loop_
 _atom_site_type_symbol
 _atom_site_label
 _atom_site_symmetry_multiplicity
 _atom_site_fract_x
 _atom_site_fract_y
 _atom_site_fract_z
 _atom_site_occupancy
  Na  Na0  1  0.333333  0.666667  0.250000  1
  Mn  Mn1  1  0.666667  0.333333  0.750000  1
  Nb  Nb2  1  0.000000  0.000000  0.523026  1
  Nb  Nb3  1  0.000000  0.000000  0.976974  1
  Nb  Nb4  1  0.333333  0.666667  0.976710  1
  Nb  Nb5  1  0.666667  0.333333  0.979143  1
  Nb  Nb6  1  0.666667  0.333333  0.520857  1
  Nb  Nb7  1  0.333333  0.666667  0.523290  1
  S  S8  1  0.331913  0.331482  0.405826  1
  S  S9  1  0.668518  0.000430  0.405826  1
  S  S10  1  0.999570  0.668087  0.405826  1
  S  S11  1  0.333073  0.333306  0.638352  1
  S  S12  1  0.000233  0.666927  0.638352  1
  S  S13  1  0.666694  0.999767  0.638352  1
  S  S14  1  0.666694  0.666927  0.861648  1
  S  S15  1  0.333073  0.999767  0.861648  1
  S  S16  1  0.000233  0.333306  0.861648  1
  S  S17  1  0.668518  0.668087  0.094174  1
  S  S18  1  0.999570  0.331482  0.094174  1
  S  S19  1  0.331913  0.000430  0.094174  1
