# generated using pymatgen
data_Tb5Co19SiP11
_symmetry_space_group_name_H-M   'P 1'
_cell_length_a   12.02944100
_cell_length_b   12.02386318
_cell_length_c   3.68811100
_cell_angle_alpha   90.00000000
_cell_angle_beta   90.00000000
_cell_angle_gamma   120.01534949
_symmetry_Int_Tables_number   1
_chemical_formula_structural   Tb5Co19SiP11
_chemical_formula_sum   'Tb5 Co19 Si1 P11'
_cell_volume   461.90949901
_cell_formula_units_Z   1
loop_
 _symmetry_equiv_pos_site_id
 _symmetry_equiv_pos_as_xyz
  1  'x, y, z'
loop_
 _atom_site_type_symbol
 _atom_site_label
 _atom_site_symmetry_multiplicity
 _atom_site_fract_x
 _atom_site_fract_y
 _atom_site_fract_z
 _atom_site_occupancy
  Tb  Tb0  1  0.333817  0.667681  0.000000  1
  Tb  Tb1  1  0.666138  0.332319  0.000000  1
  Tb  Tb2  1  0.184981  0.000000  0.500000  1
  Tb  Tb3  1  0.000108  0.188172  0.500000  1
  Tb  Tb4  1  0.811936  0.811828  0.500000  1
  Co  Co5  1  0.200032  0.378625  0.000000  1
  Co  Co6  1  0.622687  0.821596  0.000000  1
  Co  Co7  1  0.174116  0.795856  0.000000  1
  Co  Co8  1  0.821408  0.621375  0.000000  1
  Co  Co9  1  0.801091  0.178404  0.000000  1
  Co  Co10  1  0.378260  0.204144  0.000000  1
  Co  Co11  1  0.558350  0.000000  0.000000  1
  Co  Co12  1  0.998008  0.551740  0.000000  1
  Co  Co13  1  0.446269  0.448260  0.000000  1
  Co  Co14  1  0.124508  0.483676  0.500000  1
  Co  Co15  1  0.516247  0.641320  0.500000  1
  Co  Co16  1  0.359181  0.873143  0.500000  1
  Co  Co17  1  0.640832  0.516324  0.500000  1
  Co  Co18  1  0.874928  0.358680  0.500000  1
  Co  Co19  1  0.486038  0.126857  0.500000  1
  Co  Co20  1  0.716210  0.000000  0.500000  1
  Co  Co21  1  0.998675  0.713585  0.500000  1
  Co  Co22  1  0.285090  0.286415  0.500000  1
  Co  Co23  1  0.000096  0.000000  0.000000  1
  Si  Si24  1  0.369994  0.000000  0.000000  1
  P  P25  1  0.000084  0.369224  0.000000  1
  P  P26  1  0.630860  0.630776  0.000000  1
  P  P27  1  0.313456  0.480270  0.500000  1
  P  P28  1  0.521453  0.834801  0.500000  1
  P  P29  1  0.166217  0.686843  0.500000  1
  P  P30  1  0.833186  0.519730  0.500000  1
  P  P31  1  0.686652  0.165199  0.500000  1
  P  P32  1  0.479374  0.313157  0.500000  1
  P  P33  1  0.819084  0.000000  0.000000  1
  P  P34  1  0.999253  0.817872  0.000000  1
  P  P35  1  0.181381  0.182128  0.000000  1
