# generated using pymatgen
data_La3Th5Rh8
_symmetry_space_group_name_H-M   'P 1'
_cell_length_a   4.17713400
_cell_length_b   6.01451480
_cell_length_c   15.07092500
_cell_angle_alpha   89.66338797
_cell_angle_beta   90.00000000
_cell_angle_gamma   90.00000000
_symmetry_Int_Tables_number   1
_chemical_formula_structural   La3Th5Rh8
_chemical_formula_sum   'La3 Th5 Rh8'
_cell_volume   378.62685899
_cell_formula_units_Z   1
loop_
 _symmetry_equiv_pos_site_id
 _symmetry_equiv_pos_as_xyz
  1  'x, y, z'
loop_
 _atom_site_type_symbol
 _atom_site_label
 _atom_site_symmetry_multiplicity
 _atom_site_fract_x
 _atom_site_fract_y
 _atom_site_fract_z
 _atom_site_occupancy
  La  La0  1  0.250000  0.544162  0.284020  1
  La  La1  1  0.750000  0.459998  0.716487  1
  La  La2  1  0.250000  0.959861  0.783969  1
  Th  Th3  1  0.250000  0.755103  0.534460  1
  Th  Th4  1  0.250000  0.740907  0.035574  1
  Th  Th5  1  0.750000  0.248865  0.965972  1
  Th  Th6  1  0.750000  0.041583  0.215429  1
  Th  Th7  1  0.750000  0.249205  0.464211  1
  Rh  Rh8  1  0.250000  0.057939  0.351495  1
  Rh  Rh9  1  0.750000  0.559352  0.143218  1
  Rh  Rh10  1  0.750000  0.729346  0.407458  1
  Rh  Rh11  1  0.250000  0.440615  0.862448  1
  Rh  Rh12  1  0.750000  0.945466  0.637682  1
  Rh  Rh13  1  0.750000  0.777987  0.908028  1
  Rh  Rh14  1  0.250000  0.210134  0.099119  1
  Rh  Rh15  1  0.250000  0.279476  0.590427  1
