# generated using pymatgen
data_Pr12FePI17
_symmetry_space_group_name_H-M   'P 1'
_cell_length_a   10.07250922
_cell_length_b   12.04379203
_cell_length_c   12.06553937
_cell_angle_alpha   93.49091131
_cell_angle_beta   104.80075123
_cell_angle_gamma   114.66500337
_symmetry_Int_Tables_number   1
_chemical_formula_structural   Pr12FePI17
_chemical_formula_sum   'Pr12 Fe1 P1 I17'
_cell_volume   1262.42439538
_cell_formula_units_Z   1
loop_
 _symmetry_equiv_pos_site_id
 _symmetry_equiv_pos_as_xyz
  1  'x, y, z'
loop_
 _atom_site_type_symbol
 _atom_site_label
 _atom_site_symmetry_multiplicity
 _atom_site_fract_x
 _atom_site_fract_y
 _atom_site_fract_z
 _atom_site_occupancy
  Pr  Pr0  1  0.055243  0.508133  0.321757  1
  Pr  Pr1  1  0.988857  0.810577  0.580528  1
  Pr  Pr2  1  0.648363  0.240827  0.283237  1
  Pr  Pr3  1  0.009177  0.190323  0.415044  1
  Pr  Pr4  1  0.221956  0.669232  0.990493  1
  Pr  Pr5  1  0.263256  0.987617  0.895583  1
  Pr  Pr6  1  0.357218  0.759666  0.717161  1
  Pr  Pr7  1  0.941898  0.486928  0.675517  1
  Pr  Pr8  1  0.741639  0.016987  0.108665  1
  Pr  Pr9  1  0.147791  0.286626  0.151346  1
  Pr  Pr10  1  0.778362  0.329139  0.012935  1
  Pr  Pr11  1  0.849450  0.713016  0.850969  1
  Fe  Fe12  1  0.895878  0.261884  0.214313  1
  P  P13  1  0.103736  0.738031  0.784221  1
  I  I14  1  0.785687  0.531439  0.421152  1
  I  I15  1  0.643976  0.421900  0.756337  1
  I  I16  1  0.842271  0.892720  0.324951  1
  I  I17  1  0.325551  0.212561  0.370296  1
  I  I18  1  0.157569  0.102356  0.677955  1
  I  I19  1  0.582141  0.049503  0.839446  1
  I  I20  1  0.753550  0.181980  0.539203  1
  I  I21  1  0.543531  0.704140  0.951444  1
  I  I22  1  0.361019  0.582944  0.241848  1
  I  I23  1  0.216056  0.473923  0.586229  1
  I  I24  1  0.056674  0.370661  0.893967  1
  I  I25  1  0.450908  0.293246  0.045817  1
  I  I26  1  0.999839  0.997167  0.996881  1
  I  I27  1  0.246857  0.819554  0.465831  1
  I  I28  1  0.407694  0.943603  0.154302  1
  I  I29  1  0.677235  0.787561  0.631060  1
  I  I30  1  0.946617  0.635757  0.101513  1
