# generated using pymatgen
data_Tb10Ge3Pb3O2
_symmetry_space_group_name_H-M   'P 1'
_cell_length_a   8.86628485
_cell_length_b   8.86628501
_cell_length_c   8.83912400
_cell_angle_alpha   126.08816536
_cell_angle_beta   126.08815815
_cell_angle_gamma   79.95335013
_symmetry_Int_Tables_number   1
_chemical_formula_structural   Tb10Ge3Pb3O2
_chemical_formula_sum   'Tb10 Ge3 Pb3 O2'
_cell_volume   437.65155171
_cell_formula_units_Z   1
loop_
 _symmetry_equiv_pos_site_id
 _symmetry_equiv_pos_as_xyz
  1  'x, y, z'
loop_
 _atom_site_type_symbol
 _atom_site_label
 _atom_site_symmetry_multiplicity
 _atom_site_fract_x
 _atom_site_fract_y
 _atom_site_fract_z
 _atom_site_occupancy
  Tb  Tb0  1  0.008321  0.207276  0.500000  1
  Tb  Tb1  1  0.794056  0.303267  0.806489  1
  Tb  Tb2  1  0.503221  0.012433  0.806489  1
  Tb  Tb3  1  0.487567  0.996779  0.193511  1
  Tb  Tb4  1  0.999886  0.787172  0.500000  1
  Tb  Tb5  1  0.495617  0.493551  0.989167  1
  Tb  Tb6  1  0.196733  0.705944  0.193511  1
  Tb  Tb7  1  0.712828  0.500114  0.500000  1
  Tb  Tb8  1  0.292724  0.491679  0.500000  1
  Tb  Tb9  1  0.006449  0.004383  0.010833  1
  Ge  Ge10  1  0.851792  0.350510  0.202301  1
  Ge  Ge11  1  0.149490  0.648208  0.797699  1
  Ge  Ge12  1  0.352537  0.147463  0.500000  1
  Pb  Pb13  1  0.749091  0.750909  0.000000  1
  Pb  Pb14  1  0.646093  0.853907  0.500000  1
  Pb  Pb15  1  0.249091  0.250909  0.000000  1
  O  O16  1  0.751572  0.247071  0.500000  1
  O  O17  1  0.252929  0.748428  0.500000  1
