# generated using pymatgen
data_Na2LiSc(CoH6)2
_symmetry_space_group_name_H-M   'P 1'
_cell_length_a   6.70672400
_cell_length_b   6.70672400
_cell_length_c   6.64374100
_cell_angle_alpha   90.00000000
_cell_angle_beta   90.00000000
_cell_angle_gamma   90.00000000
_symmetry_Int_Tables_number   1
_chemical_formula_structural   Na2LiSc(CoH6)2
_chemical_formula_sum   'Na4 Li2 Sc2 Co4 H24'
_cell_volume   298.83644556
_cell_formula_units_Z   2
loop_
 _symmetry_equiv_pos_site_id
 _symmetry_equiv_pos_as_xyz
  1  'x, y, z'
loop_
 _atom_site_type_symbol
 _atom_site_label
 _atom_site_symmetry_multiplicity
 _atom_site_fract_x
 _atom_site_fract_y
 _atom_site_fract_z
 _atom_site_occupancy
  Na  Na0  1  0.000000  0.000000  0.500000  1
  Na  Na1  1  0.000000  0.500000  0.000000  1
  Na  Na2  1  0.500000  0.000000  0.000000  1
  Na  Na3  1  0.000000  0.000000  0.000000  1
  Li  Li4  1  0.000000  0.500000  0.500000  1
  Li  Li5  1  0.500000  0.000000  0.500000  1
  Sc  Sc6  1  0.500000  0.500000  0.500000  1
  Sc  Sc7  1  0.500000  0.500000  0.000000  1
  Co  Co8  1  0.277951  0.722049  0.742479  1
  Co  Co9  1  0.722049  0.277951  0.742479  1
  Co  Co10  1  0.722049  0.722049  0.257521  1
  Co  Co11  1  0.277951  0.277951  0.257521  1
  H  H12  1  0.731085  0.731085  0.486937  1
  H  H13  1  0.268915  0.268915  0.486937  1
  H  H14  1  0.050944  0.732236  0.737017  1
  H  H15  1  0.267764  0.949056  0.737017  1
  H  H16  1  0.732236  0.050944  0.737017  1
  H  H17  1  0.949056  0.267764  0.737017  1
  H  H18  1  0.731162  0.507879  0.744502  1
  H  H19  1  0.507879  0.731162  0.744502  1
  H  H20  1  0.492121  0.268838  0.744502  1
  H  H21  1  0.268838  0.492121  0.744502  1
  H  H22  1  0.268436  0.731564  0.974590  1
  H  H23  1  0.731564  0.268436  0.974590  1
  H  H24  1  0.731564  0.731564  0.025410  1
  H  H25  1  0.268436  0.268436  0.025410  1
  H  H26  1  0.268838  0.507879  0.255498  1
  H  H27  1  0.492121  0.731162  0.255498  1
  H  H28  1  0.507879  0.268838  0.255498  1
  H  H29  1  0.731162  0.492121  0.255498  1
  H  H30  1  0.949056  0.732236  0.262983  1
  H  H31  1  0.732236  0.949056  0.262983  1
  H  H32  1  0.267764  0.050944  0.262983  1
  H  H33  1  0.050944  0.267764  0.262983  1
  H  H34  1  0.268915  0.731085  0.513063  1
  H  H35  1  0.731085  0.268915  0.513063  1
