# generated using pymatgen
data_Y4Th3Sn23Os6
_symmetry_space_group_name_H-M   'P 1'
_cell_length_a   9.90282506
_cell_length_b   9.90282512
_cell_length_c   10.23824021
_cell_angle_alpha   89.84602891
_cell_angle_beta   90.15397148
_cell_angle_gamma   119.94783086
_symmetry_Int_Tables_number   1
_chemical_formula_structural   Y4Th3Sn23Os6
_chemical_formula_sum   'Y4 Th3 Sn23 Os6'
_cell_volume   869.96170429
_cell_formula_units_Z   1
loop_
 _symmetry_equiv_pos_site_id
 _symmetry_equiv_pos_as_xyz
  1  'x, y, z'
loop_
 _atom_site_type_symbol
 _atom_site_label
 _atom_site_symmetry_multiplicity
 _atom_site_fract_x
 _atom_site_fract_y
 _atom_site_fract_z
 _atom_site_occupancy
  Y  Y0  1  0.481514  0.518486  0.304054  1
  Y  Y1  1  0.965754  0.482824  0.696280  1
  Y  Y2  1  0.517176  0.034246  0.696280  1
  Y  Y3  1  0.516936  0.483064  0.698180  1
  Th  Th4  1  0.000177  0.999823  0.993031  1
  Th  Th5  1  0.034763  0.517811  0.303165  1
  Th  Th6  1  0.482189  0.965237  0.303165  1
  Sn  Sn7  1  0.998903  0.001097  0.501034  1
  Sn  Sn8  1  0.114526  0.885474  0.279857  1
  Sn  Sn9  1  0.767913  0.881182  0.278900  1
  Sn  Sn10  1  0.118818  0.232087  0.278900  1
  Sn  Sn11  1  0.882441  0.117559  0.720103  1
  Sn  Sn12  1  0.236570  0.118756  0.719874  1
  Sn  Sn13  1  0.881244  0.763430  0.719874  1
  Sn  Sn14  1  0.351317  0.000915  0.997464  1
  Sn  Sn15  1  0.649568  0.648194  0.000225  1
  Sn  Sn16  1  0.998408  0.349570  0.998267  1
  Sn  Sn17  1  0.351806  0.350432  0.000225  1
  Sn  Sn18  1  0.999085  0.648683  0.997464  1
  Sn  Sn19  1  0.650430  0.001592  0.998267  1
  Sn  Sn20  1  0.775667  0.561755  0.460240  1
  Sn  Sn21  1  0.780558  0.219442  0.463884  1
  Sn  Sn22  1  0.438245  0.224333  0.460240  1
  Sn  Sn23  1  0.219166  0.436837  0.545247  1
  Sn  Sn24  1  0.218428  0.781572  0.546352  1
  Sn  Sn25  1  0.563163  0.780834  0.545247  1
  Sn  Sn26  1  0.665223  0.334777  0.171515  1
  Sn  Sn27  1  0.333448  0.666552  0.823338  1
  Sn  Sn28  1  0.666859  0.333141  0.876382  1
  Sn  Sn29  1  0.336560  0.663440  0.115894  1
  Os  Os30  1  0.167308  0.832692  0.801605  1
  Os  Os31  1  0.665070  0.832422  0.802408  1
  Os  Os32  1  0.167578  0.334930  0.802408  1
  Os  Os33  1  0.830175  0.169825  0.201670  1
  Os  Os34  1  0.340133  0.167119  0.199480  1
  Os  Os35  1  0.832881  0.659867  0.199480  1
