# generated using pymatgen
data_La15YbCd2In2(CoOs)2
_symmetry_space_group_name_H-M   'P 1'
_cell_length_a   10.06873076
_cell_length_b   9.99128084
_cell_length_c   9.98978000
_cell_angle_alpha   60.18539042
_cell_angle_beta   60.57845453
_cell_angle_gamma   59.76840908
_symmetry_Int_Tables_number   1
_chemical_formula_structural   La15YbCd2In2(CoOs)2
_chemical_formula_sum   'La15 Yb1 Cd2 In2 Co2 Os2'
_cell_volume   713.40333655
_cell_formula_units_Z   1
loop_
 _symmetry_equiv_pos_site_id
 _symmetry_equiv_pos_as_xyz
  1  'x, y, z'
loop_
 _atom_site_type_symbol
 _atom_site_label
 _atom_site_symmetry_multiplicity
 _atom_site_fract_x
 _atom_site_fract_y
 _atom_site_fract_z
 _atom_site_occupancy
  La  La0  1  0.562881  0.937674  0.559481  1
  La  La1  1  0.562124  0.944077  0.934674  1
  La  La2  1  0.681662  0.692544  0.310231  1
  La  La3  1  0.157926  0.150990  0.538487  1
  La  La4  1  0.305323  0.694000  0.684969  1
  La  La5  1  0.157686  0.151053  0.159516  1
  La  La6  1  0.538123  0.153079  0.158884  1
  La  La7  1  0.305161  0.690599  0.311388  1
  La  La8  1  0.309065  0.311941  0.685442  1
  La  La9  1  0.689331  0.308300  0.688249  1
  La  La10  1  0.936137  0.560222  0.556438  1
  La  La11  1  0.557752  0.559287  0.935875  1
  La  La12  1  0.157584  0.537089  0.155578  1
  La  La13  1  0.685489  0.308952  0.311545  1
  La  La14  1  0.940481  0.558801  0.942212  1
  Yb  Yb15  1  0.935319  0.942725  0.560513  1
  Cd  Cd16  1  0.920826  0.922078  0.237297  1
  Cd  Cd17  1  0.921532  0.236615  0.922093  1
  In  In18  1  0.237178  0.921356  0.921731  1
  In  In19  1  0.921621  0.921850  0.920091  1
  Co  Co20  1  0.369257  0.914182  0.363581  1
  Co  Co21  1  0.365003  0.356707  0.364134  1
  Os  Os22  1  0.916488  0.366174  0.361605  1
  Os  Os23  1  0.366050  0.359701  0.915985  1
