# generated using pymatgen
data_MgCo2(PIr)3
_symmetry_space_group_name_H-M   'P 1'
_cell_length_a   3.74639400
_cell_length_b   10.63280700
_cell_length_c   12.13867200
_cell_angle_alpha   90.00000000
_cell_angle_beta   90.00000000
_cell_angle_gamma   90.00000000
_symmetry_Int_Tables_number   1
_chemical_formula_structural   MgCo2(PIr)3
_chemical_formula_sum   'Mg4 Co8 P12 Ir12'
_cell_volume   483.54016752
_cell_formula_units_Z   4
loop_
 _symmetry_equiv_pos_site_id
 _symmetry_equiv_pos_as_xyz
  1  'x, y, z'
loop_
 _atom_site_type_symbol
 _atom_site_label
 _atom_site_symmetry_multiplicity
 _atom_site_fract_x
 _atom_site_fract_y
 _atom_site_fract_z
 _atom_site_occupancy
  Mg  Mg0  1  0.250000  0.914566  0.210909  1
  Mg  Mg1  1  0.750000  0.085434  0.789091  1
  Mg  Mg2  1  0.750000  0.414566  0.289091  1
  Mg  Mg3  1  0.250000  0.585434  0.710909  1
  Co  Co4  1  0.250000  0.615821  0.196638  1
  Co  Co5  1  0.750000  0.384179  0.803362  1
  Co  Co6  1  0.750000  0.115821  0.303362  1
  Co  Co7  1  0.250000  0.884179  0.696638  1
  Co  Co8  1  0.250000  0.036454  0.431347  1
  Co  Co9  1  0.750000  0.963546  0.568653  1
  Co  Co10  1  0.750000  0.536454  0.068653  1
  Co  Co11  1  0.250000  0.463546  0.931347  1
  P  P12  1  0.250000  0.068958  0.612330  1
  P  P13  1  0.750000  0.931042  0.387670  1
  P  P14  1  0.750000  0.568958  0.887670  1
  P  P15  1  0.250000  0.431042  0.112330  1
  P  P16  1  0.250000  0.228308  0.370505  1
  P  P17  1  0.750000  0.771692  0.629495  1
  P  P18  1  0.750000  0.728308  0.129495  1
  P  P19  1  0.250000  0.271692  0.870505  1
  P  P20  1  0.250000  0.902436  0.875674  1
  P  P21  1  0.750000  0.097564  0.124326  1
  P  P22  1  0.750000  0.402436  0.624326  1
  P  P23  1  0.250000  0.597564  0.375674  1
  Ir  Ir24  1  0.250000  0.778557  0.491580  1
  Ir  Ir25  1  0.750000  0.221443  0.508420  1
  Ir  Ir26  1  0.750000  0.278557  0.008420  1
  Ir  Ir27  1  0.250000  0.721443  0.991580  1
  Ir  Ir28  1  0.250000  0.088725  0.971282  1
  Ir  Ir29  1  0.750000  0.911275  0.028718  1
  Ir  Ir30  1  0.750000  0.588725  0.528718  1
  Ir  Ir31  1  0.250000  0.411275  0.471282  1
  Ir  Ir32  1  0.250000  0.269808  0.681072  1
  Ir  Ir33  1  0.750000  0.730192  0.318928  1
  Ir  Ir34  1  0.750000  0.769808  0.818928  1
  Ir  Ir35  1  0.250000  0.230192  0.181072  1
