# generated using pymatgen
data_LaPr3HoIn3
_symmetry_space_group_name_H-M   'P 1'
_cell_length_a   6.21013327
_cell_length_b   9.51758028
_cell_length_c   9.47853170
_cell_angle_alpha   84.00326434
_cell_angle_beta   70.84154318
_cell_angle_gamma   70.96216492
_symmetry_Int_Tables_number   1
_chemical_formula_structural   LaPr3HoIn3
_chemical_formula_sum   'La2 Pr6 Ho2 In6'
_cell_volume   500.25631242
_cell_formula_units_Z   2
loop_
 _symmetry_equiv_pos_site_id
 _symmetry_equiv_pos_as_xyz
  1  'x, y, z'
loop_
 _atom_site_type_symbol
 _atom_site_label
 _atom_site_symmetry_multiplicity
 _atom_site_fract_x
 _atom_site_fract_y
 _atom_site_fract_z
 _atom_site_occupancy
  La  La0  1  0.723766  0.862974  0.689148  1
  La  La1  1  0.276234  0.137026  0.310852  1
  Pr  Pr2  1  0.777569  0.309139  0.136390  1
  Pr  Pr3  1  0.222431  0.690861  0.863610  1
  Pr  Pr4  1  0.585623  0.691332  0.136888  1
  Pr  Pr5  1  0.414377  0.308668  0.863112  1
  Pr  Pr6  1  0.086325  0.136382  0.690526  1
  Pr  Pr7  1  0.913675  0.863618  0.309474  1
  Ho  Ho8  1  0.750013  0.499998  0.499943  1
  Ho  Ho9  1  0.249987  0.500002  0.500057  1
  In  In10  1  0.156101  0.501510  0.185744  1
  In  In11  1  0.843899  0.498490  0.814256  1
  In  In12  1  0.343449  0.813396  0.499796  1
  In  In13  1  0.656551  0.186604  0.500204  1
  In  In14  1  0.248179  0.000135  0.999906  1
  In  In15  1  0.751821  0.999865  0.000094  1
