# generated using pymatgen
data_MgScFe10Ni2P7
_symmetry_space_group_name_H-M   'P 1'
_cell_length_a   8.85314006
_cell_length_b   8.91001420
_cell_length_c   3.57571700
_cell_angle_alpha   90.00000000
_cell_angle_beta   90.00000000
_cell_angle_gamma   119.39185421
_symmetry_Int_Tables_number   1
_chemical_formula_structural   MgScFe10Ni2P7
_chemical_formula_sum   'Mg1 Sc1 Fe10 Ni2 P7'
_cell_volume   245.75276157
_cell_formula_units_Z   1
loop_
 _symmetry_equiv_pos_site_id
 _symmetry_equiv_pos_as_xyz
  1  'x, y, z'
loop_
 _atom_site_type_symbol
 _atom_site_label
 _atom_site_symmetry_multiplicity
 _atom_site_fract_x
 _atom_site_fract_y
 _atom_site_fract_z
 _atom_site_occupancy
  Mg  Mg0  1  0.673265  0.341102  0.500000  1
  Sc  Sc1  1  0.329503  0.661859  0.000000  1
  Fe  Fe2  1  0.383421  0.434249  0.500000  1
  Fe  Fe3  1  0.050515  0.612769  0.500000  1
  Fe  Fe4  1  0.221021  0.097977  0.500000  1
  Fe  Fe5  1  0.878509  0.783913  0.500000  1
  Fe  Fe6  1  0.901365  0.122915  0.500000  1
  Fe  Fe7  1  0.719392  0.880109  0.000000  1
  Fe  Fe8  1  0.120382  0.843996  0.000000  1
  Fe  Fe9  1  0.153986  0.271144  0.000000  1
  Fe  Fe10  1  0.941949  0.373913  0.000000  1
  Fe  Fe11  1  0.628095  0.568470  0.000000  1
  Ni  Ni12  1  0.438628  0.063741  0.000000  1
  Ni  Ni13  1  0.559129  0.947474  0.500000  1
  P  P14  1  0.995957  0.997351  0.000000  1
  P  P15  1  0.414444  0.300407  0.000000  1
  P  P16  1  0.594876  0.705547  0.500000  1
  P  P17  1  0.279315  0.874488  0.500000  1
  P  P18  1  0.116245  0.404202  0.500000  1
  P  P19  1  0.715069  0.124125  0.000000  1
  P  P20  1  0.884934  0.590246  0.000000  1
