# generated using pymatgen
data_Hf2Mn(NiAs)4
_symmetry_space_group_name_H-M   'P 1'
_cell_length_a   6.19431223
_cell_length_b   3.80550700
_cell_length_c   7.19063987
_cell_angle_alpha   90.00000000
_cell_angle_beta   89.11914747
_cell_angle_gamma   90.00000000
_symmetry_Int_Tables_number   1
_chemical_formula_structural   Hf2Mn(NiAs)4
_chemical_formula_sum   'Hf2 Mn1 Ni4 As4'
_cell_volume   169.48131718
_cell_formula_units_Z   1
loop_
 _symmetry_equiv_pos_site_id
 _symmetry_equiv_pos_as_xyz
  1  'x, y, z'
loop_
 _atom_site_type_symbol
 _atom_site_label
 _atom_site_symmetry_multiplicity
 _atom_site_fract_x
 _atom_site_fract_y
 _atom_site_fract_z
 _atom_site_occupancy
  Hf  Hf0  1  0.467956  0.749998  0.314759  1
  Hf  Hf1  1  0.531880  0.249998  0.691896  1
  Mn  Mn2  1  0.979051  0.749998  0.179127  1
  Ni  Ni3  1  0.638869  0.249998  0.058879  1
  Ni  Ni4  1  0.154159  0.249998  0.440510  1
  Ni  Ni5  1  0.851778  0.749998  0.562395  1
  Ni  Ni6  1  0.365416  0.749998  0.944489  1
  As  As7  1  0.242104  0.249998  0.107425  1
  As  As8  1  0.776551  0.249998  0.369864  1
  As  As9  1  0.222833  0.749998  0.638929  1
  As  As10  1  0.767372  0.749998  0.888988  1
