# generated using pymatgen
data_TbYbCo4
_symmetry_space_group_name_H-M   'P 1'
_cell_length_a   5.05104587
_cell_length_b   5.05104553
_cell_length_c   5.05104500
_cell_angle_alpha   59.99999695
_cell_angle_beta   59.99999914
_cell_angle_gamma   59.99998967
_symmetry_Int_Tables_number   1
_chemical_formula_structural   TbYbCo4
_chemical_formula_sum   'Tb1 Yb1 Co4'
_cell_volume   91.12316358
_cell_formula_units_Z   1
loop_
 _symmetry_equiv_pos_site_id
 _symmetry_equiv_pos_as_xyz
  1  'x, y, z'
loop_
 _atom_site_type_symbol
 _atom_site_label
 _atom_site_symmetry_multiplicity
 _atom_site_fract_x
 _atom_site_fract_y
 _atom_site_fract_z
 _atom_site_occupancy
  Tb  Tb0  1  0.000000  0.000000  0.000000  1
  Yb  Yb1  1  0.250000  0.250000  0.250000  1
  Co  Co2  1  0.625020  0.625020  0.124941  1
  Co  Co3  1  0.625020  0.124941  0.625020  1
  Co  Co4  1  0.124941  0.625020  0.625020  1
  Co  Co5  1  0.625020  0.625020  0.625020  1
