# generated using pymatgen
data_Hf6FeCo14Si7Ir
_symmetry_space_group_name_H-M   'P 1'
_cell_length_a   8.04799864
_cell_length_b   8.05152315
_cell_length_c   8.06925915
_cell_angle_alpha   60.10148031
_cell_angle_beta   60.08712942
_cell_angle_gamma   60.01448491
_symmetry_Int_Tables_number   1
_chemical_formula_structural   Hf6FeCo14Si7Ir
_chemical_formula_sum   'Hf6 Fe1 Co14 Si7 Ir1'
_cell_volume   370.29668951
_cell_formula_units_Z   1
loop_
 _symmetry_equiv_pos_site_id
 _symmetry_equiv_pos_as_xyz
  1  'x, y, z'
loop_
 _atom_site_type_symbol
 _atom_site_label
 _atom_site_symmetry_multiplicity
 _atom_site_fract_x
 _atom_site_fract_y
 _atom_site_fract_z
 _atom_site_occupancy
  Hf  Hf0  1  0.204834  0.795977  0.794356  1
  Hf  Hf1  1  0.798672  0.796804  0.204286  1
  Hf  Hf2  1  0.796903  0.201072  0.205121  1
  Hf  Hf3  1  0.205520  0.205409  0.792789  1
  Hf  Hf4  1  0.796283  0.205409  0.792789  1
  Hf  Hf5  1  0.200237  0.796804  0.204286  1
  Fe  Fe6  1  0.173864  0.476851  0.175423  1
  Co  Co7  1  0.860083  0.379388  0.383196  1
  Co  Co8  1  0.506181  0.833845  0.827200  1
  Co  Co9  1  0.485762  0.170776  0.172146  1
  Co  Co10  1  0.829191  0.830763  0.510852  1
  Co  Co11  1  0.171901  0.171445  0.484754  1
  Co  Co12  1  0.139713  0.620575  0.619755  1
  Co  Co13  1  0.171318  0.170776  0.172146  1
  Co  Co14  1  0.378806  0.380591  0.861796  1
  Co  Co15  1  0.619957  0.620575  0.619755  1
  Co  Co16  1  0.378054  0.859745  0.384146  1
  Co  Co17  1  0.377332  0.379388  0.383196  1
  Co  Co18  1  0.832772  0.833845  0.827200  1
  Co  Co19  1  0.619917  0.140286  0.619880  1
  Co  Co20  1  0.832985  0.506381  0.827648  1
  Si  Si21  1  0.500539  0.000500  0.498587  1
  Si  Si22  1  0.501371  0.499839  0.992771  1
  Si  Si23  1  0.495635  0.494891  0.513838  1
  Si  Si24  1  0.000373  0.000500  0.498587  1
  Si  Si25  1  0.006019  0.499839  0.992771  1
  Si  Si26  1  0.998842  0.501521  0.500795  1
  Si  Si27  1  0.499221  0.007488  0.994069  1
  Ir  Ir28  1  0.617714  0.618713  0.145858  1
