# generated using pymatgen
data_Tb4DyTc3(P3Ir4)4
_symmetry_space_group_name_H-M   'P 1'
_cell_length_a   12.67176500
_cell_length_b   12.67176577
_cell_length_c   3.98526200
_cell_angle_alpha   90.00000000
_cell_angle_beta   90.00000000
_cell_angle_gamma   120.00000060
_symmetry_Int_Tables_number   1
_chemical_formula_structural   Tb4DyTc3(P3Ir4)4
_chemical_formula_sum   'Tb4 Dy1 Tc3 P12 Ir16'
_cell_volume   554.19391643
_cell_formula_units_Z   1
loop_
 _symmetry_equiv_pos_site_id
 _symmetry_equiv_pos_as_xyz
  1  'x, y, z'
loop_
 _atom_site_type_symbol
 _atom_site_label
 _atom_site_symmetry_multiplicity
 _atom_site_fract_x
 _atom_site_fract_y
 _atom_site_fract_z
 _atom_site_occupancy
  Tb  Tb0  1  0.333333  0.666667  0.500000  1
  Tb  Tb1  1  0.999994  0.816376  0.000000  1
  Tb  Tb2  1  0.183624  0.183618  0.000000  1
  Tb  Tb3  1  0.816382  0.000006  0.000000  1
  Dy  Dy4  1  0.666667  0.333333  0.500000  1
  Tc  Tc5  1  0.999948  0.455324  0.500000  1
  Tc  Tc6  1  0.544676  0.544624  0.500000  1
  Tc  Tc7  1  0.455376  0.000052  0.500000  1
  P  P8  1  0.000036  0.638575  0.500000  1
  P  P9  1  0.361425  0.361460  0.500000  1
  P  P10  1  0.638540  0.999964  0.500000  1
  P  P11  1  0.515641  0.685247  0.000000  1
  P  P12  1  0.314753  0.830394  0.000000  1
  P  P13  1  0.169606  0.484359  0.000000  1
  P  P14  1  0.484547  0.169834  0.000000  1
  P  P15  1  0.685287  0.515453  0.000000  1
  P  P16  1  0.830166  0.314713  0.000000  1
  P  P17  1  0.999968  0.176847  0.500000  1
  P  P18  1  0.823153  0.823122  0.500000  1
  P  P19  1  0.176878  0.000032  0.500000  1
  Ir  Ir20  1  0.510296  0.868842  0.000000  1
  Ir  Ir21  1  0.131158  0.641455  0.000000  1
  Ir  Ir22  1  0.358545  0.489704  0.000000  1
  Ir  Ir23  1  0.490115  0.358500  0.000000  1
  Ir  Ir24  1  0.868386  0.509885  0.000000  1
  Ir  Ir25  1  0.641500  0.131614  0.000000  1
  Ir  Ir26  1  0.999912  0.290434  0.000000  1
  Ir  Ir27  1  0.709566  0.709479  0.000000  1
  Ir  Ir28  1  0.290521  0.000088  0.000000  1
  Ir  Ir29  1  0.626435  0.805312  0.500000  1
  Ir  Ir30  1  0.194688  0.821124  0.500000  1
  Ir  Ir31  1  0.178876  0.373565  0.500000  1
  Ir  Ir32  1  0.373716  0.178984  0.500000  1
  Ir  Ir33  1  0.805268  0.626284  0.500000  1
  Ir  Ir34  1  0.821016  0.194732  0.500000  1
  Ir  Ir35  1  0.000000  0.000000  0.500000  1
