# generated using pymatgen
data_PrAl2Au5
_symmetry_space_group_name_H-M   'P 1'
_cell_length_a   7.35026500
_cell_length_b   8.77101300
_cell_length_c   9.84943000
_cell_angle_alpha   90.00000000
_cell_angle_beta   90.00000000
_cell_angle_gamma   90.00000000
_symmetry_Int_Tables_number   1
_chemical_formula_structural   PrAl2Au5
_chemical_formula_sum   'Pr4 Al8 Au20'
_cell_volume   634.98556072
_cell_formula_units_Z   4
loop_
 _symmetry_equiv_pos_site_id
 _symmetry_equiv_pos_as_xyz
  1  'x, y, z'
loop_
 _atom_site_type_symbol
 _atom_site_label
 _atom_site_symmetry_multiplicity
 _atom_site_fract_x
 _atom_site_fract_y
 _atom_site_fract_z
 _atom_site_occupancy
  Pr  Pr0  1  0.250000  0.252379  0.124512  1
  Pr  Pr1  1  0.250000  0.752379  0.375488  1
  Pr  Pr2  1  0.750000  0.747621  0.875488  1
  Pr  Pr3  1  0.750000  0.247621  0.624512  1
  Al  Al4  1  0.250000  0.044504  0.611572  1
  Al  Al5  1  0.250000  0.544504  0.888428  1
  Al  Al6  1  0.750000  0.955496  0.388428  1
  Al  Al7  1  0.750000  0.455496  0.111572  1
  Al  Al8  1  0.250000  0.354529  0.482846  1
  Al  Al9  1  0.250000  0.854529  0.017154  1
  Al  Al10  1  0.750000  0.645471  0.517154  1
  Al  Al11  1  0.750000  0.145471  0.982846  1
  Au  Au12  1  0.057964  0.107418  0.393337  1
  Au  Au13  1  0.442036  0.607418  0.106663  1
  Au  Au14  1  0.557964  0.892582  0.606663  1
  Au  Au15  1  0.942036  0.392582  0.893337  1
  Au  Au16  1  0.942036  0.892582  0.606663  1
  Au  Au17  1  0.557964  0.392582  0.893337  1
  Au  Au18  1  0.442036  0.107418  0.393337  1
  Au  Au19  1  0.057964  0.607418  0.106663  1
  Au  Au20  1  0.034133  0.053639  0.863012  1
  Au  Au21  1  0.465867  0.553639  0.636988  1
  Au  Au22  1  0.534133  0.946361  0.136988  1
  Au  Au23  1  0.965867  0.446361  0.363012  1
  Au  Au24  1  0.965867  0.946361  0.136988  1
  Au  Au25  1  0.534133  0.446361  0.363012  1
  Au  Au26  1  0.465867  0.053639  0.863012  1
  Au  Au27  1  0.034133  0.553639  0.636988  1
  Au  Au28  1  0.250000  0.292417  0.737283  1
  Au  Au29  1  0.250000  0.792417  0.762717  1
  Au  Au30  1  0.750000  0.707583  0.262717  1
  Au  Au31  1  0.750000  0.207583  0.237283  1
