# generated using pymatgen
data_LiSc2Si7Ni11
_symmetry_space_group_name_H-M   'P 1'
_cell_length_a   3.61850900
_cell_length_b   9.16198735
_cell_length_c   9.19429134
_cell_angle_alpha   120.57922665
_cell_angle_beta   90.00000000
_cell_angle_gamma   90.00000000
_symmetry_Int_Tables_number   1
_chemical_formula_structural   LiSc2Si7Ni11
_chemical_formula_sum   'Li1 Sc2 Si7 Ni11'
_cell_volume   262.42408844
_cell_formula_units_Z   1
loop_
 _symmetry_equiv_pos_site_id
 _symmetry_equiv_pos_as_xyz
  1  'x, y, z'
loop_
 _atom_site_type_symbol
 _atom_site_label
 _atom_site_symmetry_multiplicity
 _atom_site_fract_x
 _atom_site_fract_y
 _atom_site_fract_z
 _atom_site_occupancy
  Li  Li0  1  0.500000  0.113909  0.900180  1
  Sc  Sc1  1  0.500000  0.333383  0.662229  1
  Sc  Sc2  1  0.000000  0.668428  0.337088  1
  Si  Si3  1  0.500000  0.708575  0.594491  1
  Si  Si4  1  0.500000  0.415215  0.118991  1
  Si  Si5  1  0.500000  0.884128  0.295473  1
  Si  Si6  1  0.000000  0.994648  0.006498  1
  Si  Si7  1  0.000000  0.124078  0.707283  1
  Si  Si8  1  0.000000  0.284163  0.403428  1
  Si  Si9  1  0.000000  0.591389  0.876714  1
  Ni  Ni10  1  0.000000  0.881313  0.724528  1
  Ni  Ni11  1  0.000000  0.279769  0.154204  1
  Ni  Ni12  1  0.000000  0.839263  0.126160  1
  Ni  Ni13  1  0.500000  0.950516  0.570313  1
  Ni  Ni14  1  0.500000  0.431209  0.381413  1
  Ni  Ni15  1  0.500000  0.619870  0.049239  1
  Ni  Ni16  1  0.000000  0.383427  0.944958  1
  Ni  Ni17  1  0.000000  0.056378  0.435165  1
  Ni  Ni18  1  0.000000  0.563098  0.618515  1
  Ni  Ni19  1  0.500000  0.088931  0.211503  1
  Ni  Ni20  1  0.500000  0.788309  0.881626  1
