# generated using pymatgen
data_Dy2HoPuB16
_symmetry_space_group_name_H-M   'P 1'
_cell_length_a   7.10284300
_cell_length_b   7.10297233
_cell_length_c   4.01698200
_cell_angle_alpha   90.00000000
_cell_angle_beta   90.00000000
_cell_angle_gamma   89.74693849
_symmetry_Int_Tables_number   1
_chemical_formula_structural   Dy2HoPuB16
_chemical_formula_sum   'Dy2 Ho1 Pu1 B16'
_cell_volume   202.65997654
_cell_formula_units_Z   1
loop_
 _symmetry_equiv_pos_site_id
 _symmetry_equiv_pos_as_xyz
  1  'x, y, z'
loop_
 _atom_site_type_symbol
 _atom_site_label
 _atom_site_symmetry_multiplicity
 _atom_site_fract_x
 _atom_site_fract_y
 _atom_site_fract_z
 _atom_site_occupancy
  Dy  Dy0  1  0.682942  0.817062  0.000000  1
  Dy  Dy1  1  0.183026  0.682436  0.000000  1
  Ho  Ho2  1  0.817556  0.316965  0.000000  1
  Pu  Pu3  1  0.314511  0.185501  0.000000  1
  B  B4  1  0.500997  0.500658  0.797855  1
  B  B5  1  0.087632  0.412248  0.500000  1
  B  B6  1  0.586507  0.086192  0.500000  1
  B  B7  1  0.676488  0.538911  0.500000  1
  B  B8  1  0.912841  0.587029  0.500000  1
  B  B9  1  0.462032  0.676526  0.500000  1
  B  B10  1  0.999250  0.999140  0.202149  1
  B  B11  1  0.500997  0.500658  0.202145  1
  B  B12  1  0.999250  0.999140  0.797851  1
  B  B13  1  0.823422  0.038071  0.500000  1
  B  B14  1  0.413817  0.913514  0.500000  1
  B  B15  1  0.961002  0.823609  0.500000  1
  B  B16  1  0.323925  0.461310  0.500000  1
  B  B17  1  0.538298  0.323053  0.500000  1
  B  B18  1  0.038605  0.176170  0.500000  1
  B  B19  1  0.176901  0.961807  0.500000  1
