# generated using pymatgen
data_Sc3Si2Ru3Se
_symmetry_space_group_name_H-M   'P 1'
_cell_length_a   6.78906100
_cell_length_b   6.78906223
_cell_length_c   3.60348000
_cell_angle_alpha   90.00000000
_cell_angle_beta   90.00000000
_cell_angle_gamma   119.99998915
_symmetry_Int_Tables_number   1
_chemical_formula_structural   Sc3Si2Ru3Se
_chemical_formula_sum   'Sc3 Si2 Ru3 Se1'
_cell_volume   143.83755607
_cell_formula_units_Z   1
loop_
 _symmetry_equiv_pos_site_id
 _symmetry_equiv_pos_as_xyz
  1  'x, y, z'
loop_
 _atom_site_type_symbol
 _atom_site_label
 _atom_site_symmetry_multiplicity
 _atom_site_fract_x
 _atom_site_fract_y
 _atom_site_fract_z
 _atom_site_occupancy
  Sc  Sc0  1  0.398948  0.409268  0.500000  1
  Sc  Sc1  1  0.590732  0.989680  0.500000  1
  Sc  Sc2  1  0.010320  0.601052  0.500000  1
  Si  Si3  1  0.333333  0.666667  0.000000  1
  Si  Si4  1  0.000000  0.000000  0.500000  1
  Ru  Ru5  1  0.754083  0.758012  0.000000  1
  Ru  Ru6  1  0.241988  0.996071  0.000000  1
  Ru  Ru7  1  0.003929  0.245917  0.000000  1
  Se  Se8  1  0.666667  0.333333  0.000000  1
