# generated using pymatgen
data_PrDySn5Rh3
_symmetry_space_group_name_H-M   'P 1'
_cell_length_a   13.55450371
_cell_length_b   13.55450343
_cell_length_c   7.28794500
_cell_angle_alpha   90.00000000
_cell_angle_beta   90.00000000
_cell_angle_gamma   160.93700088
_symmetry_Int_Tables_number   1
_chemical_formula_structural   PrDySn5Rh3
_chemical_formula_sum   'Pr2 Dy2 Sn10 Rh6'
_cell_volume   437.31925397
_cell_formula_units_Z   2
loop_
 _symmetry_equiv_pos_site_id
 _symmetry_equiv_pos_as_xyz
  1  'x, y, z'
loop_
 _atom_site_type_symbol
 _atom_site_label
 _atom_site_symmetry_multiplicity
 _atom_site_fract_x
 _atom_site_fract_y
 _atom_site_fract_z
 _atom_site_occupancy
  Pr  Pr0  1  0.172293  0.827707  0.753129  1
  Pr  Pr1  1  0.827707  0.172293  0.253129  1
  Dy  Dy2  1  0.476240  0.523760  0.738110  1
  Dy  Dy3  1  0.523760  0.476240  0.238110  1
  Sn  Sn4  1  0.881340  0.118660  0.731613  1
  Sn  Sn5  1  0.118660  0.881340  0.231613  1
  Sn  Sn6  1  0.704311  0.295689  0.050735  1
  Sn  Sn7  1  0.295689  0.704311  0.550735  1
  Sn  Sn8  1  0.594676  0.405324  0.614082  1
  Sn  Sn9  1  0.405324  0.594676  0.114082  1
  Sn  Sn10  1  0.953031  0.046969  0.398969  1
  Sn  Sn11  1  0.046969  0.953031  0.898969  1
  Sn  Sn12  1  0.290329  0.709671  0.973790  1
  Sn  Sn13  1  0.709671  0.290329  0.473790  1
  Rh  Rh14  1  0.049863  0.950137  0.518107  1
  Rh  Rh15  1  0.950137  0.049863  0.018107  1
  Rh  Rh16  1  0.778059  0.221941  0.762415  1
  Rh  Rh17  1  0.221941  0.778059  0.262415  1
  Rh  Rh18  1  0.395377  0.604623  0.487049  1
  Rh  Rh19  1  0.604623  0.395377  0.987049  1
