# generated using pymatgen
data_Y12InCo4Os
_symmetry_space_group_name_H-M   'P 1'
_cell_length_a   8.33328945
_cell_length_b   8.33329058
_cell_length_c   8.33329075
_cell_angle_alpha   111.39577671
_cell_angle_beta   110.51891213
_cell_angle_gamma   106.53943950
_symmetry_Int_Tables_number   1
_chemical_formula_structural   Y12InCo4Os
_chemical_formula_sum   'Y12 In1 Co4 Os1'
_cell_volume   444.58279045
_cell_formula_units_Z   1
loop_
 _symmetry_equiv_pos_site_id
 _symmetry_equiv_pos_as_xyz
  1  'x, y, z'
loop_
 _atom_site_type_symbol
 _atom_site_label
 _atom_site_symmetry_multiplicity
 _atom_site_fract_x
 _atom_site_fract_y
 _atom_site_fract_z
 _atom_site_occupancy
  Y  Y0  1  0.413173  0.220118  0.193056  1
  Y  Y1  1  0.586827  0.779882  0.806944  1
  Y  Y2  1  0.027063  0.220118  0.806944  1
  Y  Y3  1  0.972937  0.779882  0.193056  1
  Y  Y4  1  0.181850  0.281360  0.463209  1
  Y  Y5  1  0.818150  0.718640  0.536791  1
  Y  Y6  1  0.181850  0.718640  0.900490  1
  Y  Y7  1  0.818150  0.281360  0.099510  1
  Y  Y8  1  0.315000  0.620483  0.305484  1
  Y  Y9  1  0.685000  0.379517  0.694516  1
  Y  Y10  1  0.315000  0.009515  0.694516  1
  Y  Y11  1  0.685000  0.990485  0.305484  1
  In  In12  1  0.500000  0.500000  0.000000  1
  Co  Co13  1  0.378435  0.000000  0.378435  1
  Co  Co14  1  0.621565  0.000000  0.621565  1
  Co  Co15  1  0.110164  0.610164  0.500000  1
  Co  Co16  1  0.889836  0.389836  0.500000  1
  Os  Os17  1  0.000000  0.000000  0.000000  1
