# generated using pymatgen
data_CeTmMnCo16
_symmetry_space_group_name_H-M   'P 1'
_cell_length_a   6.27334076
_cell_length_b   6.27333900
_cell_length_c   6.27334100
_cell_angle_alpha   83.08198742
_cell_angle_beta   83.08199857
_cell_angle_gamma   83.08199643
_symmetry_Int_Tables_number   1
_chemical_formula_structural   CeTmMnCo16
_chemical_formula_sum   'Ce1 Tm1 Mn1 Co16'
_cell_volume   241.89429483
_cell_formula_units_Z   1
loop_
 _symmetry_equiv_pos_site_id
 _symmetry_equiv_pos_as_xyz
  1  'x, y, z'
loop_
 _atom_site_type_symbol
 _atom_site_label
 _atom_site_symmetry_multiplicity
 _atom_site_fract_x
 _atom_site_fract_y
 _atom_site_fract_z
 _atom_site_occupancy
  Ce  Ce0  1  0.652412  0.652412  0.652412  1
  Tm  Tm1  1  0.344953  0.344953  0.344953  1
  Mn  Mn2  1  0.097619  0.097619  0.097619  1
  Co  Co3  1  0.350069  0.846726  0.350069  1
  Co  Co4  1  0.350069  0.350069  0.846726  1
  Co  Co5  1  0.846726  0.350069  0.350069  1
  Co  Co6  1  0.652908  0.144792  0.652908  1
  Co  Co7  1  0.652908  0.652908  0.144792  1
  Co  Co8  1  0.144792  0.652908  0.652908  1
  Co  Co9  1  0.712668  0.289566  0.999067  1
  Co  Co10  1  0.999067  0.712668  0.289566  1
  Co  Co11  1  0.289566  0.999067  0.712668  1
  Co  Co12  1  0.999067  0.289566  0.712668  1
  Co  Co13  1  0.712668  0.999067  0.289566  1
  Co  Co14  1  0.289566  0.712668  0.999067  1
  Co  Co15  1  0.001801  0.001801  0.504088  1
  Co  Co16  1  0.504088  0.001801  0.001801  1
  Co  Co17  1  0.001801  0.504088  0.001801  1
  Co  Co18  1  0.897249  0.897249  0.897249  1
