# generated using pymatgen
data_Tb5Dy3Re2(B12Ru)2
_symmetry_space_group_name_H-M   'P 1'
_cell_length_a   3.68517800
_cell_length_b   9.17986250
_cell_length_c   11.57231800
_cell_angle_alpha   90.22198393
_cell_angle_beta   90.00000000
_cell_angle_gamma   90.00000000
_symmetry_Int_Tables_number   1
_chemical_formula_structural   Tb5Dy3Re2(B12Ru)2
_chemical_formula_sum   'Tb5 Dy3 Re2 B24 Ru2'
_cell_volume   391.48195242
_cell_formula_units_Z   1
loop_
 _symmetry_equiv_pos_site_id
 _symmetry_equiv_pos_as_xyz
  1  'x, y, z'
loop_
 _atom_site_type_symbol
 _atom_site_label
 _atom_site_symmetry_multiplicity
 _atom_site_fract_x
 _atom_site_fract_y
 _atom_site_fract_z
 _atom_site_occupancy
  Tb  Tb0  1  0.000000  0.321667  0.412516  1
  Tb  Tb1  1  0.000000  0.678332  0.587660  1
  Tb  Tb2  1  0.000000  0.824887  0.084434  1
  Tb  Tb3  1  0.000000  0.175178  0.915368  1
  Tb  Tb4  1  0.000000  0.942523  0.370503  1
  Dy  Dy5  1  0.000000  0.057578  0.629801  1
  Dy  Dy6  1  0.000000  0.442937  0.129274  1
  Dy  Dy7  1  0.000000  0.557133  0.870589  1
  Re  Re8  1  0.000000  0.138752  0.179684  1
  Re  Re9  1  0.000000  0.861512  0.820166  1
  B  B10  1  0.500000  0.553768  0.432687  1
  B  B11  1  0.500000  0.445920  0.567440  1
  B  B12  1  0.500000  0.053428  0.067067  1
  B  B13  1  0.500000  0.946669  0.932689  1
  B  B14  1  0.500000  0.747652  0.418623  1
  B  B15  1  0.500000  0.251879  0.581499  1
  B  B16  1  0.500000  0.248757  0.081289  1
  B  B17  1  0.500000  0.751410  0.918590  1
  B  B18  1  0.500000  0.789763  0.266085  1
  B  B19  1  0.500000  0.209829  0.733870  1
  B  B20  1  0.500000  0.291681  0.234420  1
  B  B21  1  0.500000  0.708527  0.765520  1
  B  B22  1  0.500000  0.630786  0.186177  1
  B  B23  1  0.500000  0.369089  0.813753  1
  B  B24  1  0.500000  0.131655  0.314504  1
  B  B25  1  0.500000  0.868714  0.685369  1
  B  B26  1  0.500000  0.983559  0.212189  1
  B  B27  1  0.500000  0.016759  0.787512  1
  B  B28  1  0.500000  0.483567  0.287966  1
  B  B29  1  0.500000  0.516261  0.711988  1
  B  B30  1  0.500000  0.603235  0.028686  1
  B  B31  1  0.500000  0.396799  0.971213  1
  B  B32  1  0.500000  0.104514  0.471591  1
  B  B33  1  0.500000  0.895830  0.529137  1
  Ru  Ru34  1  0.000000  0.637115  0.321382  1
  Ru  Ru35  1  0.000000  0.362338  0.678760  1
