# generated using pymatgen
data_PdI19
_symmetry_space_group_name_H-M   'P 1'
_cell_length_a   10.34417513
_cell_length_b   10.34417396
_cell_length_c   10.34417259
_cell_angle_alpha   96.95669935
_cell_angle_beta   96.95668994
_cell_angle_gamma   96.95669708
_symmetry_Int_Tables_number   1
_chemical_formula_structural   PdI19
_chemical_formula_sum   'Pd1 I19'
_cell_volume   1080.20339417
_cell_formula_units_Z   1
loop_
 _symmetry_equiv_pos_site_id
 _symmetry_equiv_pos_as_xyz
  1  'x, y, z'
loop_
 _atom_site_type_symbol
 _atom_site_label
 _atom_site_symmetry_multiplicity
 _atom_site_fract_x
 _atom_site_fract_y
 _atom_site_fract_z
 _atom_site_occupancy
  Pd  Pd0  1  0.000000  0.000000  0.000000  1
  I  I1  1  0.972358  0.730892  0.969359  1
  I  I2  1  0.969359  0.972358  0.730892  1
  I  I3  1  0.730892  0.969359  0.972358  1
  I  I4  1  0.027642  0.269108  0.030641  1
  I  I5  1  0.030641  0.027642  0.269108  1
  I  I6  1  0.269108  0.030641  0.027642  1
  I  I7  1  0.500000  0.500000  0.500000  1
  I  I8  1  0.783010  0.372194  0.926838  1
  I  I9  1  0.926838  0.783010  0.372194  1
  I  I10  1  0.372194  0.926838  0.783010  1
  I  I11  1  0.216990  0.627806  0.073162  1
  I  I12  1  0.073162  0.216990  0.627806  1
  I  I13  1  0.627806  0.073162  0.216990  1
  I  I14  1  0.555780  0.484886  0.836493  1
  I  I15  1  0.836493  0.555780  0.484886  1
  I  I16  1  0.484886  0.836493  0.555780  1
  I  I17  1  0.444220  0.515114  0.163507  1
  I  I18  1  0.163507  0.444220  0.515114  1
  I  I19  1  0.515114  0.163507  0.444220  1
