# generated using pymatgen
data_Dy4Y(CoB3)2
_symmetry_space_group_name_H-M   'P 1'
_cell_length_a   5.40099319
_cell_length_b   5.40099252
_cell_length_c   8.37993962
_cell_angle_alpha   71.20051182
_cell_angle_beta   71.20051649
_cell_angle_gamma   59.99999313
_symmetry_Int_Tables_number   1
_chemical_formula_structural   Dy4Y(CoB3)2
_chemical_formula_sum   'Dy4 Y1 Co2 B6'
_cell_volume   196.49650977
_cell_formula_units_Z   1
loop_
 _symmetry_equiv_pos_site_id
 _symmetry_equiv_pos_as_xyz
  1  'x, y, z'
loop_
 _atom_site_type_symbol
 _atom_site_label
 _atom_site_symmetry_multiplicity
 _atom_site_fract_x
 _atom_site_fract_y
 _atom_site_fract_z
 _atom_site_occupancy
  Dy  Dy0  1  0.251387  0.251387  0.245838  1
  Dy  Dy1  1  0.748613  0.748613  0.754162  1
  Dy  Dy2  1  0.416248  0.416248  0.751254  1
  Dy  Dy3  1  0.583752  0.583752  0.248746  1
  Y  Y4  1  0.000000  0.000000  0.000000  1
  Co  Co5  1  0.120064  0.120064  0.639807  1
  Co  Co6  1  0.879936  0.879936  0.360193  1
  B  B7  1  0.168199  0.831801  0.500000  1
  B  B8  1  0.831801  0.500000  0.500000  1
  B  B9  1  0.500000  0.168199  0.500000  1
  B  B10  1  0.168199  0.500000  0.500000  1
  B  B11  1  0.500000  0.831801  0.500000  1
  B  B12  1  0.831801  0.168199  0.500000  1
