# generated using pymatgen
data_Ho8Tc2B24IrRh
_symmetry_space_group_name_H-M   'P 1'
_cell_length_a   3.66493200
_cell_length_b   9.13064046
_cell_length_c   11.51578140
_cell_angle_alpha   90.35397930
_cell_angle_beta   90.00000000
_cell_angle_gamma   90.00000000
_symmetry_Int_Tables_number   1
_chemical_formula_structural   Ho8Tc2B24IrRh
_chemical_formula_sum   'Ho8 Tc2 B24 Ir1 Rh1'
_cell_volume   385.34727028
_cell_formula_units_Z   1
loop_
 _symmetry_equiv_pos_site_id
 _symmetry_equiv_pos_as_xyz
  1  'x, y, z'
loop_
 _atom_site_type_symbol
 _atom_site_label
 _atom_site_symmetry_multiplicity
 _atom_site_fract_x
 _atom_site_fract_y
 _atom_site_fract_z
 _atom_site_occupancy
  Ho  Ho0  1  0.500000  0.318399  0.410355  1
  Ho  Ho1  1  0.500000  0.681712  0.589119  1
  Ho  Ho2  1  0.500000  0.173363  0.917561  1
  Ho  Ho3  1  0.500000  0.826746  0.082762  1
  Ho  Ho4  1  0.500000  0.441868  0.126766  1
  Ho  Ho5  1  0.500000  0.558439  0.873870  1
  Ho  Ho6  1  0.500000  0.053259  0.628019  1
  Ho  Ho7  1  0.500000  0.945995  0.371546  1
  Tc  Tc8  1  0.500000  0.139145  0.179907  1
  Tc  Tc9  1  0.500000  0.860911  0.819997  1
  B  B10  1  0.000000  0.108468  0.470746  1
  B  B11  1  0.000000  0.891382  0.529153  1
  B  B12  1  0.000000  0.392586  0.970221  1
  B  B13  1  0.000000  0.607547  0.029887  1
  B  B14  1  0.000000  0.132422  0.314819  1
  B  B15  1  0.000000  0.867564  0.685117  1
  B  B16  1  0.000000  0.367626  0.816289  1
  B  B17  1  0.000000  0.632762  0.183485  1
  B  B18  1  0.000000  0.053308  0.067381  1
  B  B19  1  0.000000  0.946654  0.932619  1
  B  B20  1  0.000000  0.445705  0.566015  1
  B  B21  1  0.000000  0.554305  0.434010  1
  B  B22  1  0.000000  0.483663  0.287573  1
  B  B23  1  0.000000  0.516779  0.712776  1
  B  B24  1  0.000000  0.016597  0.787014  1
  B  B25  1  0.000000  0.983472  0.213011  1
  B  B26  1  0.000000  0.247932  0.080993  1
  B  B27  1  0.000000  0.752133  0.919014  1
  B  B28  1  0.000000  0.250507  0.578829  1
  B  B29  1  0.000000  0.749160  0.421253  1
  B  B30  1  0.000000  0.292762  0.234522  1
  B  B31  1  0.000000  0.707270  0.765510  1
  B  B32  1  0.000000  0.208389  0.734317  1
  B  B33  1  0.000000  0.791291  0.265328  1
  Ir  Ir34  1  0.500000  0.362221  0.678328  1
  Rh  Rh35  1  0.500000  0.637656  0.321888  1
