# generated using pymatgen
data_LaTh(Ge2Pt)2
_symmetry_space_group_name_H-M   'P 1'
_cell_length_a   4.45785812
_cell_length_b   8.82222749
_cell_length_c   9.86403208
_cell_angle_alpha   116.56365081
_cell_angle_beta   103.05965052
_cell_angle_gamma   90.00000556
_symmetry_Int_Tables_number   1
_chemical_formula_structural   LaTh(Ge2Pt)2
_chemical_formula_sum   'La2 Th2 Ge8 Pt4'
_cell_volume   335.72837513
_cell_formula_units_Z   2
loop_
 _symmetry_equiv_pos_site_id
 _symmetry_equiv_pos_as_xyz
  1  'x, y, z'
loop_
 _atom_site_type_symbol
 _atom_site_label
 _atom_site_symmetry_multiplicity
 _atom_site_fract_x
 _atom_site_fract_y
 _atom_site_fract_z
 _atom_site_occupancy
  La  La0  1  0.000000  0.250205  0.000000  1
  La  La1  1  0.000000  0.749795  0.000000  1
  Th  Th2  1  0.796819  0.296819  0.593639  1
  Th  Th3  1  0.203181  0.703181  0.406361  1
  Ge  Ge4  1  0.426262  0.926262  0.852524  1
  Ge  Ge5  1  0.573738  0.073738  0.147476  1
  Ge  Ge6  1  0.426768  0.426768  0.853536  1
  Ge  Ge7  1  0.573232  0.573232  0.146464  1
  Ge  Ge8  1  0.196396  0.047580  0.392792  1
  Ge  Ge9  1  0.803604  0.952420  0.607208  1
  Ge  Ge10  1  0.196396  0.345213  0.392792  1
  Ge  Ge11  1  0.803604  0.654787  0.607208  1
  Pt  Pt12  1  0.348170  0.098445  0.696341  1
  Pt  Pt13  1  0.651830  0.901555  0.303659  1
  Pt  Pt14  1  0.348170  0.597896  0.696341  1
  Pt  Pt15  1  0.651830  0.402104  0.303659  1
