# generated using pymatgen
data_Tb7Ho3In8(PdAu)2
_symmetry_space_group_name_H-M   'P 1'
_cell_length_a   3.66707300
_cell_length_b   8.19804827
_cell_length_c   18.38718740
_cell_angle_alpha   89.95604459
_cell_angle_beta   90.00000000
_cell_angle_gamma   90.00000000
_symmetry_Int_Tables_number   1
_chemical_formula_structural   Tb7Ho3In8(PdAu)2
_chemical_formula_sum   'Tb7 Ho3 In8 Pd2 Au2'
_cell_volume   552.77093705
_cell_formula_units_Z   1
loop_
 _symmetry_equiv_pos_site_id
 _symmetry_equiv_pos_as_xyz
  1  'x, y, z'
loop_
 _atom_site_type_symbol
 _atom_site_label
 _atom_site_symmetry_multiplicity
 _atom_site_fract_x
 _atom_site_fract_y
 _atom_site_fract_z
 _atom_site_occupancy
  Tb  Tb0  1  0.000000  0.500060  0.500078  1
  Tb  Tb1  1  0.000000  0.000011  0.999923  1
  Tb  Tb2  1  0.000000  0.745979  0.283416  1
  Tb  Tb3  1  0.000000  0.254037  0.716719  1
  Tb  Tb4  1  0.000000  0.768271  0.779820  1
  Tb  Tb5  1  0.000000  0.231580  0.220283  1
  Tb  Tb6  1  0.000000  0.618890  0.079684  1
  Ho  Ho7  1  0.000000  0.381343  0.919487  1
  Ho  Ho8  1  0.000000  0.885448  0.582772  1
  Ho  Ho9  1  0.000000  0.114704  0.417271  1
  In  In10  1  0.500000  0.710839  0.931880  1
  In  In11  1  0.500000  0.288525  0.067388  1
  In  In12  1  0.500000  0.791697  0.433258  1
  In  In13  1  0.500000  0.208293  0.566876  1
  In  In14  1  0.500000  0.584176  0.647629  1
  In  In15  1  0.500000  0.415630  0.352634  1
  In  In16  1  0.500000  0.921359  0.149067  1
  In  In17  1  0.500000  0.079673  0.851174  1
  Pd  Pd18  1  0.500000  0.974672  0.695033  1
  Pd  Pd19  1  0.500000  0.025703  0.304877  1
  Au  Au20  1  0.500000  0.526406  0.197402  1
  Au  Au21  1  0.500000  0.472705  0.803331  1
