# generated using pymatgen
data_Sm5Er(Lu7Pt8)2
_symmetry_space_group_name_H-M   'P 1'
_cell_length_a   7.41761906
_cell_length_b   7.49220830
_cell_length_c   14.65011300
_cell_angle_alpha   90.00726501
_cell_angle_beta   89.99270055
_cell_angle_gamma   90.03301468
_symmetry_Int_Tables_number   1
_chemical_formula_structural   Sm5Er(Lu7Pt8)2
_chemical_formula_sum   'Sm5 Er1 Lu14 Pt16'
_cell_volume   814.17031688
_cell_formula_units_Z   1
loop_
 _symmetry_equiv_pos_site_id
 _symmetry_equiv_pos_as_xyz
  1  'x, y, z'
loop_
 _atom_site_type_symbol
 _atom_site_label
 _atom_site_symmetry_multiplicity
 _atom_site_fract_x
 _atom_site_fract_y
 _atom_site_fract_z
 _atom_site_occupancy
  Sm  Sm0  1  0.512650  0.323844  0.094130  1
  Sm  Sm1  1  0.012798  0.174831  0.406749  1
  Sm  Sm2  1  0.512102  0.329370  0.407730  1
  Sm  Sm3  1  0.012067  0.171023  0.092492  1
  Sm  Sm4  1  0.487102  0.676154  0.905193  1
  Er  Er5  1  0.987524  0.822614  0.594809  1
  Lu  Lu6  1  0.645910  0.166838  0.622683  1
  Lu  Lu7  1  0.144837  0.332347  0.875888  1
  Lu  Lu8  1  0.355922  0.833066  0.122617  1
  Lu  Lu9  1  0.857003  0.667704  0.378193  1
  Lu  Lu10  1  0.357736  0.831008  0.379412  1
  Lu  Lu11  1  0.857897  0.669403  0.121179  1
  Lu  Lu12  1  0.647002  0.166436  0.876786  1
  Lu  Lu13  1  0.146034  0.333181  0.622481  1
  Lu  Lu14  1  0.487641  0.678795  0.596536  1
  Lu  Lu15  1  0.988756  0.821382  0.903406  1
  Lu  Lu16  1  0.806197  0.508663  0.749071  1
  Lu  Lu17  1  0.305940  0.991472  0.749167  1
  Lu  Lu18  1  0.193040  0.491403  0.249862  1
  Lu  Lu19  1  0.693035  0.008633  0.250973  1
  Pt  Pt20  1  0.688357  0.959952  0.461823  1
  Pt  Pt21  1  0.186865  0.537234  0.040487  1
  Pt  Pt22  1  0.306184  0.029322  0.955562  1
  Pt  Pt23  1  0.807139  0.476010  0.545679  1
  Pt  Pt24  1  0.310958  0.025612  0.545831  1
  Pt  Pt25  1  0.817536  0.471003  0.954868  1
  Pt  Pt26  1  0.686817  0.959892  0.037978  1
  Pt  Pt27  1  0.186423  0.541941  0.462913  1
  Pt  Pt28  1  0.440582  0.380529  0.748491  1
  Pt  Pt29  1  0.941621  0.118005  0.749569  1
  Pt  Pt30  1  0.559981  0.625338  0.250300  1
  Pt  Pt31  1  0.059871  0.875064  0.250457  1
  Pt  Pt32  1  0.670249  0.858279  0.746975  1
  Pt  Pt33  1  0.166284  0.643389  0.748779  1
  Pt  Pt34  1  0.330003  0.138621  0.251148  1
  Pt  Pt35  1  0.829936  0.361640  0.249785  1
