# generated using pymatgen
data_Nd6Cd22PPd
_symmetry_space_group_name_H-M   'P 1'
_cell_length_a   9.97537734
_cell_length_b   10.03102557
_cell_length_c   10.03102444
_cell_angle_alpha   60.19174632
_cell_angle_beta   60.18333850
_cell_angle_gamma   60.18334095
_symmetry_Int_Tables_number   1
_chemical_formula_structural   Nd6Cd22PPd
_chemical_formula_sum   'Nd6 Cd22 P1 Pd1'
_cell_volume   712.74109319
_cell_formula_units_Z   1
loop_
 _symmetry_equiv_pos_site_id
 _symmetry_equiv_pos_as_xyz
  1  'x, y, z'
loop_
 _atom_site_type_symbol
 _atom_site_label
 _atom_site_symmetry_multiplicity
 _atom_site_fract_x
 _atom_site_fract_y
 _atom_site_fract_z
 _atom_site_occupancy
  Nd  Nd0  1  0.797743  0.795678  0.204322  1
  Nd  Nd1  1  0.202257  0.795678  0.204322  1
  Nd  Nd2  1  0.796026  0.203974  0.203974  1
  Nd  Nd3  1  0.202257  0.204322  0.795678  1
  Nd  Nd4  1  0.797743  0.204322  0.795678  1
  Nd  Nd5  1  0.203974  0.796026  0.796026  1
  Cd  Cd6  1  0.836259  0.824365  0.503115  1
  Cd  Cd7  1  0.836259  0.503115  0.824365  1
  Cd  Cd8  1  0.498887  0.833631  0.833631  1
  Cd  Cd9  1  0.833849  0.833631  0.833631  1
  Cd  Cd10  1  0.163741  0.175635  0.496885  1
  Cd  Cd11  1  0.163741  0.496885  0.175635  1
  Cd  Cd12  1  0.501113  0.166369  0.166369  1
  Cd  Cd13  1  0.166151  0.166369  0.166369  1
  Cd  Cd14  1  0.621187  0.621148  0.136476  1
  Cd  Cd15  1  0.621187  0.136476  0.621148  1
  Cd  Cd16  1  0.135238  0.616625  0.616625  1
  Cd  Cd17  1  0.631511  0.616625  0.616625  1
  Cd  Cd18  1  0.378813  0.378852  0.863524  1
  Cd  Cd19  1  0.378813  0.863524  0.378852  1
  Cd  Cd20  1  0.864762  0.383375  0.383375  1
  Cd  Cd21  1  0.368489  0.383375  0.383375  1
  Cd  Cd22  1  0.000000  0.000000  0.500000  1
  Cd  Cd23  1  0.500000  0.000000  0.500000  1
  Cd  Cd24  1  0.500000  0.500000  0.000000  1
  Cd  Cd25  1  0.000000  0.500000  0.000000  1
  Cd  Cd26  1  0.500000  0.000000  0.000000  1
  Cd  Cd27  1  0.500000  0.500000  0.500000  1
  P  P28  1  0.000000  0.000000  0.000000  1
  Pd  Pd29  1  0.000000  0.500000  0.500000  1
