# generated using pymatgen
data_Tb11CeHo4(CdRu)4
_symmetry_space_group_name_H-M   'P 1'
_cell_length_a   9.68278855
_cell_length_b   9.68744214
_cell_length_c   9.68744247
_cell_angle_alpha   59.36552663
_cell_angle_beta   59.34818507
_cell_angle_gamma   59.34818079
_symmetry_Int_Tables_number   1
_chemical_formula_structural   Tb11CeHo4(CdRu)4
_chemical_formula_sum   'Tb11 Ce1 Ho4 Cd4 Ru4'
_cell_volume   633.09622298
_cell_formula_units_Z   1
loop_
 _symmetry_equiv_pos_site_id
 _symmetry_equiv_pos_as_xyz
  1  'x, y, z'
loop_
 _atom_site_type_symbol
 _atom_site_label
 _atom_site_symmetry_multiplicity
 _atom_site_fract_x
 _atom_site_fract_y
 _atom_site_fract_z
 _atom_site_occupancy
  Tb  Tb0  1  0.562556  0.561992  0.938176  1
  Tb  Tb1  1  0.938765  0.560524  0.939152  1
  Tb  Tb2  1  0.560825  0.938912  0.938912  1
  Tb  Tb3  1  0.938765  0.939152  0.560524  1
  Tb  Tb4  1  0.562556  0.938176  0.561992  1
  Tb  Tb5  1  0.938100  0.562270  0.562270  1
  Tb  Tb6  1  0.189023  0.189522  0.812459  1
  Tb  Tb7  1  0.810662  0.188500  0.811012  1
  Tb  Tb8  1  0.188474  0.810577  0.810576  1
  Tb  Tb9  1  0.810662  0.811013  0.188500  1
  Tb  Tb10  1  0.189022  0.812459  0.189521  1
  Ce  Ce11  1  0.342571  0.342021  0.342021  1
  Ho  Ho12  1  0.812114  0.189363  0.189363  1
  Ho  Ho13  1  0.346373  0.346615  0.957985  1
  Ho  Ho14  1  0.346373  0.957985  0.346615  1
  Ho  Ho15  1  0.957791  0.346355  0.346355  1
  Cd  Cd16  1  0.579777  0.579458  0.258255  1
  Cd  Cd17  1  0.579777  0.258255  0.579458  1
  Cd  Cd18  1  0.258313  0.579654  0.579654  1
  Cd  Cd19  1  0.579550  0.579592  0.579592  1
  Ru  Ru20  1  0.146479  0.146339  0.574991  1
  Ru  Ru21  1  0.146479  0.574991  0.146339  1
  Ru  Ru22  1  0.575133  0.146448  0.146448  1
  Ru  Ru23  1  0.139857  0.139827  0.139827  1
