# generated using pymatgen
data_La2Tl(SiPd2)6
_symmetry_space_group_name_H-M   'P 1'
_cell_length_a   10.20838200
_cell_length_b   10.20838238
_cell_length_c   3.95734200
_cell_angle_alpha   90.00000000
_cell_angle_beta   90.00000000
_cell_angle_gamma   120.00000526
_symmetry_Int_Tables_number   1
_chemical_formula_structural   La2Tl(SiPd2)6
_chemical_formula_sum   'La2 Tl1 Si6 Pd12'
_cell_volume   357.14784596
_cell_formula_units_Z   1
loop_
 _symmetry_equiv_pos_site_id
 _symmetry_equiv_pos_as_xyz
  1  'x, y, z'
loop_
 _atom_site_type_symbol
 _atom_site_label
 _atom_site_symmetry_multiplicity
 _atom_site_fract_x
 _atom_site_fract_y
 _atom_site_fract_z
 _atom_site_occupancy
  La  La0  1  0.666667  0.333333  0.246799  1
  La  La1  1  0.000000  0.000000  0.751318  1
  Tl  Tl2  1  0.333333  0.666667  0.462282  1
  Si  Si3  1  0.737234  0.779691  0.255306  1
  Si  Si4  1  0.042458  0.262766  0.255306  1
  Si  Si5  1  0.220309  0.957542  0.255306  1
  Si  Si6  1  0.928910  0.554494  0.743020  1
  Si  Si7  1  0.625583  0.071090  0.743020  1
  Si  Si8  1  0.445506  0.374417  0.743020  1
  Pd  Pd9  1  0.775908  0.049055  0.252686  1
  Pd  Pd10  1  0.273146  0.224092  0.252686  1
  Pd  Pd11  1  0.950945  0.726854  0.252686  1
  Pd  Pd12  1  0.891366  0.282483  0.745994  1
  Pd  Pd13  1  0.391115  0.108634  0.745994  1
  Pd  Pd14  1  0.717517  0.608885  0.745994  1
  Pd  Pd15  1  0.494465  0.539476  0.235571  1
  Pd  Pd16  1  0.045010  0.505535  0.235571  1
  Pd  Pd17  1  0.460524  0.954990  0.235571  1
  Pd  Pd18  1  0.176093  0.789831  0.764463  1
  Pd  Pd19  1  0.613737  0.823907  0.764463  1
  Pd  Pd20  1  0.210169  0.386263  0.764463  1
