# generated using pymatgen
data_Ba3Ce2O7
_symmetry_space_group_name_H-M   'P 1'
_cell_length_a   11.57718492
_cell_length_b   11.57718453
_cell_length_c   6.28237400
_cell_angle_alpha   90.00000000
_cell_angle_beta   90.00000000
_cell_angle_gamma   147.85431529
_symmetry_Int_Tables_number   1
_chemical_formula_structural   Ba3Ce2O7
_chemical_formula_sum   'Ba6 Ce4 O14'
_cell_volume   448.02436998
_cell_formula_units_Z   2
loop_
 _symmetry_equiv_pos_site_id
 _symmetry_equiv_pos_as_xyz
  1  'x, y, z'
loop_
 _atom_site_type_symbol
 _atom_site_label
 _atom_site_symmetry_multiplicity
 _atom_site_fract_x
 _atom_site_fract_y
 _atom_site_fract_z
 _atom_site_occupancy
  Ba  Ba0  1  0.046291  0.422265  0.750000  1
  Ba  Ba1  1  0.577735  0.953709  0.250000  1
  Ba  Ba2  1  0.953709  0.577735  0.250000  1
  Ba  Ba3  1  0.422265  0.046291  0.750000  1
  Ba  Ba4  1  0.757002  0.757002  0.250000  1
  Ba  Ba5  1  0.242998  0.242998  0.750000  1
  Ce  Ce6  1  0.153334  0.352803  0.250000  1
  Ce  Ce7  1  0.647197  0.846666  0.750000  1
  Ce  Ce8  1  0.846666  0.647197  0.750000  1
  Ce  Ce9  1  0.352803  0.153334  0.250000  1
  O  O10  1  0.915511  0.084489  0.000000  1
  O  O11  1  0.915511  0.084489  0.500000  1
  O  O12  1  0.385492  0.614508  0.500000  1
  O  O13  1  0.385492  0.614508  0.000000  1
  O  O14  1  0.982998  0.378460  0.250000  1
  O  O15  1  0.621540  0.017002  0.750000  1
  O  O16  1  0.378460  0.982998  0.250000  1
  O  O17  1  0.017002  0.621540  0.750000  1
  O  O18  1  0.614508  0.385492  0.000000  1
  O  O19  1  0.614508  0.385492  0.500000  1
  O  O20  1  0.084489  0.915511  0.500000  1
  O  O21  1  0.084489  0.915511  0.000000  1
  O  O22  1  0.672854  0.672854  0.750000  1
  O  O23  1  0.327146  0.327146  0.250000  1
