# generated using pymatgen
data_HoScTa2P7Rh9W
_symmetry_space_group_name_H-M   'P 1'
_cell_length_a   3.92603000
_cell_length_b   9.49532063
_cell_length_c   9.49487000
_cell_angle_alpha   119.99973305
_cell_angle_beta   89.99997081
_cell_angle_gamma   90.00001459
_symmetry_Int_Tables_number   1
_chemical_formula_structural   HoScTa2P7Rh9W
_chemical_formula_sum   'Ho1 Sc1 Ta2 P7 Rh9 W1'
_cell_volume   306.53782442
_cell_formula_units_Z   1
loop_
 _symmetry_equiv_pos_site_id
 _symmetry_equiv_pos_as_xyz
  1  'x, y, z'
loop_
 _atom_site_type_symbol
 _atom_site_label
 _atom_site_symmetry_multiplicity
 _atom_site_fract_x
 _atom_site_fract_y
 _atom_site_fract_z
 _atom_site_occupancy
  Ho  Ho0  1  0.261891  0.666170  0.332647  1
  Sc  Sc1  1  0.762054  0.332775  0.667067  1
  Ta  Ta2  1  0.761889  0.093201  0.872473  1
  Ta  Ta3  1  0.761892  0.125577  0.221223  1
  P  P4  1  0.261863  0.997441  0.998837  1
  P  P5  1  0.761886  0.875365  0.587760  1
  P  P6  1  0.761855  0.411953  0.288592  1
  P  P7  1  0.761923  0.713223  0.120723  1
  P  P8  1  0.261911  0.120497  0.418090  1
  P  P9  1  0.261921  0.583977  0.703990  1
  P  P10  1  0.261866  0.298560  0.879044  1
  Rh  Rh11  1  0.261904  0.883594  0.161224  1
  Rh  Rh12  1  0.261894  0.837240  0.722391  1
  Rh  Rh13  1  0.261881  0.277409  0.115182  1
  Rh  Rh14  1  0.761894  0.610972  0.560436  1
  Rh  Rh15  1  0.761890  0.442248  0.051270  1
  Rh  Rh16  1  0.761929  0.946243  0.388046  1
  Rh  Rh17  1  0.261900  0.369056  0.442548  1
  Rh  Rh18  1  0.261902  0.561050  0.927541  1
  Rh  Rh19  1  0.261963  0.072586  0.631552  1
  W  W20  1  0.761894  0.780859  0.909364  1
