# generated using pymatgen
data_Y6OsO12
_symmetry_space_group_name_H-M   'P 1'
_cell_length_a   6.49835702
_cell_length_b   6.49835723
_cell_length_c   6.49835665
_cell_angle_alpha   98.64481214
_cell_angle_beta   98.64481478
_cell_angle_gamma   98.64480640
_symmetry_Int_Tables_number   1
_chemical_formula_structural   Y6OsO12
_chemical_formula_sum   'Y6 Os1 O12'
_cell_volume   263.98699498
_cell_formula_units_Z   1
loop_
 _symmetry_equiv_pos_site_id
 _symmetry_equiv_pos_as_xyz
  1  'x, y, z'
loop_
 _atom_site_type_symbol
 _atom_site_label
 _atom_site_symmetry_multiplicity
 _atom_site_fract_x
 _atom_site_fract_y
 _atom_site_fract_z
 _atom_site_occupancy
  Y  Y0  1  0.856518  0.389682  0.685831  1
  Y  Y1  1  0.610318  0.314169  0.143482  1
  Y  Y2  1  0.314169  0.143482  0.610318  1
  Y  Y3  1  0.685831  0.856518  0.389682  1
  Y  Y4  1  0.389682  0.685831  0.856518  1
  Y  Y5  1  0.143482  0.610318  0.314169  1
  Os  Os6  1  0.000000  0.000000  0.000000  1
  O  O7  1  0.928548  0.034127  0.703800  1
  O  O8  1  0.965873  0.296200  0.071452  1
  O  O9  1  0.592181  0.177159  0.432826  1
  O  O10  1  0.822841  0.567174  0.407819  1
  O  O11  1  0.296200  0.071452  0.965873  1
  O  O12  1  0.567174  0.407819  0.822841  1
  O  O13  1  0.432826  0.592181  0.177159  1
  O  O14  1  0.703800  0.928548  0.034127  1
  O  O15  1  0.177159  0.432826  0.592181  1
  O  O16  1  0.407819  0.822841  0.567174  1
  O  O17  1  0.034127  0.703800  0.928548  1
  O  O18  1  0.071452  0.965873  0.296200  1
