# generated using pymatgen
data_TmPu(B4Mo)2
_symmetry_space_group_name_H-M   'P 1'
_cell_length_a   3.62320300
_cell_length_b   6.01630471
_cell_length_c   11.63849235
_cell_angle_alpha   90.08666332
_cell_angle_beta   90.00000000
_cell_angle_gamma   90.00000000
_symmetry_Int_Tables_number   1
_chemical_formula_structural   TmPu(B4Mo)2
_chemical_formula_sum   'Tm2 Pu2 B16 Mo4'
_cell_volume   253.69897928
_cell_formula_units_Z   2
loop_
 _symmetry_equiv_pos_site_id
 _symmetry_equiv_pos_as_xyz
  1  'x, y, z'
loop_
 _atom_site_type_symbol
 _atom_site_label
 _atom_site_symmetry_multiplicity
 _atom_site_fract_x
 _atom_site_fract_y
 _atom_site_fract_z
 _atom_site_occupancy
  Tm  Tm0  1  0.000000  0.626192  0.351136  1
  Tm  Tm1  1  0.000000  0.373808  0.648864  1
  Pu  Pu2  1  0.000000  0.127176  0.151360  1
  Pu  Pu3  1  0.000000  0.872824  0.848640  1
  B  B4  1  0.500000  0.787973  0.187577  1
  B  B5  1  0.500000  0.212027  0.812423  1
  B  B6  1  0.500000  0.288989  0.314036  1
  B  B7  1  0.500000  0.711011  0.685964  1
  B  B8  1  0.500000  0.866841  0.032151  1
  B  B9  1  0.500000  0.133159  0.967849  1
  B  B10  1  0.500000  0.367283  0.468258  1
  B  B11  1  0.500000  0.632717  0.531742  1
  B  B12  1  0.500000  0.885094  0.452402  1
  B  B13  1  0.500000  0.114906  0.547598  1
  B  B14  1  0.500000  0.384978  0.047811  1
  B  B15  1  0.500000  0.615022  0.952189  1
  B  B16  1  0.500000  0.976239  0.307041  1
  B  B17  1  0.500000  0.023761  0.692959  1
  B  B18  1  0.500000  0.476052  0.194607  1
  B  B19  1  0.500000  0.523948  0.805393  1
  Mo  Mo20  1  0.000000  0.631897  0.085519  1
  Mo  Mo21  1  0.000000  0.368103  0.914481  1
  Mo  Mo22  1  0.000000  0.130668  0.415536  1
  Mo  Mo23  1  0.000000  0.869332  0.584464  1
