# generated using pymatgen
data_Ta3Cr6Si2Mo
_symmetry_space_group_name_H-M   'P 1'
_cell_length_a   4.83721100
_cell_length_b   4.83721022
_cell_length_c   8.07609600
_cell_angle_alpha   90.00000000
_cell_angle_beta   90.00000000
_cell_angle_gamma   119.99999848
_symmetry_Int_Tables_number   1
_chemical_formula_structural   Ta3Cr6Si2Mo
_chemical_formula_sum   'Ta3 Cr6 Si2 Mo1'
_cell_volume   163.65229680
_cell_formula_units_Z   1
loop_
 _symmetry_equiv_pos_site_id
 _symmetry_equiv_pos_as_xyz
  1  'x, y, z'
loop_
 _atom_site_type_symbol
 _atom_site_label
 _atom_site_symmetry_multiplicity
 _atom_site_fract_x
 _atom_site_fract_y
 _atom_site_fract_z
 _atom_site_occupancy
  Ta  Ta0  1  0.666667  0.333333  0.563533  1
  Ta  Ta1  1  0.666667  0.333333  0.934131  1
  Ta  Ta2  1  0.333333  0.666667  0.066243  1
  Cr  Cr3  1  0.827394  0.172606  0.250898  1
  Cr  Cr4  1  0.827394  0.654789  0.250898  1
  Cr  Cr5  1  0.345211  0.172606  0.250898  1
  Cr  Cr6  1  0.172250  0.827750  0.749229  1
  Cr  Cr7  1  0.172250  0.344498  0.749229  1
  Cr  Cr8  1  0.655502  0.827750  0.749229  1
  Si  Si9  1  0.000000  0.000000  0.500172  1
  Si  Si10  1  0.000000  0.000000  0.000939  1
  Mo  Mo11  1  0.333333  0.666667  0.434600  1
