# generated using pymatgen
data_Ho2LuCo8TcP6
_symmetry_space_group_name_H-M   'P 1'
_cell_length_a   3.70249600
_cell_length_b   10.51749200
_cell_length_c   12.18519600
_cell_angle_alpha   90.00000000
_cell_angle_beta   90.00000000
_cell_angle_gamma   90.00000000
_symmetry_Int_Tables_number   1
_chemical_formula_structural   Ho2LuCo8TcP6
_chemical_formula_sum   'Ho4 Lu2 Co16 Tc2 P12'
_cell_volume   474.50337698
_cell_formula_units_Z   2
loop_
 _symmetry_equiv_pos_site_id
 _symmetry_equiv_pos_as_xyz
  1  'x, y, z'
loop_
 _atom_site_type_symbol
 _atom_site_label
 _atom_site_symmetry_multiplicity
 _atom_site_fract_x
 _atom_site_fract_y
 _atom_site_fract_z
 _atom_site_occupancy
  Ho  Ho0  1  0.000000  0.500000  0.524437  1
  Ho  Ho1  1  0.500000  0.000000  0.474439  1
  Ho  Ho2  1  0.000000  0.682250  0.794225  1
  Ho  Ho3  1  0.000000  0.317750  0.794225  1
  Lu  Lu4  1  0.500000  0.818323  0.206014  1
  Lu  Lu5  1  0.500000  0.181677  0.206014  1
  Co  Co6  1  0.000000  0.500000  0.988025  1
  Co  Co7  1  0.500000  0.000000  0.014195  1
  Co  Co8  1  0.500000  0.296595  0.430114  1
  Co  Co9  1  0.500000  0.703405  0.430114  1
  Co  Co10  1  0.000000  0.203173  0.567816  1
  Co  Co11  1  0.000000  0.796827  0.567816  1
  Co  Co12  1  0.500000  0.878907  0.707223  1
  Co  Co13  1  0.500000  0.121093  0.707223  1
  Co  Co14  1  0.000000  0.621983  0.291821  1
  Co  Co15  1  0.000000  0.378017  0.291821  1
  Co  Co16  1  0.500000  0.331786  0.990606  1
  Co  Co17  1  0.500000  0.668214  0.990606  1
  Co  Co18  1  0.000000  0.167258  0.011868  1
  Co  Co19  1  0.000000  0.832742  0.011868  1
  Co  Co20  1  0.500000  0.500000  0.702209  1
  Co  Co21  1  0.000000  0.000000  0.297115  1
  Tc  Tc22  1  0.500000  0.500000  0.156875  1
  Tc  Tc23  1  0.000000  0.000000  0.843373  1
  P  P24  1  0.500000  0.311859  0.615687  1
  P  P25  1  0.500000  0.688141  0.615687  1
  P  P26  1  0.000000  0.187594  0.382118  1
  P  P27  1  0.000000  0.812406  0.382118  1
  P  P28  1  0.500000  0.500000  0.881112  1
  P  P29  1  0.000000  0.000000  0.120879  1
  P  P30  1  0.500000  0.846501  0.893005  1
  P  P31  1  0.500000  0.153499  0.893005  1
  P  P32  1  0.000000  0.654961  0.108410  1
  P  P33  1  0.000000  0.345039  0.108410  1
  P  P34  1  0.500000  0.500000  0.349070  1
  P  P35  1  0.000000  0.000000  0.650457  1
