# generated using pymatgen
data_Th4CuTe12
_symmetry_space_group_name_H-M   'P 1'
_cell_length_a   7.57062861
_cell_length_b   7.57062978
_cell_length_c   11.52559468
_cell_angle_alpha   71.47967037
_cell_angle_beta   71.47966660
_cell_angle_gamma   71.57838790
_symmetry_Int_Tables_number   1
_chemical_formula_structural   Th4CuTe12
_chemical_formula_sum   'Th4 Cu1 Te12'
_cell_volume   576.68369060
_cell_formula_units_Z   1
loop_
 _symmetry_equiv_pos_site_id
 _symmetry_equiv_pos_as_xyz
  1  'x, y, z'
loop_
 _atom_site_type_symbol
 _atom_site_label
 _atom_site_symmetry_multiplicity
 _atom_site_fract_x
 _atom_site_fract_y
 _atom_site_fract_z
 _atom_site_occupancy
  Th  Th0  1  0.809869  0.809869  0.838075  1
  Th  Th1  1  0.310353  0.310353  0.839412  1
  Th  Th2  1  0.688975  0.193585  0.160695  1
  Th  Th3  1  0.193585  0.688975  0.160695  1
  Cu  Cu4  1  0.813298  0.813298  0.534858  1
  Te  Te5  1  0.005375  0.005375  0.328022  1
  Te  Te6  1  0.499221  0.499221  0.330046  1
  Te  Te7  1  0.496523  0.993255  0.668350  1
  Te  Te8  1  0.993255  0.496523  0.668350  1
  Te  Te9  1  0.259730  0.259730  0.334687  1
  Te  Te10  1  0.755847  0.755847  0.334277  1
  Te  Te11  1  0.242363  0.740606  0.668330  1
  Te  Te12  1  0.740606  0.242363  0.668330  1
  Te  Te13  1  0.022572  0.022572  0.941828  1
  Te  Te14  1  0.521801  0.521801  0.941341  1
  Te  Te15  1  0.478810  0.979115  0.058552  1
  Te  Te16  1  0.979115  0.478810  0.058552  1
