# generated using pymatgen
data_ZrTa3TiRe24
_symmetry_space_group_name_H-M   'P 1'
_cell_length_a   8.41994843
_cell_length_b   8.41994883
_cell_length_c   8.41994700
_cell_angle_alpha   109.50413880
_cell_angle_beta   109.50413254
_cell_angle_gamma   109.50414206
_symmetry_Int_Tables_number   1
_chemical_formula_structural   ZrTa3TiRe24
_chemical_formula_sum   'Zr1 Ta3 Ti1 Re24'
_cell_volume   458.96115918
_cell_formula_units_Z   1
loop_
 _symmetry_equiv_pos_site_id
 _symmetry_equiv_pos_as_xyz
  1  'x, y, z'
loop_
 _atom_site_type_symbol
 _atom_site_label
 _atom_site_symmetry_multiplicity
 _atom_site_fract_x
 _atom_site_fract_y
 _atom_site_fract_z
 _atom_site_occupancy
  Zr  Zr0  1  0.002333  0.002333  0.002333  1
  Ta  Ta1  1  0.631058  0.000025  0.000025  1
  Ta  Ta2  1  0.000025  0.631058  0.000025  1
  Ta  Ta3  1  0.000025  0.000025  0.631058  1
  Ti  Ti4  1  0.370864  0.370864  0.370864  1
  Re  Re5  1  0.399602  0.682639  0.000224  1
  Re  Re6  1  0.717843  0.317903  0.317903  1
  Re  Re7  1  0.399602  0.000224  0.682639  1
  Re  Re8  1  0.682639  0.399602  0.000224  1
  Re  Re9  1  0.000224  0.399602  0.682639  1
  Re  Re10  1  0.317903  0.717843  0.317903  1
  Re  Re11  1  0.317903  0.317903  0.717843  1
  Re  Re12  1  0.000224  0.682639  0.399602  1
  Re  Re13  1  0.682639  0.000224  0.399602  1
  Re  Re14  1  0.598757  0.598757  0.282590  1
  Re  Re15  1  0.282590  0.598757  0.598757  1
  Re  Re16  1  0.598757  0.282590  0.598757  1
  Re  Re17  1  0.376848  0.194251  0.001151  1
  Re  Re18  1  0.182807  0.804057  0.804057  1
  Re  Re19  1  0.376848  0.001151  0.194251  1
  Re  Re20  1  0.194251  0.376848  0.001151  1
  Re  Re21  1  0.001151  0.376848  0.194251  1
  Re  Re22  1  0.804057  0.182807  0.804057  1
  Re  Re23  1  0.804057  0.804057  0.182807  1
  Re  Re24  1  0.001151  0.194251  0.376848  1
  Re  Re25  1  0.194251  0.001151  0.376848  1
  Re  Re26  1  0.622423  0.622423  0.816745  1
  Re  Re27  1  0.816745  0.622423  0.622423  1
  Re  Re28  1  0.622423  0.816745  0.622423  1
