# generated using pymatgen
data_Lu12Co5Pb
_symmetry_space_group_name_H-M   'P 1'
_cell_length_a   8.09903800
_cell_length_b   8.09903886
_cell_length_c   8.09903859
_cell_angle_alpha   106.52705443
_cell_angle_beta   111.04900923
_cell_angle_gamma   110.87715925
_symmetry_Int_Tables_number   1
_chemical_formula_structural   Lu12Co5Pb
_chemical_formula_sum   'Lu12 Co5 Pb1'
_cell_volume   408.15223859
_cell_formula_units_Z   1
loop_
 _symmetry_equiv_pos_site_id
 _symmetry_equiv_pos_as_xyz
  1  'x, y, z'
loop_
 _atom_site_type_symbol
 _atom_site_label
 _atom_site_symmetry_multiplicity
 _atom_site_fract_x
 _atom_site_fract_y
 _atom_site_fract_z
 _atom_site_occupancy
  Lu  Lu0  1  0.470657  0.286356  0.184301  1
  Lu  Lu1  1  0.102055  0.286356  0.815699  1
  Lu  Lu2  1  0.897945  0.713644  0.184301  1
  Lu  Lu3  1  0.529343  0.713644  0.815699  1
  Lu  Lu4  1  0.306164  0.619045  0.312881  1
  Lu  Lu5  1  0.306164  0.993284  0.687119  1
  Lu  Lu6  1  0.693836  0.380955  0.687119  1
  Lu  Lu7  1  0.693836  0.006716  0.312881  1
  Lu  Lu8  1  0.194911  0.212359  0.407270  1
  Lu  Lu9  1  0.805089  0.787641  0.592730  1
  Lu  Lu10  1  0.194911  0.787641  0.982550  1
  Lu  Lu11  1  0.805089  0.212359  0.017450  1
  Co  Co12  1  0.500000  0.613151  0.113151  1
  Co  Co13  1  0.500000  0.386849  0.886849  1
  Co  Co14  1  0.373976  0.000000  0.373976  1
  Co  Co15  1  0.626024  0.000000  0.626024  1
  Co  Co16  1  0.000000  0.000000  0.000000  1
  Pb  Pb17  1  0.000000  0.500000  0.500000  1
