# generated using pymatgen
data_Dy5Lu15(Cd3Co)2
_symmetry_space_group_name_H-M   'P 1'
_cell_length_a   9.46074207
_cell_length_b   9.46074245
_cell_length_c   9.56017000
_cell_angle_alpha   90.00000000
_cell_angle_beta   90.00000000
_cell_angle_gamma   120.05446765
_symmetry_Int_Tables_number   1
_chemical_formula_structural   Dy5Lu15(Cd3Co)2
_chemical_formula_sum   'Dy5 Lu15 Cd6 Co2'
_cell_volume   740.64150152
_cell_formula_units_Z   1
loop_
 _symmetry_equiv_pos_site_id
 _symmetry_equiv_pos_as_xyz
  1  'x, y, z'
loop_
 _atom_site_type_symbol
 _atom_site_label
 _atom_site_symmetry_multiplicity
 _atom_site_fract_x
 _atom_site_fract_y
 _atom_site_fract_z
 _atom_site_occupancy
  Dy  Dy0  1  0.541522  0.084020  0.250000  1
  Dy  Dy1  1  0.915980  0.458478  0.250000  1
  Dy  Dy2  1  0.458257  0.541743  0.750000  1
  Dy  Dy3  1  0.458256  0.916750  0.750000  1
  Dy  Dy4  1  0.083250  0.541744  0.750000  1
  Lu  Lu5  1  0.999969  0.000031  0.500323  1
  Lu  Lu6  1  0.999969  0.000031  0.999677  1
  Lu  Lu7  1  0.541556  0.458444  0.250000  1
  Lu  Lu8  1  0.211727  0.788273  0.435912  1
  Lu  Lu9  1  0.212447  0.423333  0.435712  1
  Lu  Lu10  1  0.576667  0.787553  0.435712  1
  Lu  Lu11  1  0.788195  0.211805  0.564254  1
  Lu  Lu12  1  0.787975  0.576553  0.563855  1
  Lu  Lu13  1  0.423447  0.212025  0.563855  1
  Lu  Lu14  1  0.788195  0.211805  0.935746  1
  Lu  Lu15  1  0.787975  0.576553  0.936145  1
  Lu  Lu16  1  0.423447  0.212025  0.936145  1
  Lu  Lu17  1  0.211727  0.788273  0.064088  1
  Lu  Lu18  1  0.212447  0.423333  0.064288  1
  Lu  Lu19  1  0.576667  0.787553  0.064288  1
  Cd  Cd20  1  0.886485  0.113515  0.250000  1
  Cd  Cd21  1  0.885149  0.771974  0.250000  1
  Cd  Cd22  1  0.228026  0.114851  0.250000  1
  Cd  Cd23  1  0.113408  0.886592  0.750000  1
  Cd  Cd24  1  0.113829  0.227105  0.750000  1
  Cd  Cd25  1  0.772895  0.886171  0.750000  1
  Co  Co26  1  0.333526  0.666474  0.250000  1
  Co  Co27  1  0.667006  0.332994  0.750000  1
