# generated using pymatgen
data_Tm4SiOsRu6
_symmetry_space_group_name_H-M   'P 1'
_cell_length_a   5.44315311
_cell_length_b   5.15431208
_cell_length_c   8.78930600
_cell_angle_alpha   90.00000000
_cell_angle_beta   90.00000000
_cell_angle_gamma   121.87353699
_symmetry_Int_Tables_number   1
_chemical_formula_structural   Tm4SiOsRu6
_chemical_formula_sum   'Tm4 Si1 Os1 Ru6'
_cell_volume   209.40827636
_cell_formula_units_Z   1
loop_
 _symmetry_equiv_pos_site_id
 _symmetry_equiv_pos_as_xyz
  1  'x, y, z'
loop_
 _atom_site_type_symbol
 _atom_site_label
 _atom_site_symmetry_multiplicity
 _atom_site_fract_x
 _atom_site_fract_y
 _atom_site_fract_z
 _atom_site_occupancy
  Tm  Tm0  1  0.670427  0.340532  0.565562  1
  Tm  Tm1  1  0.331861  0.663451  0.433399  1
  Tm  Tm2  1  0.331861  0.663451  0.066601  1
  Tm  Tm3  1  0.670427  0.340532  0.934438  1
  Si  Si4  1  0.835715  0.671554  0.250000  1
  Os  Os5  1  0.159317  0.318183  0.750000  1
  Ru  Ru6  1  0.003675  0.006564  0.498091  1
  Ru  Ru7  1  0.003675  0.006564  0.001909  1
  Ru  Ru8  1  0.171249  0.817119  0.750000  1
  Ru  Ru9  1  0.644815  0.816971  0.750000  1
  Ru  Ru10  1  0.826980  0.177778  0.250000  1
  Ru  Ru11  1  0.349998  0.177303  0.250000  1
