# generated using pymatgen
data_SrPuNiS3
_symmetry_space_group_name_H-M   'P 1'
_cell_length_a   6.70241888
_cell_length_b   6.70241927
_cell_length_c   10.18329463
_cell_angle_alpha   89.79436921
_cell_angle_beta   89.79436974
_cell_angle_gamma   33.92995946
_symmetry_Int_Tables_number   1
_chemical_formula_structural   SrPuNiS3
_chemical_formula_sum   'Sr2 Pu2 Ni2 S6'
_cell_volume   255.34181057
_cell_formula_units_Z   2
loop_
 _symmetry_equiv_pos_site_id
 _symmetry_equiv_pos_as_xyz
  1  'x, y, z'
loop_
 _atom_site_type_symbol
 _atom_site_label
 _atom_site_symmetry_multiplicity
 _atom_site_fract_x
 _atom_site_fract_y
 _atom_site_fract_z
 _atom_site_occupancy
  Sr  Sr0  1  0.745134  0.745134  0.250223  1
  Sr  Sr1  1  0.254868  0.254868  0.749775  1
  Pu  Pu2  1  0.000000  0.000000  0.000000  1
  Pu  Pu3  1  0.000000  0.000000  0.499999  1
  Ni  Ni4  1  0.473378  0.473378  0.249923  1
  Ni  Ni5  1  0.526624  0.526624  0.750075  1
  S  S6  1  0.363881  0.363881  0.073397  1
  S  S7  1  0.069359  0.069359  0.249830  1
  S  S8  1  0.363852  0.363852  0.426897  1
  S  S9  1  0.636150  0.636150  0.573102  1
  S  S10  1  0.930643  0.930643  0.750168  1
  S  S11  1  0.636121  0.636121  0.926603  1
