# generated using pymatgen
data_TbDy4Th3(MgRu)2
_symmetry_space_group_name_H-M   'P 1'
_cell_length_a   9.74278652
_cell_length_b   9.82821212
_cell_length_c   9.82633401
_cell_angle_alpha   59.43202707
_cell_angle_beta   60.29357043
_cell_angle_gamma   60.27438727
_symmetry_Int_Tables_number   1
_chemical_formula_structural   TbDy4Th3(MgRu)2
_chemical_formula_sum   'Tb2 Dy8 Th6 Mg4 Ru4'
_cell_volume   665.22797054
_cell_formula_units_Z   2
loop_
 _symmetry_equiv_pos_site_id
 _symmetry_equiv_pos_as_xyz
  1  'x, y, z'
loop_
 _atom_site_type_symbol
 _atom_site_label
 _atom_site_symmetry_multiplicity
 _atom_site_fract_x
 _atom_site_fract_y
 _atom_site_fract_z
 _atom_site_occupancy
  Tb  Tb0  1  0.813251  0.813251  0.186749  1
  Tb  Tb1  1  0.186749  0.186749  0.813251  1
  Dy  Dy2  1  0.439266  0.060734  0.439266  1
  Dy  Dy3  1  0.060734  0.439266  0.060734  1
  Dy  Dy4  1  0.439262  0.439262  0.060738  1
  Dy  Dy5  1  0.060738  0.060738  0.439262  1
  Dy  Dy6  1  0.183967  0.816033  0.816033  1
  Dy  Dy7  1  0.816033  0.183967  0.183967  1
  Dy  Dy8  1  0.812967  0.187033  0.812967  1
  Dy  Dy9  1  0.187033  0.812967  0.187033  1
  Th  Th10  1  0.592185  0.598697  0.598840  1
  Th  Th11  1  0.598697  0.592185  0.210281  1
  Th  Th12  1  0.598840  0.210281  0.592185  1
  Th  Th13  1  0.210281  0.598840  0.598697  1
  Th  Th14  1  0.066015  0.433985  0.433985  1
  Th  Th15  1  0.433985  0.066015  0.066015  1
  Mg  Mg16  1  0.831879  0.829242  0.829018  1
  Mg  Mg17  1  0.829242  0.831879  0.509861  1
  Mg  Mg18  1  0.829018  0.509861  0.831879  1
  Mg  Mg19  1  0.509861  0.829018  0.829242  1
  Ru  Ru20  1  0.378293  0.398972  0.398698  1
  Ru  Ru21  1  0.398972  0.378293  0.824037  1
  Ru  Ru22  1  0.398698  0.824037  0.378293  1
  Ru  Ru23  1  0.824037  0.398698  0.398972  1
