# generated using pymatgen
data_ErCoNi(PRu)3
_symmetry_space_group_name_H-M   'P 1'
_cell_length_a   3.78287600
_cell_length_b   10.66100400
_cell_length_c   12.09034800
_cell_angle_alpha   90.00000000
_cell_angle_beta   90.00000000
_cell_angle_gamma   90.00000000
_symmetry_Int_Tables_number   1
_chemical_formula_structural   ErCoNi(PRu)3
_chemical_formula_sum   'Er4 Co4 Ni4 P12 Ru12'
_cell_volume   487.59474165
_cell_formula_units_Z   4
loop_
 _symmetry_equiv_pos_site_id
 _symmetry_equiv_pos_as_xyz
  1  'x, y, z'
loop_
 _atom_site_type_symbol
 _atom_site_label
 _atom_site_symmetry_multiplicity
 _atom_site_fract_x
 _atom_site_fract_y
 _atom_site_fract_z
 _atom_site_occupancy
  Er  Er0  1  0.250000  0.585680  0.706745  1
  Er  Er1  1  0.250000  0.914320  0.206745  1
  Er  Er2  1  0.750000  0.414320  0.293255  1
  Er  Er3  1  0.750000  0.085680  0.793255  1
  Co  Co4  1  0.250000  0.462109  0.932071  1
  Co  Co5  1  0.250000  0.037891  0.432071  1
  Co  Co6  1  0.750000  0.537891  0.067929  1
  Co  Co7  1  0.750000  0.962109  0.567929  1
  Ni  Ni8  1  0.250000  0.888113  0.697674  1
  Ni  Ni9  1  0.250000  0.611887  0.197674  1
  Ni  Ni10  1  0.750000  0.111887  0.302326  1
  Ni  Ni11  1  0.750000  0.388113  0.802326  1
  P  P12  1  0.250000  0.423480  0.110560  1
  P  P13  1  0.250000  0.076520  0.610560  1
  P  P14  1  0.750000  0.576520  0.889440  1
  P  P15  1  0.750000  0.923480  0.389440  1
  P  P16  1  0.250000  0.269397  0.873754  1
  P  P17  1  0.250000  0.230603  0.373754  1
  P  P18  1  0.750000  0.730603  0.126246  1
  P  P19  1  0.750000  0.769397  0.626246  1
  P  P20  1  0.250000  0.601151  0.389271  1
  P  P21  1  0.250000  0.898849  0.889271  1
  P  P22  1  0.750000  0.398849  0.610729  1
  P  P23  1  0.750000  0.101151  0.110729  1
  Ru  Ru24  1  0.250000  0.707547  0.986774  1
  Ru  Ru25  1  0.250000  0.792453  0.486774  1
  Ru  Ru26  1  0.750000  0.292453  0.013226  1
  Ru  Ru27  1  0.750000  0.207547  0.513226  1
  Ru  Ru28  1  0.250000  0.406087  0.485536  1
  Ru  Ru29  1  0.250000  0.093913  0.985536  1
  Ru  Ru30  1  0.750000  0.593913  0.514464  1
  Ru  Ru31  1  0.750000  0.906087  0.014464  1
  Ru  Ru32  1  0.250000  0.223382  0.181791  1
  Ru  Ru33  1  0.250000  0.276618  0.681791  1
  Ru  Ru34  1  0.750000  0.776618  0.818209  1
  Ru  Ru35  1  0.750000  0.723382  0.318209  1
