# generated using pymatgen
data_LiDy3In3Pt2
_symmetry_space_group_name_H-M   'P 1'
_cell_length_a   7.79522200
_cell_length_b   7.79522226
_cell_length_c   3.74282100
_cell_angle_alpha   90.00000000
_cell_angle_beta   90.00000000
_cell_angle_gamma   120.00000739
_symmetry_Int_Tables_number   1
_chemical_formula_structural   LiDy3In3Pt2
_chemical_formula_sum   'Li1 Dy3 In3 Pt2'
_cell_volume   196.96390552
_cell_formula_units_Z   1
loop_
 _symmetry_equiv_pos_site_id
 _symmetry_equiv_pos_as_xyz
  1  'x, y, z'
loop_
 _atom_site_type_symbol
 _atom_site_label
 _atom_site_symmetry_multiplicity
 _atom_site_fract_x
 _atom_site_fract_y
 _atom_site_fract_z
 _atom_site_occupancy
  Li  Li0  1  0.000000  0.000000  0.500000  1
  Dy  Dy1  1  0.583963  0.000000  0.500000  1
  Dy  Dy2  1  0.416037  0.416037  0.500000  1
  Dy  Dy3  1  0.000000  0.583963  0.500000  1
  In  In4  1  0.745351  0.745351  0.000000  1
  In  In5  1  0.000000  0.254649  0.000000  1
  In  In6  1  0.254649  0.000000  0.000000  1
  Pt  Pt7  1  0.333333  0.666667  0.000000  1
  Pt  Pt8  1  0.666667  0.333333  0.000000  1
