# generated using pymatgen
data_Pr4As3O4
_symmetry_space_group_name_H-M   'P 1'
_cell_length_a   7.19621593
_cell_length_b   7.19621647
_cell_length_c   8.18812400
_cell_angle_alpha   90.00000000
_cell_angle_beta   90.00000000
_cell_angle_gamma   146.78651921
_symmetry_Int_Tables_number   1
_chemical_formula_structural   Pr4As3O4
_chemical_formula_sum   'Pr4 As3 O4'
_cell_volume   232.26469422
_cell_formula_units_Z   1
loop_
 _symmetry_equiv_pos_site_id
 _symmetry_equiv_pos_as_xyz
  1  'x, y, z'
loop_
 _atom_site_type_symbol
 _atom_site_label
 _atom_site_symmetry_multiplicity
 _atom_site_fract_x
 _atom_site_fract_y
 _atom_site_fract_z
 _atom_site_occupancy
  Pr  Pr0  1  0.320779  0.679221  0.758990  1
  Pr  Pr1  1  0.320779  0.679221  0.241010  1
  Pr  Pr2  1  0.986800  0.013200  0.500000  1
  Pr  Pr3  1  0.998364  0.001636  0.000000  1
  As  As4  1  0.628386  0.371614  0.272385  1
  As  As5  1  0.628386  0.371614  0.727615  1
  As  As6  1  0.699189  0.300811  0.000000  1
  O  O7  1  0.395398  0.604602  0.500000  1
  O  O8  1  0.413254  0.586746  0.000000  1
  O  O9  1  0.904937  0.095063  0.751864  1
  O  O10  1  0.904937  0.095063  0.248136  1
