# generated using pymatgen
data_CsKRbSc(PO4)2
_symmetry_space_group_name_H-M   'P 1'
_cell_length_a   5.55838400
_cell_length_b   5.55838422
_cell_length_c   8.03265800
_cell_angle_alpha   90.00000000
_cell_angle_beta   90.00000000
_cell_angle_gamma   119.99999870
_symmetry_Int_Tables_number   1
_chemical_formula_structural   CsKRbSc(PO4)2
_chemical_formula_sum   'Cs1 K1 Rb1 Sc1 P2 O8'
_cell_volume   214.92504407
_cell_formula_units_Z   1
loop_
 _symmetry_equiv_pos_site_id
 _symmetry_equiv_pos_as_xyz
  1  'x, y, z'
loop_
 _atom_site_type_symbol
 _atom_site_label
 _atom_site_symmetry_multiplicity
 _atom_site_fract_x
 _atom_site_fract_y
 _atom_site_fract_z
 _atom_site_occupancy
  Cs  Cs0  1  0.000000  0.000000  0.501069  1
  K  K1  1  0.666667  0.333333  0.752044  1
  Rb  Rb2  1  0.333333  0.666667  0.251402  1
  Sc  Sc3  1  0.000000  0.000000  0.999944  1
  P  P4  1  0.333333  0.666667  0.784079  1
  P  P5  1  0.666667  0.333333  0.215567  1
  O  O6  1  0.361589  0.180794  0.148759  1
  O  O7  1  0.819206  0.638411  0.148759  1
  O  O8  1  0.819206  0.180794  0.148759  1
  O  O9  1  0.639116  0.819559  0.849877  1
  O  O10  1  0.180441  0.360884  0.849877  1
  O  O11  1  0.180441  0.819559  0.849877  1
  O  O12  1  0.666667  0.333333  0.405936  1
  O  O13  1  0.333333  0.666667  0.594050  1
