# generated using pymatgen
data_PrY3(In2Cl5)4
_symmetry_space_group_name_H-M   'P 1'
_cell_length_a   8.24012473
_cell_length_b   8.68041500
_cell_length_c   13.03252547
_cell_angle_alpha   90.00000000
_cell_angle_beta   90.36395519
_cell_angle_gamma   90.00000000
_symmetry_Int_Tables_number   1
_chemical_formula_structural   PrY3(In2Cl5)4
_chemical_formula_sum   'Pr1 Y3 In8 Cl20'
_cell_volume   932.16779491
_cell_formula_units_Z   1
loop_
 _symmetry_equiv_pos_site_id
 _symmetry_equiv_pos_as_xyz
  1  'x, y, z'
loop_
 _atom_site_type_symbol
 _atom_site_label
 _atom_site_symmetry_multiplicity
 _atom_site_fract_x
 _atom_site_fract_y
 _atom_site_fract_z
 _atom_site_occupancy
  Pr  Pr0  1  0.426015  0.250000  0.994292  1
  Y  Y1  1  0.928910  0.750000  0.504053  1
  Y  Y2  1  0.573738  0.750000  0.004510  1
  Y  Y3  1  0.071410  0.250000  0.495939  1
  In  In4  1  0.941514  0.007111  0.828866  1
  In  In5  1  0.057031  0.990903  0.171172  1
  In  In6  1  0.557868  0.492483  0.330478  1
  In  In7  1  0.057031  0.509097  0.171172  1
  In  In8  1  0.941514  0.492889  0.828866  1
  In  In9  1  0.442351  0.508226  0.669301  1
  In  In10  1  0.557868  0.007517  0.330478  1
  In  In11  1  0.442351  0.991774  0.669301  1
  Cl  Cl12  1  0.594783  0.750000  0.508236  1
  Cl  Cl13  1  0.161869  0.956745  0.433368  1
  Cl  Cl14  1  0.838512  0.043359  0.566382  1
  Cl  Cl15  1  0.335206  0.550189  0.930486  1
  Cl  Cl16  1  0.161869  0.543255  0.433368  1
  Cl  Cl17  1  0.345513  0.250000  0.203275  1
  Cl  Cl18  1  0.335206  0.949811  0.930486  1
  Cl  Cl19  1  0.838512  0.456641  0.566382  1
  Cl  Cl20  1  0.400877  0.750000  0.179302  1
  Cl  Cl21  1  0.666379  0.038209  0.070114  1
  Cl  Cl22  1  0.152117  0.250000  0.697391  1
  Cl  Cl23  1  0.609244  0.250000  0.812469  1
  Cl  Cl24  1  0.405552  0.250000  0.492814  1
  Cl  Cl25  1  0.099540  0.750000  0.679897  1
  Cl  Cl26  1  0.666379  0.461791  0.070114  1
  Cl  Cl27  1  0.080998  0.250000  0.993443  1
  Cl  Cl28  1  0.909143  0.750000  0.007342  1
  Cl  Cl29  1  0.848896  0.750000  0.303173  1
  Cl  Cl30  1  0.651914  0.750000  0.803890  1
  Cl  Cl31  1  0.899896  0.250000  0.319641  1
