# generated using pymatgen
data_LiTb9Cd3Pt
_symmetry_space_group_name_H-M   'P 1'
_cell_length_a   9.57810100
_cell_length_b   9.57810094
_cell_length_c   9.72048500
_cell_angle_alpha   90.00000000
_cell_angle_beta   90.00000000
_cell_angle_gamma   119.99999677
_symmetry_Int_Tables_number   1
_chemical_formula_structural   LiTb9Cd3Pt
_chemical_formula_sum   'Li2 Tb18 Cd6 Pt2'
_cell_volume   772.28464843
_cell_formula_units_Z   2
loop_
 _symmetry_equiv_pos_site_id
 _symmetry_equiv_pos_as_xyz
  1  'x, y, z'
loop_
 _atom_site_type_symbol
 _atom_site_label
 _atom_site_symmetry_multiplicity
 _atom_site_fract_x
 _atom_site_fract_y
 _atom_site_fract_z
 _atom_site_occupancy
  Li  Li0  1  0.000000  0.000000  0.000000  1
  Li  Li1  1  0.000000  0.000000  0.500000  1
  Tb  Tb2  1  0.205127  0.794873  0.942547  1
  Tb  Tb3  1  0.205127  0.410253  0.942547  1
  Tb  Tb4  1  0.589747  0.794873  0.942547  1
  Tb  Tb5  1  0.794873  0.205127  0.057453  1
  Tb  Tb6  1  0.794873  0.589747  0.057453  1
  Tb  Tb7  1  0.410253  0.205127  0.057453  1
  Tb  Tb8  1  0.794873  0.205127  0.442547  1
  Tb  Tb9  1  0.794873  0.589747  0.442547  1
  Tb  Tb10  1  0.410253  0.205127  0.442547  1
  Tb  Tb11  1  0.205127  0.794873  0.557453  1
  Tb  Tb12  1  0.205127  0.410253  0.557453  1
  Tb  Tb13  1  0.589747  0.794873  0.557453  1
  Tb  Tb14  1  0.542524  0.457476  0.750000  1
  Tb  Tb15  1  0.542524  0.085049  0.750000  1
  Tb  Tb16  1  0.914951  0.457476  0.750000  1
  Tb  Tb17  1  0.457476  0.542524  0.250000  1
  Tb  Tb18  1  0.457476  0.914951  0.250000  1
  Tb  Tb19  1  0.085049  0.542524  0.250000  1
  Cd  Cd20  1  0.891786  0.108214  0.750000  1
  Cd  Cd21  1  0.891786  0.783572  0.750000  1
  Cd  Cd22  1  0.216428  0.108214  0.750000  1
  Cd  Cd23  1  0.108214  0.891786  0.250000  1
  Cd  Cd24  1  0.108214  0.216428  0.250000  1
  Cd  Cd25  1  0.783572  0.891786  0.250000  1
  Pt  Pt26  1  0.333333  0.666667  0.750000  1
  Pt  Pt27  1  0.666667  0.333333  0.250000  1
