# generated using pymatgen
data_Na2Cu3Pd3O8
_symmetry_space_group_name_H-M   'P 1'
_cell_length_a   5.60580400
_cell_length_b   5.71110100
_cell_length_c   5.53197900
_cell_angle_alpha   90.00000000
_cell_angle_beta   90.00000000
_cell_angle_gamma   90.00000000
_symmetry_Int_Tables_number   1
_chemical_formula_structural   Na2Cu3Pd3O8
_chemical_formula_sum   'Na2 Cu3 Pd3 O8'
_cell_volume   177.10803826
_cell_formula_units_Z   1
loop_
 _symmetry_equiv_pos_site_id
 _symmetry_equiv_pos_as_xyz
  1  'x, y, z'
loop_
 _atom_site_type_symbol
 _atom_site_label
 _atom_site_symmetry_multiplicity
 _atom_site_fract_x
 _atom_site_fract_y
 _atom_site_fract_z
 _atom_site_occupancy
  Na  Na0  1  0.998779  0.000000  0.000000  1
  Na  Na1  1  0.500852  0.500000  0.500000  1
  Cu  Cu2  1  0.503206  0.250432  0.000000  1
  Cu  Cu3  1  0.503206  0.749568  0.000000  1
  Cu  Cu4  1  0.746382  0.000000  0.500000  1
  Pd  Pd5  1  0.996318  0.500000  0.245196  1
  Pd  Pd6  1  0.996318  0.500000  0.754804  1
  Pd  Pd7  1  0.255210  0.000000  0.500000  1
  O  O8  1  0.257284  0.251526  0.242877  1
  O  O9  1  0.257284  0.748474  0.242877  1
  O  O10  1  0.257284  0.251526  0.757123  1
  O  O11  1  0.257284  0.748474  0.757123  1
  O  O12  1  0.742649  0.244526  0.248427  1
  O  O13  1  0.742649  0.244526  0.751573  1
  O  O14  1  0.742649  0.755474  0.248427  1
  O  O15  1  0.742649  0.755474  0.751573  1
