# generated using pymatgen
data_Pa4AlOs7
_symmetry_space_group_name_H-M   'P 1'
_cell_length_a   5.52278500
_cell_length_b   5.52278639
_cell_length_c   8.21371200
_cell_angle_alpha   90.00000000
_cell_angle_beta   90.00000000
_cell_angle_gamma   119.99998570
_symmetry_Int_Tables_number   1
_chemical_formula_structural   Pa4AlOs7
_chemical_formula_sum   'Pa4 Al1 Os7'
_cell_volume   216.96343476
_cell_formula_units_Z   1
loop_
 _symmetry_equiv_pos_site_id
 _symmetry_equiv_pos_as_xyz
  1  'x, y, z'
loop_
 _atom_site_type_symbol
 _atom_site_label
 _atom_site_symmetry_multiplicity
 _atom_site_fract_x
 _atom_site_fract_y
 _atom_site_fract_z
 _atom_site_occupancy
  Pa  Pa0  1  0.333333  0.666667  0.432893  1
  Pa  Pa1  1  0.666667  0.333333  0.567107  1
  Pa  Pa2  1  0.666667  0.333333  0.925424  1
  Pa  Pa3  1  0.333333  0.666667  0.074576  1
  Al  Al4  1  0.000000  0.000000  0.000000  1
  Os  Os5  1  0.169842  0.339685  0.752207  1
  Os  Os6  1  0.169842  0.830158  0.752207  1
  Os  Os7  1  0.339685  0.169842  0.247793  1
  Os  Os8  1  0.830158  0.660315  0.247793  1
  Os  Os9  1  0.660315  0.830158  0.752207  1
  Os  Os10  1  0.830158  0.169842  0.247793  1
  Os  Os11  1  0.000000  0.000000  0.500000  1
