# generated using pymatgen
data_Ca2Tb2(Al8Pt3)3
_symmetry_space_group_name_H-M   'P 1'
_cell_length_a   7.53068480
_cell_length_b   7.55219293
_cell_length_c   13.17955700
_cell_angle_alpha   84.56413810
_cell_angle_beta   79.10967860
_cell_angle_gamma   59.97355192
_symmetry_Int_Tables_number   1
_chemical_formula_structural   Ca2Tb2(Al8Pt3)3
_chemical_formula_sum   'Ca2 Tb2 Al24 Pt9'
_cell_volume   637.28034480
_cell_formula_units_Z   1
loop_
 _symmetry_equiv_pos_site_id
 _symmetry_equiv_pos_as_xyz
  1  'x, y, z'
loop_
 _atom_site_type_symbol
 _atom_site_label
 _atom_site_symmetry_multiplicity
 _atom_site_fract_x
 _atom_site_fract_y
 _atom_site_fract_z
 _atom_site_occupancy
  Ca  Ca0  1  0.733656  0.499170  0.807470  1
  Ca  Ca1  1  0.266344  0.500830  0.192530  1
  Tb  Tb2  1  0.394189  0.168729  0.807815  1
  Tb  Tb3  1  0.605811  0.831271  0.192185  1
  Al  Al4  1  0.684605  0.833643  0.944744  1
  Al  Al5  1  0.315395  0.166357  0.055256  1
  Al  Al6  1  0.147012  0.831973  0.561398  1
  Al  Al7  1  0.852988  0.168027  0.438602  1
  Al  Al8  1  0.479754  0.166792  0.559011  1
  Al  Al9  1  0.520246  0.833208  0.440989  1
  Al  Al10  1  0.216361  0.166064  0.330231  1
  Al  Al11  1  0.783639  0.833936  0.669769  1
  Al  Al12  1  0.437687  0.506935  0.669970  1
  Al  Al13  1  0.562313  0.493065  0.330030  1
  Al  Al14  1  0.108887  0.160537  0.668220  1
  Al  Al15  1  0.891113  0.839463  0.331780  1
  Al  Al16  1  0.352154  0.499946  0.945741  1
  Al  Al17  1  0.647846  0.500054  0.054259  1
  Al  Al18  1  0.015002  0.167635  0.954906  1
  Al  Al19  1  0.984998  0.832365  0.045094  1
  Al  Al20  1  0.186288  0.499491  0.440911  1
  Al  Al21  1  0.813712  0.500509  0.559089  1
  Al  Al22  1  0.735008  0.162554  0.183512  1
  Al  Al23  1  0.264992  0.837446  0.816488  1
  Al  Al24  1  0.063525  0.630349  0.815381  1
  Al  Al25  1  0.936475  0.369651  0.184619  1
  Al  Al26  1  0.854462  0.039923  0.816037  1
  Al  Al27  1  0.145538  0.960077  0.183963  1
  Pt  Pt28  1  0.121261  0.492452  0.637329  1
  Pt  Pt29  1  0.878739  0.507548  0.362671  1
  Pt  Pt30  1  0.657465  0.170440  0.999909  1
  Pt  Pt31  1  0.342535  0.829560  0.000091  1
  Pt  Pt32  1  0.538571  0.165930  0.362587  1
  Pt  Pt33  1  0.461429  0.834070  0.637413  1
  Pt  Pt34  1  0.780141  0.173688  0.636158  1
  Pt  Pt35  1  0.219859  0.826312  0.363842  1
  Pt  Pt36  1  0.000000  0.500000  0.000000  1
