# generated using pymatgen
data_KCr3F8
_symmetry_space_group_name_H-M   'P 1'
_cell_length_a   5.41663932
_cell_length_b   5.54916510
_cell_length_c   5.66741444
_cell_angle_alpha   81.34078649
_cell_angle_beta   84.68501472
_cell_angle_gamma   93.47189585
_symmetry_Int_Tables_number   1
_chemical_formula_structural   KCr3F8
_chemical_formula_sum   'K1 Cr3 F8'
_cell_volume   167.20330186
_cell_formula_units_Z   1
loop_
 _symmetry_equiv_pos_site_id
 _symmetry_equiv_pos_as_xyz
  1  'x, y, z'
loop_
 _atom_site_type_symbol
 _atom_site_label
 _atom_site_symmetry_multiplicity
 _atom_site_fract_x
 _atom_site_fract_y
 _atom_site_fract_z
 _atom_site_occupancy
  K  K0  1  0.780096  0.857878  0.247021  1
  Cr  Cr1  1  0.778682  0.352461  0.742645  1
  Cr  Cr2  1  0.281569  0.356319  0.247818  1
  Cr  Cr3  1  0.275592  0.855890  0.746476  1
  F  F4  1  0.351146  0.022066  0.404131  1
  F  F5  1  0.594106  0.029806  0.816881  1
  F  F6  1  0.046548  0.200823  0.905186  1
  F  F7  1  0.963853  0.674560  0.670736  1
  F  F8  1  0.205491  0.686612  0.088065  1
  F  F9  1  0.620742  0.422907  0.048330  1
  F  F10  1  0.511870  0.501123  0.575876  1
  F  F11  1  0.937594  0.283565  0.436845  1
