# generated using pymatgen
data_AcIn4Ni
_symmetry_space_group_name_H-M   'P 1'
_cell_length_a   8.95697300
_cell_length_b   8.95697227
_cell_length_c   7.43460200
_cell_angle_alpha   90.00000000
_cell_angle_beta   90.00000000
_cell_angle_gamma   150.33084063
_symmetry_Int_Tables_number   1
_chemical_formula_structural   AcIn4Ni
_chemical_formula_sum   'Ac2 In8 Ni2'
_cell_volume   295.24160308
_cell_formula_units_Z   2
loop_
 _symmetry_equiv_pos_site_id
 _symmetry_equiv_pos_as_xyz
  1  'x, y, z'
loop_
 _atom_site_type_symbol
 _atom_site_label
 _atom_site_symmetry_multiplicity
 _atom_site_fract_x
 _atom_site_fract_y
 _atom_site_fract_z
 _atom_site_occupancy
  Ac  Ac0  1  0.881860  0.118138  0.250000  1
  Ac  Ac1  1  0.118138  0.881860  0.750000  1
  In  In2  1  0.499999  0.499999  0.000000  1
  In  In3  1  0.689880  0.310118  0.051832  1
  In  In4  1  0.078019  0.921980  0.250000  1
  In  In5  1  0.689880  0.310118  0.448169  1
  In  In6  1  0.499999  0.499999  0.500001  1
  In  In7  1  0.310118  0.689880  0.551831  1
  In  In8  1  0.921980  0.078019  0.750000  1
  In  In9  1  0.310118  0.689880  0.948170  1
  Ni  Ni10  1  0.227750  0.772248  0.250000  1
  Ni  Ni11  1  0.772248  0.227750  0.750000  1
