# generated using pymatgen
data_Cs4Tb11YS20
_symmetry_space_group_name_H-M   'P 1'
_cell_length_a   4.02129500
_cell_length_b   12.09601312
_cell_length_c   21.45286400
_cell_angle_alpha   90.11677042
_cell_angle_beta   90.00000000
_cell_angle_gamma   90.00000000
_symmetry_Int_Tables_number   1
_chemical_formula_structural   Cs4Tb11YS20
_chemical_formula_sum   'Cs4 Tb11 Y1 S20'
_cell_volume   1043.50025794
_cell_formula_units_Z   1
loop_
 _symmetry_equiv_pos_site_id
 _symmetry_equiv_pos_as_xyz
  1  'x, y, z'
loop_
 _atom_site_type_symbol
 _atom_site_label
 _atom_site_symmetry_multiplicity
 _atom_site_fract_x
 _atom_site_fract_y
 _atom_site_fract_z
 _atom_site_occupancy
  Cs  Cs0  1  0.250000  0.853375  0.095357  1
  Cs  Cs1  1  0.750000  0.146862  0.904936  1
  Cs  Cs2  1  0.750000  0.352696  0.406244  1
  Cs  Cs3  1  0.250000  0.647619  0.594831  1
  Tb  Tb4  1  0.750000  0.797751  0.825366  1
  Tb  Tb5  1  0.250000  0.201884  0.174721  1
  Tb  Tb6  1  0.250000  0.297472  0.672921  1
  Tb  Tb7  1  0.750000  0.702594  0.326200  1
  Tb  Tb8  1  0.250000  0.959934  0.697427  1
  Tb  Tb9  1  0.750000  0.041423  0.303501  1
  Tb  Tb10  1  0.750000  0.458802  0.801810  1
  Tb  Tb11  1  0.250000  0.540553  0.197697  1
  Tb  Tb12  1  0.750000  0.389418  0.052116  1
  Tb  Tb13  1  0.250000  0.610229  0.947606  1
  Tb  Tb14  1  0.250000  0.890822  0.448134  1
  Y  Y15  1  0.750000  0.108603  0.552495  1
  S  S16  1  0.250000  0.952405  0.569185  1
  S  S17  1  0.750000  0.048337  0.431429  1
  S  S18  1  0.750000  0.452496  0.930705  1
  S  S19  1  0.250000  0.547184  0.068801  1
  S  S20  1  0.750000  0.762806  0.951924  1
  S  S21  1  0.250000  0.236841  0.047928  1
  S  S22  1  0.250000  0.259784  0.546854  1
  S  S23  1  0.750000  0.738764  0.452774  1
  S  S24  1  0.250000  0.946850  0.824389  1
  S  S25  1  0.750000  0.053064  0.176343  1
  S  S26  1  0.750000  0.446167  0.674273  1
  S  S27  1  0.250000  0.553650  0.324973  1
  S  S28  1  0.750000  0.127181  0.682061  1
  S  S29  1  0.250000  0.873716  0.318123  1
  S  S30  1  0.250000  0.626916  0.817008  1
  S  S31  1  0.750000  0.372859  0.182550  1
  S  S32  1  0.750000  0.688320  0.198936  1
  S  S33  1  0.250000  0.311121  0.800248  1
  S  S34  1  0.250000  0.189239  0.302018  1
  S  S35  1  0.750000  0.812262  0.698113  1
