# generated using pymatgen
data_Cr2ReIr4Os
_symmetry_space_group_name_H-M   'P 1'
_cell_length_a   5.40830900
_cell_length_b   5.46779353
_cell_length_c   4.30206500
_cell_angle_alpha   90.00000000
_cell_angle_beta   90.00000000
_cell_angle_gamma   119.64076490
_symmetry_Int_Tables_number   1
_chemical_formula_structural   Cr2ReIr4Os
_chemical_formula_sum   'Cr2 Re1 Ir4 Os1'
_cell_volume   110.57118087
_cell_formula_units_Z   1
loop_
 _symmetry_equiv_pos_site_id
 _symmetry_equiv_pos_as_xyz
  1  'x, y, z'
loop_
 _atom_site_type_symbol
 _atom_site_label
 _atom_site_symmetry_multiplicity
 _atom_site_fract_x
 _atom_site_fract_y
 _atom_site_fract_z
 _atom_site_occupancy
  Cr  Cr0  1  0.333225  0.666452  0.750000  1
  Cr  Cr1  1  0.669927  0.339852  0.250000  1
  Re  Re2  1  0.169558  0.339115  0.250000  1
  Ir  Ir3  1  0.661799  0.825634  0.250000  1
  Ir  Ir4  1  0.163835  0.825634  0.250000  1
  Ir  Ir5  1  0.339123  0.171232  0.750000  1
  Ir  Ir6  1  0.832108  0.171232  0.750000  1
  Os  Os7  1  0.830425  0.660852  0.750000  1
