# generated using pymatgen
data_Yb5Pr5Ru4
_symmetry_space_group_name_H-M   'P 1'
_cell_length_a   8.74777451
_cell_length_b   8.76573722
_cell_length_c   7.42308843
_cell_angle_alpha   83.59519644
_cell_angle_beta   83.44723421
_cell_angle_gamma   44.09357289
_symmetry_Int_Tables_number   1
_chemical_formula_structural   Yb5Pr5Ru4
_chemical_formula_sum   'Yb5 Pr5 Ru4'
_cell_volume   393.12480982
_cell_formula_units_Z   1
loop_
 _symmetry_equiv_pos_site_id
 _symmetry_equiv_pos_as_xyz
  1  'x, y, z'
loop_
 _atom_site_type_symbol
 _atom_site_label
 _atom_site_symmetry_multiplicity
 _atom_site_fract_x
 _atom_site_fract_y
 _atom_site_fract_z
 _atom_site_occupancy
  Yb  Yb0  1  0.020213  0.799897  0.915160  1
  Yb  Yb1  1  0.199670  0.980651  0.586013  1
  Yb  Yb2  1  0.981508  0.197525  0.085655  1
  Yb  Yb3  1  0.800115  0.018949  0.413921  1
  Yb  Yb4  1  0.357430  0.207483  0.817359  1
  Pr  Pr5  1  0.793752  0.640765  0.681972  1
  Pr  Pr6  1  0.638592  0.797337  0.179406  1
  Pr  Pr7  1  0.209741  0.357403  0.317516  1
  Pr  Pr8  1  0.569342  0.424920  0.752793  1
  Pr  Pr9  1  0.430257  0.569807  0.250761  1
  Ru  Ru10  1  0.171636  0.602501  0.567962  1
  Ru  Ru11  1  0.403760  0.819708  0.928372  1
  Ru  Ru12  1  0.824796  0.404343  0.429578  1
  Ru  Ru13  1  0.599188  0.178711  0.073533  1
