# generated using pymatgen
data_Na4ScP12Ir17Ru2
_symmetry_space_group_name_H-M   'P 1'
_cell_length_a   12.62732179
_cell_length_b   12.62121265
_cell_length_c   3.94728000
_cell_angle_alpha   90.00000000
_cell_angle_beta   90.00000000
_cell_angle_gamma   120.23860680
_symmetry_Int_Tables_number   1
_chemical_formula_structural   Na4ScP12Ir17Ru2
_chemical_formula_sum   'Na4 Sc1 P12 Ir17 Ru2'
_cell_volume   543.49013833
_cell_formula_units_Z   1
loop_
 _symmetry_equiv_pos_site_id
 _symmetry_equiv_pos_as_xyz
  1  'x, y, z'
loop_
 _atom_site_type_symbol
 _atom_site_label
 _atom_site_symmetry_multiplicity
 _atom_site_fract_x
 _atom_site_fract_y
 _atom_site_fract_z
 _atom_site_occupancy
  Na  Na0  1  0.332997  0.667040  0.000000  1
  Na  Na1  1  0.821568  0.000370  0.500000  1
  Na  Na2  1  0.999875  0.821342  0.500000  1
  Na  Na3  1  0.178378  0.178159  0.500000  1
  Sc  Sc4  1  0.667364  0.331900  0.000000  1
  P  P5  1  0.178576  0.999991  0.000000  1
  P  P6  1  0.000108  0.178498  0.000000  1
  P  P7  1  0.820709  0.821104  0.000000  1
  P  P8  1  0.171629  0.486459  0.500000  1
  P  P9  1  0.513923  0.688525  0.500000  1
  P  P10  1  0.314235  0.829142  0.500000  1
  P  P11  1  0.692673  0.516775  0.500000  1
  P  P12  1  0.828352  0.310585  0.500000  1
  P  P13  1  0.483498  0.172678  0.500000  1
  P  P14  1  0.635822  0.997010  0.000000  1
  P  P15  1  0.002930  0.638560  0.000000  1
  P  P16  1  0.356053  0.359273  0.000000  1
  Ir  Ir17  1  0.540679  0.539118  0.000000  1
  Ir  Ir18  1  0.359525  0.488417  0.500000  1
  Ir  Ir19  1  0.514145  0.874443  0.500000  1
  Ir  Ir20  1  0.128023  0.641162  0.500000  1
  Ir  Ir21  1  0.867068  0.503874  0.500000  1
  Ir  Ir22  1  0.638431  0.135589  0.500000  1
  Ir  Ir23  1  0.499125  0.362642  0.500000  1
  Ir  Ir24  1  0.180502  0.379346  0.000000  1
  Ir  Ir25  1  0.620940  0.801113  0.000000  1
  Ir  Ir26  1  0.197977  0.819945  0.000000  1
  Ir  Ir27  1  0.803795  0.619769  0.000000  1
  Ir  Ir28  1  0.815617  0.195006  0.000000  1
  Ir  Ir29  1  0.380371  0.184825  0.000000  1
  Ir  Ir30  1  0.289919  0.001187  0.500000  1
  Ir  Ir31  1  0.999414  0.289053  0.500000  1
  Ir  Ir32  1  0.709479  0.708546  0.500000  1
  Ir  Ir33  1  0.999805  0.999694  0.000000  1
  Ru  Ru34  1  0.457667  0.004036  0.000000  1
  Ru  Ru35  1  0.998827  0.454823  0.000000  1
