# generated using pymatgen
data_Pr12Ir3RhCl12
_symmetry_space_group_name_H-M   'P 1'
_cell_length_a   10.29984679
_cell_length_b   10.29984603
_cell_length_c   10.29984615
_cell_angle_alpha   109.46145629
_cell_angle_beta   109.46145958
_cell_angle_gamma   109.46145508
_symmetry_Int_Tables_number   1
_chemical_formula_structural   Pr12Ir3RhCl12
_chemical_formula_sum   'Pr12 Ir3 Rh1 Cl12'
_cell_volume   841.44791318
_cell_formula_units_Z   1
loop_
 _symmetry_equiv_pos_site_id
 _symmetry_equiv_pos_as_xyz
  1  'x, y, z'
loop_
 _atom_site_type_symbol
 _atom_site_label
 _atom_site_symmetry_multiplicity
 _atom_site_fract_x
 _atom_site_fract_y
 _atom_site_fract_z
 _atom_site_occupancy
  Pr  Pr0  1  0.478330  0.489392  0.239014  1
  Pr  Pr1  1  0.750000  0.239206  0.260794  1
  Pr  Pr2  1  0.750000  0.010768  0.489232  1
  Pr  Pr3  1  0.239014  0.478330  0.489392  1
  Pr  Pr4  1  0.260794  0.750000  0.239206  1
  Pr  Pr5  1  0.021670  0.260986  0.010608  1
  Pr  Pr6  1  0.010608  0.021670  0.260986  1
  Pr  Pr7  1  0.489232  0.750000  0.010768  1
  Pr  Pr8  1  0.489392  0.239014  0.478330  1
  Pr  Pr9  1  0.010768  0.489232  0.750000  1
  Pr  Pr10  1  0.260986  0.010608  0.021670  1
  Pr  Pr11  1  0.239206  0.260794  0.750000  1
  Ir  Ir12  1  0.499573  0.000427  0.250000  1
  Ir  Ir13  1  0.000427  0.250000  0.499573  1
  Ir  Ir14  1  0.250000  0.499573  0.000427  1
  Rh  Rh15  1  0.250000  0.250000  0.250000  1
  Cl  Cl16  1  0.250000  0.750923  0.749077  1
  Cl  Cl17  1  0.501710  0.500852  0.750715  1
  Cl  Cl18  1  0.998290  0.749285  0.999148  1
  Cl  Cl19  1  0.749077  0.250000  0.750923  1
  Cl  Cl20  1  0.999148  0.998290  0.749285  1
  Cl  Cl21  1  0.250000  0.999193  0.500807  1
  Cl  Cl22  1  0.750715  0.501710  0.500852  1
  Cl  Cl23  1  0.500807  0.250000  0.999193  1
  Cl  Cl24  1  0.750923  0.749077  0.250000  1
  Cl  Cl25  1  0.749285  0.999148  0.998290  1
  Cl  Cl26  1  0.999193  0.500807  0.250000  1
  Cl  Cl27  1  0.500852  0.750715  0.501710  1
