# generated using pymatgen
data_Dy3Pa3(Ni3Sb4)2
_symmetry_space_group_name_H-M   'P 1'
_cell_length_a   8.12979707
_cell_length_b   8.12979726
_cell_length_c   8.15164013
_cell_angle_alpha   109.75572851
_cell_angle_beta   109.24234163
_cell_angle_gamma   109.30707634
_symmetry_Int_Tables_number   1
_chemical_formula_structural   Dy3Pa3(Ni3Sb4)2
_chemical_formula_sum   'Dy3 Pa3 Ni6 Sb8'
_cell_volume   415.29338808
_cell_formula_units_Z   1
loop_
 _symmetry_equiv_pos_site_id
 _symmetry_equiv_pos_as_xyz
  1  'x, y, z'
loop_
 _atom_site_type_symbol
 _atom_site_label
 _atom_site_symmetry_multiplicity
 _atom_site_fract_x
 _atom_site_fract_y
 _atom_site_fract_z
 _atom_site_occupancy
  Dy  Dy0  1  0.623378  0.373378  0.250000  1
  Dy  Dy1  1  0.374859  0.250212  0.625568  1
  Dy  Dy2  1  0.124645  0.749291  0.874432  1
  Pa  Pa3  1  0.749190  0.873361  0.122771  1
  Pa  Pa4  1  0.250591  0.626419  0.377229  1
  Pa  Pa5  1  0.877076  0.127076  0.750000  1
  Ni  Ni6  1  0.879497  0.247224  0.118906  1
  Ni  Ni7  1  0.379631  0.629631  0.750000  1
  Ni  Ni8  1  0.628317  0.760590  0.381094  1
  Ni  Ni9  1  0.754305  0.366150  0.631173  1
  Ni  Ni10  1  0.234976  0.123132  0.868827  1
  Ni  Ni11  1  0.121714  0.871714  0.250000  1
  Sb  Sb12  1  0.498422  0.003158  0.839649  1
  Sb  Sb13  1  0.164782  0.161790  0.164269  1
  Sb  Sb14  1  0.836959  0.501766  0.000060  1
  Sb  Sb15  1  0.001706  0.836898  0.499940  1
  Sb  Sb16  1  0.339439  0.499796  0.000310  1
  Sb  Sb17  1  0.999486  0.339129  0.499690  1
  Sb  Sb18  1  0.497521  0.000513  0.335731  1
  Sb  Sb19  1  0.663509  0.658772  0.660351  1
