# generated using pymatgen
data_Pu3Hf3Ga6PdPt5
_symmetry_space_group_name_H-M   'P 1'
_cell_length_a   7.13709001
_cell_length_b   7.13708876
_cell_length_c   7.62482400
_cell_angle_alpha   90.00000000
_cell_angle_beta   90.00000000
_cell_angle_gamma   120.00001071
_symmetry_Int_Tables_number   1
_chemical_formula_structural   Pu3Hf3Ga6PdPt5
_chemical_formula_sum   'Pu3 Hf3 Ga6 Pd1 Pt5'
_cell_volume   336.35871126
_cell_formula_units_Z   1
loop_
 _symmetry_equiv_pos_site_id
 _symmetry_equiv_pos_as_xyz
  1  'x, y, z'
loop_
 _atom_site_type_symbol
 _atom_site_label
 _atom_site_symmetry_multiplicity
 _atom_site_fract_x
 _atom_site_fract_y
 _atom_site_fract_z
 _atom_site_occupancy
  Pu  Pu0  1  0.581376  0.998026  0.750000  1
  Pu  Pu1  1  0.416650  0.418624  0.750000  1
  Pu  Pu2  1  0.001974  0.583350  0.750000  1
  Hf  Hf3  1  0.403370  0.401592  0.250000  1
  Hf  Hf4  1  0.998222  0.596630  0.250000  1
  Hf  Hf5  1  0.598408  0.001778  0.250000  1
  Ga  Ga6  1  0.253680  0.999822  0.007809  1
  Ga  Ga7  1  0.253680  0.999822  0.492191  1
  Ga  Ga8  1  0.000178  0.253858  0.492191  1
  Ga  Ga9  1  0.000178  0.253858  0.007809  1
  Ga  Ga10  1  0.746142  0.746320  0.007809  1
  Ga  Ga11  1  0.746142  0.746320  0.492191  1
  Pd  Pd12  1  0.000000  0.000000  0.250000  1
  Pt  Pt13  1  0.666667  0.333333  0.477866  1
  Pt  Pt14  1  0.000000  0.000000  0.750000  1
  Pt  Pt15  1  0.666667  0.333333  0.022134  1
  Pt  Pt16  1  0.333333  0.666667  0.026338  1
  Pt  Pt17  1  0.333333  0.666667  0.473662  1
