# generated using pymatgen
data_CsRb3Li4B4(P4O15)2
_symmetry_space_group_name_H-M   'P 1'
_cell_length_a   7.27433154
_cell_length_b   7.97996903
_cell_length_c   14.27363000
_cell_angle_alpha   86.04167597
_cell_angle_beta   104.36251755
_cell_angle_gamma   113.80340496
_symmetry_Int_Tables_number   1
_chemical_formula_structural   CsRb3Li4B4(P4O15)2
_chemical_formula_sum   'Cs1 Rb3 Li4 B4 P8 O30'
_cell_volume   733.94212596
_cell_formula_units_Z   1
loop_
 _symmetry_equiv_pos_site_id
 _symmetry_equiv_pos_as_xyz
  1  'x, y, z'
loop_
 _atom_site_type_symbol
 _atom_site_label
 _atom_site_symmetry_multiplicity
 _atom_site_fract_x
 _atom_site_fract_y
 _atom_site_fract_z
 _atom_site_occupancy
  Cs  Cs0  1  0.100805  0.759630  0.649813  1
  Rb  Rb1  1  0.277441  0.185362  0.124169  1
  Rb  Rb2  1  0.722562  0.814647  0.876115  1
  Rb  Rb3  1  0.891716  0.239708  0.348448  1
  Li  Li4  1  0.778486  0.226528  0.008797  1
  Li  Li5  1  0.221632  0.773557  0.991547  1
  Li  Li6  1  0.292362  0.744334  0.223221  1
  Li  Li7  1  0.707607  0.255327  0.776796  1
  B  B8  1  0.865215  0.718525  0.285289  1
  B  B9  1  0.135298  0.281874  0.714968  1
  B  B10  1  0.536647  0.756154  0.508273  1
  B  B11  1  0.463854  0.243699  0.491318  1
  P  P12  1  0.264994  0.892587  0.400986  1
  P  P13  1  0.735873  0.107723  0.598581  1
  P  P14  1  0.516826  0.528390  0.358264  1
  P  P15  1  0.482973  0.471080  0.641466  1
  P  P16  1  0.661721  0.845942  0.128548  1
  P  P17  1  0.338638  0.154467  0.871979  1
  P  P18  1  0.834901  0.581945  0.108999  1
  P  P19  1  0.165158  0.418026  0.891442  1
  O  O20  1  0.323496  0.742847  0.464974  1
  O  O21  1  0.677532  0.257222  0.534128  1
  O  O22  1  0.363018  0.948494  0.316384  1
  O  O23  1  0.637714  0.052313  0.683129  1
  O  O24  1  0.313153  0.050575  0.474945  1
  O  O25  1  0.687967  0.949354  0.524787  1
  O  O26  1  0.023136  0.804011  0.373705  1
  O  O27  1  0.977664  0.196212  0.626354  1
  O  O28  1  0.610805  0.671787  0.444801  1
  O  O29  1  0.389584  0.327698  0.554957  1
  O  O30  1  0.455692  0.329898  0.397058  1
  O  O31  1  0.544027  0.669588  0.602546  1
  O  O32  1  0.333421  0.537474  0.284903  1
  O  O33  1  0.665905  0.461744  0.715042  1
  O  O34  1  0.442216  0.826779  0.120139  1
  O  O35  1  0.558049  0.173521  0.880241  1
  O  O36  1  0.780661  0.854493  0.239538  1
  O  O37  1  0.219933  0.146579  0.761127  1
  O  O38  1  0.790722  0.000344  0.074866  1
  O  O39  1  0.209584  0.999819  0.925525  1
  O  O40  1  0.643201  0.649683  0.089162  1
  O  O41  1  0.357064  0.350515  0.911500  1
  O  O42  1  0.702823  0.551733  0.313601  1
  O  O43  1  0.297505  0.447832  0.686287  1
  O  O44  1  0.975907  0.682130  0.043835  1
  O  O45  1  0.023652  0.317329  0.956297  1
  O  O46  1  0.955434  0.657845  0.218316  1
  O  O47  1  0.045152  0.342808  0.781923  1
  O  O48  1  0.739731  0.375361  0.103646  1
  O  O49  1  0.260542  0.624509  0.897266  1
