# generated using pymatgen
data_Gd3YMg2Mn2O12
_symmetry_space_group_name_H-M   'P 1'
_cell_length_a   5.34119404
_cell_length_b   5.59594121
_cell_length_c   7.65331410
_cell_angle_alpha   89.97372330
_cell_angle_beta   90.02188682
_cell_angle_gamma   89.92936047
_symmetry_Int_Tables_number   1
_chemical_formula_structural   Gd3YMg2Mn2O12
_chemical_formula_sum   'Gd3 Y1 Mg2 Mn2 O12'
_cell_volume   228.74975077
_cell_formula_units_Z   1
loop_
 _symmetry_equiv_pos_site_id
 _symmetry_equiv_pos_as_xyz
  1  'x, y, z'
loop_
 _atom_site_type_symbol
 _atom_site_label
 _atom_site_symmetry_multiplicity
 _atom_site_fract_x
 _atom_site_fract_y
 _atom_site_fract_z
 _atom_site_occupancy
  Gd  Gd0  1  0.984198  0.062639  0.251624  1
  Gd  Gd1  1  0.484360  0.437605  0.750395  1
  Gd  Gd2  1  0.015974  0.937584  0.748325  1
  Y  Y3  1  0.516413  0.565332  0.249205  1
  Mg  Mg4  1  0.500030  0.000642  0.000450  1
  Mg  Mg5  1  0.999979  0.500008  0.499291  1
  Mn  Mn6  1  0.499582  0.999792  0.499081  1
  Mn  Mn7  1  0.000479  0.500042  0.001084  1
  O  O8  1  0.400991  0.963154  0.259422  1
  O  O9  1  0.105611  0.466723  0.241320  1
  O  O10  1  0.598978  0.033339  0.739885  1
  O  O11  1  0.900967  0.532585  0.759306  1
  O  O12  1  0.811075  0.788480  0.055790  1
  O  O13  1  0.684806  0.291082  0.443753  1
  O  O14  1  0.207510  0.189833  0.548944  1
  O  O15  1  0.292880  0.690837  0.951091  1
  O  O16  1  0.186573  0.209669  0.946228  1
  O  O17  1  0.312936  0.710968  0.553113  1
  O  O18  1  0.790711  0.808351  0.449201  1
  O  O19  1  0.705949  0.311334  0.052492  1
