# generated using pymatgen
data_Er2LuCd3AgAu2
_symmetry_space_group_name_H-M   'P 1'
_cell_length_a   7.83568000
_cell_length_b   7.81719474
_cell_length_c   3.83356800
_cell_angle_alpha   90.00000000
_cell_angle_beta   90.00000000
_cell_angle_gamma   120.07826273
_symmetry_Int_Tables_number   1
_chemical_formula_structural   Er2LuCd3AgAu2
_chemical_formula_sum   'Er2 Lu1 Cd3 Ag1 Au2'
_cell_volume   203.19751329
_cell_formula_units_Z   1
loop_
 _symmetry_equiv_pos_site_id
 _symmetry_equiv_pos_as_xyz
  1  'x, y, z'
loop_
 _atom_site_type_symbol
 _atom_site_label
 _atom_site_symmetry_multiplicity
 _atom_site_fract_x
 _atom_site_fract_y
 _atom_site_fract_z
 _atom_site_occupancy
  Er  Er0  1  0.000170  0.594056  0.000000  1
  Er  Er1  1  0.406114  0.405944  0.000000  1
  Lu  Lu2  1  0.593487  0.000000  0.000000  1
  Cd  Cd3  1  0.263246  0.000000  0.500000  1
  Cd  Cd4  1  0.999600  0.262753  0.500000  1
  Cd  Cd5  1  0.736847  0.737247  0.500000  1
  Ag  Ag6  1  0.999507  0.000000  0.000000  1
  Au  Au7  1  0.335018  0.669007  0.500000  1
  Au  Au8  1  0.666011  0.330993  0.500000  1
