# generated using pymatgen
data_La10Mg3CdRu6
_symmetry_space_group_name_H-M   'P 1'
_cell_length_a   8.77495380
_cell_length_b   8.77495277
_cell_length_c   8.69166500
_cell_angle_alpha   109.27906537
_cell_angle_beta   109.27906302
_cell_angle_gamma   109.66269194
_symmetry_Int_Tables_number   1
_chemical_formula_structural   La10Mg3CdRu6
_chemical_formula_sum   'La10 Mg3 Cd1 Ru6'
_cell_volume   516.41058731
_cell_formula_units_Z   1
loop_
 _symmetry_equiv_pos_site_id
 _symmetry_equiv_pos_as_xyz
  1  'x, y, z'
loop_
 _atom_site_type_symbol
 _atom_site_label
 _atom_site_symmetry_multiplicity
 _atom_site_fract_x
 _atom_site_fract_y
 _atom_site_fract_z
 _atom_site_occupancy
  La  La0  1  0.251427  0.684402  0.436281  1
  La  La1  1  0.749107  0.814970  0.065400  1
  La  La2  1  0.432978  0.248573  0.684854  1
  La  La3  1  0.685030  0.434137  0.250430  1
  La  La4  1  0.065864  0.750893  0.816295  1
  La  La5  1  0.815598  0.067023  0.751877  1
  La  La6  1  0.209607  0.210929  0.209607  1
  La  La7  1  0.500001  0.000000  0.292126  1
  La  La8  1  0.289071  0.498679  0.998678  1
  La  La9  1  0.001322  0.290393  0.500001  1
  Mg  Mg10  1  0.589464  0.588316  0.587878  1
  Mg  Mg11  1  0.911684  0.501148  0.999561  1
  Mg  Mg12  1  0.998853  0.910536  0.498415  1
  Cd  Cd13  1  0.500001  0.000000  0.912375  1
  Ru  Ru14  1  0.244697  0.135909  0.881101  1
  Ru  Ru15  1  0.748224  0.367289  0.616346  1
  Ru  Ru16  1  0.891212  0.255305  0.136403  1
  Ru  Ru17  1  0.132710  0.880932  0.249058  1
  Ru  Ru18  1  0.619067  0.751776  0.368124  1
  Ru  Ru19  1  0.364090  0.608787  0.745191  1
