# generated using pymatgen
data_MnFe2CuSb12
_symmetry_space_group_name_H-M   'P 1'
_cell_length_a   7.99305844
_cell_length_b   8.04905403
_cell_length_c   8.05083011
_cell_angle_alpha   109.89632775
_cell_angle_beta   109.20428096
_cell_angle_gamma   109.30729252
_symmetry_Int_Tables_number   1
_chemical_formula_structural   MnFe2CuSb12
_chemical_formula_sum   'Mn1 Fe2 Cu1 Sb12'
_cell_volume   398.74350167
_cell_formula_units_Z   1
loop_
 _symmetry_equiv_pos_site_id
 _symmetry_equiv_pos_as_xyz
  1  'x, y, z'
loop_
 _atom_site_type_symbol
 _atom_site_label
 _atom_site_symmetry_multiplicity
 _atom_site_fract_x
 _atom_site_fract_y
 _atom_site_fract_z
 _atom_site_occupancy
  Mn  Mn0  1  0.500000  0.000000  0.000000  1
  Fe  Fe1  1  0.000000  0.000000  0.500000  1
  Fe  Fe2  1  0.000000  0.500000  0.000000  1
  Cu  Cu3  1  0.500000  0.500000  0.500000  1
  Sb  Sb4  1  0.669688  0.851562  0.503810  1
  Sb  Sb5  1  0.853669  0.505943  0.672057  1
  Sb  Sb6  1  0.498460  0.655479  0.847572  1
  Sb  Sb7  1  0.671721  0.166233  0.825326  1
  Sb  Sb8  1  0.847168  0.175043  0.341294  1
  Sb  Sb9  1  0.152832  0.824957  0.658706  1
  Sb  Sb10  1  0.164621  0.323749  0.839469  1
  Sb  Sb11  1  0.146331  0.494057  0.327943  1
  Sb  Sb12  1  0.330312  0.148438  0.496190  1
  Sb  Sb13  1  0.501540  0.344521  0.152428  1
  Sb  Sb14  1  0.328279  0.833767  0.174674  1
  Sb  Sb15  1  0.835379  0.676251  0.160531  1
