# generated using pymatgen
data_Li3NpS4
_symmetry_space_group_name_H-M   'P 1'
_cell_length_a   7.55194300
_cell_length_b   6.59563572
_cell_length_c   6.43992959
_cell_angle_alpha   70.02467245
_cell_angle_beta   90.00000000
_cell_angle_gamma   90.00000000
_symmetry_Int_Tables_number   1
_chemical_formula_structural   Li3NpS4
_chemical_formula_sum   'Li6 Np2 S8'
_cell_volume   301.47431809
_cell_formula_units_Z   2
loop_
 _symmetry_equiv_pos_site_id
 _symmetry_equiv_pos_as_xyz
  1  'x, y, z'
loop_
 _atom_site_type_symbol
 _atom_site_label
 _atom_site_symmetry_multiplicity
 _atom_site_fract_x
 _atom_site_fract_y
 _atom_site_fract_z
 _atom_site_occupancy
  Li  Li0  1  0.613948  0.250000  0.000000  1
  Li  Li1  1  0.386052  0.750000  0.000000  1
  Li  Li2  1  0.399575  0.250000  0.500000  1
  Li  Li3  1  0.859403  0.250000  0.500000  1
  Li  Li4  1  0.600425  0.750000  0.500000  1
  Li  Li5  1  0.140597  0.750000  0.500000  1
  Np  Np6  1  0.138971  0.250000  0.000000  1
  Np  Np7  1  0.861029  0.750000  0.000000  1
  S  S8  1  0.371176  0.013942  0.252972  1
  S  S9  1  0.114298  0.502553  0.239019  1
  S  S10  1  0.628824  0.513942  0.252972  1
  S  S11  1  0.885702  0.002553  0.239019  1
  S  S12  1  0.114298  0.997447  0.760981  1
  S  S13  1  0.371176  0.486058  0.747028  1
  S  S14  1  0.885702  0.497447  0.760981  1
  S  S15  1  0.628824  0.986058  0.747028  1
