# generated using pymatgen
data_Ho3ErTcB12Ru
_symmetry_space_group_name_H-M   'P 1'
_cell_length_a   3.65787700
_cell_length_b   9.12850319
_cell_length_c   11.51489501
_cell_angle_alpha   89.86214040
_cell_angle_beta   90.00000000
_cell_angle_gamma   90.00000000
_symmetry_Int_Tables_number   1
_chemical_formula_structural   Ho3ErTcB12Ru
_chemical_formula_sum   'Ho6 Er2 Tc2 B24 Ru2'
_cell_volume   384.49207694
_cell_formula_units_Z   2
loop_
 _symmetry_equiv_pos_site_id
 _symmetry_equiv_pos_as_xyz
  1  'x, y, z'
loop_
 _atom_site_type_symbol
 _atom_site_label
 _atom_site_symmetry_multiplicity
 _atom_site_fract_x
 _atom_site_fract_y
 _atom_site_fract_z
 _atom_site_occupancy
  Ho  Ho0  1  0.000000  0.325130  0.415548  1
  Ho  Ho1  1  0.000000  0.674870  0.584452  1
  Ho  Ho2  1  0.000000  0.821124  0.087362  1
  Ho  Ho3  1  0.000000  0.178876  0.912638  1
  Ho  Ho4  1  0.000000  0.942224  0.370523  1
  Ho  Ho5  1  0.000000  0.057776  0.629477  1
  Er  Er6  1  0.000000  0.443342  0.129892  1
  Er  Er7  1  0.000000  0.556658  0.870108  1
  Tc  Tc8  1  0.000000  0.638470  0.320007  1
  Tc  Tc9  1  0.000000  0.361530  0.679993  1
  B  B10  1  0.500000  0.553114  0.433077  1
  B  B11  1  0.500000  0.446886  0.566923  1
  B  B12  1  0.500000  0.053935  0.066845  1
  B  B13  1  0.500000  0.946065  0.933155  1
  B  B14  1  0.500000  0.748591  0.419031  1
  B  B15  1  0.500000  0.251409  0.580969  1
  B  B16  1  0.500000  0.249029  0.080991  1
  B  B17  1  0.500000  0.750971  0.919009  1
  B  B18  1  0.500000  0.791634  0.265095  1
  B  B19  1  0.500000  0.208366  0.734905  1
  B  B20  1  0.500000  0.291090  0.234264  1
  B  B21  1  0.500000  0.708910  0.765736  1
  B  B22  1  0.500000  0.631211  0.184893  1
  B  B23  1  0.500000  0.368789  0.815107  1
  B  B24  1  0.500000  0.131230  0.314100  1
  B  B25  1  0.500000  0.868770  0.685900  1
  B  B26  1  0.500000  0.983161  0.211799  1
  B  B27  1  0.500000  0.016839  0.788201  1
  B  B28  1  0.500000  0.482359  0.287445  1
  B  B29  1  0.500000  0.517641  0.712555  1
  B  B30  1  0.500000  0.603124  0.028355  1
  B  B31  1  0.500000  0.396876  0.971645  1
  B  B32  1  0.500000  0.103732  0.471140  1
  B  B33  1  0.500000  0.896268  0.528860  1
  Ru  Ru34  1  0.000000  0.138181  0.178382  1
  Ru  Ru35  1  0.000000  0.861819  0.821618  1
