# generated using pymatgen
data_CaY4(OsO6)2
_symmetry_space_group_name_H-M   'P 1'
_cell_length_a   6.87740117
_cell_length_b   6.87740103
_cell_length_c   7.55394700
_cell_angle_alpha   73.94224188
_cell_angle_beta   73.94224221
_cell_angle_gamma   48.49257893
_symmetry_Int_Tables_number   1
_chemical_formula_structural   CaY4(OsO6)2
_chemical_formula_sum   'Ca1 Y4 Os2 O12'
_cell_volume   254.95553755
_cell_formula_units_Z   1
loop_
 _symmetry_equiv_pos_site_id
 _symmetry_equiv_pos_as_xyz
  1  'x, y, z'
loop_
 _atom_site_type_symbol
 _atom_site_label
 _atom_site_symmetry_multiplicity
 _atom_site_fract_x
 _atom_site_fract_y
 _atom_site_fract_z
 _atom_site_occupancy
  Ca  Ca0  1  0.184273  0.184273  0.177187  1
  Y  Y1  1  0.503543  0.503543  0.499381  1
  Y  Y2  1  0.813181  0.813181  0.823964  1
  Y  Y3  1  0.800292  0.800292  0.361341  1
  Y  Y4  1  0.198891  0.198891  0.637794  1
  Os  Os5  1  0.717744  0.281302  0.000194  1
  Os  Os6  1  0.281302  0.717744  0.000194  1
  O  O7  1  0.998322  0.998322  0.169982  1
  O  O8  1  0.001184  0.001184  0.826448  1
  O  O9  1  0.496418  0.496418  0.800174  1
  O  O10  1  0.501494  0.501494  0.201382  1
  O  O11  1  0.601054  0.096705  0.573362  1
  O  O12  1  0.899590  0.405697  0.436997  1
  O  O13  1  0.405697  0.899590  0.436997  1
  O  O14  1  0.415879  0.908633  0.909389  1
  O  O15  1  0.082786  0.593011  0.081231  1
  O  O16  1  0.593011  0.082786  0.081231  1
  O  O17  1  0.908633  0.415879  0.909389  1
  O  O18  1  0.096705  0.601054  0.573362  1
