# generated using pymatgen
data_Dy3Y4Er(CdNi)2
_symmetry_space_group_name_H-M   'P 1'
_cell_length_a   9.55052918
_cell_length_b   9.55155941
_cell_length_c   9.57132906
_cell_angle_alpha   59.92437946
_cell_angle_beta   59.93505131
_cell_angle_gamma   60.14056609
_symmetry_Int_Tables_number   1
_chemical_formula_structural   Dy3Y4Er(CdNi)2
_chemical_formula_sum   'Dy6 Y8 Er2 Cd4 Ni4'
_cell_volume   617.38350541
_cell_formula_units_Z   2
loop_
 _symmetry_equiv_pos_site_id
 _symmetry_equiv_pos_as_xyz
  1  'x, y, z'
loop_
 _atom_site_type_symbol
 _atom_site_label
 _atom_site_symmetry_multiplicity
 _atom_site_fract_x
 _atom_site_fract_y
 _atom_site_fract_z
 _atom_site_occupancy
  Dy  Dy0  1  0.597860  0.598211  0.599244  1
  Dy  Dy1  1  0.598211  0.597860  0.204685  1
  Dy  Dy2  1  0.599244  0.204685  0.597860  1
  Dy  Dy3  1  0.204685  0.599244  0.598211  1
  Dy  Dy4  1  0.061032  0.438968  0.438968  1
  Dy  Dy5  1  0.438968  0.061032  0.061032  1
  Y  Y6  1  0.437752  0.437752  0.062248  1
  Y  Y7  1  0.062248  0.062248  0.437752  1
  Y  Y8  1  0.186558  0.813442  0.813442  1
  Y  Y9  1  0.813442  0.186558  0.186558  1
  Y  Y10  1  0.813432  0.186568  0.813432  1
  Y  Y11  1  0.186568  0.813432  0.186568  1
  Y  Y12  1  0.812075  0.812075  0.187925  1
  Y  Y13  1  0.187925  0.187925  0.812075  1
  Er  Er14  1  0.439240  0.060760  0.439240  1
  Er  Er15  1  0.060760  0.439240  0.060760  1
  Cd  Cd16  1  0.830635  0.830518  0.831288  1
  Cd  Cd17  1  0.830518  0.830635  0.507556  1
  Cd  Cd18  1  0.831288  0.507556  0.830635  1
  Cd  Cd19  1  0.507556  0.831288  0.830518  1
  Ni  Ni20  1  0.390350  0.390140  0.397267  1
  Ni  Ni21  1  0.390140  0.390350  0.822243  1
  Ni  Ni22  1  0.397267  0.822243  0.390350  1
  Ni  Ni23  1  0.822243  0.397267  0.390140  1
