# generated using pymatgen
data_MgTa3Pd9PtRh2
_symmetry_space_group_name_H-M   'P 1'
_cell_length_a   5.61316279
_cell_length_b   5.61316209
_cell_length_c   9.07294200
_cell_angle_alpha   90.00000000
_cell_angle_beta   90.00000000
_cell_angle_gamma   119.75534657
_symmetry_Int_Tables_number   1
_chemical_formula_structural   MgTa3Pd9PtRh2
_chemical_formula_sum   'Mg1 Ta3 Pd9 Pt1 Rh2'
_cell_volume   248.17577058
_cell_formula_units_Z   1
loop_
 _symmetry_equiv_pos_site_id
 _symmetry_equiv_pos_as_xyz
  1  'x, y, z'
loop_
 _atom_site_type_symbol
 _atom_site_label
 _atom_site_symmetry_multiplicity
 _atom_site_fract_x
 _atom_site_fract_y
 _atom_site_fract_z
 _atom_site_occupancy
  Mg  Mg0  1  0.333207  0.666793  0.000000  1
  Ta  Ta1  1  0.667451  0.332549  0.500000  1
  Ta  Ta2  1  0.997755  0.002245  0.743040  1
  Ta  Ta3  1  0.997755  0.002245  0.256960  1
  Pd  Pd4  1  0.832643  0.167357  0.000000  1
  Pd  Pd5  1  0.832598  0.666687  0.000000  1
  Pd  Pd6  1  0.333313  0.167402  0.000000  1
  Pd  Pd7  1  0.996648  0.497333  0.747901  1
  Pd  Pd8  1  0.501594  0.498406  0.747198  1
  Pd  Pd9  1  0.502667  0.003352  0.747901  1
  Pd  Pd10  1  0.996648  0.497333  0.252099  1
  Pd  Pd11  1  0.501594  0.498406  0.252802  1
  Pd  Pd12  1  0.502667  0.003352  0.252099  1
  Pt  Pt13  1  0.168077  0.831923  0.500000  1
  Rh  Rh14  1  0.168355  0.332979  0.500000  1
  Rh  Rh15  1  0.667021  0.831645  0.500000  1
