# generated using pymatgen
data_Yb2ErSc(Ga2Ag)4
_symmetry_space_group_name_H-M   'P 1'
_cell_length_a   4.30534100
_cell_length_b   6.93985066
_cell_length_c   10.30930033
_cell_angle_alpha   90.55972304
_cell_angle_beta   90.00000000
_cell_angle_gamma   90.00000000
_symmetry_Int_Tables_number   1
_chemical_formula_structural   Yb2ErSc(Ga2Ag)4
_chemical_formula_sum   'Yb2 Er1 Sc1 Ga8 Ag4'
_cell_volume   308.01094425
_cell_formula_units_Z   1
loop_
 _symmetry_equiv_pos_site_id
 _symmetry_equiv_pos_as_xyz
  1  'x, y, z'
loop_
 _atom_site_type_symbol
 _atom_site_label
 _atom_site_symmetry_multiplicity
 _atom_site_fract_x
 _atom_site_fract_y
 _atom_site_fract_z
 _atom_site_occupancy
  Yb  Yb0  1  0.750000  0.225305  0.172653  1
  Yb  Yb1  1  0.750000  0.725313  0.325951  1
  Er  Er2  1  0.250000  0.278403  0.674581  1
  Sc  Sc3  1  0.250000  0.779579  0.829958  1
  Ga  Ga4  1  0.250000  0.707645  0.539940  1
  Ga  Ga5  1  0.750000  0.299681  0.467261  1
  Ga  Ga6  1  0.750000  0.794226  0.029278  1
  Ga  Ga7  1  0.250000  0.196673  0.964336  1
  Ga  Ga8  1  0.250000  0.927096  0.148294  1
  Ga  Ga9  1  0.750000  0.064815  0.842440  1
  Ga  Ga10  1  0.750000  0.578652  0.659531  1
  Ga  Ga11  1  0.250000  0.429753  0.351694  1
  Ag  Ag12  1  0.250000  0.539861  0.097097  1
  Ag  Ag13  1  0.750000  0.454162  0.899913  1
  Ag  Ag14  1  0.750000  0.957591  0.597300  1
  Ag  Ag15  1  0.250000  0.041248  0.399772  1
