# generated using pymatgen
data_LaY3Ir3RhO14
_symmetry_space_group_name_H-M   'P 1'
_cell_length_a   7.28033912
_cell_length_b   7.28033967
_cell_length_c   7.33712009
_cell_angle_alpha   60.31806902
_cell_angle_beta   60.31806451
_cell_angle_gamma   59.91219329
_symmetry_Int_Tables_number   1
_chemical_formula_structural   LaY3Ir3RhO14
_chemical_formula_sum   'La1 Y3 Ir3 Rh1 O14'
_cell_volume   276.11715121
_cell_formula_units_Z   1
loop_
 _symmetry_equiv_pos_site_id
 _symmetry_equiv_pos_as_xyz
  1  'x, y, z'
loop_
 _atom_site_type_symbol
 _atom_site_label
 _atom_site_symmetry_multiplicity
 _atom_site_fract_x
 _atom_site_fract_y
 _atom_site_fract_z
 _atom_site_occupancy
  La  La0  1  0.125000  0.125000  0.625000  1
  Y  Y1  1  0.625000  0.125000  0.125000  1
  Y  Y2  1  0.125000  0.625000  0.125000  1
  Y  Y3  1  0.125000  0.125000  0.125000  1
  Ir  Ir4  1  0.125000  0.625000  0.625000  1
  Ir  Ir5  1  0.625000  0.125000  0.625000  1
  Ir  Ir6  1  0.625000  0.625000  0.125000  1
  Rh  Rh7  1  0.625000  0.625000  0.625000  1
  O  O8  1  0.712178  0.712178  0.284613  1
  O  O9  1  0.292771  0.292771  0.720751  1
  O  O10  1  0.700924  0.285809  0.721725  1
  O  O11  1  0.291385  0.713172  0.289885  1
  O  O12  1  0.285809  0.700924  0.721725  1
  O  O13  1  0.713172  0.291385  0.289885  1
  O  O14  1  0.537822  0.537822  0.965387  1
  O  O15  1  0.957229  0.957229  0.529249  1
  O  O16  1  0.549076  0.964191  0.528275  1
  O  O17  1  0.958615  0.536828  0.960115  1
  O  O18  1  0.964191  0.549076  0.528275  1
  O  O19  1  0.536828  0.958615  0.960115  1
  O  O20  1  0.253108  0.253108  0.238924  1
  O  O21  1  0.996892  0.996892  0.011076  1
