# generated using pymatgen
data_TbHo3Co4(P3Rh4)4
_symmetry_space_group_name_H-M   'P 1'
_cell_length_a   3.84758000
_cell_length_b   10.74573663
_cell_length_c   12.41208784
_cell_angle_alpha   90.07889700
_cell_angle_beta   90.00000000
_cell_angle_gamma   90.00000000
_symmetry_Int_Tables_number   1
_chemical_formula_structural   TbHo3Co4(P3Rh4)4
_chemical_formula_sum   'Tb1 Ho3 Co4 P12 Rh16'
_cell_volume   513.17829516
_cell_formula_units_Z   1
loop_
 _symmetry_equiv_pos_site_id
 _symmetry_equiv_pos_as_xyz
  1  'x, y, z'
loop_
 _atom_site_type_symbol
 _atom_site_label
 _atom_site_symmetry_multiplicity
 _atom_site_fract_x
 _atom_site_fract_y
 _atom_site_fract_z
 _atom_site_occupancy
  Tb  Tb0  1  0.250000  0.585136  0.708095  1
  Ho  Ho1  1  0.250000  0.914963  0.207961  1
  Ho  Ho2  1  0.750000  0.414917  0.292021  1
  Ho  Ho3  1  0.750000  0.085015  0.791930  1
  Co  Co4  1  0.250000  0.463530  0.934480  1
  Co  Co5  1  0.250000  0.036242  0.433700  1
  Co  Co6  1  0.750000  0.536041  0.066496  1
  Co  Co7  1  0.750000  0.964343  0.566112  1
  P  P8  1  0.250000  0.423987  0.106348  1
  P  P9  1  0.250000  0.075835  0.606062  1
  P  P10  1  0.750000  0.575773  0.894544  1
  P  P11  1  0.750000  0.924459  0.393867  1
  P  P12  1  0.250000  0.271546  0.872398  1
  P  P13  1  0.250000  0.228219  0.372289  1
  P  P14  1  0.750000  0.728444  0.127632  1
  P  P15  1  0.750000  0.772445  0.627017  1
  P  P16  1  0.250000  0.599153  0.387857  1
  P  P17  1  0.250000  0.900653  0.887786  1
  P  P18  1  0.750000  0.400382  0.611986  1
  P  P19  1  0.750000  0.099148  0.112169  1
  Rh  Rh20  1  0.250000  0.716190  0.987057  1
  Rh  Rh21  1  0.250000  0.783983  0.487001  1
  Rh  Rh22  1  0.750000  0.283533  0.013315  1
  Rh  Rh23  1  0.750000  0.216012  0.512650  1
  Rh  Rh24  1  0.250000  0.408112  0.479455  1
  Rh  Rh25  1  0.250000  0.091681  0.979514  1
  Rh  Rh26  1  0.750000  0.591630  0.519313  1
  Rh  Rh27  1  0.750000  0.908231  0.020481  1
  Rh  Rh28  1  0.250000  0.227437  0.178402  1
  Rh  Rh29  1  0.250000  0.272565  0.678237  1
  Rh  Rh30  1  0.750000  0.773269  0.821934  1
  Rh  Rh31  1  0.750000  0.727924  0.321290  1
  Rh  Rh32  1  0.250000  0.886805  0.698566  1
  Rh  Rh33  1  0.250000  0.613545  0.198924  1
  Rh  Rh34  1  0.750000  0.113296  0.301311  1
  Rh  Rh35  1  0.750000  0.385558  0.801798  1
