# generated using pymatgen
data_YbHgIr2O7
_symmetry_space_group_name_H-M   'P 1'
_cell_length_a   7.34377849
_cell_length_b   7.20551191
_cell_length_c   7.20551200
_cell_angle_alpha   59.02962491
_cell_angle_beta   59.36317780
_cell_angle_gamma   59.36318413
_symmetry_Int_Tables_number   1
_chemical_formula_structural   YbHgIr2O7
_chemical_formula_sum   'Yb2 Hg2 Ir4 O14'
_cell_volume   265.00948072
_cell_formula_units_Z   2
loop_
 _symmetry_equiv_pos_site_id
 _symmetry_equiv_pos_as_xyz
  1  'x, y, z'
loop_
 _atom_site_type_symbol
 _atom_site_label
 _atom_site_symmetry_multiplicity
 _atom_site_fract_x
 _atom_site_fract_y
 _atom_site_fract_z
 _atom_site_occupancy
  Yb  Yb0  1  0.625000  0.125000  0.125000  1
  Yb  Yb1  1  0.125000  0.125000  0.125000  1
  Hg  Hg2  1  0.125000  0.625000  0.125000  1
  Hg  Hg3  1  0.125000  0.125000  0.625000  1
  Ir  Ir4  1  0.125000  0.625000  0.625000  1
  Ir  Ir5  1  0.625000  0.125000  0.625000  1
  Ir  Ir6  1  0.625000  0.625000  0.125000  1
  Ir  Ir7  1  0.625000  0.625000  0.625000  1
  O  O8  1  0.695235  0.705273  0.298186  1
  O  O9  1  0.301305  0.298186  0.705273  1
  O  O10  1  0.695235  0.298186  0.705273  1
  O  O11  1  0.301305  0.705273  0.298186  1
  O  O12  1  0.306893  0.693107  0.693107  1
  O  O13  1  0.708813  0.291187  0.291187  1
  O  O14  1  0.554765  0.544727  0.951814  1
  O  O15  1  0.948695  0.951814  0.544727  1
  O  O16  1  0.554765  0.951814  0.544727  1
  O  O17  1  0.948695  0.544727  0.951814  1
  O  O18  1  0.943107  0.556893  0.556893  1
  O  O19  1  0.541187  0.958813  0.958813  1
  O  O20  1  0.239276  0.260724  0.260724  1
  O  O21  1  0.010724  0.989276  0.989276  1
