# generated using pymatgen
data_Ho6ErRh3
_symmetry_space_group_name_H-M   'P 1'
_cell_length_a   9.75339700
_cell_length_b   9.75339762
_cell_length_c   6.13182000
_cell_angle_alpha   90.00000000
_cell_angle_beta   90.00000000
_cell_angle_gamma   120.00000130
_symmetry_Int_Tables_number   1
_chemical_formula_structural   Ho6ErRh3
_chemical_formula_sum   'Ho12 Er2 Rh6'
_cell_volume   505.16337389
_cell_formula_units_Z   2
loop_
 _symmetry_equiv_pos_site_id
 _symmetry_equiv_pos_as_xyz
  1  'x, y, z'
loop_
 _atom_site_type_symbol
 _atom_site_label
 _atom_site_symmetry_multiplicity
 _atom_site_fract_x
 _atom_site_fract_y
 _atom_site_fract_z
 _atom_site_occupancy
  Ho  Ho0  1  0.752324  0.876162  0.994218  1
  Ho  Ho1  1  0.876162  0.123838  0.494218  1
  Ho  Ho2  1  0.541415  0.458585  0.796591  1
  Ho  Ho3  1  0.082831  0.541415  0.296591  1
  Ho  Ho4  1  0.458585  0.917169  0.296591  1
  Ho  Ho5  1  0.541415  0.082831  0.796591  1
  Ho  Ho6  1  0.917169  0.458585  0.796591  1
  Ho  Ho7  1  0.458585  0.541415  0.296591  1
  Ho  Ho8  1  0.123838  0.247676  0.994218  1
  Ho  Ho9  1  0.876162  0.752324  0.494218  1
  Ho  Ho10  1  0.247676  0.123838  0.494218  1
  Ho  Ho11  1  0.123838  0.876162  0.994218  1
  Er  Er12  1  0.666667  0.333333  0.285432  1
  Er  Er13  1  0.333333  0.666667  0.785432  1
  Rh  Rh14  1  0.189644  0.810356  0.561381  1
  Rh  Rh15  1  0.379289  0.189644  0.061381  1
  Rh  Rh16  1  0.810356  0.620711  0.061381  1
  Rh  Rh17  1  0.189644  0.379289  0.561381  1
  Rh  Rh18  1  0.620711  0.810356  0.561381  1
  Rh  Rh19  1  0.810356  0.189644  0.061381  1
