# generated using pymatgen
data_Ho4HfPd14Pt
_symmetry_space_group_name_H-M   'P 1'
_cell_length_a   4.09456100
_cell_length_b   4.09456100
_cell_length_c   20.49454400
_cell_angle_alpha   90.00000000
_cell_angle_beta   90.00000000
_cell_angle_gamma   90.00000000
_symmetry_Int_Tables_number   1
_chemical_formula_structural   Ho4HfPd14Pt
_chemical_formula_sum   'Ho4 Hf1 Pd14 Pt1'
_cell_volume   343.59983836
_cell_formula_units_Z   1
loop_
 _symmetry_equiv_pos_site_id
 _symmetry_equiv_pos_as_xyz
  1  'x, y, z'
loop_
 _atom_site_type_symbol
 _atom_site_label
 _atom_site_symmetry_multiplicity
 _atom_site_fract_x
 _atom_site_fract_y
 _atom_site_fract_z
 _atom_site_occupancy
  Ho  Ho0  1  0.000000  0.000000  0.198232  1
  Ho  Ho1  1  0.000000  0.000000  0.398747  1
  Ho  Ho2  1  0.000000  0.000000  0.601253  1
  Ho  Ho3  1  0.000000  0.000000  0.801768  1
  Hf  Hf4  1  0.000000  0.000000  0.000000  1
  Pd  Pd5  1  0.500000  0.500000  0.196839  1
  Pd  Pd6  1  0.500000  0.500000  0.399186  1
  Pd  Pd7  1  0.500000  0.500000  0.600814  1
  Pd  Pd8  1  0.500000  0.500000  0.803161  1
  Pd  Pd9  1  0.500000  0.000000  0.094816  1
  Pd  Pd10  1  0.500000  0.000000  0.297995  1
  Pd  Pd11  1  0.500000  0.000000  0.500000  1
  Pd  Pd12  1  0.500000  0.000000  0.702005  1
  Pd  Pd13  1  0.500000  0.000000  0.905184  1
  Pd  Pd14  1  0.000000  0.500000  0.094816  1
  Pd  Pd15  1  0.000000  0.500000  0.297995  1
  Pd  Pd16  1  0.000000  0.500000  0.500000  1
  Pd  Pd17  1  0.000000  0.500000  0.702005  1
  Pd  Pd18  1  0.000000  0.500000  0.905184  1
  Pt  Pt19  1  0.500000  0.500000  0.000000  1
