# generated using pymatgen
data_Tb3Dy(GePt2)4
_symmetry_space_group_name_H-M   'P 1'
_cell_length_a   5.65060506
_cell_length_b   7.10391300
_cell_length_c   7.44094002
_cell_angle_alpha   90.00000000
_cell_angle_beta   89.99638054
_cell_angle_gamma   90.00000000
_symmetry_Int_Tables_number   1
_chemical_formula_structural   Tb3Dy(GePt2)4
_chemical_formula_sum   'Tb3 Dy1 Ge4 Pt8'
_cell_volume   298.68979930
_cell_formula_units_Z   1
loop_
 _symmetry_equiv_pos_site_id
 _symmetry_equiv_pos_as_xyz
  1  'x, y, z'
loop_
 _atom_site_type_symbol
 _atom_site_label
 _atom_site_symmetry_multiplicity
 _atom_site_fract_x
 _atom_site_fract_y
 _atom_site_fract_z
 _atom_site_occupancy
  Tb  Tb0  1  0.142484  0.750000  0.529357  1
  Tb  Tb1  1  0.642139  0.250000  0.970977  1
  Tb  Tb2  1  0.857263  0.250000  0.470951  1
  Dy  Dy3  1  0.356725  0.750000  0.028864  1
  Ge  Ge4  1  0.640104  0.750000  0.383285  1
  Ge  Ge5  1  0.859459  0.750000  0.884133  1
  Ge  Ge6  1  0.359684  0.250000  0.616057  1
  Ge  Ge7  1  0.139986  0.250000  0.116242  1
  Pt  Pt8  1  0.914507  0.550615  0.187371  1
  Pt  Pt9  1  0.585752  0.949359  0.687852  1
  Pt  Pt10  1  0.086695  0.050186  0.812974  1
  Pt  Pt11  1  0.414123  0.449804  0.311871  1
  Pt  Pt12  1  0.086695  0.449814  0.812974  1
  Pt  Pt13  1  0.414123  0.050196  0.311871  1
  Pt  Pt14  1  0.914507  0.949385  0.187371  1
  Pt  Pt15  1  0.585752  0.550641  0.687852  1
