# generated using pymatgen
data_Y4Zr3Sc(P3Ir4)4
_symmetry_space_group_name_H-M   'P 1'
_cell_length_a   12.87273439
_cell_length_b   12.87273301
_cell_length_c   3.97691500
_cell_angle_alpha   90.00000000
_cell_angle_beta   90.00000000
_cell_angle_gamma   119.93015340
_symmetry_Int_Tables_number   1
_chemical_formula_structural   Y4Zr3Sc(P3Ir4)4
_chemical_formula_sum   'Y4 Zr3 Sc1 P12 Ir16'
_cell_volume   571.11523532
_cell_formula_units_Z   1
loop_
 _symmetry_equiv_pos_site_id
 _symmetry_equiv_pos_as_xyz
  1  'x, y, z'
loop_
 _atom_site_type_symbol
 _atom_site_label
 _atom_site_symmetry_multiplicity
 _atom_site_fract_x
 _atom_site_fract_y
 _atom_site_fract_z
 _atom_site_occupancy
  Y  Y0  1  0.333394  0.666782  0.000000  1
  Y  Y1  1  0.666782  0.333394  0.000000  1
  Y  Y2  1  0.815718  0.000111  0.500000  1
  Y  Y3  1  0.000111  0.815718  0.500000  1
  Zr  Zr4  1  0.448667  0.000458  0.000000  1
  Zr  Zr5  1  0.000458  0.448667  0.000000  1
  Zr  Zr6  1  0.549915  0.549915  0.000000  1
  Sc  Sc7  1  0.186304  0.186304  0.500000  1
  P  P8  1  0.175973  0.001861  0.000000  1
  P  P9  1  0.001861  0.175973  0.000000  1
  P  P10  1  0.824873  0.824873  0.000000  1
  P  P11  1  0.169653  0.482463  0.500000  1
  P  P12  1  0.517310  0.686651  0.500000  1
  P  P13  1  0.312764  0.831210  0.500000  1
  P  P14  1  0.686651  0.517310  0.500000  1
  P  P15  1  0.831210  0.312764  0.500000  1
  P  P16  1  0.482463  0.169653  0.500000  1
  P  P17  1  0.648914  0.000177  0.000000  1
  P  P18  1  0.000177  0.648914  0.000000  1
  P  P19  1  0.348199  0.348199  0.000000  1
  Ir  Ir20  1  0.356374  0.492124  0.500000  1
  Ir  Ir21  1  0.506988  0.864128  0.500000  1
  Ir  Ir22  1  0.135893  0.643444  0.500000  1
  Ir  Ir23  1  0.864128  0.506988  0.500000  1
  Ir  Ir24  1  0.643444  0.135893  0.500000  1
  Ir  Ir25  1  0.492124  0.356374  0.500000  1
  Ir  Ir26  1  0.178363  0.367393  0.000000  1
  Ir  Ir27  1  0.629130  0.807396  0.000000  1
  Ir  Ir28  1  0.192947  0.822387  0.000000  1
  Ir  Ir29  1  0.807396  0.629130  0.000000  1
  Ir  Ir30  1  0.822387  0.192947  0.000000  1
  Ir  Ir31  1  0.367393  0.178363  0.000000  1
  Ir  Ir32  1  0.277629  0.001547  0.500000  1
  Ir  Ir33  1  0.001547  0.277629  0.500000  1
  Ir  Ir34  1  0.721359  0.721359  0.500000  1
  Ir  Ir35  1  0.001502  0.001502  0.000000  1
