# generated using pymatgen
data_Ho4LuPa(Al3Os)8
_symmetry_space_group_name_H-M   'P 1'
_cell_length_a   8.79080267
_cell_length_b   8.81491974
_cell_length_c   9.54874900
_cell_angle_alpha   90.00000000
_cell_angle_beta   90.00000000
_cell_angle_gamma   119.70021466
_symmetry_Int_Tables_number   1
_chemical_formula_structural   Ho4LuPa(Al3Os)8
_chemical_formula_sum   'Ho4 Lu1 Pa1 Al24 Os8'
_cell_volume   642.72919179
_cell_formula_units_Z   1
loop_
 _symmetry_equiv_pos_site_id
 _symmetry_equiv_pos_as_xyz
  1  'x, y, z'
loop_
 _atom_site_type_symbol
 _atom_site_label
 _atom_site_symmetry_multiplicity
 _atom_site_fract_x
 _atom_site_fract_y
 _atom_site_fract_z
 _atom_site_occupancy
  Ho  Ho0  1  0.808540  0.615596  0.750000  1
  Ho  Ho1  1  0.388458  0.191672  0.750000  1
  Ho  Ho2  1  0.193226  0.802898  0.250000  1
  Ho  Ho3  1  0.804239  0.192760  0.750000  1
  Lu  Lu4  1  0.607092  0.800754  0.250000  1
  Pa  Pa5  1  0.195686  0.394177  0.250000  1
  Al  Al6  1  0.336838  0.673169  0.019473  1
  Al  Al7  1  0.668290  0.335612  0.979843  1
  Al  Al8  1  0.668290  0.335612  0.520157  1
  Al  Al9  1  0.336838  0.673169  0.480527  1
  Al  Al10  1  0.163606  0.326349  0.577519  1
  Al  Al11  1  0.835920  0.673474  0.424530  1
  Al  Al12  1  0.672597  0.835116  0.574668  1
  Al  Al13  1  0.835920  0.673474  0.075470  1
  Al  Al14  1  0.326509  0.162674  0.423294  1
  Al  Al15  1  0.163606  0.326349  0.922481  1
  Al  Al16  1  0.163219  0.835395  0.574593  1
  Al  Al17  1  0.326509  0.162674  0.076706  1
  Al  Al18  1  0.835036  0.161412  0.423496  1
  Al  Al19  1  0.672597  0.835116  0.925332  1
  Al  Al20  1  0.835036  0.161412  0.076504  1
  Al  Al21  1  0.163219  0.835395  0.925407  1
  Al  Al22  1  0.560287  0.119342  0.250000  1
  Al  Al23  1  0.438174  0.875291  0.750000  1
  Al  Al24  1  0.872385  0.437255  0.250000  1
  Al  Al25  1  0.120506  0.559497  0.750000  1
  Al  Al26  1  0.565029  0.438127  0.250000  1
  Al  Al27  1  0.439519  0.559997  0.750000  1
  Al  Al28  1  0.999105  0.001709  0.250000  1
  Al  Al29  1  0.001283  0.000919  0.750000  1
  Os  Os30  1  0.501841  0.003209  0.998033  1
  Os  Os31  1  0.003469  0.499823  0.004693  1
  Os  Os32  1  0.501841  0.003209  0.501967  1
  Os  Os33  1  0.496663  0.500211  0.005222  1
  Os  Os34  1  0.003469  0.499823  0.495307  1
  Os  Os35  1  0.496663  0.500211  0.494778  1
  Os  Os36  1  0.999244  0.998560  0.999429  1
  Os  Os37  1  0.999244  0.998560  0.500571  1
