# generated using pymatgen
data_Ta6Nb4Ir5
_symmetry_space_group_name_H-M   'P 1'
_cell_length_a   9.96388900
_cell_length_b   9.96388900
_cell_length_c   5.12766700
_cell_angle_alpha   90.00000000
_cell_angle_beta   90.00000000
_cell_angle_gamma   90.00000000
_symmetry_Int_Tables_number   1
_chemical_formula_structural   Ta6Nb4Ir5
_chemical_formula_sum   'Ta12 Nb8 Ir10'
_cell_volume   509.07008284
_cell_formula_units_Z   2
loop_
 _symmetry_equiv_pos_site_id
 _symmetry_equiv_pos_as_xyz
  1  'x, y, z'
loop_
 _atom_site_type_symbol
 _atom_site_label
 _atom_site_symmetry_multiplicity
 _atom_site_fract_x
 _atom_site_fract_y
 _atom_site_fract_z
 _atom_site_occupancy
  Ta  Ta0  1  0.129169  0.462388  0.999832  1
  Ta  Ta1  1  0.962388  0.370831  0.499832  1
  Ta  Ta2  1  0.037612  0.629169  0.499832  1
  Ta  Ta3  1  0.870831  0.537612  0.999832  1
  Ta  Ta4  1  0.370831  0.962388  0.499832  1
  Ta  Ta5  1  0.629169  0.037612  0.499832  1
  Ta  Ta6  1  0.462388  0.129169  0.999832  1
  Ta  Ta7  1  0.537612  0.870831  0.999832  1
  Ta  Ta8  1  0.178947  0.178947  0.250901  1
  Ta  Ta9  1  0.678947  0.321053  0.750901  1
  Ta  Ta10  1  0.321053  0.678947  0.750901  1
  Ta  Ta11  1  0.821053  0.821053  0.250901  1
  Nb  Nb12  1  0.394839  0.394839  0.000219  1
  Nb  Nb13  1  0.894839  0.105161  0.500219  1
  Nb  Nb14  1  0.105161  0.894839  0.500219  1
  Nb  Nb15  1  0.605161  0.605161  0.000219  1
  Nb  Nb16  1  0.321316  0.678684  0.248620  1
  Nb  Nb17  1  0.678684  0.321316  0.248620  1
  Nb  Nb18  1  0.178684  0.178684  0.748620  1
  Nb  Nb19  1  0.821316  0.821316  0.748620  1
  Ir  Ir20  1  0.000000  0.000000  0.003423  1
  Ir  Ir21  1  0.500000  0.500000  0.503423  1
  Ir  Ir22  1  0.262512  0.930698  0.999442  1
  Ir  Ir23  1  0.430698  0.237488  0.499442  1
  Ir  Ir24  1  0.569302  0.762512  0.499442  1
  Ir  Ir25  1  0.737488  0.069302  0.999442  1
  Ir  Ir26  1  0.237488  0.430698  0.499442  1
  Ir  Ir27  1  0.762512  0.569302  0.499442  1
  Ir  Ir28  1  0.930698  0.262512  0.999442  1
  Ir  Ir29  1  0.069302  0.737488  0.999442  1
