# generated using pymatgen
data_Ba7Na14Sr7YbN6
_symmetry_space_group_name_H-M   'P 1'
_cell_length_a   12.31436040
_cell_length_b   12.31090917
_cell_length_c   12.31511134
_cell_angle_alpha   60.25435149
_cell_angle_beta   60.32459452
_cell_angle_gamma   60.21890740
_symmetry_Int_Tables_number   1
_chemical_formula_structural   Ba7Na14Sr7YbN6
_chemical_formula_sum   'Ba7 Na14 Sr7 Yb1 N6'
_cell_volume   1328.10070502
_cell_formula_units_Z   1
loop_
 _symmetry_equiv_pos_site_id
 _symmetry_equiv_pos_as_xyz
  1  'x, y, z'
loop_
 _atom_site_type_symbol
 _atom_site_label
 _atom_site_symmetry_multiplicity
 _atom_site_fract_x
 _atom_site_fract_y
 _atom_site_fract_z
 _atom_site_occupancy
  Ba  Ba0  1  0.108155  0.108079  0.108205  1
  Ba  Ba1  1  0.288364  0.708266  0.288469  1
  Ba  Ba2  1  0.712129  0.712291  0.287847  1
  Ba  Ba3  1  0.288405  0.288229  0.708170  1
  Ba  Ba4  1  0.287788  0.712316  0.712039  1
  Ba  Ba5  1  0.708222  0.288205  0.288491  1
  Ba  Ba6  1  0.712160  0.287739  0.712041  1
  Na  Na7  1  0.672043  0.672182  0.671862  1
  Na  Na8  1  0.015776  0.329254  0.329771  1
  Na  Na9  1  0.329683  0.329322  0.015806  1
  Na  Na10  1  0.329409  0.015838  0.329571  1
  Na  Na11  1  0.672087  0.672437  0.983294  1
  Na  Na12  1  0.672391  0.983200  0.672192  1
  Na  Na13  1  0.983254  0.672541  0.671988  1
  Na  Na14  1  0.327735  0.327532  0.327844  1
  Na  Na15  1  0.502984  0.999133  0.999126  1
  Na  Na16  1  0.999920  0.500248  0.500230  1
  Na  Na17  1  0.999094  0.503047  0.999087  1
  Na  Na18  1  0.500237  0.999933  0.500224  1
  Na  Na19  1  0.500242  0.500212  0.999938  1
  Na  Na20  1  0.999114  0.999116  0.502980  1
  Sr  Sr21  1  0.897010  0.897083  0.896962  1
  Sr  Sr22  1  0.690130  0.102621  0.102587  1
  Sr  Sr23  1  0.102612  0.102643  0.690044  1
  Sr  Sr24  1  0.102567  0.690283  0.102565  1
  Sr  Sr25  1  0.896161  0.896123  0.308935  1
  Sr  Sr26  1  0.896191  0.308677  0.896206  1
  Sr  Sr27  1  0.308830  0.896142  0.896195  1
  Yb  Yb28  1  0.000441  0.000438  0.000461  1
  N  N29  1  0.144042  0.853258  0.143902  1
  N  N30  1  0.856674  0.856341  0.142532  1
  N  N31  1  0.143761  0.144097  0.853471  1
  N  N32  1  0.142599  0.856254  0.856727  1
  N  N33  1  0.853397  0.144186  0.143707  1
  N  N34  1  0.856392  0.142737  0.856531  1
