# generated using pymatgen
data_Dy8Ho2Zn3Bi2Au
_symmetry_space_group_name_H-M   'P 1'
_cell_length_a   8.64099406
_cell_length_b   8.64099509
_cell_length_c   8.64470102
_cell_angle_alpha   123.84928486
_cell_angle_beta   123.84929263
_cell_angle_gamma   83.42530971
_symmetry_Int_Tables_number   1
_chemical_formula_structural   Dy8Ho2Zn3Bi2Au
_chemical_formula_sum   'Dy8 Ho2 Zn3 Bi2 Au1'
_cell_volume   426.89955446
_cell_formula_units_Z   1
loop_
 _symmetry_equiv_pos_site_id
 _symmetry_equiv_pos_as_xyz
  1  'x, y, z'
loop_
 _atom_site_type_symbol
 _atom_site_label
 _atom_site_symmetry_multiplicity
 _atom_site_fract_x
 _atom_site_fract_y
 _atom_site_fract_z
 _atom_site_occupancy
  Dy  Dy0  1  0.509823  0.011240  0.805876  1
  Dy  Dy1  1  0.203947  0.705364  0.194124  1
  Dy  Dy2  1  0.011857  0.204729  0.500000  1
  Dy  Dy3  1  0.704875  0.511269  0.500000  1
  Dy  Dy4  1  0.488760  0.990177  0.194124  1
  Dy  Dy5  1  0.794636  0.296053  0.805876  1
  Dy  Dy6  1  0.988731  0.795125  0.500000  1
  Dy  Dy7  1  0.295271  0.488143  0.500000  1
  Ho  Ho8  1  0.499578  0.499808  0.999387  1
  Ho  Ho9  1  0.000192  0.000422  0.000613  1
  Zn  Zn10  1  0.137704  0.639475  0.777180  1
  Zn  Zn11  1  0.860525  0.362296  0.222820  1
  Zn  Zn12  1  0.639697  0.860303  0.500000  1
  Bi  Bi13  1  0.249173  0.250827  0.000000  1
  Bi  Bi14  1  0.749173  0.750827  0.000000  1
  Au  Au15  1  0.366058  0.133942  0.500000  1
