# generated using pymatgen
data_Hf18TiRe7AsRu
_symmetry_space_group_name_H-M   'P 1'
_cell_length_a   8.62598600
_cell_length_b   8.62598686
_cell_length_c   8.58181800
_cell_angle_alpha   90.00000000
_cell_angle_beta   90.00000000
_cell_angle_gamma   119.99999671
_symmetry_Int_Tables_number   1
_chemical_formula_structural   Hf18TiRe7AsRu
_chemical_formula_sum   'Hf18 Ti1 Re7 As1 Ru1'
_cell_volume   553.00299979
_cell_formula_units_Z   1
loop_
 _symmetry_equiv_pos_site_id
 _symmetry_equiv_pos_as_xyz
  1  'x, y, z'
loop_
 _atom_site_type_symbol
 _atom_site_label
 _atom_site_symmetry_multiplicity
 _atom_site_fract_x
 _atom_site_fract_y
 _atom_site_fract_z
 _atom_site_occupancy
  Hf  Hf0  1  0.193721  0.806279  0.452648  1
  Hf  Hf1  1  0.193721  0.387438  0.452648  1
  Hf  Hf2  1  0.612562  0.806279  0.452648  1
  Hf  Hf3  1  0.802626  0.197374  0.552845  1
  Hf  Hf4  1  0.802626  0.605254  0.552845  1
  Hf  Hf5  1  0.394746  0.197374  0.552845  1
  Hf  Hf6  1  0.801477  0.198523  0.945649  1
  Hf  Hf7  1  0.801477  0.602957  0.945649  1
  Hf  Hf8  1  0.397043  0.198523  0.945649  1
  Hf  Hf9  1  0.190949  0.809051  0.047610  1
  Hf  Hf10  1  0.190949  0.381895  0.047610  1
  Hf  Hf11  1  0.618105  0.809051  0.047610  1
  Hf  Hf12  1  0.542004  0.457996  0.249812  1
  Hf  Hf13  1  0.542004  0.084008  0.249812  1
  Hf  Hf14  1  0.915992  0.457996  0.249812  1
  Hf  Hf15  1  0.457979  0.542021  0.750307  1
  Hf  Hf16  1  0.457979  0.915958  0.750307  1
  Hf  Hf17  1  0.084042  0.542021  0.750307  1
  Ti  Ti18  1  0.000000  0.000000  0.503346  1
  Re  Re19  1  0.889344  0.110656  0.251935  1
  Re  Re20  1  0.889344  0.778688  0.251935  1
  Re  Re21  1  0.221312  0.110656  0.251935  1
  Re  Re22  1  0.111560  0.888440  0.748881  1
  Re  Re23  1  0.111560  0.223121  0.748881  1
  Re  Re24  1  0.776879  0.888440  0.748881  1
  Re  Re25  1  0.000000  0.000000  0.000523  1
  As  As26  1  0.333333  0.666667  0.247211  1
  Ru  Ru27  1  0.666667  0.333333  0.749860  1
