# generated using pymatgen
data_SrLi3Pr2Pd3
_symmetry_space_group_name_H-M   'P 1'
_cell_length_a   7.57694033
_cell_length_b   7.57694090
_cell_length_c   4.24883700
_cell_angle_alpha   90.00000000
_cell_angle_beta   90.00000000
_cell_angle_gamma   121.58894808
_symmetry_Int_Tables_number   1
_chemical_formula_structural   SrLi3Pr2Pd3
_chemical_formula_sum   'Sr1 Li3 Pr2 Pd3'
_cell_volume   207.78287168
_cell_formula_units_Z   1
loop_
 _symmetry_equiv_pos_site_id
 _symmetry_equiv_pos_as_xyz
  1  'x, y, z'
loop_
 _atom_site_type_symbol
 _atom_site_label
 _atom_site_symmetry_multiplicity
 _atom_site_fract_x
 _atom_site_fract_y
 _atom_site_fract_z
 _atom_site_occupancy
  Sr  Sr0  1  0.413103  0.413103  0.500000  1
  Li  Li1  1  0.768548  0.768548  0.000000  1
  Li  Li2  1  0.231350  0.999542  0.000000  1
  Li  Li3  1  0.999542  0.231350  0.000000  1
  Pr  Pr4  1  0.593863  0.003081  0.500000  1
  Pr  Pr5  1  0.003081  0.593863  0.500000  1
  Pd  Pd6  1  0.685224  0.325990  0.000000  1
  Pd  Pd7  1  0.325990  0.685224  0.000000  1
  Pd  Pd8  1  0.979299  0.979299  0.500000  1
