# generated using pymatgen
data_Tm4Lu4Re(B8Ir)3
_symmetry_space_group_name_H-M   'P 1'
_cell_length_a   3.61174300
_cell_length_b   9.08056242
_cell_length_c   11.41766704
_cell_angle_alpha   90.13351490
_cell_angle_beta   90.00000000
_cell_angle_gamma   90.00000000
_symmetry_Int_Tables_number   1
_chemical_formula_structural   Tm4Lu4Re(B8Ir)3
_chemical_formula_sum   'Tm4 Lu4 Re1 B24 Ir3'
_cell_volume   374.46030136
_cell_formula_units_Z   1
loop_
 _symmetry_equiv_pos_site_id
 _symmetry_equiv_pos_as_xyz
  1  'x, y, z'
loop_
 _atom_site_type_symbol
 _atom_site_label
 _atom_site_symmetry_multiplicity
 _atom_site_fract_x
 _atom_site_fract_y
 _atom_site_fract_z
 _atom_site_occupancy
  Tm  Tm0  1  0.000000  0.319781  0.413857  1
  Tm  Tm1  1  0.000000  0.684235  0.590391  1
  Tm  Tm2  1  0.000000  0.819676  0.082455  1
  Tm  Tm3  1  0.000000  0.176611  0.912406  1
  Lu  Lu4  1  0.000000  0.943731  0.373405  1
  Lu  Lu5  1  0.000000  0.053497  0.626319  1
  Lu  Lu6  1  0.000000  0.443631  0.125950  1
  Lu  Lu7  1  0.000000  0.557228  0.874831  1
  Re  Re8  1  0.000000  0.862848  0.821434  1
  B  B9  1  0.500000  0.553898  0.434741  1
  B  B10  1  0.500000  0.447335  0.565988  1
  B  B11  1  0.500000  0.053695  0.065965  1
  B  B12  1  0.500000  0.946754  0.933806  1
  B  B13  1  0.500000  0.751191  0.420815  1
  B  B14  1  0.500000  0.249292  0.578924  1
  B  B15  1  0.500000  0.250134  0.078823  1
  B  B16  1  0.500000  0.750448  0.920048  1
  B  B17  1  0.500000  0.793035  0.264215  1
  B  B18  1  0.500000  0.206971  0.734105  1
  B  B19  1  0.500000  0.293875  0.235595  1
  B  B20  1  0.500000  0.707087  0.765585  1
  B  B21  1  0.500000  0.630756  0.183494  1
  B  B22  1  0.500000  0.368604  0.816470  1
  B  B23  1  0.500000  0.131506  0.316370  1
  B  B24  1  0.500000  0.869374  0.684734  1
  B  B25  1  0.500000  0.980907  0.213221  1
  B  B26  1  0.500000  0.018279  0.786392  1
  B  B27  1  0.500000  0.480628  0.287118  1
  B  B28  1  0.500000  0.518705  0.713978  1
  B  B29  1  0.500000  0.605381  0.030074  1
  B  B30  1  0.500000  0.392226  0.970987  1
  B  B31  1  0.500000  0.106903  0.470219  1
  B  B32  1  0.500000  0.893983  0.528028  1
  Ir  Ir33  1  0.000000  0.637509  0.321773  1
  Ir  Ir34  1  0.000000  0.362486  0.678477  1
  Ir  Ir35  1  0.000000  0.137799  0.179007  1
