# generated using pymatgen
data_Y2Ho2Sb6Rh7
_symmetry_space_group_name_H-M   'P 1'
_cell_length_a   7.60605613
_cell_length_b   7.62461584
_cell_length_c   7.62461565
_cell_angle_alpha   109.58778068
_cell_angle_beta   109.46225393
_cell_angle_gamma   109.46224825
_symmetry_Int_Tables_number   1
_chemical_formula_structural   Y2Ho2Sb6Rh7
_chemical_formula_sum   'Y2 Ho2 Sb6 Rh7'
_cell_volume   339.97213557
_cell_formula_units_Z   1
loop_
 _symmetry_equiv_pos_site_id
 _symmetry_equiv_pos_as_xyz
  1  'x, y, z'
loop_
 _atom_site_type_symbol
 _atom_site_label
 _atom_site_symmetry_multiplicity
 _atom_site_fract_x
 _atom_site_fract_y
 _atom_site_fract_z
 _atom_site_occupancy
  Y  Y0  1  0.500000  0.000000  0.000000  1
  Y  Y1  1  0.500000  0.500000  0.500000  1
  Ho  Ho2  1  0.000000  0.500000  0.000000  1
  Ho  Ho3  1  0.000000  0.000000  0.500000  1
  Sb  Sb4  1  0.317499  0.000644  0.316854  1
  Sb  Sb5  1  0.000000  0.682975  0.682975  1
  Sb  Sb6  1  0.682501  0.683146  0.999356  1
  Sb  Sb7  1  0.682501  0.999356  0.683146  1
  Sb  Sb8  1  0.000000  0.317025  0.317025  1
  Sb  Sb9  1  0.317499  0.316854  0.000644  1
  Rh  Rh10  1  0.247924  0.497915  0.750009  1
  Rh  Rh11  1  0.500000  0.250000  0.750000  1
  Rh  Rh12  1  0.752076  0.249991  0.502085  1
  Rh  Rh13  1  0.500000  0.750000  0.250000  1
  Rh  Rh14  1  0.000000  0.000000  0.000000  1
  Rh  Rh15  1  0.247924  0.750009  0.497915  1
  Rh  Rh16  1  0.752076  0.502085  0.249991  1
