# generated using pymatgen
data_Nd2Fe6Co4Ni2P7
_symmetry_space_group_name_H-M   'P 1'
_cell_length_a   9.06351071
_cell_length_b   9.03846922
_cell_length_c   3.65951200
_cell_angle_alpha   90.00000000
_cell_angle_beta   90.00000000
_cell_angle_gamma   119.86650915
_symmetry_Int_Tables_number   1
_chemical_formula_structural   Nd2Fe6Co4Ni2P7
_chemical_formula_sum   'Nd2 Fe6 Co4 Ni2 P7'
_cell_volume   259.97270966
_cell_formula_units_Z   1
loop_
 _symmetry_equiv_pos_site_id
 _symmetry_equiv_pos_as_xyz
  1  'x, y, z'
loop_
 _atom_site_type_symbol
 _atom_site_label
 _atom_site_symmetry_multiplicity
 _atom_site_fract_x
 _atom_site_fract_y
 _atom_site_fract_z
 _atom_site_occupancy
  Nd  Nd0  1  0.667166  0.333060  0.000000  1
  Nd  Nd1  1  0.333137  0.666681  0.500000  1
  Fe  Fe2  1  0.269430  0.118934  0.000000  1
  Fe  Fe3  1  0.845875  0.727439  0.000000  1
  Fe  Fe4  1  0.881560  0.153956  0.000000  1
  Fe  Fe5  1  0.095323  0.881887  0.500000  1
  Fe  Fe6  1  0.786695  0.904159  0.500000  1
  Fe  Fe7  1  0.122208  0.222107  0.500000  1
  Co  Co8  1  0.369581  0.428068  0.000000  1
  Co  Co9  1  0.432186  0.049219  0.500000  1
  Co  Co10  1  0.614348  0.566177  0.500000  1
  Co  Co11  1  0.953033  0.384237  0.500000  1
  Ni  Ni12  1  0.060402  0.628493  0.000000  1
  Ni  Ni13  1  0.569758  0.939097  0.000000  1
  P  P14  1  0.298616  0.895993  0.000000  1
  P  P15  1  0.593877  0.697908  0.000000  1
  P  P16  1  0.108112  0.400991  0.000000  1
  P  P17  1  0.394936  0.286643  0.500000  1
  P  P18  1  0.889109  0.604019  0.500000  1
  P  P19  1  0.715736  0.111035  0.500000  1
  P  P20  1  0.998912  0.999896  0.000000  1
