# generated using pymatgen
data_K7RbAl4S4(O4F3)4
_symmetry_space_group_name_H-M   'P 1'
_cell_length_a   6.96194000
_cell_length_b   8.47483800
_cell_length_c   11.12115000
_cell_angle_alpha   90.00000000
_cell_angle_beta   90.00000000
_cell_angle_gamma   90.00000000
_symmetry_Int_Tables_number   1
_chemical_formula_structural   K7RbAl4S4(O4F3)4
_chemical_formula_sum   'K7 Rb1 Al4 S4 O16 F12'
_cell_volume   656.16245947
_cell_formula_units_Z   1
loop_
 _symmetry_equiv_pos_site_id
 _symmetry_equiv_pos_as_xyz
  1  'x, y, z'
loop_
 _atom_site_type_symbol
 _atom_site_label
 _atom_site_symmetry_multiplicity
 _atom_site_fract_x
 _atom_site_fract_y
 _atom_site_fract_z
 _atom_site_occupancy
  K  K0  1  0.199017  0.325384  0.302634  1
  K  K1  1  0.300809  0.325138  0.697491  1
  K  K2  1  0.800799  0.174942  0.802366  1
  K  K3  1  0.300799  0.825081  0.802470  1
  K  K4  1  0.800848  0.674850  0.697492  1
  K  K5  1  0.699170  0.674893  0.302514  1
  K  K6  1  0.199267  0.824698  0.197631  1
  Rb  Rb7  1  0.701503  0.178863  0.195251  1
  Al  Al8  1  0.499212  0.500718  0.999479  1
  Al  Al9  1  0.000548  0.999620  0.500713  1
  Al  Al10  1  0.499813  0.999775  0.500482  1
  Al  Al11  1  0.000298  0.500284  0.999598  1
  S  S12  1  0.749973  0.308369  0.501014  1
  S  S13  1  0.248986  0.191743  0.999532  1
  S  S14  1  0.250076  0.691667  0.500108  1
  S  S15  1  0.750853  0.806830  0.999493  1
  O  O16  1  0.828105  0.402780  0.401900  1
  O  O17  1  0.324856  0.096455  0.098665  1
  O  O18  1  0.171117  0.098146  0.899954  1
  O  O19  1  0.672092  0.402938  0.600052  1
  O  O20  1  0.171853  0.597367  0.599222  1
  O  O21  1  0.672237  0.902279  0.901137  1
  O  O22  1  0.831515  0.898872  0.098823  1
  O  O23  1  0.328344  0.597460  0.400927  1
  O  O24  1  0.593607  0.202839  0.449548  1
  O  O25  1  0.093973  0.298178  0.051569  1
  O  O26  1  0.406106  0.297029  0.948343  1
  O  O27  1  0.906089  0.202522  0.552508  1
  O  O28  1  0.405819  0.797371  0.552325  1
  O  O29  1  0.905436  0.701044  0.946315  1
  O  O30  1  0.594071  0.702273  0.051473  1
  O  O31  1  0.094193  0.797246  0.448171  1
  F  F32  1  0.981830  0.051736  0.346045  1
  F  F33  1  0.475183  0.450530  0.154553  1
  F  F34  1  0.021901  0.446696  0.844872  1
  F  F35  1  0.521569  0.052613  0.655369  1
  F  F36  1  0.021623  0.946907  0.655345  1
  F  F37  1  0.521194  0.553025  0.844772  1
  F  F38  1  0.978257  0.552736  0.154689  1
  F  F39  1  0.477527  0.946177  0.345883  1
  F  F40  1  0.749542  0.415898  0.999148  1
  F  F41  1  0.250397  0.085510  0.500550  1
  F  F42  1  0.249512  0.585828  0.999535  1
  F  F43  1  0.750081  0.914691  0.500040  1
