# generated using pymatgen
data_Dy5Ho5AlSb5
_symmetry_space_group_name_H-M   'P 1'
_cell_length_a   8.92857400
_cell_length_b   8.91787092
_cell_length_c   6.36476600
_cell_angle_alpha   90.00000000
_cell_angle_beta   90.00000000
_cell_angle_gamma   120.03971711
_symmetry_Int_Tables_number   1
_chemical_formula_structural   Dy5Ho5AlSb5
_chemical_formula_sum   'Dy5 Ho5 Al1 Sb5'
_cell_volume   438.71492249
_cell_formula_units_Z   1
loop_
 _symmetry_equiv_pos_site_id
 _symmetry_equiv_pos_as_xyz
  1  'x, y, z'
loop_
 _atom_site_type_symbol
 _atom_site_label
 _atom_site_symmetry_multiplicity
 _atom_site_fract_x
 _atom_site_fract_y
 _atom_site_fract_z
 _atom_site_occupancy
  Dy  Dy0  1  0.752362  0.000000  0.750000  1
  Dy  Dy1  1  0.755153  0.755873  0.250000  1
  Dy  Dy2  1  0.999280  0.244127  0.250000  1
  Dy  Dy3  1  0.009298  0.763424  0.750000  1
  Dy  Dy4  1  0.245874  0.236576  0.750000  1
  Ho  Ho5  1  0.334854  0.673434  0.998867  1
  Ho  Ho6  1  0.661421  0.326566  0.501133  1
  Ho  Ho7  1  0.661421  0.326566  0.998867  1
  Ho  Ho8  1  0.334854  0.673434  0.501133  1
  Ho  Ho9  1  0.241979  0.000000  0.250000  1
  Al  Al10  1  0.396968  0.000000  0.750000  1
  Sb  Sb11  1  0.389593  0.392348  0.250000  1
  Sb  Sb12  1  0.997245  0.607652  0.250000  1
  Sb  Sb13  1  0.001958  0.390885  0.750000  1
  Sb  Sb14  1  0.611073  0.609115  0.750000  1
  Sb  Sb15  1  0.606668  0.000000  0.250000  1
