# generated using pymatgen
data_CaAc(CuAs)4
_symmetry_space_group_name_H-M   'P 1'
_cell_length_a   4.32156500
_cell_length_b   4.32156500
_cell_length_c   10.07329700
_cell_angle_alpha   90.00000000
_cell_angle_beta   90.00000000
_cell_angle_gamma   90.00000000
_symmetry_Int_Tables_number   1
_chemical_formula_structural   CaAc(CuAs)4
_chemical_formula_sum   'Ca1 Ac1 Cu4 As4'
_cell_volume   188.12812970
_cell_formula_units_Z   1
loop_
 _symmetry_equiv_pos_site_id
 _symmetry_equiv_pos_as_xyz
  1  'x, y, z'
loop_
 _atom_site_type_symbol
 _atom_site_label
 _atom_site_symmetry_multiplicity
 _atom_site_fract_x
 _atom_site_fract_y
 _atom_site_fract_z
 _atom_site_occupancy
  Ca  Ca0  1  0.500000  0.000000  0.755105  1
  Ac  Ac1  1  0.000000  0.500000  0.244785  1
  Cu  Cu2  1  0.000000  0.000000  0.992412  1
  Cu  Cu3  1  0.500000  0.500000  0.992412  1
  Cu  Cu4  1  0.500000  0.000000  0.376344  1
  Cu  Cu5  1  0.000000  0.500000  0.629972  1
  As  As6  1  0.500000  0.000000  0.133642  1
  As  As7  1  0.000000  0.000000  0.504518  1
  As  As8  1  0.500000  0.500000  0.504518  1
  As  As9  1  0.000000  0.500000  0.866292  1
