# generated using pymatgen
data_Li2Ni9P7W3
_symmetry_space_group_name_H-M   'P 1'
_cell_length_a   9.13190600
_cell_length_b   9.13190600
_cell_length_c   3.61039800
_cell_angle_alpha   90.00000000
_cell_angle_beta   90.00000000
_cell_angle_gamma   120.00000726
_symmetry_Int_Tables_number   1
_chemical_formula_structural   Li2Ni9P7W3
_chemical_formula_sum   'Li2 Ni9 P7 W3'
_cell_volume   260.74053033
_cell_formula_units_Z   1
loop_
 _symmetry_equiv_pos_site_id
 _symmetry_equiv_pos_as_xyz
  1  'x, y, z'
loop_
 _atom_site_type_symbol
 _atom_site_label
 _atom_site_symmetry_multiplicity
 _atom_site_fract_x
 _atom_site_fract_y
 _atom_site_fract_z
 _atom_site_occupancy
  Li  Li0  1  0.333333  0.666667  0.000000  1
  Li  Li1  1  0.666667  0.333333  0.500000  1
  Ni  Ni2  1  0.710844  0.874400  0.000000  1
  Ni  Ni3  1  0.163556  0.289156  0.000000  1
  Ni  Ni4  1  0.125600  0.836444  0.000000  1
  Ni  Ni5  1  0.627456  0.564066  0.000000  1
  Ni  Ni6  1  0.936610  0.372544  0.000000  1
  Ni  Ni7  1  0.435934  0.063390  0.000000  1
  Ni  Ni8  1  0.556136  0.943338  0.500000  1
  Ni  Ni9  1  0.387202  0.443864  0.500000  1
  Ni  Ni10  1  0.056662  0.612798  0.500000  1
  P  P11  1  0.582803  0.708949  0.500000  1
  P  P12  1  0.126146  0.417197  0.500000  1
  P  P13  1  0.291051  0.873854  0.500000  1
  P  P14  1  0.000000  0.000000  0.000000  1
  P  P15  1  0.878939  0.581156  0.000000  1
  P  P16  1  0.702217  0.121061  0.000000  1
  P  P17  1  0.418844  0.297783  0.000000  1
  W  W18  1  0.875798  0.777629  0.500000  1
  W  W19  1  0.901830  0.124202  0.500000  1
  W  W20  1  0.222371  0.098170  0.500000  1
