# generated using pymatgen
data_Er12Co4TcPb
_symmetry_space_group_name_H-M   'P 1'
_cell_length_a   8.24601397
_cell_length_b   8.24601300
_cell_length_c   8.24601315
_cell_angle_alpha   110.64173563
_cell_angle_beta   111.68465881
_cell_angle_gamma   106.13959858
_symmetry_Int_Tables_number   1
_chemical_formula_structural   Er12Co4TcPb
_chemical_formula_sum   'Er12 Co4 Tc1 Pb1'
_cell_volume   430.50422665
_cell_formula_units_Z   1
loop_
 _symmetry_equiv_pos_site_id
 _symmetry_equiv_pos_as_xyz
  1  'x, y, z'
loop_
 _atom_site_type_symbol
 _atom_site_label
 _atom_site_symmetry_multiplicity
 _atom_site_fract_x
 _atom_site_fract_y
 _atom_site_fract_z
 _atom_site_occupancy
  Er  Er0  1  0.282799  0.183540  0.466338  1
  Er  Er1  1  0.717201  0.816460  0.533662  1
  Er  Er2  1  0.282799  0.816460  0.099259  1
  Er  Er3  1  0.717201  0.183540  0.900741  1
  Er  Er4  1  0.617876  0.311135  0.306741  1
  Er  Er5  1  0.382124  0.688865  0.693259  1
  Er  Er6  1  0.004396  0.311135  0.693259  1
  Er  Er7  1  0.995604  0.688865  0.306741  1
  Er  Er8  1  0.217035  0.413026  0.195991  1
  Er  Er9  1  0.782965  0.586974  0.804009  1
  Er  Er10  1  0.217035  0.021043  0.804009  1
  Er  Er11  1  0.782965  0.978957  0.195991  1
  Co  Co12  1  0.000000  0.377746  0.377746  1
  Co  Co13  1  0.000000  0.622254  0.622254  1
  Co  Co14  1  0.388624  0.888624  0.500000  1
  Co  Co15  1  0.611376  0.111376  0.500000  1
  Tc  Tc16  1  0.000000  0.000000  0.000000  1
  Pb  Pb17  1  0.500000  0.500000  0.000000  1
