# generated using pymatgen
data_Th4Ga24NiIr
_symmetry_space_group_name_H-M   'P 1'
_cell_length_a   6.10639600
_cell_length_b   6.10639600
_cell_length_c   15.54064400
_cell_angle_alpha   90.00000000
_cell_angle_beta   90.00000000
_cell_angle_gamma   90.00000000
_symmetry_Int_Tables_number   1
_chemical_formula_structural   Th4Ga24NiIr
_chemical_formula_sum   'Th4 Ga24 Ni1 Ir1'
_cell_volume   579.48065409
_cell_formula_units_Z   1
loop_
 _symmetry_equiv_pos_site_id
 _symmetry_equiv_pos_as_xyz
  1  'x, y, z'
loop_
 _atom_site_type_symbol
 _atom_site_label
 _atom_site_symmetry_multiplicity
 _atom_site_fract_x
 _atom_site_fract_y
 _atom_site_fract_z
 _atom_site_occupancy
  Th  Th0  1  0.500000  0.000000  0.242200  1
  Th  Th1  1  0.000000  0.500000  0.244063  1
  Th  Th2  1  0.000000  0.500000  0.755937  1
  Th  Th3  1  0.500000  0.000000  0.757800  1
  Ga  Ga4  1  0.500000  0.500000  0.815414  1
  Ga  Ga5  1  0.000000  0.000000  0.815414  1
  Ga  Ga6  1  0.756028  0.743972  0.914689  1
  Ga  Ga7  1  0.244817  0.744817  0.914307  1
  Ga  Ga8  1  0.000000  0.000000  0.342324  1
  Ga  Ga9  1  0.243972  0.743972  0.085311  1
  Ga  Ga10  1  0.828243  0.328243  0.570878  1
  Ga  Ga11  1  0.500000  0.500000  0.342324  1
  Ga  Ga12  1  0.243972  0.256028  0.914689  1
  Ga  Ga13  1  0.755183  0.744817  0.085693  1
  Ga  Ga14  1  0.328834  0.171166  0.570852  1
  Ga  Ga15  1  0.671166  0.171166  0.429148  1
  Ga  Ga16  1  0.000000  0.000000  0.657676  1
  Ga  Ga17  1  0.171757  0.328243  0.429122  1
  Ga  Ga18  1  0.244817  0.255183  0.085693  1
  Ga  Ga19  1  0.828243  0.671757  0.429122  1
  Ga  Ga20  1  0.671166  0.828834  0.570852  1
  Ga  Ga21  1  0.000000  0.000000  0.184586  1
  Ga  Ga22  1  0.171757  0.671757  0.570878  1
  Ga  Ga23  1  0.500000  0.500000  0.657676  1
  Ga  Ga24  1  0.755183  0.255183  0.914307  1
  Ga  Ga25  1  0.500000  0.500000  0.184586  1
  Ga  Ga26  1  0.328834  0.828834  0.429148  1
  Ga  Ga27  1  0.756028  0.256028  0.085311  1
  Ni  Ni28  1  0.000000  0.500000  0.000000  1
  Ir  Ir29  1  0.500000  0.000000  0.000000  1
