# generated using pymatgen
data_Al8Ir4Ru3Pt
_symmetry_space_group_name_H-M   'P 1'
_cell_length_a   6.05039100
_cell_length_b   4.24989300
_cell_length_c   8.53329000
_cell_angle_alpha   90.00000000
_cell_angle_beta   90.00001618
_cell_angle_gamma   90.00000000
_symmetry_Int_Tables_number   1
_chemical_formula_structural   Al8Ir4Ru3Pt
_chemical_formula_sum   'Al8 Ir4 Ru3 Pt1'
_cell_volume   219.42087494
_cell_formula_units_Z   1
loop_
 _symmetry_equiv_pos_site_id
 _symmetry_equiv_pos_as_xyz
  1  'x, y, z'
loop_
 _atom_site_type_symbol
 _atom_site_label
 _atom_site_symmetry_multiplicity
 _atom_site_fract_x
 _atom_site_fract_y
 _atom_site_fract_z
 _atom_site_occupancy
  Al  Al0  1  0.990473  0.749999  0.125001  1
  Al  Al1  1  0.509524  0.749999  0.125007  1
  Al  Al2  1  0.994577  0.250001  0.380071  1
  Al  Al3  1  0.505414  0.250001  0.380079  1
  Al  Al4  1  0.501998  0.749999  0.625001  1
  Al  Al5  1  0.998012  0.749999  0.625007  1
  Al  Al6  1  0.505421  0.250001  0.869914  1
  Al  Al7  1  0.994581  0.250001  0.869920  1
  Ir  Ir8  1  0.749994  0.250001  0.124998  1
  Ir  Ir9  1  0.249995  0.749999  0.371620  1
  Ir  Ir10  1  0.750005  0.250001  0.624997  1
  Ir  Ir11  1  0.250005  0.749999  0.878385  1
  Ru  Ru12  1  0.749998  0.749999  0.373540  1
  Ru  Ru13  1  0.250001  0.250001  0.624998  1
  Ru  Ru14  1  0.750002  0.749999  0.876464  1
  Pt  Pt15  1  0.249998  0.250001  0.124997  1
