# generated using pymatgen
data_NdCd3Ir3RhO14
_symmetry_space_group_name_H-M   'P 1'
_cell_length_a   7.32744006
_cell_length_b   7.32294094
_cell_length_c   7.32744082
_cell_angle_alpha   59.15822591
_cell_angle_beta   59.22332867
_cell_angle_gamma   59.15822075
_symmetry_Int_Tables_number   1
_chemical_formula_structural   NdCd3Ir3RhO14
_chemical_formula_sum   'Nd1 Cd3 Ir3 Rh1 O14'
_cell_volume   272.82396169
_cell_formula_units_Z   1
loop_
 _symmetry_equiv_pos_site_id
 _symmetry_equiv_pos_as_xyz
  1  'x, y, z'
loop_
 _atom_site_type_symbol
 _atom_site_label
 _atom_site_symmetry_multiplicity
 _atom_site_fract_x
 _atom_site_fract_y
 _atom_site_fract_z
 _atom_site_occupancy
  Nd  Nd0  1  0.125000  0.125000  0.125000  1
  Cd  Cd1  1  0.625000  0.125000  0.125000  1
  Cd  Cd2  1  0.125000  0.625000  0.125000  1
  Cd  Cd3  1  0.125000  0.125000  0.625000  1
  Ir  Ir4  1  0.125000  0.625000  0.625000  1
  Ir  Ir5  1  0.625000  0.625000  0.125000  1
  Ir  Ir6  1  0.625000  0.625000  0.625000  1
  Rh  Rh7  1  0.625000  0.125000  0.625000  1
  O  O8  1  0.700626  0.689403  0.304184  1
  O  O9  1  0.292280  0.298083  0.704972  1
  O  O10  1  0.699334  0.303700  0.699334  1
  O  O11  1  0.297783  0.699900  0.297783  1
  O  O12  1  0.304184  0.689403  0.700626  1
  O  O13  1  0.704972  0.298083  0.292280  1
  O  O14  1  0.549374  0.560597  0.945816  1
  O  O15  1  0.957720  0.951917  0.545028  1
  O  O16  1  0.550666  0.946300  0.550666  1
  O  O17  1  0.952217  0.550100  0.952217  1
  O  O18  1  0.945816  0.560597  0.549374  1
  O  O19  1  0.545028  0.951917  0.957720  1
  O  O20  1  0.254939  0.255734  0.254939  1
  O  O21  1  0.995061  0.994266  0.995061  1
