# generated using pymatgen
data_Y3Tm2Bi2Pb
_symmetry_space_group_name_H-M   'P 1'
_cell_length_a   6.44982700
_cell_length_b   9.08731294
_cell_length_c   9.09607385
_cell_angle_alpha   119.96814297
_cell_angle_beta   89.99995963
_cell_angle_gamma   90.00008288
_symmetry_Int_Tables_number   1
_chemical_formula_structural   Y3Tm2Bi2Pb
_chemical_formula_sum   'Y6 Tm4 Bi4 Pb2'
_cell_volume   461.85695027
_cell_formula_units_Z   2
loop_
 _symmetry_equiv_pos_site_id
 _symmetry_equiv_pos_as_xyz
  1  'x, y, z'
loop_
 _atom_site_type_symbol
 _atom_site_label
 _atom_site_symmetry_multiplicity
 _atom_site_fract_x
 _atom_site_fract_y
 _atom_site_fract_z
 _atom_site_occupancy
  Y  Y0  1  0.749994  0.242195  0.000000  1
  Y  Y1  1  0.750002  0.758047  0.757632  1
  Y  Y2  1  0.750002  0.000414  0.242368  1
  Y  Y3  1  0.249998  0.760517  0.000000  1
  Y  Y4  1  0.249999  0.241526  0.244284  1
  Y  Y5  1  0.249999  0.997243  0.755716  1
  Tm  Tm6  1  0.499473  0.332464  0.664042  1
  Tm  Tm7  1  0.499473  0.668422  0.335958  1
  Tm  Tm8  1  0.000527  0.668425  0.335956  1
  Tm  Tm9  1  0.000527  0.332469  0.664044  1
  Bi  Bi10  1  0.749994  0.607565  0.000000  1
  Bi  Bi11  1  0.750005  0.392252  0.391267  1
  Bi  Bi12  1  0.750005  0.000985  0.608733  1
  Bi  Bi13  1  0.249999  0.391853  0.000000  1
  Pb  Pb14  1  0.250001  0.606779  0.607935  1
  Pb  Pb15  1  0.250001  0.998843  0.392065  1
