# generated using pymatgen
data_Tb7HoTm2In8(IrPt)2
_symmetry_space_group_name_H-M   'P 1'
_cell_length_a   3.64400500
_cell_length_b   8.13075505
_cell_length_c   18.25083459
_cell_angle_alpha   90.04227360
_cell_angle_beta   90.00000000
_cell_angle_gamma   90.00000000
_symmetry_Int_Tables_number   1
_chemical_formula_structural   Tb7HoTm2In8(IrPt)2
_chemical_formula_sum   'Tb7 Ho1 Tm2 In8 Ir2 Pt2'
_cell_volume   540.74492552
_cell_formula_units_Z   1
loop_
 _symmetry_equiv_pos_site_id
 _symmetry_equiv_pos_as_xyz
  1  'x, y, z'
loop_
 _atom_site_type_symbol
 _atom_site_label
 _atom_site_symmetry_multiplicity
 _atom_site_fract_x
 _atom_site_fract_y
 _atom_site_fract_z
 _atom_site_occupancy
  Tb  Tb0  1  0.000000  0.383103  0.914233  1
  Tb  Tb1  1  0.000000  0.616972  0.085943  1
  Tb  Tb2  1  0.000000  0.235519  0.221959  1
  Tb  Tb3  1  0.000000  0.764445  0.778077  1
  Tb  Tb4  1  0.000000  0.248926  0.720025  1
  Tb  Tb5  1  0.000000  0.999980  0.000031  1
  Tb  Tb6  1  0.000000  0.499957  0.499970  1
  Ho  Ho7  1  0.000000  0.751702  0.279833  1
  Tm  Tm8  1  0.000000  0.114321  0.411437  1
  Tm  Tm9  1  0.000000  0.885450  0.588374  1
  In  In10  1  0.500000  0.422526  0.351570  1
  In  In11  1  0.500000  0.577882  0.648369  1
  In  In12  1  0.500000  0.073420  0.850707  1
  In  In13  1  0.500000  0.926107  0.149567  1
  In  In14  1  0.500000  0.292092  0.066889  1
  In  In15  1  0.500000  0.708025  0.933188  1
  In  In16  1  0.500000  0.204187  0.566657  1
  In  In17  1  0.500000  0.795736  0.432934  1
  Ir  Ir18  1  0.500000  0.020247  0.305058  1
  Ir  Ir19  1  0.500000  0.978268  0.694810  1
  Pt  Pt20  1  0.500000  0.478191  0.803044  1
  Pt  Pt21  1  0.500000  0.522944  0.197327  1
