# generated using pymatgen
data_Tb8Lu4Co4CuSn
_symmetry_space_group_name_H-M   'P 1'
_cell_length_a   8.26834354
_cell_length_b   8.26834319
_cell_length_c   8.26834320
_cell_angle_alpha   111.34799713
_cell_angle_beta   110.13410203
_cell_angle_gamma   106.96275129
_symmetry_Int_Tables_number   1
_chemical_formula_structural   Tb8Lu4Co4CuSn
_chemical_formula_sum   'Tb8 Lu4 Co4 Cu1 Sn1'
_cell_volume   434.47134559
_cell_formula_units_Z   1
loop_
 _symmetry_equiv_pos_site_id
 _symmetry_equiv_pos_as_xyz
  1  'x, y, z'
loop_
 _atom_site_type_symbol
 _atom_site_label
 _atom_site_symmetry_multiplicity
 _atom_site_fract_x
 _atom_site_fract_y
 _atom_site_fract_z
 _atom_site_occupancy
  Tb  Tb0  1  0.420086  0.221142  0.198941  1
  Tb  Tb1  1  0.579914  0.778858  0.801059  1
  Tb  Tb2  1  0.022201  0.221142  0.801059  1
  Tb  Tb3  1  0.977799  0.778858  0.198941  1
  Tb  Tb4  1  0.183209  0.285973  0.469183  1
  Tb  Tb5  1  0.816791  0.714027  0.530817  1
  Tb  Tb6  1  0.183209  0.714027  0.897236  1
  Tb  Tb7  1  0.816791  0.285973  0.102764  1
  Lu  Lu8  1  0.318823  0.628817  0.309994  1
  Lu  Lu9  1  0.681177  0.371183  0.690006  1
  Lu  Lu10  1  0.318823  0.008829  0.690006  1
  Lu  Lu11  1  0.681177  0.991171  0.309994  1
  Co  Co12  1  0.372768  0.000000  0.372768  1
  Co  Co13  1  0.627232  0.000000  0.627232  1
  Co  Co14  1  0.114192  0.614192  0.500000  1
  Co  Co15  1  0.885808  0.385808  0.500000  1
  Cu  Cu16  1  0.000000  0.000000  0.000000  1
  Sn  Sn17  1  0.500000  0.500000  0.000000  1
