# generated using pymatgen
data_Lu3Th(CuSi3)2
_symmetry_space_group_name_H-M   'P 1'
_cell_length_a   7.97686854
_cell_length_b   7.96441924
_cell_length_c   5.65318300
_cell_angle_alpha   69.34754132
_cell_angle_beta   69.11159493
_cell_angle_gamma   41.54086428
_symmetry_Int_Tables_number   1
_chemical_formula_structural   Lu3Th(CuSi3)2
_chemical_formula_sum   'Lu3 Th1 Cu2 Si6'
_cell_volume   220.37480841
_cell_formula_units_Z   1
loop_
 _symmetry_equiv_pos_site_id
 _symmetry_equiv_pos_as_xyz
  1  'x, y, z'
loop_
 _atom_site_type_symbol
 _atom_site_label
 _atom_site_symmetry_multiplicity
 _atom_site_fract_x
 _atom_site_fract_y
 _atom_site_fract_z
 _atom_site_occupancy
  Lu  Lu0  1  0.244040  0.755960  0.244040  1
  Lu  Lu1  1  0.250479  0.249521  0.250479  1
  Lu  Lu2  1  0.750478  0.749522  0.750478  1
  Th  Th3  1  0.755991  0.244009  0.755991  1
  Cu  Cu4  1  0.662490  0.672203  0.327797  1
  Cu  Cu5  1  0.327797  0.337510  0.662490  1
  Si  Si6  1  0.834169  0.825463  0.174537  1
  Si  Si7  1  0.830224  0.340679  0.169786  1
  Si  Si8  1  0.659321  0.169776  0.340690  1
  Si  Si9  1  0.340690  0.830214  0.659321  1
  Si  Si10  1  0.169786  0.659310  0.830224  1
  Si  Si11  1  0.174537  0.165831  0.834169  1
