# generated using pymatgen
data_Li4Pr4CdBi3
_symmetry_space_group_name_H-M   'P 1'
_cell_length_a   9.74730600
_cell_length_b   9.74730633
_cell_length_c   7.71105000
_cell_angle_alpha   90.00000000
_cell_angle_beta   90.00000000
_cell_angle_gamma   119.99999887
_symmetry_Int_Tables_number   1
_chemical_formula_structural   Li4Pr4CdBi3
_chemical_formula_sum   'Li8 Pr8 Cd2 Bi6'
_cell_volume   634.47332976
_cell_formula_units_Z   2
loop_
 _symmetry_equiv_pos_site_id
 _symmetry_equiv_pos_as_xyz
  1  'x, y, z'
loop_
 _atom_site_type_symbol
 _atom_site_label
 _atom_site_symmetry_multiplicity
 _atom_site_fract_x
 _atom_site_fract_y
 _atom_site_fract_z
 _atom_site_occupancy
  Li  Li0  1  0.830961  0.169039  0.717199  1
  Li  Li1  1  0.830961  0.661919  0.717199  1
  Li  Li2  1  0.338081  0.169039  0.717199  1
  Li  Li3  1  0.169039  0.830961  0.217199  1
  Li  Li4  1  0.169039  0.338081  0.217199  1
  Li  Li5  1  0.661919  0.830961  0.217199  1
  Li  Li6  1  0.666667  0.333333  0.329485  1
  Li  Li7  1  0.333333  0.666667  0.829485  1
  Pr  Pr8  1  0.487337  0.512663  0.503852  1
  Pr  Pr9  1  0.487337  0.974674  0.503852  1
  Pr  Pr10  1  0.025326  0.512663  0.503852  1
  Pr  Pr11  1  0.512663  0.487337  0.003852  1
  Pr  Pr12  1  0.512663  0.025326  0.003852  1
  Pr  Pr13  1  0.974674  0.487337  0.003852  1
  Pr  Pr14  1  0.000000  0.000000  0.497412  1
  Pr  Pr15  1  0.000000  0.000000  0.997412  1
  Cd  Cd16  1  0.666667  0.333333  0.736647  1
  Cd  Cd17  1  0.333333  0.666667  0.236647  1
  Bi  Bi18  1  0.833563  0.166437  0.267435  1
  Bi  Bi19  1  0.833563  0.667126  0.267435  1
  Bi  Bi20  1  0.332874  0.166437  0.267435  1
  Bi  Bi21  1  0.166437  0.833563  0.767435  1
  Bi  Bi22  1  0.166437  0.332874  0.767435  1
  Bi  Bi23  1  0.667126  0.833563  0.767435  1
