# generated using pymatgen
data_Y6AlCd5C2
_symmetry_space_group_name_H-M   'P 1'
_cell_length_a   9.48954948
_cell_length_b   9.48955023
_cell_length_c   9.45619000
_cell_angle_alpha   60.11622980
_cell_angle_beta   60.11622719
_cell_angle_gamma   60.19826274
_symmetry_Int_Tables_number   1
_chemical_formula_structural   Y6AlCd5C2
_chemical_formula_sum   'Y12 Al2 Cd10 C4'
_cell_volume   604.09041805
_cell_formula_units_Z   2
loop_
 _symmetry_equiv_pos_site_id
 _symmetry_equiv_pos_as_xyz
  1  'x, y, z'
loop_
 _atom_site_type_symbol
 _atom_site_label
 _atom_site_symmetry_multiplicity
 _atom_site_fract_x
 _atom_site_fract_y
 _atom_site_fract_z
 _atom_site_occupancy
  Y  Y0  1  0.441732  0.441732  0.058268  1
  Y  Y1  1  0.057934  0.440883  0.060109  1
  Y  Y2  1  0.440883  0.057934  0.060109  1
  Y  Y3  1  0.059684  0.059684  0.440316  1
  Y  Y4  1  0.440883  0.057934  0.441075  1
  Y  Y5  1  0.057934  0.440883  0.441075  1
  Y  Y6  1  0.808268  0.808268  0.191732  1
  Y  Y7  1  0.192066  0.809117  0.189891  1
  Y  Y8  1  0.809117  0.192066  0.189891  1
  Y  Y9  1  0.190316  0.190316  0.809684  1
  Y  Y10  1  0.809117  0.192066  0.808925  1
  Y  Y11  1  0.192066  0.809117  0.808925  1
  Al  Al12  1  0.625000  0.625000  0.125000  1
  Al  Al13  1  0.625000  0.625000  0.625000  1
  Cd  Cd14  1  0.830058  0.830058  0.502687  1
  Cd  Cd15  1  0.828676  0.503386  0.833970  1
  Cd  Cd16  1  0.503386  0.828676  0.833970  1
  Cd  Cd17  1  0.830058  0.830058  0.837198  1
  Cd  Cd18  1  0.419942  0.419942  0.747313  1
  Cd  Cd19  1  0.421324  0.746614  0.416030  1
  Cd  Cd20  1  0.746614  0.421324  0.416030  1
  Cd  Cd21  1  0.419942  0.419942  0.412802  1
  Cd  Cd22  1  0.625000  0.125000  0.625000  1
  Cd  Cd23  1  0.125000  0.625000  0.625000  1
  C  C24  1  0.125000  0.125000  0.625000  1
  C  C25  1  0.125000  0.625000  0.125000  1
  C  C26  1  0.625000  0.125000  0.125000  1
  C  C27  1  0.125000  0.125000  0.125000  1
