# generated using pymatgen
data_NaHo3P7Ir8
_symmetry_space_group_name_H-M   'P 1'
_cell_length_a   3.94172500
_cell_length_b   12.65309365
_cell_length_c   13.17194873
_cell_angle_alpha   80.40429367
_cell_angle_beta   90.00000000
_cell_angle_gamma   90.00000000
_symmetry_Int_Tables_number   1
_chemical_formula_structural   NaHo3P7Ir8
_chemical_formula_sum   'Na2 Ho6 P14 Ir16'
_cell_volume   647.75943638
_cell_formula_units_Z   2
loop_
 _symmetry_equiv_pos_site_id
 _symmetry_equiv_pos_as_xyz
  1  'x, y, z'
loop_
 _atom_site_type_symbol
 _atom_site_label
 _atom_site_symmetry_multiplicity
 _atom_site_fract_x
 _atom_site_fract_y
 _atom_site_fract_z
 _atom_site_occupancy
  Na  Na0  1  0.750000  0.898233  0.203342  1
  Na  Na1  1  0.250000  0.286029  0.106516  1
  Ho  Ho2  1  0.750000  0.791290  0.561704  1
  Ho  Ho3  1  0.250000  0.213551  0.435912  1
  Ho  Ho4  1  0.750000  0.479213  0.707511  1
  Ho  Ho5  1  0.250000  0.522445  0.295070  1
  Ho  Ho6  1  0.750000  0.717394  0.898241  1
  Ho  Ho7  1  0.250000  0.101931  0.783140  1
  P  P8  1  0.250000  0.908498  0.411197  1
  P  P9  1  0.750000  0.473059  0.131430  1
  P  P10  1  0.250000  0.526166  0.872894  1
  P  P11  1  0.750000  0.091599  0.586502  1
  P  P12  1  0.250000  0.739008  0.075804  1
  P  P13  1  0.750000  0.254790  0.919566  1
  P  P14  1  0.750000  0.157136  0.279619  1
  P  P15  1  0.250000  0.839850  0.718437  1
  P  P16  1  0.250000  0.056574  0.097512  1
  P  P17  1  0.750000  0.944156  0.897588  1
  P  P18  1  0.250000  0.312106  0.691433  1
  P  P19  1  0.750000  0.693588  0.311688  1
  P  P20  1  0.250000  0.608023  0.566622  1
  P  P21  1  0.750000  0.392080  0.437078  1
  Ir  Ir22  1  0.250000  0.987280  0.576007  1
  Ir  Ir23  1  0.750000  0.016277  0.424469  1
  Ir  Ir24  1  0.250000  0.659063  0.730844  1
  Ir  Ir25  1  0.750000  0.339350  0.277665  1
  Ir  Ir26  1  0.250000  0.555821  0.046777  1
  Ir  Ir27  1  0.750000  0.449888  0.950988  1
  Ir  Ir28  1  0.250000  0.063273  0.270927  1
  Ir  Ir29  1  0.750000  0.935626  0.727103  1
  Ir  Ir30  1  0.250000  0.420735  0.527000  1
  Ir  Ir31  1  0.750000  0.577369  0.477116  1
  Ir  Ir32  1  0.250000  0.914865  0.993451  1
  Ir  Ir33  1  0.750000  0.079161  0.996839  1
  Ir  Ir34  1  0.250000  0.728207  0.400476  1
  Ir  Ir35  1  0.750000  0.267731  0.607561  1
  Ir  Ir36  1  0.250000  0.339431  0.860138  1
  Ir  Ir37  1  0.750000  0.659203  0.143830  1
