# generated using pymatgen
data_Tm4Al18Ir5Pt
_symmetry_space_group_name_H-M   'P 1'
_cell_length_a   7.55025015
_cell_length_b   7.55024894
_cell_length_c   9.42280109
_cell_angle_alpha   89.97233162
_cell_angle_beta   89.97233300
_cell_angle_gamma   119.62869253
_symmetry_Int_Tables_number   1
_chemical_formula_structural   Tm4Al18Ir5Pt
_chemical_formula_sum   'Tm4 Al18 Ir5 Pt1'
_cell_volume   466.92364585
_cell_formula_units_Z   1
loop_
 _symmetry_equiv_pos_site_id
 _symmetry_equiv_pos_as_xyz
  1  'x, y, z'
loop_
 _atom_site_type_symbol
 _atom_site_label
 _atom_site_symmetry_multiplicity
 _atom_site_fract_x
 _atom_site_fract_y
 _atom_site_fract_z
 _atom_site_occupancy
  Tm  Tm0  1  0.995155  0.670932  0.250850  1
  Tm  Tm1  1  0.004585  0.329093  0.749263  1
  Tm  Tm2  1  0.670907  0.995415  0.250737  1
  Tm  Tm3  1  0.329068  0.004845  0.749150  1
  Al  Al4  1  0.127832  0.127187  0.250495  1
  Al  Al5  1  0.872813  0.872168  0.749505  1
  Al  Al6  1  0.003165  0.335283  0.076639  1
  Al  Al7  1  0.002165  0.667968  0.923446  1
  Al  Al8  1  0.000125  0.664957  0.574846  1
  Al  Al9  1  0.335043  0.999875  0.425154  1
  Al  Al10  1  0.000403  0.334693  0.424570  1
  Al  Al11  1  0.665307  0.999597  0.575430  1
  Al  Al12  1  0.664717  0.996835  0.923361  1
  Al  Al13  1  0.332032  0.997835  0.076554  1
  Al  Al14  1  0.332708  0.332654  0.553604  1
  Al  Al15  1  0.667346  0.667292  0.446396  1
  Al  Al16  1  0.666608  0.669438  0.056289  1
  Al  Al17  1  0.330562  0.333392  0.943711  1
  Al  Al18  1  0.339793  0.549080  0.250459  1
  Al  Al19  1  0.660358  0.453071  0.747752  1
  Al  Al20  1  0.546929  0.339642  0.252248  1
  Al  Al21  1  0.450920  0.660207  0.749541  1
  Ir  Ir22  1  0.327991  0.672009  0.000000  1
  Ir  Ir23  1  0.328342  0.671658  0.500000  1
  Ir  Ir24  1  0.672439  0.327561  0.500000  1
  Ir  Ir25  1  0.999619  0.000381  0.000000  1
  Ir  Ir26  1  0.000354  0.999646  0.500000  1
  Pt  Pt27  1  0.672713  0.327287  0.000000  1
