# generated using pymatgen
data_Sc12Ga(OsI8)2
_symmetry_space_group_name_H-M   'P 1'
_cell_length_a   9.19216644
_cell_length_b   12.22938187
_cell_length_c   12.88421100
_cell_angle_alpha   116.93167365
_cell_angle_beta   101.04028543
_cell_angle_gamma   100.46294907
_symmetry_Int_Tables_number   1
_chemical_formula_structural   Sc12Ga(OsI8)2
_chemical_formula_sum   'Sc12 Ga1 Os2 I16'
_cell_volume   1206.33330741
_cell_formula_units_Z   1
loop_
 _symmetry_equiv_pos_site_id
 _symmetry_equiv_pos_as_xyz
  1  'x, y, z'
loop_
 _atom_site_type_symbol
 _atom_site_label
 _atom_site_symmetry_multiplicity
 _atom_site_fract_x
 _atom_site_fract_y
 _atom_site_fract_z
 _atom_site_occupancy
  Sc  Sc0  1  0.101159  0.272819  0.360495  1
  Sc  Sc1  1  0.898841  0.727181  0.639505  1
  Sc  Sc2  1  0.769556  0.535140  0.331886  1
  Sc  Sc3  1  0.230444  0.464860  0.668114  1
  Sc  Sc4  1  0.285950  0.727455  0.639340  1
  Sc  Sc5  1  0.714050  0.272545  0.360660  1
  Sc  Sc6  1  0.157264  0.535286  0.331657  1
  Sc  Sc7  1  0.842736  0.464714  0.668343  1
  Sc  Sc8  1  0.410659  0.366631  0.286888  1
  Sc  Sc9  1  0.589341  0.633369  0.713112  1
  Sc  Sc10  1  0.461461  0.319994  0.519360  1
  Sc  Sc11  1  0.538539  0.680006  0.480640  1
  Ga  Ga12  1  0.000000  0.500000  0.500000  1
  Os  Os13  1  0.338220  0.500130  0.499914  1
  Os  Os14  1  0.661781  0.499870  0.500086  1
  I  I15  1  0.389790  0.733158  0.875586  1
  I  I16  1  0.610210  0.266842  0.124414  1
  I  I17  1  0.181618  0.948113  0.773976  1
  I  I18  1  0.818382  0.051887  0.226024  1
  I  I19  1  0.339809  0.104584  0.258386  1
  I  I20  1  0.660191  0.895416  0.741614  1
  I  I21  1  0.563013  0.437175  0.793411  1
  I  I22  1  0.436987  0.562825  0.206589  1
  I  I23  1  0.300689  0.820549  0.462871  1
  I  I24  1  0.699311  0.179451  0.537129  1
  I  I25  1  0.165090  0.179896  0.536760  1
  I  I26  1  0.834910  0.820104  0.463240  1
  I  I27  1  0.927640  0.571366  0.168056  1
  I  I28  1  0.072360  0.428634  0.831944  1
  I  I29  1  0.924019  0.732795  0.875678  1
  I  I30  1  0.075981  0.267205  0.124322  1
