# generated using pymatgen
data_SmZrNp6F30
_symmetry_space_group_name_H-M   'P 1'
_cell_length_a   8.64296845
_cell_length_b   8.63514940
_cell_length_c   8.64296900
_cell_angle_alpha   100.67929077
_cell_angle_beta   100.32952014
_cell_angle_gamma   100.67928514
_symmetry_Int_Tables_number   1
_chemical_formula_structural   SmZrNp6F30
_chemical_formula_sum   'Sm1 Zr1 Np6 F30'
_cell_volume   607.46526419
_cell_formula_units_Z   1
loop_
 _symmetry_equiv_pos_site_id
 _symmetry_equiv_pos_as_xyz
  1  'x, y, z'
loop_
 _atom_site_type_symbol
 _atom_site_label
 _atom_site_symmetry_multiplicity
 _atom_site_fract_x
 _atom_site_fract_y
 _atom_site_fract_z
 _atom_site_occupancy
  Sm  Sm0  1  0.822006  0.250000  0.677994  1
  Zr  Zr1  1  0.250865  0.250000  0.249135  1
  Np  Np2  1  0.178131  0.750000  0.321869  1
  Np  Np3  1  0.247789  0.679035  0.821542  1
  Np  Np4  1  0.678458  0.820965  0.252211  1
  Np  Np5  1  0.749734  0.750000  0.750266  1
  Np  Np6  1  0.323593  0.179748  0.747233  1
  Np  Np7  1  0.752767  0.320252  0.176407  1
  F  F8  1  0.966262  0.533223  0.252239  1
  F  F9  1  0.811151  0.339884  0.440073  1
  F  F10  1  0.486800  0.717372  0.715739  1
  F  F11  1  0.343548  0.449573  0.822609  1
  F  F12  1  0.013744  0.788004  0.783321  1
  F  F13  1  0.753409  0.027449  0.464096  1
  F  F14  1  0.947743  0.839898  0.323237  1
  F  F15  1  0.225781  0.220985  0.005562  1
  F  F16  1  0.778149  0.008427  0.781578  1
  F  F17  1  0.326402  0.949720  0.841435  1
  F  F18  1  0.279225  0.278113  0.495868  1
  F  F19  1  0.447392  0.820540  0.342752  1
  F  F20  1  0.532973  0.250000  0.967027  1
  F  F21  1  0.275102  0.496220  0.279150  1
  F  F22  1  0.157248  0.679460  0.052608  1
  F  F23  1  0.844388  0.322672  0.953561  1
  F  F24  1  0.718422  0.491573  0.721851  1
  F  F25  1  0.465809  0.750000  0.034191  1
  F  F26  1  0.546439  0.177328  0.655612  1
  F  F27  1  0.716679  0.711996  0.486256  1
  F  F28  1  0.677391  0.050427  0.156452  1
  F  F29  1  0.220850  0.003780  0.224898  1
  F  F30  1  0.784261  0.782628  0.013200  1
  F  F31  1  0.059927  0.160116  0.688849  1
  F  F32  1  0.247761  0.966777  0.533738  1
  F  F33  1  0.004132  0.221887  0.220775  1
  F  F34  1  0.658565  0.550280  0.173598  1
  F  F35  1  0.494438  0.279015  0.274219  1
  F  F36  1  0.176763  0.660102  0.552257  1
  F  F37  1  0.035904  0.472551  0.746591  1
