# generated using pymatgen
data_IrRu2RhPb4O13
_symmetry_space_group_name_H-M   'P 1'
_cell_length_a   7.37507002
_cell_length_b   7.34179507
_cell_length_c   7.33891161
_cell_angle_alpha   59.68720443
_cell_angle_beta   59.83688243
_cell_angle_gamma   59.84995536
_symmetry_Int_Tables_number   1
_chemical_formula_structural   IrRu2RhPb4O13
_chemical_formula_sum   'Ir1 Ru2 Rh1 Pb4 O13'
_cell_volume   279.65385865
_cell_formula_units_Z   1
loop_
 _symmetry_equiv_pos_site_id
 _symmetry_equiv_pos_as_xyz
  1  'x, y, z'
loop_
 _atom_site_type_symbol
 _atom_site_label
 _atom_site_symmetry_multiplicity
 _atom_site_fract_x
 _atom_site_fract_y
 _atom_site_fract_z
 _atom_site_occupancy
  Ir  Ir0  1  0.874343  0.875982  0.375332  1
  Ru  Ru1  1  0.871063  0.877653  0.876332  1
  Ru  Ru2  1  0.374951  0.877653  0.876332  1
  Rh  Rh3  1  0.874339  0.375573  0.875747  1
  Pb  Pb4  1  0.876652  0.375548  0.373588  1
  Pb  Pb5  1  0.374212  0.375548  0.373588  1
  Pb  Pb6  1  0.368596  0.381163  0.881646  1
  Pb  Pb7  1  0.368638  0.883496  0.379229  1
  O  O8  1  0.203386  0.799634  0.793592  1
  O  O9  1  0.199925  0.801238  0.200443  1
  O  O10  1  0.564501  0.933584  0.937414  1
  O  O11  1  0.551050  0.943221  0.551547  1
  O  O12  1  0.954180  0.943221  0.551547  1
  O  O13  1  0.798393  0.801238  0.200443  1
  O  O14  1  0.544076  0.551348  0.951418  1
  O  O15  1  0.798608  0.198261  0.798801  1
  O  O16  1  0.793730  0.203146  0.209394  1
  O  O17  1  0.953158  0.551348  0.951418  1
  O  O18  1  0.953232  0.549778  0.543758  1
  O  O19  1  0.204331  0.198261  0.798801  1
  O  O20  1  0.498635  0.503103  0.499625  1
