# generated using pymatgen
data_La3Pr5AlZn7Rh8
_symmetry_space_group_name_H-M   'P 1'
_cell_length_a   4.06949100
_cell_length_b   7.36601365
_cell_length_c   16.67806470
_cell_angle_alpha   90.20831952
_cell_angle_beta   90.00000000
_cell_angle_gamma   90.00000000
_symmetry_Int_Tables_number   1
_chemical_formula_structural   La3Pr5AlZn7Rh8
_chemical_formula_sum   'La3 Pr5 Al1 Zn7 Rh8'
_cell_volume   499.93713326
_cell_formula_units_Z   1
loop_
 _symmetry_equiv_pos_site_id
 _symmetry_equiv_pos_as_xyz
  1  'x, y, z'
loop_
 _atom_site_type_symbol
 _atom_site_label
 _atom_site_symmetry_multiplicity
 _atom_site_fract_x
 _atom_site_fract_y
 _atom_site_fract_z
 _atom_site_occupancy
  La  La0  1  0.750000  0.449913  0.216152  1
  La  La1  1  0.750000  0.951527  0.280335  1
  La  La2  1  0.250000  0.048395  0.717423  1
  Pr  Pr3  1  0.750000  0.828617  0.058823  1
  Pr  Pr4  1  0.250000  0.169456  0.939827  1
  Pr  Pr5  1  0.250000  0.547753  0.783766  1
  Pr  Pr6  1  0.750000  0.335630  0.440664  1
  Pr  Pr7  1  0.250000  0.668875  0.562334  1
  Al  Al8  1  0.250000  0.998074  0.439928  1
  Zn  Zn9  1  0.750000  0.500431  0.938993  1
  Zn  Zn10  1  0.750000  0.003315  0.561507  1
  Zn  Zn11  1  0.250000  0.626232  0.350571  1
  Zn  Zn12  1  0.750000  0.376240  0.649585  1
  Zn  Zn13  1  0.750000  0.873638  0.851632  1
  Zn  Zn14  1  0.250000  0.499318  0.058820  1
  Zn  Zn15  1  0.250000  0.122773  0.146537  1
  Rh  Rh16  1  0.250000  0.239196  0.563885  1
  Rh  Rh17  1  0.750000  0.259273  0.066006  1
  Rh  Rh18  1  0.250000  0.233854  0.317598  1
  Rh  Rh19  1  0.750000  0.252492  0.811901  1
  Rh  Rh20  1  0.250000  0.743321  0.934381  1
  Rh  Rh21  1  0.750000  0.757120  0.686512  1
  Rh  Rh22  1  0.750000  0.773853  0.434723  1
  Rh  Rh23  1  0.250000  0.740705  0.188101  1
