# generated using pymatgen
data_Nd9Y2In9Ni4
_symmetry_space_group_name_H-M   'P 1'
_cell_length_a   13.28896097
_cell_length_b   13.28258397
_cell_length_c   3.74354800
_cell_angle_alpha   90.00000000
_cell_angle_beta   90.00000000
_cell_angle_gamma   111.34115110
_symmetry_Int_Tables_number   1
_chemical_formula_structural   Nd9Y2In9Ni4
_chemical_formula_sum   'Nd9 Y2 In9 Ni4'
_cell_volume   615.47053549
_cell_formula_units_Z   1
loop_
 _symmetry_equiv_pos_site_id
 _symmetry_equiv_pos_as_xyz
  1  'x, y, z'
loop_
 _atom_site_type_symbol
 _atom_site_label
 _atom_site_symmetry_multiplicity
 _atom_site_fract_x
 _atom_site_fract_y
 _atom_site_fract_z
 _atom_site_occupancy
  Nd  Nd0  1  0.420653  0.077397  0.000000  1
  Nd  Nd1  1  0.579347  0.922603  0.000000  1
  Nd  Nd2  1  0.628178  0.373252  0.000000  1
  Nd  Nd3  1  0.371822  0.626748  0.000000  1
  Nd  Nd4  1  0.841707  0.159568  0.000000  1
  Nd  Nd5  1  0.158293  0.840432  0.000000  1
  Nd  Nd6  1  0.000000  0.000000  0.000000  1
  Nd  Nd7  1  0.311226  0.312368  0.000000  1
  Nd  Nd8  1  0.688774  0.687632  0.000000  1
  Y  Y9  1  0.079271  0.420155  0.000000  1
  Y  Y10  1  0.920729  0.579845  0.000000  1
  In  In11  1  0.844226  0.371589  0.500000  1
  In  In12  1  0.155774  0.628411  0.500000  1
  In  In13  1  0.366152  0.837784  0.500000  1
  In  In14  1  0.633848  0.162216  0.500000  1
  In  In15  1  0.077974  0.223866  0.500000  1
  In  In16  1  0.922026  0.776134  0.500000  1
  In  In17  1  0.220848  0.079996  0.500000  1
  In  In18  1  0.779152  0.920004  0.500000  1
  In  In19  1  0.500000  0.500000  0.500000  1
  Ni  Ni20  1  0.243540  0.449712  0.500000  1
  Ni  Ni21  1  0.756460  0.550288  0.500000  1
  Ni  Ni22  1  0.451050  0.248165  0.500000  1
  Ni  Ni23  1  0.548950  0.751835  0.500000  1
