# generated using pymatgen
data_RbCa(AsRu)4
_symmetry_space_group_name_H-M   'P 1'
_cell_length_a   4.21542600
_cell_length_b   4.21542600
_cell_length_c   11.78629900
_cell_angle_alpha   90.00000000
_cell_angle_beta   90.00000000
_cell_angle_gamma   90.00000000
_symmetry_Int_Tables_number   1
_chemical_formula_structural   RbCa(AsRu)4
_chemical_formula_sum   'Rb1 Ca1 As4 Ru4'
_cell_volume   209.44036881
_cell_formula_units_Z   1
loop_
 _symmetry_equiv_pos_site_id
 _symmetry_equiv_pos_as_xyz
  1  'x, y, z'
loop_
 _atom_site_type_symbol
 _atom_site_label
 _atom_site_symmetry_multiplicity
 _atom_site_fract_x
 _atom_site_fract_y
 _atom_site_fract_z
 _atom_site_occupancy
  Rb  Rb0  1  0.500000  0.500000  0.500000  1
  Ca  Ca1  1  0.000000  0.000000  0.000000  1
  As  As2  1  0.000000  0.000000  0.679846  1
  As  As3  1  0.000000  0.000000  0.320154  1
  As  As4  1  0.500000  0.500000  0.885420  1
  As  As5  1  0.500000  0.500000  0.114580  1
  Ru  Ru6  1  0.500000  0.000000  0.785762  1
  Ru  Ru7  1  0.000000  0.500000  0.785762  1
  Ru  Ru8  1  0.500000  0.000000  0.214238  1
  Ru  Ru9  1  0.000000  0.500000  0.214238  1
