# generated using pymatgen
data_Hf3VAs3Ru2
_symmetry_space_group_name_H-M   'P 1'
_cell_length_a   7.70518278
_cell_length_b   7.70518289
_cell_length_c   7.70518349
_cell_angle_alpha   127.30995688
_cell_angle_beta   123.08927817
_cell_angle_gamma   81.25298979
_symmetry_Int_Tables_number   1
_chemical_formula_structural   Hf3VAs3Ru2
_chemical_formula_sum   'Hf6 V2 As6 Ru4'
_cell_volume   293.65412576
_cell_formula_units_Z   2
loop_
 _symmetry_equiv_pos_site_id
 _symmetry_equiv_pos_as_xyz
  1  'x, y, z'
loop_
 _atom_site_type_symbol
 _atom_site_label
 _atom_site_symmetry_multiplicity
 _atom_site_fract_x
 _atom_site_fract_y
 _atom_site_fract_z
 _atom_site_occupancy
  Hf  Hf0  1  0.466934  0.693635  0.726701  1
  Hf  Hf1  1  0.533066  0.259767  0.226701  1
  Hf  Hf2  1  0.748606  0.837607  0.589001  1
  Hf  Hf3  1  0.251394  0.840396  0.089001  1
  Hf  Hf4  1  0.053701  0.259682  0.705981  1
  Hf  Hf5  1  0.946299  0.652280  0.205981  1
  V  V6  1  0.500000  0.498352  0.998352  1
  V  V7  1  0.000000  0.498352  0.498352  1
  As  As8  1  0.276836  0.273748  0.496913  1
  As  As9  1  0.723164  0.220078  0.996913  1
  As  As10  1  0.330716  0.586509  0.246797  1
  As  As11  1  0.669284  0.916081  0.255793  1
  As  As12  1  0.160288  0.916081  0.746797  1
  As  As13  1  0.839712  0.586509  0.755793  1
  Ru  Ru14  1  0.092551  0.254541  0.098272  1
  Ru  Ru15  1  0.907449  0.005720  0.161990  1
  Ru  Ru16  1  0.343730  0.005720  0.598272  1
  Ru  Ru17  1  0.656270  0.254541  0.661990  1
