# generated using pymatgen
data_Pr3Mg2AgAu3
_symmetry_space_group_name_H-M   'P 1'
_cell_length_a   7.87267601
_cell_length_b   7.87267566
_cell_length_c   4.09828100
_cell_angle_alpha   90.00000000
_cell_angle_beta   90.00000000
_cell_angle_gamma   119.36666147
_symmetry_Int_Tables_number   1
_chemical_formula_structural   Pr3Mg2AgAu3
_chemical_formula_sum   'Pr3 Mg2 Ag1 Au3'
_cell_volume   221.36732444
_cell_formula_units_Z   1
loop_
 _symmetry_equiv_pos_site_id
 _symmetry_equiv_pos_as_xyz
  1  'x, y, z'
loop_
 _atom_site_type_symbol
 _atom_site_label
 _atom_site_symmetry_multiplicity
 _atom_site_fract_x
 _atom_site_fract_y
 _atom_site_fract_z
 _atom_site_occupancy
  Pr  Pr0  1  0.595093  0.986664  0.000000  1
  Pr  Pr1  1  0.986664  0.595093  0.000000  1
  Pr  Pr2  1  0.425623  0.425623  0.000000  1
  Mg  Mg3  1  0.245492  0.002811  0.500000  1
  Mg  Mg4  1  0.002811  0.245492  0.500000  1
  Ag  Ag5  1  0.747568  0.747568  0.500000  1
  Au  Au6  1  0.316338  0.662702  0.500000  1
  Au  Au7  1  0.662702  0.316338  0.500000  1
  Au  Au8  1  0.017710  0.017710  0.000000  1
