# generated using pymatgen
data_NdTcI18
_symmetry_space_group_name_H-M   'P 1'
_cell_length_a   10.38061251
_cell_length_b   10.38061411
_cell_length_c   10.38061479
_cell_angle_alpha   93.60136682
_cell_angle_beta   93.60136527
_cell_angle_gamma   93.60137505
_symmetry_Int_Tables_number   1
_chemical_formula_structural   NdTcI18
_chemical_formula_sum   'Nd1 Tc1 I18'
_cell_volume   1111.66634374
_cell_formula_units_Z   1
loop_
 _symmetry_equiv_pos_site_id
 _symmetry_equiv_pos_as_xyz
  1  'x, y, z'
loop_
 _atom_site_type_symbol
 _atom_site_label
 _atom_site_symmetry_multiplicity
 _atom_site_fract_x
 _atom_site_fract_y
 _atom_site_fract_z
 _atom_site_occupancy
  Nd  Nd0  1  0.000000  0.000000  0.000000  1
  Tc  Tc1  1  0.500000  0.500000  0.500000  1
  I  I2  1  0.732789  0.139408  0.597211  1
  I  I3  1  0.972160  0.026474  0.700823  1
  I  I4  1  0.597211  0.732789  0.139408  1
  I  I5  1  0.973526  0.299177  0.027840  1
  I  I6  1  0.700823  0.972160  0.026474  1
  I  I7  1  0.026474  0.700823  0.972160  1
  I  I8  1  0.027840  0.973526  0.299177  1
  I  I9  1  0.860592  0.402789  0.267211  1
  I  I10  1  0.299177  0.027840  0.973526  1
  I  I11  1  0.267211  0.860592  0.402789  1
  I  I12  1  0.139408  0.597211  0.732789  1
  I  I13  1  0.402789  0.267211  0.860592  1
  I  I14  1  0.762201  0.535866  0.493450  1
  I  I15  1  0.535866  0.493450  0.762201  1
  I  I16  1  0.237799  0.464134  0.506550  1
  I  I17  1  0.464134  0.506550  0.237799  1
  I  I18  1  0.493450  0.762201  0.535866  1
  I  I19  1  0.506550  0.237799  0.464134  1
