# generated using pymatgen
data_KTc6(PO11)2
_symmetry_space_group_name_H-M   'P 1'
_cell_length_a   5.36770700
_cell_length_b   6.68357355
_cell_length_c   11.86673846
_cell_angle_alpha   86.84355098
_cell_angle_beta   90.00000000
_cell_angle_gamma   90.00000000
_symmetry_Int_Tables_number   1
_chemical_formula_structural   KTc6(PO11)2
_chemical_formula_sum   'K1 Tc6 P2 O22'
_cell_volume   425.07889045
_cell_formula_units_Z   1
loop_
 _symmetry_equiv_pos_site_id
 _symmetry_equiv_pos_as_xyz
  1  'x, y, z'
loop_
 _atom_site_type_symbol
 _atom_site_label
 _atom_site_symmetry_multiplicity
 _atom_site_fract_x
 _atom_site_fract_y
 _atom_site_fract_z
 _atom_site_occupancy
  K  K0  1  0.000000  0.144761  0.501995  1
  Tc  Tc1  1  0.000000  0.648667  0.310892  1
  Tc  Tc2  1  0.500000  0.355288  0.688822  1
  Tc  Tc3  1  0.000000  0.008978  0.810312  1
  Tc  Tc4  1  0.500000  0.991076  0.191244  1
  Tc  Tc5  1  0.000000  0.326351  0.060115  1
  Tc  Tc6  1  0.500000  0.674514  0.940760  1
  P  P7  1  0.000000  0.667414  0.595687  1
  P  P8  1  0.500000  0.332373  0.402981  1
  O  O9  1  0.235575  0.542262  0.617122  1
  O  O10  1  0.740071  0.451126  0.381632  1
  O  O11  1  0.259929  0.451126  0.381632  1
  O  O12  1  0.764425  0.542262  0.617122  1
  O  O13  1  0.000000  0.753870  0.470321  1
  O  O14  1  0.500000  0.244836  0.528594  1
  O  O15  1  0.752477  0.818229  0.264250  1
  O  O16  1  0.252183  0.182692  0.735487  1
  O  O17  1  0.747817  0.182692  0.735487  1
  O  O18  1  0.247523  0.818229  0.264250  1
  O  O19  1  0.000000  0.855470  0.665296  1
  O  O20  1  0.500000  0.141517  0.335644  1
  O  O21  1  0.000000  0.169602  0.933333  1
  O  O22  1  0.500000  0.830915  0.067373  1
  O  O23  1  0.749851  0.158998  0.130617  1
  O  O24  1  0.249557  0.842143  0.870520  1
  O  O25  1  0.750443  0.842143  0.870520  1
  O  O26  1  0.250149  0.158998  0.130617  1
  O  O27  1  0.000000  0.498908  0.189754  1
  O  O28  1  0.500000  0.504282  0.809899  1
  O  O29  1  0.249963  0.500089  0.000112  1
  O  O30  1  0.750037  0.500089  0.000112  1
