# generated using pymatgen
data_Y3ErZn4Ir3Pd
_symmetry_space_group_name_H-M   'P 1'
_cell_length_a   4.09844700
_cell_length_b   7.00150269
_cell_length_c   8.11338180
_cell_angle_alpha   90.07518562
_cell_angle_beta   90.00000000
_cell_angle_gamma   90.00000000
_symmetry_Int_Tables_number   1
_chemical_formula_structural   Y3ErZn4Ir3Pd
_chemical_formula_sum   'Y3 Er1 Zn4 Ir3 Pd1'
_cell_volume   232.81562430
_cell_formula_units_Z   1
loop_
 _symmetry_equiv_pos_site_id
 _symmetry_equiv_pos_as_xyz
  1  'x, y, z'
loop_
 _atom_site_type_symbol
 _atom_site_label
 _atom_site_symmetry_multiplicity
 _atom_site_fract_x
 _atom_site_fract_y
 _atom_site_fract_z
 _atom_site_occupancy
  Y  Y0  1  0.250000  0.029039  0.323114  1
  Y  Y1  1  0.250000  0.544836  0.184891  1
  Y  Y2  1  0.750000  0.470365  0.809403  1
  Er  Er3  1  0.750000  0.964505  0.683429  1
  Zn  Zn4  1  0.250000  0.640649  0.565973  1
  Zn  Zn5  1  0.250000  0.137540  0.931914  1
  Zn  Zn6  1  0.750000  0.359647  0.436116  1
  Zn  Zn7  1  0.750000  0.857924  0.066083  1
  Ir  Ir8  1  0.250000  0.255615  0.621005  1
  Ir  Ir9  1  0.250000  0.759779  0.880490  1
  Ir  Ir10  1  0.750000  0.740668  0.379439  1
  Pd  Pd11  1  0.750000  0.239432  0.118143  1
