# generated using pymatgen
data_Sm9Dy3(ZnAu5)4
_symmetry_space_group_name_H-M   'P 1'
_cell_length_a   8.53032787
_cell_length_b   8.53032905
_cell_length_c   13.51921428
_cell_angle_alpha   90.02089834
_cell_angle_beta   89.97910062
_cell_angle_gamma   127.00045340
_symmetry_Int_Tables_number   1
_chemical_formula_structural   Sm9Dy3(ZnAu5)4
_chemical_formula_sum   'Sm9 Dy3 Zn4 Au20'
_cell_volume   785.64970239
_cell_formula_units_Z   1
loop_
 _symmetry_equiv_pos_site_id
 _symmetry_equiv_pos_as_xyz
  1  'x, y, z'
loop_
 _atom_site_type_symbol
 _atom_site_label
 _atom_site_symmetry_multiplicity
 _atom_site_fract_x
 _atom_site_fract_y
 _atom_site_fract_z
 _atom_site_occupancy
  Sm  Sm0  1  0.928148  0.071852  0.250749  1
  Sm  Sm1  1  0.071113  0.928887  0.749387  1
  Sm  Sm2  1  0.320298  0.679702  0.250462  1
  Sm  Sm3  1  0.679566  0.320434  0.749224  1
  Sm  Sm4  1  0.369892  0.630108  0.962011  1
  Sm  Sm5  1  0.882267  0.117733  0.951130  1
  Sm  Sm6  1  0.117752  0.882248  0.048972  1
  Sm  Sm7  1  0.882258  0.117742  0.548826  1
  Sm  Sm8  1  0.117880  0.882120  0.451150  1
  Dy  Dy9  1  0.629931  0.370069  0.462626  1
  Dy  Dy10  1  0.369920  0.630080  0.537183  1
  Dy  Dy11  1  0.630050  0.369950  0.037193  1
  Zn  Zn12  1  0.720001  0.279999  0.250737  1
  Zn  Zn13  1  0.279018  0.720982  0.749163  1
  Zn  Zn14  1  0.533092  0.466908  0.250323  1
  Zn  Zn15  1  0.467522  0.532478  0.749386  1
  Au  Au16  1  0.320793  0.067177  0.250465  1
  Au  Au17  1  0.067795  0.321281  0.750075  1
  Au  Au18  1  0.678719  0.932205  0.750075  1
  Au  Au19  1  0.932823  0.679207  0.250465  1
  Au  Au20  1  0.568557  0.004244  0.397226  1
  Au  Au21  1  0.003988  0.568200  0.602668  1
  Au  Au22  1  0.569689  0.005844  0.103715  1
  Au  Au23  1  0.001038  0.567342  0.896241  1
  Au  Au24  1  0.431800  0.996012  0.602668  1
  Au  Au25  1  0.995756  0.431443  0.397226  1
  Au  Au26  1  0.432658  0.998962  0.896241  1
  Au  Au27  1  0.994156  0.430311  0.103715  1
  Au  Au28  1  0.683348  0.738946  0.395091  1
  Au  Au29  1  0.739140  0.683553  0.604692  1
  Au  Au30  1  0.686607  0.740237  0.106106  1
  Au  Au31  1  0.741453  0.684292  0.894461  1
  Au  Au32  1  0.316447  0.260860  0.604692  1
  Au  Au33  1  0.261054  0.316652  0.395091  1
  Au  Au34  1  0.315708  0.258547  0.894461  1
  Au  Au35  1  0.259763  0.313393  0.106106  1
