# generated using pymatgen
data_Sm3Mg3SnHg2
_symmetry_space_group_name_H-M   'P 1'
_cell_length_a   7.69830700
_cell_length_b   7.69830688
_cell_length_c   4.54218500
_cell_angle_alpha   90.00000000
_cell_angle_beta   90.00000000
_cell_angle_gamma   120.00000482
_symmetry_Int_Tables_number   1
_chemical_formula_structural   Sm3Mg3SnHg2
_chemical_formula_sum   'Sm3 Mg3 Sn1 Hg2'
_cell_volume   233.12340358
_cell_formula_units_Z   1
loop_
 _symmetry_equiv_pos_site_id
 _symmetry_equiv_pos_as_xyz
  1  'x, y, z'
loop_
 _atom_site_type_symbol
 _atom_site_label
 _atom_site_symmetry_multiplicity
 _atom_site_fract_x
 _atom_site_fract_y
 _atom_site_fract_z
 _atom_site_occupancy
  Sm  Sm0  1  0.415062  0.994889  0.000000  1
  Sm  Sm1  1  0.005111  0.420173  0.000000  1
  Sm  Sm2  1  0.579828  0.584938  0.000000  1
  Mg  Mg3  1  0.752396  0.994605  0.499999  1
  Mg  Mg4  1  0.242209  0.247603  0.499999  1
  Mg  Mg5  1  0.005395  0.757791  0.499999  1
  Sn  Sn6  1  0.666666  0.333333  0.499999  1
  Hg  Hg7  1  0.000000  0.000000  0.000000  1
  Hg  Hg8  1  0.333334  0.666667  0.499999  1
