# generated using pymatgen
data_DyHoFe3Re14C3
_symmetry_space_group_name_H-M   'P 1'
_cell_length_a   6.92535065
_cell_length_b   6.92535113
_cell_length_c   6.92535107
_cell_angle_alpha   82.46259441
_cell_angle_beta   82.46258917
_cell_angle_gamma   82.46259419
_symmetry_Int_Tables_number   1
_chemical_formula_structural   DyHoFe3Re14C3
_chemical_formula_sum   'Dy1 Ho1 Fe3 Re14 C3'
_cell_volume   324.22597189
_cell_formula_units_Z   1
loop_
 _symmetry_equiv_pos_site_id
 _symmetry_equiv_pos_as_xyz
  1  'x, y, z'
loop_
 _atom_site_type_symbol
 _atom_site_label
 _atom_site_symmetry_multiplicity
 _atom_site_fract_x
 _atom_site_fract_y
 _atom_site_fract_z
 _atom_site_occupancy
  Dy  Dy0  1  0.648705  0.648705  0.648705  1
  Ho  Ho1  1  0.351290  0.351290  0.351290  1
  Fe  Fe2  1  0.000005  0.000005  0.499997  1
  Fe  Fe3  1  0.499997  0.000005  0.000005  1
  Fe  Fe4  1  0.000005  0.499997  0.000005  1
  Re  Re5  1  0.722081  0.277910  0.000014  1
  Re  Re6  1  0.000014  0.722081  0.277910  1
  Re  Re7  1  0.277910  0.000014  0.722081  1
  Re  Re8  1  0.000014  0.277910  0.722081  1
  Re  Re9  1  0.722081  0.000014  0.277910  1
  Re  Re10  1  0.277910  0.722081  0.000014  1
  Re  Re11  1  0.346689  0.860586  0.346689  1
  Re  Re12  1  0.346689  0.346689  0.860586  1
  Re  Re13  1  0.860586  0.346689  0.346689  1
  Re  Re14  1  0.653286  0.139427  0.653286  1
  Re  Re15  1  0.653286  0.653286  0.139427  1
  Re  Re16  1  0.139427  0.653286  0.653286  1
  Re  Re17  1  0.897613  0.897613  0.897613  1
  Re  Re18  1  0.102403  0.102403  0.102403  1
  C  C19  1  0.499974  0.499974  0.000063  1
  C  C20  1  0.000063  0.499974  0.499974  1
  C  C21  1  0.499974  0.000063  0.499974  1
