# generated using pymatgen
data_YbNpTc2F14
_symmetry_space_group_name_H-M   'P 1'
_cell_length_a   5.60511883
_cell_length_b   8.89751472
_cell_length_c   12.02870000
_cell_angle_alpha   63.11239378
_cell_angle_beta   89.90423983
_cell_angle_gamma   89.80441763
_symmetry_Int_Tables_number   1
_chemical_formula_structural   YbNpTc2F14
_chemical_formula_sum   'Yb2 Np2 Tc4 F28'
_cell_volume   535.03674607
_cell_formula_units_Z   2
loop_
 _symmetry_equiv_pos_site_id
 _symmetry_equiv_pos_as_xyz
  1  'x, y, z'
loop_
 _atom_site_type_symbol
 _atom_site_label
 _atom_site_symmetry_multiplicity
 _atom_site_fract_x
 _atom_site_fract_y
 _atom_site_fract_z
 _atom_site_occupancy
  Yb  Yb0  1  0.258028  0.808393  0.263277  1
  Yb  Yb1  1  0.741972  0.191607  0.736723  1
  Np  Np2  1  0.761987  0.183325  0.235719  1
  Np  Np3  1  0.238013  0.816675  0.764281  1
  Tc  Tc4  1  0.753873  0.729843  0.045517  1
  Tc  Tc5  1  0.246127  0.270157  0.954483  1
  Tc  Tc6  1  0.256562  0.277358  0.460118  1
  Tc  Tc7  1  0.743438  0.722642  0.539882  1
  F  F8  1  0.947369  0.709770  0.415678  1
  F  F9  1  0.052631  0.290230  0.584322  1
  F  F10  1  0.451092  0.291725  0.082451  1
  F  F11  1  0.548908  0.708275  0.917549  1
  F  F12  1  0.473223  0.728834  0.138520  1
  F  F13  1  0.526777  0.271166  0.861480  1
  F  F14  1  0.971875  0.271045  0.361654  1
  F  F15  1  0.028125  0.728955  0.638346  1
  F  F16  1  0.951666  0.746825  0.170929  1
  F  F17  1  0.048334  0.253175  0.829071  1
  F  F18  1  0.455557  0.257282  0.328592  1
  F  F19  1  0.544443  0.742718  0.671408  1
  F  F20  1  0.769330  0.479023  0.142641  1
  F  F21  1  0.230670  0.520977  0.857359  1
  F  F22  1  0.267851  0.517903  0.360917  1
  F  F23  1  0.732149  0.482097  0.639083  1
  F  F24  1  0.948087  0.279890  0.044727  1
  F  F25  1  0.051913  0.720110  0.955273  1
  F  F26  1  0.457840  0.723453  0.449891  1
  F  F27  1  0.542160  0.276547  0.550109  1
  F  F28  1  0.740847  0.974718  0.444099  1
  F  F29  1  0.259153  0.025282  0.555901  1
  F  F30  1  0.245706  0.028942  0.052549  1
  F  F31  1  0.754294  0.971058  0.947451  1
  F  F32  1  0.596969  0.975310  0.226277  1
  F  F33  1  0.403031  0.024690  0.773723  1
  F  F34  1  0.086174  0.039081  0.266566  1
  F  F35  1  0.913826  0.960919  0.733434  1
