# generated using pymatgen
data_Gd4Er8Co4SnRu
_symmetry_space_group_name_H-M   'P 1'
_cell_length_a   8.26958208
_cell_length_b   8.26958360
_cell_length_c   8.26958209
_cell_angle_alpha   111.33397996
_cell_angle_beta   110.91328042
_cell_angle_gamma   106.21495451
_symmetry_Int_Tables_number   1
_chemical_formula_structural   Gd4Er8Co4SnRu
_chemical_formula_sum   'Gd4 Er8 Co4 Sn1 Ru1'
_cell_volume   434.28715672
_cell_formula_units_Z   1
loop_
 _symmetry_equiv_pos_site_id
 _symmetry_equiv_pos_as_xyz
  1  'x, y, z'
loop_
 _atom_site_type_symbol
 _atom_site_label
 _atom_site_symmetry_multiplicity
 _atom_site_fract_x
 _atom_site_fract_y
 _atom_site_fract_z
 _atom_site_occupancy
  Gd  Gd0  1  0.312418  0.618121  0.305702  1
  Gd  Gd1  1  0.687582  0.381879  0.694298  1
  Gd  Gd2  1  0.312418  0.006717  0.694298  1
  Gd  Gd3  1  0.687582  0.993283  0.305702  1
  Er  Er4  1  0.409915  0.216629  0.193285  1
  Er  Er5  1  0.590085  0.783371  0.806715  1
  Er  Er6  1  0.023345  0.216629  0.806715  1
  Er  Er7  1  0.976655  0.783371  0.193285  1
  Er  Er8  1  0.183458  0.284035  0.467493  1
  Er  Er9  1  0.816542  0.715965  0.532507  1
  Er  Er10  1  0.183458  0.715965  0.899424  1
  Er  Er11  1  0.816542  0.284035  0.100576  1
  Co  Co12  1  0.373480  0.000000  0.373480  1
  Co  Co13  1  0.626520  0.000000  0.626520  1
  Co  Co14  1  0.111628  0.611628  0.500000  1
  Co  Co15  1  0.888372  0.388372  0.500000  1
  Sn  Sn16  1  0.500000  0.500000  0.000000  1
  Ru  Ru17  1  0.000000  0.000000  0.000000  1
