# generated using pymatgen
data_Zr8Ta12BeSi15
_symmetry_space_group_name_H-M   'P 1'
_cell_length_a   6.86913891
_cell_length_b   6.86528930
_cell_length_c   12.71127569
_cell_angle_alpha   90.02703382
_cell_angle_beta   90.08310746
_cell_angle_gamma   89.93498692
_symmetry_Int_Tables_number   1
_chemical_formula_structural   Zr8Ta12BeSi15
_chemical_formula_sum   'Zr8 Ta12 Be1 Si15'
_cell_volume   599.44521166
_cell_formula_units_Z   1
loop_
 _symmetry_equiv_pos_site_id
 _symmetry_equiv_pos_as_xyz
  1  'x, y, z'
loop_
 _atom_site_type_symbol
 _atom_site_label
 _atom_site_symmetry_multiplicity
 _atom_site_fract_x
 _atom_site_fract_y
 _atom_site_fract_z
 _atom_site_occupancy
  Zr  Zr0  1  0.999547  0.660565  0.030726  1
  Zr  Zr1  1  0.998057  0.344291  0.530129  1
  Zr  Zr2  1  0.659987  0.999629  0.969614  1
  Zr  Zr3  1  0.160262  0.497970  0.780926  1
  Zr  Zr4  1  0.844064  0.504853  0.283387  1
  Zr  Zr5  1  0.498529  0.158745  0.219653  1
  Zr  Zr6  1  0.499232  0.839164  0.718252  1
  Zr  Zr7  1  0.340569  0.996759  0.468618  1
  Ta  Ta8  1  0.346326  0.505339  0.376351  1
  Ta  Ta9  1  0.851212  0.989544  0.375753  1
  Ta  Ta10  1  0.004704  0.152918  0.126431  1
  Ta  Ta11  1  0.992934  0.846579  0.624583  1
  Ta  Ta12  1  0.653273  0.495421  0.876535  1
  Ta  Ta13  1  0.502735  0.349897  0.623224  1
  Ta  Ta14  1  0.495146  0.652820  0.123685  1
  Ta  Ta15  1  0.153554  0.004400  0.873421  1
  Ta  Ta16  1  0.671612  0.670259  0.500202  1
  Ta  Ta17  1  0.830704  0.168999  0.749298  1
  Ta  Ta18  1  0.169194  0.829792  0.252158  1
  Ta  Ta19  1  0.330625  0.330140  0.000561  1
  Be  Be20  1  0.048065  0.701281  0.438333  1
  Si  Si21  1  0.956145  0.298541  0.936369  1
  Si  Si22  1  0.700676  0.045072  0.562756  1
  Si  Si23  1  0.200476  0.456148  0.187735  1
  Si  Si24  1  0.799291  0.544096  0.686038  1
  Si  Si25  1  0.456060  0.201164  0.812888  1
  Si  Si26  1  0.544488  0.797919  0.314128  1
  Si  Si27  1  0.298102  0.955540  0.064324  1
  Si  Si28  1  0.865053  0.792063  0.821882  1
  Si  Si29  1  0.134369  0.208075  0.324080  1
  Si  Si30  1  0.792908  0.864306  0.178436  1
  Si  Si31  1  0.284980  0.636897  0.566567  1
  Si  Si32  1  0.708231  0.365103  0.073625  1
  Si  Si33  1  0.636697  0.292482  0.426515  1
  Si  Si34  1  0.365268  0.708011  0.926892  1
  Si  Si35  1  0.206922  0.135217  0.675921  1
