# generated using pymatgen
data_Sc4CoBiTe
_symmetry_space_group_name_H-M   'P 1'
_cell_length_a   8.27132931
_cell_length_b   8.27132868
_cell_length_c   8.27132814
_cell_angle_alpha   96.47172677
_cell_angle_beta   96.33511937
_cell_angle_gamma   140.98155354
_symmetry_Int_Tables_number   1
_chemical_formula_structural   Sc4CoBiTe
_chemical_formula_sum   'Sc8 Co2 Bi2 Te2'
_cell_volume   335.80852350
_cell_formula_units_Z   2
loop_
 _symmetry_equiv_pos_site_id
 _symmetry_equiv_pos_as_xyz
  1  'x, y, z'
loop_
 _atom_site_type_symbol
 _atom_site_label
 _atom_site_symmetry_multiplicity
 _atom_site_fract_x
 _atom_site_fract_y
 _atom_site_fract_z
 _atom_site_occupancy
  Sc  Sc0  1  0.688607  0.577177  0.265784  1
  Sc  Sc1  1  0.578634  0.309450  0.888084  1
  Sc  Sc2  1  0.078673  0.189737  0.268410  1
  Sc  Sc3  1  0.921366  0.809450  0.730816  1
  Sc  Sc4  1  0.190564  0.920131  0.110695  1
  Sc  Sc5  1  0.811393  0.077177  0.888570  1
  Sc  Sc6  1  0.309436  0.420131  0.729568  1
  Sc  Sc7  1  0.421327  0.689737  0.111064  1
  Co  Co8  1  0.250000  0.246836  0.996836  1
  Co  Co9  1  0.750000  0.746836  0.996836  1
  Bi  Bi10  1  0.641291  0.858349  0.499640  1
  Bi  Bi11  1  0.858709  0.358349  0.217056  1
  Te  Te12  1  0.148436  0.648321  0.796759  1
  Te  Te13  1  0.351564  0.148321  0.499884  1
