# generated using pymatgen
data_Nd7U(Si3Pt)4
_symmetry_space_group_name_H-M   'P 1'
_cell_length_a   8.21970300
_cell_length_b   8.21970309
_cell_length_c   8.50216100
_cell_angle_alpha   90.00000000
_cell_angle_beta   90.00000000
_cell_angle_gamma   119.99999562
_symmetry_Int_Tables_number   1
_chemical_formula_structural   Nd7U(Si3Pt)4
_chemical_formula_sum   'Nd7 U1 Si12 Pt4'
_cell_volume   497.47611190
_cell_formula_units_Z   1
loop_
 _symmetry_equiv_pos_site_id
 _symmetry_equiv_pos_as_xyz
  1  'x, y, z'
loop_
 _atom_site_type_symbol
 _atom_site_label
 _atom_site_symmetry_multiplicity
 _atom_site_fract_x
 _atom_site_fract_y
 _atom_site_fract_z
 _atom_site_occupancy
  Nd  Nd0  1  0.499875  0.500125  0.750000  1
  Nd  Nd1  1  0.500351  0.499649  0.250000  1
  Nd  Nd2  1  0.000251  0.500125  0.750000  1
  Nd  Nd3  1  0.999297  0.499649  0.250000  1
  Nd  Nd4  1  0.499875  0.999749  0.750000  1
  Nd  Nd5  1  0.500351  0.000703  0.250000  1
  Nd  Nd6  1  0.000000  0.000000  0.250000  1
  U  U7  1  0.000000  0.000000  0.750000  1
  Si  Si8  1  0.835492  0.164508  0.992638  1
  Si  Si9  1  0.164528  0.835472  0.993489  1
  Si  Si10  1  0.329017  0.164508  0.992638  1
  Si  Si11  1  0.164528  0.835472  0.506511  1
  Si  Si12  1  0.670944  0.835472  0.993489  1
  Si  Si13  1  0.835492  0.164508  0.507362  1
  Si  Si14  1  0.835492  0.670983  0.992638  1
  Si  Si15  1  0.670944  0.835472  0.506511  1
  Si  Si16  1  0.164528  0.329056  0.993489  1
  Si  Si17  1  0.329017  0.164508  0.507362  1
  Si  Si18  1  0.164528  0.329056  0.506511  1
  Si  Si19  1  0.835492  0.670983  0.507362  1
  Pt  Pt20  1  0.666667  0.333333  0.001281  1
  Pt  Pt21  1  0.333333  0.666667  0.001581  1
  Pt  Pt22  1  0.333333  0.666667  0.498419  1
  Pt  Pt23  1  0.666667  0.333333  0.498719  1
