# generated using pymatgen
data_Tm3MnFe2(CoP)6
_symmetry_space_group_name_H-M   'P 1'
_cell_length_a   3.67944800
_cell_length_b   10.57390700
_cell_length_c   12.04213200
_cell_angle_alpha   90.00000000
_cell_angle_beta   90.00000000
_cell_angle_gamma   90.00000000
_symmetry_Int_Tables_number   1
_chemical_formula_structural   Tm3MnFe2(CoP)6
_chemical_formula_sum   'Tm6 Mn2 Fe4 Co12 P12'
_cell_volume   468.51288509
_cell_formula_units_Z   2
loop_
 _symmetry_equiv_pos_site_id
 _symmetry_equiv_pos_as_xyz
  1  'x, y, z'
loop_
 _atom_site_type_symbol
 _atom_site_label
 _atom_site_symmetry_multiplicity
 _atom_site_fract_x
 _atom_site_fract_y
 _atom_site_fract_z
 _atom_site_occupancy
  Tm  Tm0  1  0.000000  0.500000  0.523964  1
  Tm  Tm1  1  0.500000  0.000000  0.474981  1
  Tm  Tm2  1  0.500000  0.820504  0.203982  1
  Tm  Tm3  1  0.500000  0.179496  0.203982  1
  Tm  Tm4  1  0.000000  0.679600  0.796990  1
  Tm  Tm5  1  0.000000  0.320400  0.796990  1
  Mn  Mn6  1  0.500000  0.500000  0.153090  1
  Mn  Mn7  1  0.000000  0.000000  0.842624  1
  Fe  Fe8  1  0.000000  0.500000  0.989677  1
  Fe  Fe9  1  0.500000  0.000000  0.011439  1
  Fe  Fe10  1  0.500000  0.331133  0.995958  1
  Fe  Fe11  1  0.500000  0.668867  0.995958  1
  Co  Co12  1  0.500000  0.500000  0.701440  1
  Co  Co13  1  0.000000  0.000000  0.299202  1
  Co  Co14  1  0.000000  0.165884  0.004903  1
  Co  Co15  1  0.000000  0.834116  0.004903  1
  Co  Co16  1  0.500000  0.296448  0.430913  1
  Co  Co17  1  0.500000  0.703552  0.430913  1
  Co  Co18  1  0.000000  0.203204  0.569922  1
  Co  Co19  1  0.000000  0.796796  0.569922  1
  Co  Co20  1  0.500000  0.879087  0.708187  1
  Co  Co21  1  0.500000  0.120913  0.708187  1
  Co  Co22  1  0.000000  0.621878  0.291200  1
  Co  Co23  1  0.000000  0.378122  0.291200  1
  P  P24  1  0.500000  0.500000  0.885226  1
  P  P25  1  0.000000  0.000000  0.116256  1
  P  P26  1  0.500000  0.500000  0.347088  1
  P  P27  1  0.000000  0.000000  0.652442  1
  P  P28  1  0.500000  0.311767  0.617582  1
  P  P29  1  0.500000  0.688233  0.617582  1
  P  P30  1  0.000000  0.189024  0.383105  1
  P  P31  1  0.000000  0.810976  0.383105  1
  P  P32  1  0.500000  0.845352  0.893172  1
  P  P33  1  0.500000  0.154648  0.893172  1
  P  P34  1  0.000000  0.656509  0.105372  1
  P  P35  1  0.000000  0.343491  0.105372  1
