# generated using pymatgen
data_MgSc2B2IrRh4
_symmetry_space_group_name_H-M   'P 1'
_cell_length_a   9.51292600
_cell_length_b   9.51292600
_cell_length_c   3.05091100
_cell_angle_alpha   90.00000000
_cell_angle_beta   90.00000000
_cell_angle_gamma   90.00000000
_symmetry_Int_Tables_number   1
_chemical_formula_structural   MgSc2B2IrRh4
_chemical_formula_sum   'Mg2 Sc4 B4 Ir2 Rh8'
_cell_volume   276.09451294
_cell_formula_units_Z   2
loop_
 _symmetry_equiv_pos_site_id
 _symmetry_equiv_pos_as_xyz
  1  'x, y, z'
loop_
 _atom_site_type_symbol
 _atom_site_label
 _atom_site_symmetry_multiplicity
 _atom_site_fract_x
 _atom_site_fract_y
 _atom_site_fract_z
 _atom_site_occupancy
  Mg  Mg0  1  0.500000  0.500000  0.000000  1
  Mg  Mg1  1  0.000000  0.000000  0.000000  1
  Sc  Sc2  1  0.677405  0.177405  0.000000  1
  Sc  Sc3  1  0.322595  0.822595  0.000000  1
  Sc  Sc4  1  0.177405  0.322595  0.000000  1
  Sc  Sc5  1  0.822595  0.677405  0.000000  1
  B  B6  1  0.125317  0.625317  0.000000  1
  B  B7  1  0.874683  0.374683  0.000000  1
  B  B8  1  0.625317  0.874683  0.000000  1
  B  B9  1  0.374683  0.125317  0.000000  1
  Ir  Ir10  1  0.500000  0.000000  0.500000  1
  Ir  Ir11  1  0.000000  0.500000  0.500000  1
  Rh  Rh12  1  0.571170  0.720674  0.500000  1
  Rh  Rh13  1  0.428830  0.279326  0.500000  1
  Rh  Rh14  1  0.071170  0.779326  0.500000  1
  Rh  Rh15  1  0.928830  0.220674  0.500000  1
  Rh  Rh16  1  0.279326  0.571170  0.500000  1
  Rh  Rh17  1  0.720674  0.428830  0.500000  1
  Rh  Rh18  1  0.220674  0.071170  0.500000  1
  Rh  Rh19  1  0.779326  0.928830  0.500000  1
