# generated using pymatgen
data_Pr3MgCd2AgAu2
_symmetry_space_group_name_H-M   'P 1'
_cell_length_a   8.00863500
_cell_length_b   8.07779839
_cell_length_c   4.03455700
_cell_angle_alpha   90.00000000
_cell_angle_beta   90.00000000
_cell_angle_gamma   119.71716390
_symmetry_Int_Tables_number   1
_chemical_formula_structural   Pr3MgCd2AgAu2
_chemical_formula_sum   'Pr3 Mg1 Cd2 Ag1 Au2'
_cell_volume   226.67765638
_cell_formula_units_Z   1
loop_
 _symmetry_equiv_pos_site_id
 _symmetry_equiv_pos_as_xyz
  1  'x, y, z'
loop_
 _atom_site_type_symbol
 _atom_site_label
 _atom_site_symmetry_multiplicity
 _atom_site_fract_x
 _atom_site_fract_y
 _atom_site_fract_z
 _atom_site_occupancy
  Pr  Pr0  1  0.595973  0.000000  0.000000  1
  Pr  Pr1  1  0.992972  0.579987  0.000000  1
  Pr  Pr2  1  0.412985  0.420013  0.000000  1
  Mg  Mg3  1  0.252307  0.000000  0.500000  1
  Cd  Cd4  1  0.003217  0.256182  0.500000  1
  Cd  Cd5  1  0.747035  0.743818  0.500000  1
  Ag  Ag6  1  0.008863  0.000000  0.000000  1
  Au  Au7  1  0.331702  0.676756  0.500000  1
  Au  Au8  1  0.654947  0.323244  0.500000  1
