# generated using pymatgen
data_Y3ThMgIr
_symmetry_space_group_name_H-M   'P 1'
_cell_length_a   9.84908628
_cell_length_b   9.84908671
_cell_length_c   9.84908700
_cell_angle_alpha   60.00000240
_cell_angle_beta   60.00000093
_cell_angle_gamma   60.00000403
_symmetry_Int_Tables_number   1
_chemical_formula_structural   Y3ThMgIr
_chemical_formula_sum   'Y12 Th4 Mg4 Ir4'
_cell_volume   675.57396266
_cell_formula_units_Z   4
loop_
 _symmetry_equiv_pos_site_id
 _symmetry_equiv_pos_as_xyz
  1  'x, y, z'
loop_
 _atom_site_type_symbol
 _atom_site_label
 _atom_site_symmetry_multiplicity
 _atom_site_fract_x
 _atom_site_fract_y
 _atom_site_fract_z
 _atom_site_occupancy
  Y  Y0  1  0.062454  0.437546  0.437546  1
  Y  Y1  1  0.437546  0.062454  0.062454  1
  Y  Y2  1  0.437546  0.062454  0.437546  1
  Y  Y3  1  0.062454  0.437546  0.062454  1
  Y  Y4  1  0.437546  0.437546  0.062454  1
  Y  Y5  1  0.062454  0.062454  0.437546  1
  Y  Y6  1  0.185446  0.814554  0.814554  1
  Y  Y7  1  0.814554  0.185446  0.185446  1
  Y  Y8  1  0.814554  0.185446  0.814554  1
  Y  Y9  1  0.185446  0.814554  0.185446  1
  Y  Y10  1  0.814554  0.814554  0.185446  1
  Y  Y11  1  0.185446  0.185446  0.814554  1
  Th  Th12  1  0.597720  0.597720  0.597720  1
  Th  Th13  1  0.597720  0.597720  0.206839  1
  Th  Th14  1  0.597720  0.206839  0.597720  1
  Th  Th15  1  0.206839  0.597720  0.597720  1
  Mg  Mg16  1  0.830193  0.830193  0.830193  1
  Mg  Mg17  1  0.830193  0.830193  0.509421  1
  Mg  Mg18  1  0.830193  0.509421  0.830193  1
  Mg  Mg19  1  0.509421  0.830193  0.830193  1
  Ir  Ir20  1  0.393812  0.393812  0.393812  1
  Ir  Ir21  1  0.393812  0.393812  0.818563  1
  Ir  Ir22  1  0.393812  0.818563  0.393812  1
  Ir  Ir23  1  0.818563  0.393812  0.393812  1
