# generated using pymatgen
data_Ta4Mn2PdSe12
_symmetry_space_group_name_H-M   'P 1'
_cell_length_a   7.53999876
_cell_length_b   7.53999834
_cell_length_c   19.59139114
_cell_angle_alpha   69.02653265
_cell_angle_beta   69.02653444
_cell_angle_gamma   26.32949063
_symmetry_Int_Tables_number   1
_chemical_formula_structural   Ta4Mn2PdSe12
_chemical_formula_sum   'Ta4 Mn2 Pd1 Se12'
_cell_volume   459.41954828
_cell_formula_units_Z   1
loop_
 _symmetry_equiv_pos_site_id
 _symmetry_equiv_pos_as_xyz
  1  'x, y, z'
loop_
 _atom_site_type_symbol
 _atom_site_label
 _atom_site_symmetry_multiplicity
 _atom_site_fract_x
 _atom_site_fract_y
 _atom_site_fract_z
 _atom_site_occupancy
  Ta  Ta0  1  0.624746  0.624746  0.848590  1
  Ta  Ta1  1  0.375254  0.375254  0.151410  1
  Ta  Ta2  1  0.746965  0.746965  0.579901  1
  Ta  Ta3  1  0.253035  0.253035  0.420099  1
  Mn  Mn4  1  0.237016  0.237016  0.715213  1
  Mn  Mn5  1  0.762984  0.762984  0.284787  1
  Pd  Pd6  1  0.000000  0.000000  0.000000  1
  Se  Se7  1  0.980262  0.980262  0.879672  1
  Se  Se8  1  0.019738  0.019738  0.120328  1
  Se  Se9  1  0.631987  0.631987  0.400576  1
  Se  Se10  1  0.368013  0.368013  0.599424  1
  Se  Se11  1  0.128279  0.128279  0.555004  1
  Se  Se12  1  0.871721  0.871721  0.444996  1
  Se  Se13  1  0.808330  0.808330  0.768240  1
  Se  Se14  1  0.191670  0.191670  0.231760  1
  Se  Se15  1  0.178298  0.178298  0.927469  1
  Se  Se16  1  0.821702  0.821702  0.072531  1
  Se  Se17  1  0.614665  0.614665  0.716235  1
  Se  Se18  1  0.385335  0.385335  0.283765  1
