# generated using pymatgen
data_Pr2Nd3MnRuO12
_symmetry_space_group_name_H-M   'P 1'
_cell_length_a   7.09067026
_cell_length_b   7.09037291
_cell_length_c   7.59633436
_cell_angle_alpha   74.43418177
_cell_angle_beta   74.43774033
_cell_angle_gamma   50.15640519
_symmetry_Int_Tables_number   1
_chemical_formula_structural   Pr2Nd3MnRuO12
_chemical_formula_sum   'Pr2 Nd3 Mn1 Ru1 O12'
_cell_volume   280.06649400
_cell_formula_units_Z   1
loop_
 _symmetry_equiv_pos_site_id
 _symmetry_equiv_pos_as_xyz
  1  'x, y, z'
loop_
 _atom_site_type_symbol
 _atom_site_label
 _atom_site_symmetry_multiplicity
 _atom_site_fract_x
 _atom_site_fract_y
 _atom_site_fract_z
 _atom_site_occupancy
  Pr  Pr0  1  0.305094  0.305217  0.836501  1
  Pr  Pr1  1  0.998579  0.001675  0.499520  1
  Nd  Nd2  1  0.310135  0.299556  0.356669  1
  Nd  Nd3  1  0.700370  0.689908  0.642227  1
  Nd  Nd4  1  0.694656  0.694679  0.163942  1
  Mn  Mn5  1  0.749174  0.250720  0.000744  1
  Ru  Ru6  1  0.238877  0.761091  0.000315  1
  O  O7  1  0.096948  0.595922  0.575236  1
  O  O8  1  0.996071  0.003089  0.171792  1
  O  O9  1  0.405450  0.901948  0.422686  1
  O  O10  1  0.502861  0.497558  0.172334  1
  O  O11  1  0.098119  0.582997  0.080300  1
  O  O12  1  0.906629  0.404332  0.421408  1
  O  O13  1  0.997369  0.004108  0.828210  1
  O  O14  1  0.596989  0.092272  0.576604  1
  O  O15  1  0.502805  0.497371  0.828335  1
  O  O16  1  0.585122  0.101813  0.078757  1
  O  O17  1  0.419350  0.898823  0.921450  1
  O  O18  1  0.895400  0.416922  0.922970  1
