# generated using pymatgen
data_La2(SbRh3)3
_symmetry_space_group_name_H-M   'P 1'
_cell_length_a   7.98185832
_cell_length_b   7.98185669
_cell_length_c   9.22897600
_cell_angle_alpha   90.00000000
_cell_angle_beta   90.00000000
_cell_angle_gamma   120.10326303
_symmetry_Int_Tables_number   1
_chemical_formula_structural   La2(SbRh3)3
_chemical_formula_sum   'La4 Sb6 Rh18'
_cell_volume   508.67365349
_cell_formula_units_Z   2
loop_
 _symmetry_equiv_pos_site_id
 _symmetry_equiv_pos_as_xyz
  1  'x, y, z'
loop_
 _atom_site_type_symbol
 _atom_site_label
 _atom_site_symmetry_multiplicity
 _atom_site_fract_x
 _atom_site_fract_y
 _atom_site_fract_z
 _atom_site_occupancy
  La  La0  1  0.330567  0.020121  0.750000  1
  La  La1  1  0.669433  0.979879  0.250000  1
  La  La2  1  0.020121  0.330567  0.750000  1
  La  La3  1  0.979879  0.669433  0.250000  1
  Sb  Sb4  1  0.000000  0.000000  0.500000  1
  Sb  Sb5  1  0.680420  0.319580  0.000000  1
  Sb  Sb6  1  0.319580  0.680420  0.500000  1
  Sb  Sb7  1  0.319580  0.680420  0.000000  1
  Sb  Sb8  1  0.000000  0.000000  0.000000  1
  Sb  Sb9  1  0.680420  0.319580  0.500000  1
  Rh  Rh10  1  0.335563  0.335563  0.966300  1
  Rh  Rh11  1  0.461200  0.654083  0.750000  1
  Rh  Rh12  1  0.538800  0.345917  0.250000  1
  Rh  Rh13  1  0.654083  0.461200  0.750000  1
  Rh  Rh14  1  0.007103  0.335920  0.088302  1
  Rh  Rh15  1  0.992897  0.664080  0.588302  1
  Rh  Rh16  1  0.335920  0.007103  0.411698  1
  Rh  Rh17  1  0.664080  0.992897  0.911698  1
  Rh  Rh18  1  0.992897  0.664080  0.911698  1
  Rh  Rh19  1  0.007103  0.335920  0.411698  1
  Rh  Rh20  1  0.664080  0.992897  0.588302  1
  Rh  Rh21  1  0.855428  0.855428  0.750000  1
  Rh  Rh22  1  0.335563  0.335563  0.533700  1
  Rh  Rh23  1  0.664437  0.664437  0.033700  1
  Rh  Rh24  1  0.335920  0.007103  0.088302  1
  Rh  Rh25  1  0.664437  0.664437  0.466300  1
  Rh  Rh26  1  0.144572  0.144572  0.250000  1
  Rh  Rh27  1  0.345917  0.538800  0.250000  1
