# generated using pymatgen
data_Tb9Dy(Bi2Sb)2
_symmetry_space_group_name_H-M   'P 1'
_cell_length_a   8.20743000
_cell_length_b   9.51129805
_cell_length_c   11.97618000
_cell_angle_alpha   89.99437964
_cell_angle_beta   90.00000000
_cell_angle_gamma   90.00000000
_symmetry_Int_Tables_number   1
_chemical_formula_structural   Tb9Dy(Bi2Sb)2
_chemical_formula_sum   'Tb18 Dy2 Bi8 Sb4'
_cell_volume   934.90028242
_cell_formula_units_Z   2
loop_
 _symmetry_equiv_pos_site_id
 _symmetry_equiv_pos_as_xyz
  1  'x, y, z'
loop_
 _atom_site_type_symbol
 _atom_site_label
 _atom_site_symmetry_multiplicity
 _atom_site_fract_x
 _atom_site_fract_y
 _atom_site_fract_z
 _atom_site_occupancy
  Tb  Tb0  1  0.353353  0.749986  0.213302  1
  Tb  Tb1  1  0.853353  0.750014  0.286698  1
  Tb  Tb2  1  0.646531  0.249989  0.786719  1
  Tb  Tb3  1  0.146531  0.250011  0.713281  1
  Tb  Tb4  1  0.689072  0.561437  0.057300  1
  Tb  Tb5  1  0.189072  0.938563  0.442700  1
  Tb  Tb6  1  0.310932  0.061389  0.942702  1
  Tb  Tb7  1  0.810932  0.438611  0.557298  1
  Tb  Tb8  1  0.311055  0.438586  0.942756  1
  Tb  Tb9  1  0.811055  0.061414  0.557244  1
  Tb  Tb10  1  0.474018  0.250049  0.487782  1
  Tb  Tb11  1  0.974018  0.249951  0.012218  1
  Tb  Tb12  1  0.525838  0.749958  0.512145  1
  Tb  Tb13  1  0.025838  0.750042  0.987855  1
  Tb  Tb14  1  0.318702  0.250019  0.218826  1
  Tb  Tb15  1  0.818702  0.249981  0.281174  1
  Tb  Tb16  1  0.681263  0.750075  0.781220  1
  Tb  Tb17  1  0.181263  0.749925  0.718780  1
  Dy  Dy18  1  0.688984  0.938309  0.057266  1
  Dy  Dy19  1  0.188984  0.561691  0.442734  1
  Bi  Bi20  1  0.567904  0.995578  0.325273  1
  Bi  Bi21  1  0.067904  0.504422  0.174727  1
  Bi  Bi22  1  0.432115  0.495601  0.674527  1
  Bi  Bi23  1  0.932115  0.004399  0.825473  1
  Bi  Bi24  1  0.432157  0.004396  0.674632  1
  Bi  Bi25  1  0.932157  0.495604  0.825368  1
  Bi  Bi26  1  0.567719  0.504422  0.325413  1
  Bi  Bi27  1  0.067719  0.995578  0.174587  1
  Sb  Sb28  1  0.406806  0.750229  0.958033  1
  Sb  Sb29  1  0.906806  0.749771  0.541967  1
  Sb  Sb30  1  0.593550  0.249389  0.042140  1
  Sb  Sb31  1  0.093550  0.250611  0.457860  1
