# generated using pymatgen
data_Yb3HoZr4(B6Os)4
_symmetry_space_group_name_H-M   'P 1'
_cell_length_a   3.56965100
_cell_length_b   9.01718484
_cell_length_c   11.40768991
_cell_angle_alpha   89.99659733
_cell_angle_beta   90.00000000
_cell_angle_gamma   90.00000000
_symmetry_Int_Tables_number   1
_chemical_formula_structural   Yb3HoZr4(B6Os)4
_chemical_formula_sum   'Yb3 Ho1 Zr4 B24 Os4'
_cell_volume   367.19303662
_cell_formula_units_Z   1
loop_
 _symmetry_equiv_pos_site_id
 _symmetry_equiv_pos_as_xyz
  1  'x, y, z'
loop_
 _atom_site_type_symbol
 _atom_site_label
 _atom_site_symmetry_multiplicity
 _atom_site_fract_x
 _atom_site_fract_y
 _atom_site_fract_z
 _atom_site_occupancy
  Yb  Yb0  1  0.000000  0.322663  0.413542  1
  Yb  Yb1  1  0.000000  0.677426  0.585996  1
  Yb  Yb2  1  0.000000  0.821669  0.087155  1
  Ho  Ho3  1  0.000000  0.178446  0.913483  1
  Zr  Zr4  1  0.000000  0.944182  0.374058  1
  Zr  Zr5  1  0.000000  0.054782  0.624874  1
  Zr  Zr6  1  0.000000  0.445642  0.126797  1
  Zr  Zr7  1  0.000000  0.556212  0.874275  1
  B  B8  1  0.500000  0.553597  0.433324  1
  B  B9  1  0.500000  0.446219  0.567098  1
  B  B10  1  0.500000  0.053207  0.067037  1
  B  B11  1  0.500000  0.946102  0.933277  1
  B  B12  1  0.500000  0.750349  0.417872  1
  B  B13  1  0.500000  0.249274  0.581572  1
  B  B14  1  0.500000  0.250891  0.082161  1
  B  B15  1  0.500000  0.749139  0.918140  1
  B  B16  1  0.500000  0.793499  0.263838  1
  B  B17  1  0.500000  0.206194  0.735783  1
  B  B18  1  0.500000  0.293676  0.236359  1
  B  B19  1  0.500000  0.706833  0.763671  1
  B  B20  1  0.500000  0.631016  0.183323  1
  B  B21  1  0.500000  0.369405  0.817080  1
  B  B22  1  0.500000  0.130973  0.316742  1
  B  B23  1  0.500000  0.868880  0.682418  1
  B  B24  1  0.500000  0.982221  0.212620  1
  B  B25  1  0.500000  0.017321  0.786957  1
  B  B26  1  0.500000  0.482488  0.287819  1
  B  B27  1  0.500000  0.517919  0.712472  1
  B  B28  1  0.500000  0.601626  0.027359  1
  B  B29  1  0.500000  0.397705  0.972702  1
  B  B30  1  0.500000  0.101838  0.472521  1
  B  B31  1  0.500000  0.898147  0.527049  1
  Os  Os32  1  0.000000  0.640633  0.318641  1
  Os  Os33  1  0.000000  0.358814  0.682332  1
  Os  Os34  1  0.000000  0.140652  0.180377  1
  Os  Os35  1  0.000000  0.860361  0.819275  1
