# generated using pymatgen
data_Ti(VGa2)2
_symmetry_space_group_name_H-M   'P 1'
_cell_length_a   5.20581644
_cell_length_b   5.20581679
_cell_length_c   5.20581728
_cell_angle_alpha   104.31313495
_cell_angle_beta   104.31313580
_cell_angle_gamma   120.36837793
_symmetry_Int_Tables_number   1
_chemical_formula_structural   Ti(VGa2)2
_chemical_formula_sum   'Ti1 V2 Ga4'
_cell_volume   105.61044692
_cell_formula_units_Z   1
loop_
 _symmetry_equiv_pos_site_id
 _symmetry_equiv_pos_as_xyz
  1  'x, y, z'
loop_
 _atom_site_type_symbol
 _atom_site_label
 _atom_site_symmetry_multiplicity
 _atom_site_fract_x
 _atom_site_fract_y
 _atom_site_fract_z
 _atom_site_occupancy
  Ti  Ti0  1  0.000000  0.000000  0.000000  1
  V  V1  1  0.250000  0.750000  0.500000  1
  V  V2  1  0.750000  0.250000  0.500000  1
  Ga  Ga3  1  0.297902  0.297902  0.595805  1
  Ga  Ga4  1  0.702098  0.702098  0.404195  1
  Ga  Ga5  1  0.702098  0.297902  0.000000  1
  Ga  Ga6  1  0.297902  0.702098  0.000000  1
