# generated using pymatgen
data_Ac3ReO8
_symmetry_space_group_name_H-M   'P 1'
_cell_length_a   6.39257300
_cell_length_b   7.88028319
_cell_length_c   7.87776007
_cell_angle_alpha   70.20422130
_cell_angle_beta   90.00000000
_cell_angle_gamma   90.00000000
_symmetry_Int_Tables_number   1
_chemical_formula_structural   Ac3ReO8
_chemical_formula_sum   'Ac6 Re2 O16'
_cell_volume   373.39317963
_cell_formula_units_Z   2
loop_
 _symmetry_equiv_pos_site_id
 _symmetry_equiv_pos_as_xyz
  1  'x, y, z'
loop_
 _atom_site_type_symbol
 _atom_site_label
 _atom_site_symmetry_multiplicity
 _atom_site_fract_x
 _atom_site_fract_y
 _atom_site_fract_z
 _atom_site_occupancy
  Ac  Ac0  1  0.750000  0.106685  0.661650  1
  Ac  Ac1  1  0.250000  0.893315  0.338350  1
  Ac  Ac2  1  0.250000  0.396526  0.394761  1
  Ac  Ac3  1  0.750000  0.603474  0.605239  1
  Ac  Ac4  1  0.250000  0.336390  0.892781  1
  Ac  Ac5  1  0.750000  0.663610  0.107219  1
  Re  Re6  1  0.250000  0.816899  0.818860  1
  Re  Re7  1  0.750000  0.183101  0.181140  1
  O  O8  1  0.999792  0.338228  0.660857  1
  O  O9  1  0.499792  0.661772  0.339143  1
  O  O10  1  0.000208  0.661772  0.339143  1
  O  O11  1  0.500208  0.338228  0.660857  1
  O  O12  1  0.953859  0.804745  0.805314  1
  O  O13  1  0.453859  0.195255  0.194686  1
  O  O14  1  0.046141  0.195255  0.194686  1
  O  O15  1  0.546141  0.804745  0.805314  1
  O  O16  1  0.750000  0.977220  0.398300  1
  O  O17  1  0.250000  0.022780  0.601700  1
  O  O18  1  0.750000  0.335053  0.332973  1
  O  O19  1  0.250000  0.664947  0.667027  1
  O  O20  1  0.750000  0.401291  0.975918  1
  O  O21  1  0.250000  0.598709  0.024082  1
  O  O22  1  0.750000  0.040673  0.035672  1
  O  O23  1  0.250000  0.959327  0.964328  1
