# generated using pymatgen
data_Ti4IBr11
_symmetry_space_group_name_H-M   'P 1'
_cell_length_a   6.05550900
_cell_length_b   7.48358000
_cell_length_c   12.62286800
_cell_angle_alpha   90.00000000
_cell_angle_beta   90.00000000
_cell_angle_gamma   90.00000000
_symmetry_Int_Tables_number   1
_chemical_formula_structural   Ti4IBr11
_chemical_formula_sum   'Ti4 I1 Br11'
_cell_volume   572.02907068
_cell_formula_units_Z   1
loop_
 _symmetry_equiv_pos_site_id
 _symmetry_equiv_pos_as_xyz
  1  'x, y, z'
loop_
 _atom_site_type_symbol
 _atom_site_label
 _atom_site_symmetry_multiplicity
 _atom_site_fract_x
 _atom_site_fract_y
 _atom_site_fract_z
 _atom_site_occupancy
  Ti  Ti0  1  0.269388  0.249274  0.500000  1
  Ti  Ti1  1  0.730612  0.249274  0.500000  1
  Ti  Ti2  1  0.767501  0.749086  0.000000  1
  Ti  Ti3  1  0.232499  0.749086  0.000000  1
  I  I4  1  0.000000  0.063873  0.000000  1
  Br  Br5  1  0.500000  0.390453  0.353477  1
  Br  Br6  1  0.000000  0.605048  0.854891  1
  Br  Br7  1  0.000000  0.605048  0.145109  1
  Br  Br8  1  0.500000  0.390453  0.646523  1
  Br  Br9  1  0.500000  0.881474  0.857942  1
  Br  Br10  1  0.000000  0.112066  0.359704  1
  Br  Br11  1  0.000000  0.112066  0.640296  1
  Br  Br12  1  0.500000  0.881474  0.142058  1
  Br  Br13  1  0.500000  0.965853  0.500000  1
  Br  Br14  1  0.500000  0.473220  0.000000  1
  Br  Br15  1  0.000000  0.522251  0.500000  1
