# generated using pymatgen
data_Ho2Lu2Ga3Si
_symmetry_space_group_name_H-M   'P 1'
_cell_length_a   3.92893100
_cell_length_b   4.29342100
_cell_length_c   10.69315700
_cell_angle_alpha   90.00000000
_cell_angle_beta   90.00000000
_cell_angle_gamma   90.00000000
_symmetry_Int_Tables_number   1
_chemical_formula_structural   Ho2Lu2Ga3Si
_chemical_formula_sum   'Ho2 Lu2 Ga3 Si1'
_cell_volume   180.37810551
_cell_formula_units_Z   1
loop_
 _symmetry_equiv_pos_site_id
 _symmetry_equiv_pos_as_xyz
  1  'x, y, z'
loop_
 _atom_site_type_symbol
 _atom_site_label
 _atom_site_symmetry_multiplicity
 _atom_site_fract_x
 _atom_site_fract_y
 _atom_site_fract_z
 _atom_site_occupancy
  Ho  Ho0  1  0.000000  0.500000  0.638128  1
  Ho  Ho1  1  0.500000  0.500000  0.360218  1
  Lu  Lu2  1  0.000000  0.000000  0.143067  1
  Lu  Lu3  1  0.500000  0.000000  0.859272  1
  Ga  Ga4  1  0.000000  0.500000  0.920378  1
  Ga  Ga5  1  0.500000  0.500000  0.080774  1
  Ga  Ga6  1  0.500000  0.000000  0.575062  1
  Si  Si7  1  0.000000  0.000000  0.423099  1
