# generated using pymatgen
data_Eu4Ta2MnWO14
_symmetry_space_group_name_H-M   'P 1'
_cell_length_a   7.54999211
_cell_length_b   7.52100223
_cell_length_c   7.55907908
_cell_angle_alpha   59.97824615
_cell_angle_beta   60.03975324
_cell_angle_gamma   59.87241101
_symmetry_Int_Tables_number   1
_chemical_formula_structural   Eu4Ta2MnWO14
_chemical_formula_sum   'Eu4 Ta2 Mn1 W1 O14'
_cell_volume   303.25940922
_cell_formula_units_Z   1
loop_
 _symmetry_equiv_pos_site_id
 _symmetry_equiv_pos_as_xyz
  1  'x, y, z'
loop_
 _atom_site_type_symbol
 _atom_site_label
 _atom_site_symmetry_multiplicity
 _atom_site_fract_x
 _atom_site_fract_y
 _atom_site_fract_z
 _atom_site_occupancy
  Eu  Eu0  1  0.125000  0.625000  0.125000  1
  Eu  Eu1  1  0.125000  0.125000  0.625000  1
  Eu  Eu2  1  0.625000  0.125000  0.125000  1
  Eu  Eu3  1  0.125000  0.125000  0.125000  1
  Ta  Ta4  1  0.625000  0.625000  0.625000  1
  Ta  Ta5  1  0.125000  0.625000  0.625000  1
  Mn  Mn6  1  0.625000  0.125000  0.625000  1
  W  W7  1  0.625000  0.625000  0.125000  1
  O  O8  1  0.309239  0.677841  0.703681  1
  O  O9  1  0.544650  0.933631  0.977068  1
  O  O10  1  0.698364  0.673620  0.309677  1
  O  O11  1  0.273981  0.308014  0.712517  1
  O  O12  1  0.001402  0.993378  0.003820  1
  O  O13  1  0.318338  0.673620  0.309677  1
  O  O14  1  0.705488  0.308014  0.712517  1
  O  O15  1  0.931662  0.576380  0.940323  1
  O  O16  1  0.551636  0.576380  0.940323  1
  O  O17  1  0.976019  0.941986  0.537483  1
  O  O18  1  0.248598  0.256622  0.246180  1
  O  O19  1  0.544512  0.941986  0.537483  1
  O  O20  1  0.705350  0.316369  0.272932  1
  O  O21  1  0.940761  0.572159  0.546319  1
