# generated using pymatgen
data_Sr2PrTl(Ir2O7)2
_symmetry_space_group_name_H-M   'P 1'
_cell_length_a   7.48024527
_cell_length_b   7.37389774
_cell_length_c   7.48024524
_cell_angle_alpha   59.34655589
_cell_angle_beta   59.53475834
_cell_angle_gamma   59.34654914
_symmetry_Int_Tables_number   1
_chemical_formula_structural   Sr2PrTl(Ir2O7)2
_chemical_formula_sum   'Sr2 Pr1 Tl1 Ir4 O14'
_cell_volume   287.82819582
_cell_formula_units_Z   1
loop_
 _symmetry_equiv_pos_site_id
 _symmetry_equiv_pos_as_xyz
  1  'x, y, z'
loop_
 _atom_site_type_symbol
 _atom_site_label
 _atom_site_symmetry_multiplicity
 _atom_site_fract_x
 _atom_site_fract_y
 _atom_site_fract_z
 _atom_site_occupancy
  Sr  Sr0  1  0.125000  0.125000  0.625000  1
  Sr  Sr1  1  0.625000  0.125000  0.125000  1
  Pr  Pr2  1  0.125000  0.125000  0.125000  1
  Tl  Tl3  1  0.125000  0.625000  0.125000  1
  Ir  Ir4  1  0.625000  0.625000  0.625000  1
  Ir  Ir5  1  0.125000  0.625000  0.625000  1
  Ir  Ir6  1  0.625000  0.125000  0.625000  1
  Ir  Ir7  1  0.625000  0.625000  0.125000  1
  O  O8  1  0.946882  0.561359  0.547120  1
  O  O9  1  0.296864  0.296737  0.708823  1
  O  O10  1  0.947511  0.551706  0.947511  1
  O  O11  1  0.708823  0.296737  0.296864  1
  O  O12  1  0.547120  0.561359  0.946882  1
  O  O13  1  0.551150  0.949914  0.551150  1
  O  O14  1  0.541177  0.953263  0.953136  1
  O  O15  1  0.235082  0.280320  0.235082  1
  O  O16  1  0.303118  0.688641  0.702880  1
  O  O17  1  0.698850  0.300086  0.698850  1
  O  O18  1  0.014918  0.969680  0.014918  1
  O  O19  1  0.953136  0.953263  0.541177  1
  O  O20  1  0.302489  0.698294  0.302489  1
  O  O21  1  0.702880  0.688641  0.303118  1
