# generated using pymatgen
data_Y2Co3P4Ru3
_symmetry_space_group_name_H-M   'P 1'
_cell_length_a   3.84512500
_cell_length_b   10.67151068
_cell_length_c   12.51434265
_cell_angle_alpha   89.72774304
_cell_angle_beta   90.00000000
_cell_angle_gamma   90.00000000
_symmetry_Int_Tables_number   1
_chemical_formula_structural   Y2Co3P4Ru3
_chemical_formula_sum   'Y6 Co9 P12 Ru9'
_cell_volume   513.49888496
_cell_formula_units_Z   3
loop_
 _symmetry_equiv_pos_site_id
 _symmetry_equiv_pos_as_xyz
  1  'x, y, z'
loop_
 _atom_site_type_symbol
 _atom_site_label
 _atom_site_symmetry_multiplicity
 _atom_site_fract_x
 _atom_site_fract_y
 _atom_site_fract_z
 _atom_site_occupancy
  Y  Y0  1  0.000000  0.500225  0.525673  1
  Y  Y1  1  0.500000  0.000539  0.471681  1
  Y  Y2  1  0.500000  0.820530  0.200646  1
  Y  Y3  1  0.500000  0.180914  0.201058  1
  Y  Y4  1  0.000000  0.678510  0.799882  1
  Y  Y5  1  0.000000  0.321610  0.798974  1
  Co  Co6  1  0.000000  0.498687  0.986700  1
  Co  Co7  1  0.500000  0.000285  0.016013  1
  Co  Co8  1  0.000000  0.375072  0.280128  1
  Co  Co9  1  0.500000  0.331499  0.989962  1
  Co  Co10  1  0.500000  0.666081  0.991554  1
  Co  Co11  1  0.000000  0.168269  0.012422  1
  Co  Co12  1  0.000000  0.832800  0.011144  1
  Co  Co13  1  0.500000  0.500201  0.703599  1
  Co  Co14  1  0.000000  0.001110  0.296427  1
  P  P15  1  0.500000  0.315450  0.616367  1
  P  P16  1  0.500000  0.686276  0.618319  1
  P  P17  1  0.000000  0.189731  0.378093  1
  P  P18  1  0.000000  0.813012  0.380491  1
  P  P19  1  0.500000  0.499446  0.882893  1
  P  P20  1  0.000000  0.000138  0.118511  1
  P  P21  1  0.500000  0.845882  0.901727  1
  P  P22  1  0.500000  0.153947  0.900459  1
  P  P23  1  0.000000  0.653269  0.100340  1
  P  P24  1  0.000000  0.346138  0.103835  1
  P  P25  1  0.500000  0.499694  0.338432  1
  P  P26  1  0.000000  0.000840  0.661990  1
  Ru  Ru27  1  0.500000  0.300886  0.422542  1
  Ru  Ru28  1  0.500000  0.702595  0.427572  1
  Ru  Ru29  1  0.000000  0.204585  0.568769  1
  Ru  Ru30  1  0.000000  0.798407  0.571762  1
  Ru  Ru31  1  0.500000  0.875640  0.719274  1
  Ru  Ru32  1  0.500000  0.125639  0.717420  1
  Ru  Ru33  1  0.000000  0.618632  0.281939  1
  Ru  Ru34  1  0.500000  0.492135  0.150020  1
  Ru  Ru35  1  0.000000  0.001326  0.853381  1
