# generated using pymatgen
data_Li3Sc6IrRh2
_symmetry_space_group_name_H-M   'P 1'
_cell_length_a   4.71334300
_cell_length_b   6.52895100
_cell_length_c   13.81398000
_cell_angle_alpha   90.00000000
_cell_angle_beta   90.00000000
_cell_angle_gamma   90.00000000
_symmetry_Int_Tables_number   1
_chemical_formula_structural   Li3Sc6IrRh2
_chemical_formula_sum   'Li6 Sc12 Ir2 Rh4'
_cell_volume   425.10016894
_cell_formula_units_Z   2
loop_
 _symmetry_equiv_pos_site_id
 _symmetry_equiv_pos_as_xyz
  1  'x, y, z'
loop_
 _atom_site_type_symbol
 _atom_site_label
 _atom_site_symmetry_multiplicity
 _atom_site_fract_x
 _atom_site_fract_y
 _atom_site_fract_z
 _atom_site_occupancy
  Li  Li0  1  0.999983  0.000000  0.999200  1
  Li  Li1  1  0.499329  0.500000  0.166569  1
  Li  Li2  1  0.999331  0.000000  0.333430  1
  Li  Li3  1  0.499983  0.500000  0.500800  1
  Li  Li4  1  0.000637  0.000000  0.667317  1
  Li  Li5  1  0.500636  0.500000  0.832684  1
  Sc  Sc6  1  0.500008  0.246329  0.998879  1
  Sc  Sc7  1  0.500008  0.753672  0.998879  1
  Sc  Sc8  1  0.999544  0.252360  0.166620  1
  Sc  Sc9  1  0.999544  0.747641  0.166620  1
  Sc  Sc10  1  0.499545  0.247643  0.333380  1
  Sc  Sc11  1  0.499545  0.752358  0.333380  1
  Sc  Sc12  1  0.000008  0.253671  0.501121  1
  Sc  Sc13  1  0.000008  0.746330  0.501121  1
  Sc  Sc14  1  0.500447  0.249676  0.667808  1
  Sc  Sc15  1  0.500447  0.750325  0.667808  1
  Sc  Sc16  1  0.000448  0.250327  0.832192  1
  Sc  Sc17  1  0.000448  0.749674  0.832192  1
  Ir  Ir18  1  0.000480  0.500000  0.665959  1
  Ir  Ir19  1  0.500482  0.000000  0.834041  1
  Rh  Rh20  1  0.000002  0.500000  0.001293  1
  Rh  Rh21  1  0.499567  0.000000  0.167182  1
  Rh  Rh22  1  0.999567  0.500000  0.332818  1
  Rh  Rh23  1  0.500002  0.000000  0.498707  1
