# generated using pymatgen
data_Zr3Mo2AsP2Ru
_symmetry_space_group_name_H-M   'P 1'
_cell_length_a   6.94319163
_cell_length_b   6.86522752
_cell_length_c   3.53779200
_cell_angle_alpha   90.00000000
_cell_angle_beta   90.00000000
_cell_angle_gamma   119.48203007
_symmetry_Int_Tables_number   1
_chemical_formula_structural   Zr3Mo2AsP2Ru
_chemical_formula_sum   'Zr3 Mo2 As1 P2 Ru1'
_cell_volume   146.79801859
_cell_formula_units_Z   1
loop_
 _symmetry_equiv_pos_site_id
 _symmetry_equiv_pos_as_xyz
  1  'x, y, z'
loop_
 _atom_site_type_symbol
 _atom_site_label
 _atom_site_symmetry_multiplicity
 _atom_site_fract_x
 _atom_site_fract_y
 _atom_site_fract_z
 _atom_site_occupancy
  Zr  Zr0  1  0.400161  0.406112  0.500000  1
  Zr  Zr1  1  0.587125  0.984679  0.500000  1
  Zr  Zr2  1  0.009984  0.603428  0.500000  1
  Mo  Mo3  1  0.243313  0.995907  0.000000  1
  Mo  Mo4  1  0.752109  0.757392  0.000000  1
  As  As5  1  0.669525  0.331745  0.000000  1
  P  P6  1  0.332267  0.663643  0.000000  1
  P  P7  1  0.999743  0.009265  0.500000  1
  Ru  Ru8  1  0.005772  0.247829  0.000000  1
