# generated using pymatgen
data_Ce2Al20Ru3Rh
_symmetry_space_group_name_H-M   'P 1'
_cell_length_a   6.86310738
_cell_length_b   6.85680741
_cell_length_c   9.14584532
_cell_angle_alpha   90.14713813
_cell_angle_beta   90.21802474
_cell_angle_gamma   97.34469824
_symmetry_Int_Tables_number   1
_chemical_formula_structural   Ce2Al20Ru3Rh
_chemical_formula_sum   'Ce2 Al20 Ru3 Rh1'
_cell_volume   426.85789095
_cell_formula_units_Z   1
loop_
 _symmetry_equiv_pos_site_id
 _symmetry_equiv_pos_as_xyz
  1  'x, y, z'
loop_
 _atom_site_type_symbol
 _atom_site_label
 _atom_site_symmetry_multiplicity
 _atom_site_fract_x
 _atom_site_fract_y
 _atom_site_fract_z
 _atom_site_occupancy
  Ce  Ce0  1  0.879163  0.124079  0.749636  1
  Ce  Ce1  1  0.120837  0.875921  0.250364  1
  Al  Al2  1  0.589968  0.859560  0.250737  1
  Al  Al3  1  0.778122  0.518938  0.249816  1
  Al  Al4  1  0.157524  0.840604  0.897631  1
  Al  Al5  1  0.410032  0.140440  0.749263  1
  Al  Al6  1  0.623749  0.379000  0.948321  1
  Al  Al7  1  0.841075  0.158737  0.398830  1
  Al  Al8  1  0.775969  0.774178  0.000522  1
  Al  Al9  1  0.860566  0.589929  0.749691  1
  Al  Al10  1  0.842476  0.159396  0.102369  1
  Al  Al11  1  0.221878  0.481062  0.750184  1
  Al  Al12  1  0.158925  0.841263  0.601170  1
  Al  Al13  1  0.775434  0.775081  0.499851  1
  Al  Al14  1  0.480643  0.223182  0.251880  1
  Al  Al15  1  0.623212  0.377191  0.550639  1
  Al  Al16  1  0.224566  0.224919  0.500149  1
  Al  Al17  1  0.376788  0.622809  0.449361  1
  Al  Al18  1  0.139434  0.410071  0.250309  1
  Al  Al19  1  0.519357  0.776818  0.748120  1
  Al  Al20  1  0.376251  0.621000  0.051679  1
  Al  Al21  1  0.224031  0.225822  0.999478  1
  Ru  Ru22  1  0.500000  0.000000  0.500000  1
  Ru  Ru23  1  0.000000  0.500000  0.000000  1
  Ru  Ru24  1  0.000000  0.500000  0.500000  1
  Rh  Rh25  1  0.500000  0.000000  0.000000  1
