# generated using pymatgen
data_Lu6Co17Si12Os
_symmetry_space_group_name_H-M   'P 1'
_cell_length_a   3.75559100
_cell_length_b   10.61548900
_cell_length_c   12.27270200
_cell_angle_alpha   90.00000000
_cell_angle_beta   90.00000000
_cell_angle_gamma   90.00000000
_symmetry_Int_Tables_number   1
_chemical_formula_structural   Lu6Co17Si12Os
_chemical_formula_sum   'Lu6 Co17 Si12 Os1'
_cell_volume   489.28114863
_cell_formula_units_Z   1
loop_
 _symmetry_equiv_pos_site_id
 _symmetry_equiv_pos_as_xyz
  1  'x, y, z'
loop_
 _atom_site_type_symbol
 _atom_site_label
 _atom_site_symmetry_multiplicity
 _atom_site_fract_x
 _atom_site_fract_y
 _atom_site_fract_z
 _atom_site_occupancy
  Lu  Lu0  1  0.000000  0.500000  0.526806  1
  Lu  Lu1  1  0.500000  0.000000  0.473554  1
  Lu  Lu2  1  0.500000  0.816792  0.206020  1
  Lu  Lu3  1  0.500000  0.183208  0.206020  1
  Lu  Lu4  1  0.000000  0.683870  0.796732  1
  Lu  Lu5  1  0.000000  0.316130  0.796732  1
  Co  Co6  1  0.000000  0.000000  0.847352  1
  Co  Co7  1  0.500000  0.500000  0.693885  1
  Co  Co8  1  0.000000  0.000000  0.305451  1
  Co  Co9  1  0.000000  0.500000  0.979320  1
  Co  Co10  1  0.500000  0.000000  0.020555  1
  Co  Co11  1  0.500000  0.329237  0.990142  1
  Co  Co12  1  0.500000  0.670763  0.990142  1
  Co  Co13  1  0.000000  0.166885  0.006463  1
  Co  Co14  1  0.000000  0.833115  0.006463  1
  Co  Co15  1  0.500000  0.301377  0.431318  1
  Co  Co16  1  0.500000  0.698623  0.431318  1
  Co  Co17  1  0.000000  0.198037  0.571031  1
  Co  Co18  1  0.000000  0.801963  0.571031  1
  Co  Co19  1  0.500000  0.882832  0.707853  1
  Co  Co20  1  0.500000  0.117168  0.707853  1
  Co  Co21  1  0.000000  0.619124  0.292002  1
  Co  Co22  1  0.000000  0.380876  0.292002  1
  Si  Si23  1  0.500000  0.500000  0.878157  1
  Si  Si24  1  0.000000  0.000000  0.120901  1
  Si  Si25  1  0.500000  0.500000  0.343179  1
  Si  Si26  1  0.000000  0.000000  0.660300  1
  Si  Si27  1  0.500000  0.304844  0.616271  1
  Si  Si28  1  0.500000  0.695156  0.616271  1
  Si  Si29  1  0.000000  0.194883  0.385955  1
  Si  Si30  1  0.000000  0.805117  0.385955  1
  Si  Si31  1  0.500000  0.854604  0.892474  1
  Si  Si32  1  0.500000  0.145396  0.892474  1
  Si  Si33  1  0.000000  0.651153  0.104479  1
  Si  Si34  1  0.000000  0.348847  0.104479  1
  Os  Os35  1  0.500000  0.500000  0.149058  1
