# generated using pymatgen
data_DyEr5Tc2
_symmetry_space_group_name_H-M   'P 1'
_cell_length_a   6.21142800
_cell_length_b   7.37422000
_cell_length_c   9.07194200
_cell_angle_alpha   90.00000000
_cell_angle_beta   90.00000000
_cell_angle_gamma   90.00000000
_symmetry_Int_Tables_number   1
_chemical_formula_structural   DyEr5Tc2
_chemical_formula_sum   'Dy2 Er10 Tc4'
_cell_volume   415.53519205
_cell_formula_units_Z   2
loop_
 _symmetry_equiv_pos_site_id
 _symmetry_equiv_pos_as_xyz
  1  'x, y, z'
loop_
 _atom_site_type_symbol
 _atom_site_label
 _atom_site_symmetry_multiplicity
 _atom_site_fract_x
 _atom_site_fract_y
 _atom_site_fract_z
 _atom_site_occupancy
  Dy  Dy0  1  0.873664  0.540850  0.250000  1
  Dy  Dy1  1  0.626336  0.040850  0.250000  1
  Er  Er2  1  0.340210  0.675404  0.061730  1
  Er  Er3  1  0.159790  0.175404  0.438270  1
  Er  Er4  1  0.659604  0.324729  0.562903  1
  Er  Er5  1  0.840396  0.824729  0.937097  1
  Er  Er6  1  0.659604  0.324729  0.937097  1
  Er  Er7  1  0.840396  0.824729  0.562903  1
  Er  Er8  1  0.340210  0.675404  0.438270  1
  Er  Er9  1  0.159790  0.175404  0.061730  1
  Er  Er10  1  0.126758  0.459071  0.750000  1
  Er  Er11  1  0.373242  0.959071  0.750000  1
  Tc  Tc12  1  0.042514  0.885286  0.250000  1
  Tc  Tc13  1  0.457486  0.385286  0.250000  1
  Tc  Tc14  1  0.957656  0.114527  0.750000  1
  Tc  Tc15  1  0.542344  0.614527  0.750000  1
