# generated using pymatgen
data_YThSi3Ag
_symmetry_space_group_name_H-M   'P 1'
_cell_length_a   4.11467544
_cell_length_b   4.21125984
_cell_length_c   7.80605853
_cell_angle_alpha   74.35103081
_cell_angle_beta   74.71879564
_cell_angle_gamma   89.99998819
_symmetry_Int_Tables_number   1
_chemical_formula_structural   YThSi3Ag
_chemical_formula_sum   'Y1 Th1 Si3 Ag1'
_cell_volume   125.27561674
_cell_formula_units_Z   1
loop_
 _symmetry_equiv_pos_site_id
 _symmetry_equiv_pos_as_xyz
  1  'x, y, z'
loop_
 _atom_site_type_symbol
 _atom_site_label
 _atom_site_symmetry_multiplicity
 _atom_site_fract_x
 _atom_site_fract_y
 _atom_site_fract_z
 _atom_site_occupancy
  Y  Y0  1  0.135542  0.385542  0.728916  1
  Th  Th1  1  0.867940  0.617940  0.264121  1
  Si  Si2  1  0.291575  0.041575  0.416852  1
  Si  Si3  1  0.453786  0.203786  0.092426  1
  Si  Si4  1  0.709256  0.959256  0.581485  1
  Ag  Ag5  1  0.541900  0.791900  0.916202  1
