# generated using pymatgen
data_Ho12Si11Ge
_symmetry_space_group_name_H-M   'P 1'
_cell_length_a   3.87181900
_cell_length_b   5.72779778
_cell_length_c   24.08975100
_cell_angle_alpha   82.35128288
_cell_angle_beta   90.00000000
_cell_angle_gamma   90.00000000
_symmetry_Int_Tables_number   1
_chemical_formula_structural   Ho12Si11Ge
_chemical_formula_sum   'Ho12 Si11 Ge1'
_cell_volume   529.48505403
_cell_formula_units_Z   1
loop_
 _symmetry_equiv_pos_site_id
 _symmetry_equiv_pos_as_xyz
  1  'x, y, z'
loop_
 _atom_site_type_symbol
 _atom_site_label
 _atom_site_symmetry_multiplicity
 _atom_site_fract_x
 _atom_site_fract_y
 _atom_site_fract_z
 _atom_site_occupancy
  Ho  Ho0  1  0.750000  0.348070  0.059154  1
  Ho  Ho1  1  0.250000  0.659128  0.939851  1
  Ho  Ho2  1  0.750000  0.529859  0.228262  1
  Ho  Ho3  1  0.250000  0.469955  0.773098  1
  Ho  Ho4  1  0.750000  0.168567  0.393472  1
  Ho  Ho5  1  0.250000  0.826859  0.606289  1
  Ho  Ho6  1  0.750000  0.350311  0.560076  1
  Ho  Ho7  1  0.250000  0.645201  0.439655  1
  Ho  Ho8  1  0.750000  0.994244  0.727154  1
  Ho  Ho9  1  0.250000  0.002393  0.273481  1
  Ho  Ho10  1  0.750000  0.166544  0.893433  1
  Ho  Ho11  1  0.250000  0.841302  0.105775  1
  Si  Si12  1  0.750000  0.865666  0.012641  1
  Si  Si13  1  0.250000  0.142890  0.986978  1
  Si  Si14  1  0.750000  0.036263  0.180412  1
  Si  Si15  1  0.250000  0.955613  0.820832  1
  Si  Si16  1  0.750000  0.706510  0.346077  1
  Si  Si17  1  0.250000  0.289470  0.653937  1
  Si  Si18  1  0.750000  0.862621  0.512364  1
  Si  Si19  1  0.250000  0.133615  0.487136  1
  Si  Si20  1  0.750000  0.532867  0.679244  1
  Si  Si21  1  0.250000  0.462059  0.321197  1
  Si  Si22  1  0.750000  0.681691  0.846070  1
  Ge  Ge23  1  0.250000  0.328305  0.153412  1
