# generated using pymatgen
data_Tb4Ga16Ir2Rh
_symmetry_space_group_name_H-M   'P 1'
_cell_length_a   6.16452200
_cell_length_b   6.16452200
_cell_length_c   11.24678400
_cell_angle_alpha   90.00000000
_cell_angle_beta   90.00000000
_cell_angle_gamma   90.00000000
_symmetry_Int_Tables_number   1
_chemical_formula_structural   Tb4Ga16Ir2Rh
_chemical_formula_sum   'Tb4 Ga16 Ir2 Rh1'
_cell_volume   427.39276696
_cell_formula_units_Z   1
loop_
 _symmetry_equiv_pos_site_id
 _symmetry_equiv_pos_as_xyz
  1  'x, y, z'
loop_
 _atom_site_type_symbol
 _atom_site_label
 _atom_site_symmetry_multiplicity
 _atom_site_fract_x
 _atom_site_fract_y
 _atom_site_fract_z
 _atom_site_occupancy
  Tb  Tb0  1  0.500000  0.000000  0.805075  1
  Tb  Tb1  1  0.000000  0.500000  0.805075  1
  Tb  Tb2  1  0.500000  0.000000  0.194925  1
  Tb  Tb3  1  0.000000  0.500000  0.194925  1
  Ga  Ga4  1  0.249047  0.249047  0.619430  1
  Ga  Ga5  1  0.750953  0.750953  0.619430  1
  Ga  Ga6  1  0.750953  0.249047  0.619430  1
  Ga  Ga7  1  0.249047  0.750953  0.619430  1
  Ga  Ga8  1  0.750953  0.750953  0.380570  1
  Ga  Ga9  1  0.249047  0.249047  0.380570  1
  Ga  Ga10  1  0.249047  0.750953  0.380570  1
  Ga  Ga11  1  0.750953  0.249047  0.380570  1
  Ga  Ga12  1  0.286963  0.286963  0.000000  1
  Ga  Ga13  1  0.713037  0.713037  0.000000  1
  Ga  Ga14  1  0.713037  0.286963  0.000000  1
  Ga  Ga15  1  0.286963  0.713037  0.000000  1
  Ga  Ga16  1  0.500000  0.500000  0.804456  1
  Ga  Ga17  1  0.500000  0.500000  0.195544  1
  Ga  Ga18  1  0.000000  0.000000  0.776217  1
  Ga  Ga19  1  0.000000  0.000000  0.223783  1
  Ir  Ir20  1  0.500000  0.000000  0.500000  1
  Ir  Ir21  1  0.000000  0.500000  0.500000  1
  Rh  Rh22  1  0.000000  0.000000  0.000000  1
