# generated using pymatgen
data_La16Nd4Sn9Bi7
_symmetry_space_group_name_H-M   'P 1'
_cell_length_a   8.59547292
_cell_length_b   8.62178148
_cell_length_c   16.48971800
_cell_angle_alpha   90.05756971
_cell_angle_beta   89.60533433
_cell_angle_gamma   89.90835231
_symmetry_Int_Tables_number   1
_chemical_formula_structural   La16Nd4Sn9Bi7
_chemical_formula_sum   'La16 Nd4 Sn9 Bi7'
_cell_volume   1221.99360543
_cell_formula_units_Z   1
loop_
 _symmetry_equiv_pos_site_id
 _symmetry_equiv_pos_as_xyz
  1  'x, y, z'
loop_
 _atom_site_type_symbol
 _atom_site_label
 _atom_site_symmetry_multiplicity
 _atom_site_fract_x
 _atom_site_fract_y
 _atom_site_fract_z
 _atom_site_occupancy
  La  La0  1  0.395070  0.837892  0.880410  1
  La  La1  1  0.898589  0.663875  0.618845  1
  La  La2  1  0.601319  0.162696  0.380651  1
  La  La3  1  0.101462  0.338227  0.118518  1
  La  La4  1  0.606435  0.166406  0.118815  1
  La  La5  1  0.101383  0.336126  0.380974  1
  La  La6  1  0.397844  0.837953  0.619973  1
  La  La7  1  0.892867  0.660770  0.882677  1
  La  La8  1  0.561735  0.331416  0.891991  1
  La  La9  1  0.063252  0.170724  0.611972  1
  La  La10  1  0.437423  0.669735  0.388618  1
  La  La11  1  0.940736  0.822851  0.109411  1
  La  La12  1  0.447563  0.668111  0.108139  1
  La  La13  1  0.936950  0.829018  0.388067  1
  La  La14  1  0.563242  0.330486  0.611491  1
  La  La15  1  0.054913  0.175000  0.891451  1
  Nd  Nd16  1  0.228474  0.498419  0.750724  1
  Nd  Nd17  1  0.728677  0.003691  0.750805  1
  Nd  Nd18  1  0.771935  0.501521  0.246124  1
  Nd  Nd19  1  0.271441  0.996321  0.248600  1
  Sn  Sn20  1  0.766571  0.482149  0.047318  1
  Sn  Sn21  1  0.596601  0.627617  0.749804  1
  Sn  Sn22  1  0.095251  0.873709  0.750877  1
  Sn  Sn23  1  0.402280  0.373058  0.250455  1
  Sn  Sn24  1  0.903304  0.125441  0.250261  1
  Sn  Sn25  1  0.363702  0.141151  0.751180  1
  Sn  Sn26  1  0.863512  0.361915  0.750132  1
  Sn  Sn27  1  0.636688  0.860955  0.249781  1
  Sn  Sn28  1  0.138596  0.637697  0.249793  1
  Bi  Bi29  1  0.264474  0.014896  0.047093  1
  Bi  Bi30  1  0.762127  0.487658  0.451220  1
  Bi  Bi31  1  0.737770  0.988311  0.548270  1
  Bi  Bi32  1  0.234533  0.517113  0.952706  1
  Bi  Bi33  1  0.733254  0.983296  0.952778  1
  Bi  Bi34  1  0.238448  0.512476  0.548337  1
  Bi  Bi35  1  0.261580  0.011320  0.451738  1
