# generated using pymatgen
data_Cs8BeCr3S10
_symmetry_space_group_name_H-M   'P 1'
_cell_length_a   7.90092308
_cell_length_b   8.72827704
_cell_length_c   10.76195964
_cell_angle_alpha   77.13147852
_cell_angle_beta   86.27536838
_cell_angle_gamma   79.77425439
_symmetry_Int_Tables_number   1
_chemical_formula_structural   Cs8BeCr3S10
_chemical_formula_sum   'Cs8 Be1 Cr3 S10'
_cell_volume   711.77749383
_cell_formula_units_Z   1
loop_
 _symmetry_equiv_pos_site_id
 _symmetry_equiv_pos_as_xyz
  1  'x, y, z'
loop_
 _atom_site_type_symbol
 _atom_site_label
 _atom_site_symmetry_multiplicity
 _atom_site_fract_x
 _atom_site_fract_y
 _atom_site_fract_z
 _atom_site_occupancy
  Cs  Cs0  1  0.426623  0.318808  0.095655  1
  Cs  Cs1  1  0.569165  0.690325  0.902812  1
  Cs  Cs2  1  0.194148  0.076469  0.866588  1
  Cs  Cs3  1  0.054725  0.617289  0.744599  1
  Cs  Cs4  1  0.798829  0.919075  0.134840  1
  Cs  Cs5  1  0.943344  0.384101  0.257789  1
  Cs  Cs6  1  0.573963  0.720108  0.507594  1
  Cs  Cs7  1  0.433507  0.274768  0.488341  1
  Be  Be8  1  0.907852  0.088414  0.596345  1
  Cr  Cr9  1  0.093332  0.913696  0.405561  1
  Cr  Cr10  1  0.274599  0.729944  0.218951  1
  Cr  Cr11  1  0.725169  0.269058  0.779710  1
  S  S12  1  0.877688  0.337550  0.602774  1
  S  S13  1  0.172089  0.978051  0.585118  1
  S  S14  1  0.459321  0.391975  0.765968  1
  S  S15  1  0.166369  0.683522  0.046453  1
  S  S16  1  0.833050  0.314035  0.947136  1
  S  S17  1  0.546435  0.602362  0.228368  1
  S  S18  1  0.120928  0.650759  0.399217  1
  S  S19  1  0.250381  0.993773  0.221715  1
  S  S20  1  0.763600  0.012356  0.771663  1
  S  S21  1  0.814885  0.033562  0.432802  1
