# generated using pymatgen
data_LuFe(OsO4)2
_symmetry_space_group_name_H-M   'P 1'
_cell_length_a   5.17026827
_cell_length_b   7.28423833
_cell_length_c   7.39758729
_cell_angle_alpha   79.90859601
_cell_angle_beta   87.40327908
_cell_angle_gamma   92.16032296
_symmetry_Int_Tables_number   1
_chemical_formula_structural   LuFe(OsO4)2
_chemical_formula_sum   'Lu2 Fe2 Os4 O16'
_cell_volume   273.71706609
_cell_formula_units_Z   2
loop_
 _symmetry_equiv_pos_site_id
 _symmetry_equiv_pos_as_xyz
  1  'x, y, z'
loop_
 _atom_site_type_symbol
 _atom_site_label
 _atom_site_symmetry_multiplicity
 _atom_site_fract_x
 _atom_site_fract_y
 _atom_site_fract_z
 _atom_site_occupancy
  Lu  Lu0  1  0.749952  0.371170  0.374206  1
  Lu  Lu1  1  0.250048  0.628830  0.625794  1
  Fe  Fe2  1  0.724894  0.856571  0.324880  1
  Fe  Fe3  1  0.275106  0.143429  0.675120  1
  Os  Os4  1  0.777737  0.305229  0.842534  1
  Os  Os5  1  0.222263  0.694771  0.157466  1
  Os  Os6  1  0.245538  0.187540  0.181156  1
  Os  Os7  1  0.754462  0.812460  0.818844  1
  O  O8  1  0.901932  0.806163  0.060353  1
  O  O9  1  0.098068  0.193837  0.939647  1
  O  O10  1  0.383983  0.938744  0.187730  1
  O  O11  1  0.616017  0.061256  0.812270  1
  O  O12  1  0.095688  0.435133  0.177160  1
  O  O13  1  0.904312  0.564867  0.822840  1
  O  O14  1  0.576740  0.300285  0.068011  1
  O  O15  1  0.423260  0.699715  0.931989  1
  O  O16  1  0.994113  0.319932  0.607012  1
  O  O17  1  0.005887  0.680068  0.392988  1
  O  O18  1  0.404282  0.185106  0.416879  1
  O  O19  1  0.595718  0.814894  0.583121  1
  O  O20  1  0.501822  0.608658  0.319545  1
  O  O21  1  0.498178  0.391342  0.680455  1
  O  O22  1  0.913750  0.095627  0.301364  1
  O  O23  1  0.086250  0.904373  0.698636  1
