# generated using pymatgen
data_Dy3Sc(Si5Os3)2
_symmetry_space_group_name_H-M   'P 1'
_cell_length_a   8.09844856
_cell_length_b   8.11114477
_cell_length_c   5.77080333
_cell_angle_alpha   70.50846771
_cell_angle_beta   70.61228652
_cell_angle_gamma   94.07379369
_symmetry_Int_Tables_number   1
_chemical_formula_structural   Dy3Sc(Si5Os3)2
_chemical_formula_sum   'Dy3 Sc1 Si10 Os6'
_cell_volume   329.96247259
_cell_formula_units_Z   1
loop_
 _symmetry_equiv_pos_site_id
 _symmetry_equiv_pos_as_xyz
  1  'x, y, z'
loop_
 _atom_site_type_symbol
 _atom_site_label
 _atom_site_symmetry_multiplicity
 _atom_site_fract_x
 _atom_site_fract_y
 _atom_site_fract_z
 _atom_site_occupancy
  Dy  Dy0  1  0.398537  0.131516  0.746481  1
  Dy  Dy1  1  0.131025  0.398686  0.247013  1
  Dy  Dy2  1  0.601268  0.869181  0.253095  1
  Sc  Sc3  1  0.868696  0.601485  0.752256  1
  Si  Si4  1  0.066383  0.261731  0.834062  1
  Si  Si5  1  0.739609  0.927025  0.667548  1
  Si  Si6  1  0.932127  0.737722  0.167285  1
  Si  Si7  1  0.262865  0.067886  0.333515  1
  Si  Si8  1  0.203529  0.791814  0.750392  1
  Si  Si9  1  0.793774  0.205948  0.250975  1
  Si  Si10  1  0.516002  0.489316  0.747732  1
  Si  Si11  1  0.488075  0.513512  0.249956  1
  Si  Si12  1  0.775381  0.228305  0.748967  1
  Si  Si13  1  0.222858  0.774585  0.252787  1
  Os  Os14  1  0.253995  0.543650  0.631253  1
  Os  Os15  1  0.455016  0.744008  0.870231  1
  Os  Os16  1  0.745708  0.457389  0.365638  1
  Os  Os17  1  0.545481  0.258139  0.129759  1
  Os  Os18  1  0.002062  0.996752  0.750065  1
  Os  Os19  1  0.997609  0.001349  0.250989  1
