# generated using pymatgen
data_Pr4DyP12Ru10Rh9
_symmetry_space_group_name_H-M   'P 1'
_cell_length_a   12.71612864
_cell_length_b   12.71282811
_cell_length_c   3.97068100
_cell_angle_alpha   90.00000000
_cell_angle_beta   90.00000000
_cell_angle_gamma   119.90304223
_symmetry_Int_Tables_number   1
_chemical_formula_structural   Pr4DyP12Ru10Rh9
_chemical_formula_sum   'Pr4 Dy1 P12 Ru10 Rh9'
_cell_volume   556.43725430
_cell_formula_units_Z   1
loop_
 _symmetry_equiv_pos_site_id
 _symmetry_equiv_pos_as_xyz
  1  'x, y, z'
loop_
 _atom_site_type_symbol
 _atom_site_label
 _atom_site_symmetry_multiplicity
 _atom_site_fract_x
 _atom_site_fract_y
 _atom_site_fract_z
 _atom_site_occupancy
  Pr  Pr0  1  0.666100  0.333031  0.000000  1
  Pr  Pr1  1  0.333647  0.667426  0.000000  1
  Pr  Pr2  1  0.812668  0.000119  0.500000  1
  Pr  Pr3  1  0.185454  0.187037  0.500000  1
  Dy  Dy4  1  0.000194  0.812112  0.500000  1
  P  P5  1  0.627680  0.997185  0.000000  1
  P  P6  1  0.368739  0.375401  0.000000  1
  P  P7  1  0.006205  0.633288  0.000000  1
  P  P8  1  0.687266  0.521439  0.500000  1
  P  P9  1  0.831779  0.308234  0.500000  1
  P  P10  1  0.314590  0.834335  0.500000  1
  P  P11  1  0.521438  0.687113  0.500000  1
  P  P12  1  0.180274  0.998241  0.000000  1
  P  P13  1  0.819837  0.816180  0.000000  1
  P  P14  1  0.996360  0.183185  0.000000  1
  P  P15  1  0.475957  0.163238  0.500000  1
  P  P16  1  0.166263  0.481681  0.500000  1
  Ru  Ru17  1  0.125127  0.641618  0.500000  1
  Ru  Ru18  1  0.362235  0.487149  0.500000  1
  Ru  Ru19  1  0.514677  0.874060  0.500000  1
  Ru  Ru20  1  0.717674  0.714272  0.500000  1
  Ru  Ru21  1  0.000869  0.287529  0.500000  1
  Ru  Ru22  1  0.448610  0.000713  0.000000  1
  Ru  Ru23  1  0.554841  0.547929  0.000000  1
  Ru  Ru24  1  0.000592  0.450660  0.000000  1
  Ru  Ru25  1  0.817471  0.197453  0.000000  1
  Ru  Ru26  1  0.283035  0.999010  0.500000  1
  Rh  Rh27  1  0.623332  0.800629  0.000000  1
  Rh  Rh28  1  0.180752  0.378350  0.000000  1
  Rh  Rh29  1  0.376178  0.181954  0.000000  1
  Rh  Rh30  1  0.194350  0.820707  0.000000  1
  Rh  Rh31  1  0.810474  0.625258  0.000000  1
  Rh  Rh32  1  0.872276  0.509878  0.500000  1
  Rh  Rh33  1  0.488031  0.359825  0.500000  1
  Rh  Rh34  1  0.635479  0.125644  0.500000  1
  Rh  Rh35  1  0.999549  0.998113  0.000000  1
