# generated using pymatgen
data_Ta2NbInPb4O13
_symmetry_space_group_name_H-M   'P 1'
_cell_length_a   7.64282093
_cell_length_b   7.63679677
_cell_length_c   7.63679718
_cell_angle_alpha   59.75461359
_cell_angle_beta   59.77835098
_cell_angle_gamma   59.77836152
_symmetry_Int_Tables_number   1
_chemical_formula_structural   Ta2NbInPb4O13
_chemical_formula_sum   'Ta2 Nb1 In1 Pb4 O13'
_cell_volume   313.53903171
_cell_formula_units_Z   1
loop_
 _symmetry_equiv_pos_site_id
 _symmetry_equiv_pos_as_xyz
  1  'x, y, z'
loop_
 _atom_site_type_symbol
 _atom_site_label
 _atom_site_symmetry_multiplicity
 _atom_site_fract_x
 _atom_site_fract_y
 _atom_site_fract_z
 _atom_site_occupancy
  Ta  Ta0  1  0.498589  0.501781  0.003841  1
  Ta  Ta1  1  0.498589  0.003841  0.501781  1
  Nb  Nb2  1  0.001338  0.504256  0.504256  1
  In  In3  1  0.504624  0.501090  0.501090  1
  Pb  Pb4  1  0.001061  0.001756  0.001756  1
  Pb  Pb5  1  0.500103  0.008310  0.008310  1
  Pb  Pb6  1  0.006202  0.013968  0.500107  1
  Pb  Pb7  1  0.006202  0.500107  0.013968  1
  O  O8  1  0.855521  0.408891  0.408891  1
  O  O9  1  0.428820  0.806750  0.806750  1
  O  O10  1  0.415251  0.413516  0.850442  1
  O  O11  1  0.806640  0.808727  0.426080  1
  O  O12  1  0.806640  0.426080  0.808727  1
  O  O13  1  0.415251  0.850442  0.413516  1
  O  O14  1  0.164139  0.571489  0.571489  1
  O  O15  1  0.569503  0.189179  0.189179  1
  O  O16  1  0.574324  0.574949  0.159391  1
  O  O17  1  0.187446  0.184952  0.573213  1
  O  O18  1  0.187446  0.573213  0.184952  1
  O  O19  1  0.574324  0.159391  0.574949  1
  O  O20  1  0.122984  0.122308  0.122308  1
