# generated using pymatgen
data_Rb2PAuSe4
_symmetry_space_group_name_H-M   'P 1'
_cell_length_a   7.34880100
_cell_length_b   7.19308607
_cell_length_c   10.41361027
_cell_angle_alpha   86.44891155
_cell_angle_beta   90.00000000
_cell_angle_gamma   90.00000000
_symmetry_Int_Tables_number   1
_chemical_formula_structural   Rb2PAuSe4
_chemical_formula_sum   'Rb4 P2 Au2 Se8'
_cell_volume   549.41233155
_cell_formula_units_Z   2
loop_
 _symmetry_equiv_pos_site_id
 _symmetry_equiv_pos_as_xyz
  1  'x, y, z'
loop_
 _atom_site_type_symbol
 _atom_site_label
 _atom_site_symmetry_multiplicity
 _atom_site_fract_x
 _atom_site_fract_y
 _atom_site_fract_z
 _atom_site_occupancy
  Rb  Rb0  1  0.250000  0.477578  0.162530  1
  Rb  Rb1  1  0.750000  0.522422  0.837470  1
  Rb  Rb2  1  0.250000  0.795750  0.539067  1
  Rb  Rb3  1  0.750000  0.204250  0.460933  1
  P  P4  1  0.750000  0.738417  0.273464  1
  P  P5  1  0.250000  0.261583  0.726536  1
  Au  Au6  1  0.000000  0.000000  0.000000  1
  Au  Au7  1  0.500000  0.000000  0.000000  1
  Se  Se8  1  0.250000  0.294278  0.515203  1
  Se  Se9  1  0.750000  0.705722  0.484797  1
  Se  Se10  1  0.250000  0.522721  0.824913  1
  Se  Se11  1  0.750000  0.477279  0.175087  1
  Se  Se12  1  0.506377  0.091399  0.769868  1
  Se  Se13  1  0.006377  0.908601  0.230132  1
  Se  Se14  1  0.993623  0.091399  0.769868  1
  Se  Se15  1  0.493623  0.908601  0.230132  1
