# generated using pymatgen
data_Y7Er9MgHg3Rh4
_symmetry_space_group_name_H-M   'P 1'
_cell_length_a   9.60718445
_cell_length_b   9.57925135
_cell_length_c   9.59889500
_cell_angle_alpha   59.93214542
_cell_angle_beta   60.02854183
_cell_angle_gamma   60.07879498
_symmetry_Int_Tables_number   1
_chemical_formula_structural   Y7Er9MgHg3Rh4
_chemical_formula_sum   'Y7 Er9 Mg1 Hg3 Rh4'
_cell_volume   624.83022626
_cell_formula_units_Z   1
loop_
 _symmetry_equiv_pos_site_id
 _symmetry_equiv_pos_as_xyz
  1  'x, y, z'
loop_
 _atom_site_type_symbol
 _atom_site_label
 _atom_site_symmetry_multiplicity
 _atom_site_fract_x
 _atom_site_fract_y
 _atom_site_fract_z
 _atom_site_occupancy
  Y  Y0  1  0.059236  0.060191  0.440287  1
  Y  Y1  1  0.187324  0.811776  0.813110  1
  Y  Y2  1  0.811064  0.188291  0.186469  1
  Y  Y3  1  0.811064  0.188291  0.814175  1
  Y  Y4  1  0.187324  0.811776  0.187791  1
  Y  Y5  1  0.811487  0.813145  0.187684  1
  Y  Y6  1  0.186406  0.189013  0.812290  1
  Er  Er7  1  0.600312  0.598047  0.597306  1
  Er  Er8  1  0.600312  0.598047  0.204337  1
  Er  Er9  1  0.600676  0.204496  0.597415  1
  Er  Er10  1  0.192539  0.602612  0.602425  1
  Er  Er11  1  0.059306  0.439780  0.439964  1
  Er  Er12  1  0.435951  0.062521  0.063634  1
  Er  Er13  1  0.435951  0.062521  0.437892  1
  Er  Er14  1  0.059306  0.439780  0.060950  1
  Er  Er15  1  0.435846  0.437200  0.063476  1
  Mg  Mg16  1  0.534685  0.821383  0.821966  1
  Hg  Hg17  1  0.832006  0.835873  0.836089  1
  Hg  Hg18  1  0.832006  0.835873  0.496031  1
  Hg  Hg19  1  0.832029  0.495276  0.836347  1
  Rh  Rh20  1  0.390086  0.394219  0.393741  1
  Rh  Rh21  1  0.390086  0.394219  0.821955  1
  Rh  Rh22  1  0.393311  0.820137  0.393277  1
  Rh  Rh23  1  0.821687  0.395535  0.391390  1
