# generated using pymatgen
data_Tb5Nd4Ho7(CdPd)4
_symmetry_space_group_name_H-M   'P 1'
_cell_length_a   9.76361254
_cell_length_b   9.74638249
_cell_length_c   9.74638291
_cell_angle_alpha   60.18582525
_cell_angle_beta   59.94150029
_cell_angle_gamma   59.94150103
_symmetry_Int_Tables_number   1
_chemical_formula_structural   Tb5Nd4Ho7(CdPd)4
_chemical_formula_sum   'Tb5 Nd4 Ho7 Cd4 Pd4'
_cell_volume   656.14979729
_cell_formula_units_Z   1
loop_
 _symmetry_equiv_pos_site_id
 _symmetry_equiv_pos_as_xyz
  1  'x, y, z'
loop_
 _atom_site_type_symbol
 _atom_site_label
 _atom_site_symmetry_multiplicity
 _atom_site_fract_x
 _atom_site_fract_y
 _atom_site_fract_z
 _atom_site_occupancy
  Tb  Tb0  1  0.351959  0.352895  0.352895  1
  Tb  Tb1  1  0.352752  0.353741  0.940754  1
  Tb  Tb2  1  0.352752  0.940754  0.353741  1
  Tb  Tb3  1  0.942250  0.352895  0.352895  1
  Tb  Tb4  1  0.811582  0.188418  0.188418  1
  Nd  Nd5  1  0.565999  0.934028  0.566014  1
  Nd  Nd6  1  0.933959  0.566014  0.934028  1
  Nd  Nd7  1  0.565999  0.566014  0.934028  1
  Nd  Nd8  1  0.933959  0.934028  0.566014  1
  Ho  Ho9  1  0.188068  0.811932  0.811932  1
  Ho  Ho10  1  0.188894  0.811563  0.188009  1
  Ho  Ho11  1  0.811534  0.188009  0.811563  1
  Ho  Ho12  1  0.188894  0.188009  0.811563  1
  Ho  Ho13  1  0.811534  0.811563  0.188009  1
  Ho  Ho14  1  0.939895  0.560105  0.560105  1
  Ho  Ho15  1  0.559976  0.940024  0.940024  1
  Cd  Cd16  1  0.583595  0.579193  0.579193  1
  Cd  Cd17  1  0.579131  0.583586  0.258153  1
  Cd  Cd18  1  0.579131  0.258153  0.583586  1
  Cd  Cd19  1  0.258020  0.579193  0.579193  1
  Pd  Pd20  1  0.147190  0.142129  0.142129  1
  Pd  Pd21  1  0.142187  0.145705  0.569918  1
  Pd  Pd22  1  0.142187  0.569918  0.145705  1
  Pd  Pd23  1  0.568550  0.142129  0.142129  1
