# generated using pymatgen
data_Dy2Tm14TlIn5Co2
_symmetry_space_group_name_H-M   'P 1'
_cell_length_a   10.24026316
_cell_length_b   10.25117918
_cell_length_c   6.94614221
_cell_angle_alpha   89.98589514
_cell_angle_beta   89.98586948
_cell_angle_gamma   119.94004430
_symmetry_Int_Tables_number   1
_chemical_formula_structural   Dy2Tm14TlIn5Co2
_chemical_formula_sum   'Dy2 Tm14 Tl1 In5 Co2'
_cell_volume   631.86057076
_cell_formula_units_Z   1
loop_
 _symmetry_equiv_pos_site_id
 _symmetry_equiv_pos_as_xyz
  1  'x, y, z'
loop_
 _atom_site_type_symbol
 _atom_site_label
 _atom_site_symmetry_multiplicity
 _atom_site_fract_x
 _atom_site_fract_y
 _atom_site_fract_z
 _atom_site_occupancy
  Dy  Dy0  1  0.534339  0.068780  0.512966  1
  Dy  Dy1  1  0.931008  0.465543  0.512656  1
  Tm  Tm2  1  0.534743  0.465157  0.513390  1
  Tm  Tm3  1  0.464695  0.929364  0.013236  1
  Tm  Tm4  1  0.071426  0.535103  0.014038  1
  Tm  Tm5  1  0.463966  0.534837  0.014493  1
  Tm  Tm6  1  0.179131  0.357090  0.721110  1
  Tm  Tm7  1  0.643105  0.820764  0.720950  1
  Tm  Tm8  1  0.177993  0.821628  0.721471  1
  Tm  Tm9  1  0.821099  0.643184  0.218338  1
  Tm  Tm10  1  0.356697  0.178681  0.219803  1
  Tm  Tm11  1  0.821624  0.178042  0.218957  1
  Tm  Tm12  1  0.666195  0.333400  0.906704  1
  Tm  Tm13  1  0.333645  0.666355  0.406233  1
  Tm  Tm14  1  0.000459  0.000900  0.499083  1
  Tm  Tm15  1  0.000417  0.000978  0.000877  1
  Tl  Tl16  1  0.836900  0.674367  0.762692  1
  In  In17  1  0.325341  0.162928  0.761070  1
  In  In18  1  0.837727  0.162241  0.761819  1
  In  In19  1  0.162725  0.325525  0.261055  1
  In  In20  1  0.674413  0.837217  0.261109  1
  In  In21  1  0.162782  0.837157  0.260792  1
  Co  Co22  1  0.666240  0.334179  0.287114  1
  Co  Co23  1  0.333330  0.666579  0.788047  1
