# generated using pymatgen
data_Nd4Cd3NiRu
_symmetry_space_group_name_H-M   'P 1'
_cell_length_a   3.88320300
_cell_length_b   7.60029061
_cell_length_c   8.24187287
_cell_angle_alpha   71.86545569
_cell_angle_beta   90.00000000
_cell_angle_gamma   90.00000000
_symmetry_Int_Tables_number   1
_chemical_formula_structural   Nd4Cd3NiRu
_chemical_formula_sum   'Nd4 Cd3 Ni1 Ru1'
_cell_volume   231.16380945
_cell_formula_units_Z   1
loop_
 _symmetry_equiv_pos_site_id
 _symmetry_equiv_pos_as_xyz
  1  'x, y, z'
loop_
 _atom_site_type_symbol
 _atom_site_label
 _atom_site_symmetry_multiplicity
 _atom_site_fract_x
 _atom_site_fract_y
 _atom_site_fract_z
 _atom_site_occupancy
  Nd  Nd0  1  0.500000  0.599376  0.191776  1
  Nd  Nd1  1  0.500000  0.916046  0.719038  1
  Nd  Nd2  1  0.500000  0.085551  0.279698  1
  Nd  Nd3  1  0.500000  0.392854  0.812621  1
  Cd  Cd4  1  0.000000  0.700168  0.509293  1
  Cd  Cd5  1  0.000000  0.299097  0.494255  1
  Cd  Cd6  1  0.000000  0.998632  0.997938  1
  Ni  Ni7  1  0.000000  0.661957  0.887261  1
  Ru  Ru8  1  0.000000  0.346320  0.108120  1
