# generated using pymatgen
data_Dy13Ho7(Ga2Bi)4
_symmetry_space_group_name_H-M   'P 1'
_cell_length_a   8.22401133
_cell_length_b   8.22384633
_cell_length_c   12.66619800
_cell_angle_alpha   89.99767296
_cell_angle_beta   90.00206256
_cell_angle_gamma   89.96749219
_symmetry_Int_Tables_number   1
_chemical_formula_structural   Dy13Ho7(Ga2Bi)4
_chemical_formula_sum   'Dy13 Ho7 Ga8 Bi4'
_cell_volume   856.65289935
_cell_formula_units_Z   1
loop_
 _symmetry_equiv_pos_site_id
 _symmetry_equiv_pos_as_xyz
  1  'x, y, z'
loop_
 _atom_site_type_symbol
 _atom_site_label
 _atom_site_symmetry_multiplicity
 _atom_site_fract_x
 _atom_site_fract_y
 _atom_site_fract_z
 _atom_site_occupancy
  Dy  Dy0  1  0.651151  0.651076  0.608486  1
  Dy  Dy1  1  0.651634  0.349407  0.107767  1
  Dy  Dy2  1  0.848487  0.849352  0.392213  1
  Dy  Dy3  1  0.151579  0.849515  0.891942  1
  Dy  Dy4  1  0.348639  0.349095  0.608312  1
  Dy  Dy5  1  0.349087  0.651389  0.107874  1
  Dy  Dy6  1  0.150898  0.151165  0.392067  1
  Dy  Dy7  1  0.849321  0.151223  0.891925  1
  Dy  Dy8  1  0.651897  0.347685  0.392054  1
  Dy  Dy9  1  0.348303  0.347994  0.892090  1
  Dy  Dy10  1  0.151206  0.848408  0.608386  1
  Dy  Dy11  1  0.848136  0.847771  0.107486  1
  Dy  Dy12  1  0.348601  0.651519  0.391669  1
  Ho  Ho13  1  0.999682  0.500014  0.749728  1
  Ho  Ho14  1  0.000131  0.499817  0.249563  1
  Ho  Ho15  1  0.499845  0.000155  0.250288  1
  Ho  Ho16  1  0.500410  0.999981  0.750425  1
  Ho  Ho17  1  0.650874  0.651058  0.890596  1
  Ho  Ho18  1  0.848958  0.151253  0.609481  1
  Ho  Ho19  1  0.151000  0.151132  0.109071  1
  Ga  Ga20  1  0.850078  0.850338  0.750088  1
  Ga  Ga21  1  0.850576  0.149485  0.249237  1
  Ga  Ga22  1  0.649789  0.649871  0.250148  1
  Ga  Ga23  1  0.350359  0.649836  0.750480  1
  Ga  Ga24  1  0.149734  0.149961  0.749533  1
  Ga  Ga25  1  0.149406  0.850660  0.249514  1
  Ga  Ga26  1  0.350126  0.350066  0.249614  1
  Ga  Ga27  1  0.649914  0.350270  0.750132  1
  Bi  Bi28  1  0.999778  0.499880  0.499697  1
  Bi  Bi29  1  0.000142  0.500173  0.999587  1
  Bi  Bi30  1  0.500276  0.000382  0.500332  1
  Bi  Bi31  1  0.499984  0.000069  0.000214  1
