# generated using pymatgen
data_Sc7(BiTe3)2
_symmetry_space_group_name_H-M   'P 1'
_cell_length_a   8.03058684
_cell_length_b   8.03058507
_cell_length_c   9.96469257
_cell_angle_alpha   54.50693465
_cell_angle_beta   54.50694285
_cell_angle_gamma   63.35630133
_symmetry_Int_Tables_number   1
_chemical_formula_structural   Sc7(BiTe3)2
_chemical_formula_sum   'Sc7 Bi2 Te6'
_cell_volume   419.94426730
_cell_formula_units_Z   1
loop_
 _symmetry_equiv_pos_site_id
 _symmetry_equiv_pos_as_xyz
  1  'x, y, z'
loop_
 _atom_site_type_symbol
 _atom_site_label
 _atom_site_symmetry_multiplicity
 _atom_site_fract_x
 _atom_site_fract_y
 _atom_site_fract_z
 _atom_site_occupancy
  Sc  Sc0  1  0.734878  0.265122  0.500000  1
  Sc  Sc1  1  0.265122  0.734878  0.500000  1
  Sc  Sc2  1  0.500000  0.000000  0.500000  1
  Sc  Sc3  1  0.000000  0.500000  0.500000  1
  Sc  Sc4  1  0.746306  0.746306  0.006682  1
  Sc  Sc5  1  0.253694  0.253694  0.993318  1
  Sc  Sc6  1  0.000000  0.000000  0.000000  1
  Bi  Bi7  1  0.961674  0.961674  0.334034  1
  Bi  Bi8  1  0.038326  0.038326  0.665966  1
  Te  Te9  1  0.542341  0.043121  0.165193  1
  Te  Te10  1  0.457659  0.956879  0.834807  1
  Te  Te11  1  0.956879  0.457659  0.834807  1
  Te  Te12  1  0.043121  0.542341  0.165193  1
  Te  Te13  1  0.455219  0.455219  0.326210  1
  Te  Te14  1  0.544781  0.544781  0.673790  1
