# generated using pymatgen
data_Dy4Hf3O12
_symmetry_space_group_name_H-M   'P 1'
_cell_length_a   6.36694652
_cell_length_b   6.46226005
_cell_length_c   12.80915649
_cell_angle_alpha   99.21755624
_cell_angle_beta   99.31666150
_cell_angle_gamma   99.25702392
_symmetry_Int_Tables_number   1
_chemical_formula_structural   Dy4Hf3O12
_chemical_formula_sum   'Dy8 Hf6 O24'
_cell_volume   503.83512661
_cell_formula_units_Z   2
loop_
 _symmetry_equiv_pos_site_id
 _symmetry_equiv_pos_as_xyz
  1  'x, y, z'
loop_
 _atom_site_type_symbol
 _atom_site_label
 _atom_site_symmetry_multiplicity
 _atom_site_fract_x
 _atom_site_fract_y
 _atom_site_fract_z
 _atom_site_occupancy
  Dy  Dy0  1  0.295084  0.610685  0.818269  1
  Dy  Dy1  1  0.386190  0.865716  0.597624  1
  Dy  Dy2  1  0.858543  0.695439  0.947706  1
  Dy  Dy3  1  0.309415  0.612234  0.318054  1
  Dy  Dy4  1  0.141457  0.304561  0.052294  1
  Dy  Dy5  1  0.704916  0.389315  0.181731  1
  Dy  Dy6  1  0.690585  0.387766  0.681946  1
  Dy  Dy7  1  0.613810  0.134284  0.402376  1
  Hf  Hf8  1  0.008537  0.007017  0.253935  1
  Hf  Hf9  1  0.393048  0.856175  0.093399  1
  Hf  Hf10  1  0.991463  0.992983  0.746065  1
  Hf  Hf11  1  0.852966  0.670853  0.447709  1
  Hf  Hf12  1  0.147034  0.329147  0.552291  1
  Hf  Hf13  1  0.606952  0.143825  0.906601  1
  O  O14  1  0.316000  0.967841  0.796277  1
  O  O15  1  0.079466  0.923843  0.096062  1
  O  O16  1  0.319094  0.947024  0.285867  1
  O  O17  1  0.024895  0.883462  0.589695  1
  O  O18  1  0.564149  0.833569  0.962588  1
  O  O19  1  0.592211  0.817613  0.462114  1
  O  O20  1  0.187442  0.597373  0.972166  1
  O  O21  1  0.928343  0.683971  0.778525  1
  O  O22  1  0.429438  0.587372  0.157533  1
  O  O23  1  0.170972  0.575831  0.465865  1
  O  O24  1  0.926992  0.700619  0.294862  1
  O  O25  1  0.570562  0.412628  0.842467  1
  O  O26  1  0.403698  0.564250  0.656792  1
  O  O27  1  0.071657  0.316029  0.221475  1
  O  O28  1  0.812558  0.402627  0.027834  1
  O  O29  1  0.596302  0.435750  0.343208  1
  O  O30  1  0.073008  0.299381  0.705138  1
  O  O31  1  0.829028  0.424169  0.534135  1
  O  O32  1  0.435851  0.166431  0.037412  1
  O  O33  1  0.407789  0.182387  0.537886  1
  O  O34  1  0.920534  0.076157  0.903938  1
  O  O35  1  0.684000  0.032159  0.203723  1
  O  O36  1  0.975105  0.116538  0.410305  1
  O  O37  1  0.680906  0.052976  0.714133  1
