# generated using pymatgen
data_PrTm2(Co3P2)3
_symmetry_space_group_name_H-M   'P 1'
_cell_length_a   3.70693200
_cell_length_b   10.53915200
_cell_length_c   12.20556000
_cell_angle_alpha   90.00000000
_cell_angle_beta   90.00000000
_cell_angle_gamma   90.00000000
_symmetry_Int_Tables_number   1
_chemical_formula_structural   PrTm2(Co3P2)3
_chemical_formula_sum   'Pr2 Tm4 Co18 P12'
_cell_volume   476.84583921
_cell_formula_units_Z   2
loop_
 _symmetry_equiv_pos_site_id
 _symmetry_equiv_pos_as_xyz
  1  'x, y, z'
loop_
 _atom_site_type_symbol
 _atom_site_label
 _atom_site_symmetry_multiplicity
 _atom_site_fract_x
 _atom_site_fract_y
 _atom_site_fract_z
 _atom_site_occupancy
  Pr  Pr0  1  0.000000  0.500000  0.522725  1
  Pr  Pr1  1  0.500000  0.000000  0.477275  1
  Tm  Tm2  1  0.500000  0.817738  0.204187  1
  Tm  Tm3  1  0.500000  0.182262  0.204187  1
  Tm  Tm4  1  0.000000  0.682262  0.795813  1
  Tm  Tm5  1  0.000000  0.317738  0.795813  1
  Co  Co6  1  0.500000  0.500000  0.155752  1
  Co  Co7  1  0.000000  0.000000  0.844248  1
  Co  Co8  1  0.500000  0.500000  0.708313  1
  Co  Co9  1  0.000000  0.000000  0.291687  1
  Co  Co10  1  0.000000  0.500000  0.986741  1
  Co  Co11  1  0.500000  0.000000  0.013259  1
  Co  Co12  1  0.500000  0.333061  0.995003  1
  Co  Co13  1  0.500000  0.666939  0.995003  1
  Co  Co14  1  0.000000  0.166939  0.004997  1
  Co  Co15  1  0.000000  0.833061  0.004997  1
  Co  Co16  1  0.500000  0.296778  0.428206  1
  Co  Co17  1  0.500000  0.703222  0.428206  1
  Co  Co18  1  0.000000  0.203222  0.571794  1
  Co  Co19  1  0.000000  0.796778  0.571794  1
  Co  Co20  1  0.500000  0.879240  0.713994  1
  Co  Co21  1  0.500000  0.120760  0.713994  1
  Co  Co22  1  0.000000  0.620760  0.286006  1
  Co  Co23  1  0.000000  0.379240  0.286006  1
  P  P24  1  0.500000  0.500000  0.883889  1
  P  P25  1  0.000000  0.000000  0.116111  1
  P  P26  1  0.500000  0.500000  0.338818  1
  P  P27  1  0.000000  0.000000  0.661182  1
  P  P28  1  0.500000  0.307039  0.619175  1
  P  P29  1  0.500000  0.692961  0.619175  1
  P  P30  1  0.000000  0.192961  0.380825  1
  P  P31  1  0.000000  0.807039  0.380825  1
  P  P32  1  0.500000  0.845915  0.894019  1
  P  P33  1  0.500000  0.154085  0.894019  1
  P  P34  1  0.000000  0.654085  0.105981  1
  P  P35  1  0.000000  0.345915  0.105981  1
