# generated using pymatgen
data_Gd4ThSn3N
_symmetry_space_group_name_H-M   'P 1'
_cell_length_a   9.00959800
_cell_length_b   9.05252249
_cell_length_c   6.47818100
_cell_angle_alpha   90.00000000
_cell_angle_beta   90.00000000
_cell_angle_gamma   120.15772211
_symmetry_Int_Tables_number   1
_chemical_formula_structural   Gd4ThSn3N
_chemical_formula_sum   'Gd8 Th2 Sn6 N2'
_cell_volume   456.84230042
_cell_formula_units_Z   2
loop_
 _symmetry_equiv_pos_site_id
 _symmetry_equiv_pos_as_xyz
  1  'x, y, z'
loop_
 _atom_site_type_symbol
 _atom_site_label
 _atom_site_symmetry_multiplicity
 _atom_site_fract_x
 _atom_site_fract_y
 _atom_site_fract_z
 _atom_site_occupancy
  Gd  Gd0  1  0.665883  0.332338  0.003002  1
  Gd  Gd1  1  0.334117  0.666456  0.003002  1
  Gd  Gd2  1  0.334117  0.666456  0.496998  1
  Gd  Gd3  1  0.665883  0.332338  0.496998  1
  Gd  Gd4  1  0.000000  0.220993  0.750000  1
  Gd  Gd5  1  0.208868  0.213473  0.250000  1
  Gd  Gd6  1  0.791132  0.004605  0.250000  1
  Gd  Gd7  1  0.000000  0.786668  0.250000  1
  Th  Th8  1  0.783017  0.785307  0.750000  1
  Th  Th9  1  0.216983  0.002291  0.750000  1
  Sn  Sn10  1  0.405026  0.408341  0.750000  1
  Sn  Sn11  1  0.594974  0.003314  0.750000  1
  Sn  Sn12  1  0.000000  0.588182  0.750000  1
  Sn  Sn13  1  0.594351  0.596542  0.250000  1
  Sn  Sn14  1  0.405649  0.002190  0.250000  1
  Sn  Sn15  1  0.000000  0.397310  0.250000  1
  N  N16  1  0.000000  0.996599  0.993896  1
  N  N17  1  0.000000  0.996599  0.506104  1
