# generated using pymatgen
data_Ta3TiNb2Al4(IrC)2
_symmetry_space_group_name_H-M   'P 1'
_cell_length_a   8.31286328
_cell_length_b   8.31350620
_cell_length_c   8.29587901
_cell_angle_alpha   60.06498858
_cell_angle_beta   60.06854318
_cell_angle_gamma   59.86232382
_symmetry_Int_Tables_number   1
_chemical_formula_structural   Ta3TiNb2Al4(IrC)2
_chemical_formula_sum   'Ta6 Ti2 Nb4 Al8 Ir4 C4'
_cell_volume   405.38249243
_cell_formula_units_Z   2
loop_
 _symmetry_equiv_pos_site_id
 _symmetry_equiv_pos_as_xyz
  1  'x, y, z'
loop_
 _atom_site_type_symbol
 _atom_site_label
 _atom_site_symmetry_multiplicity
 _atom_site_fract_x
 _atom_site_fract_y
 _atom_site_fract_z
 _atom_site_occupancy
  Ta  Ta0  1  0.562131  0.562133  0.938335  1
  Ta  Ta1  1  0.938964  0.561432  0.561560  1
  Ta  Ta2  1  0.561560  0.938044  0.938964  1
  Ta  Ta3  1  0.938335  0.937401  0.562131  1
  Ta  Ta4  1  0.688185  0.311815  0.688185  1
  Ta  Ta5  1  0.937545  0.562455  0.937545  1
  Ti  Ti6  1  0.687157  0.686779  0.313251  1
  Ti  Ti7  1  0.313251  0.312811  0.687157  1
  Nb  Nb8  1  0.562742  0.937258  0.562742  1
  Nb  Nb9  1  0.313105  0.687218  0.687366  1
  Nb  Nb10  1  0.687366  0.312310  0.313105  1
  Nb  Nb11  1  0.311992  0.688008  0.311992  1
  Al  Al12  1  0.917459  0.915412  0.916733  1
  Al  Al13  1  0.997773  0.335647  0.331894  1
  Al  Al14  1  0.335449  0.998061  0.334302  1
  Al  Al15  1  0.331894  0.334685  0.997773  1
  Al  Al16  1  0.916733  0.250398  0.917459  1
  Al  Al17  1  0.915085  0.917710  0.250192  1
  Al  Al18  1  0.250192  0.917015  0.915085  1
  Al  Al19  1  0.334302  0.332185  0.335449  1
  Ir  Ir20  1  0.126466  0.125232  0.123747  1
  Ir  Ir21  1  0.624890  0.126168  0.120518  1
  Ir  Ir22  1  0.123747  0.624554  0.126466  1
  Ir  Ir23  1  0.120518  0.128424  0.624890  1
  C  C24  1  0.628560  0.622999  0.621721  1
  C  C25  1  0.125627  0.620190  0.627252  1
  C  C26  1  0.621721  0.126720  0.628560  1
  C  C27  1  0.627252  0.626932  0.125627  1
