# generated using pymatgen
data_AcCrSe3
_symmetry_space_group_name_H-M   'P 1'
_cell_length_a   4.08821100
_cell_length_b   8.38476100
_cell_length_c   14.06825300
_cell_angle_alpha   90.00000000
_cell_angle_beta   90.00000000
_cell_angle_gamma   90.00000000
_symmetry_Int_Tables_number   1
_chemical_formula_structural   AcCrSe3
_chemical_formula_sum   'Ac4 Cr4 Se12'
_cell_volume   482.24103235
_cell_formula_units_Z   4
loop_
 _symmetry_equiv_pos_site_id
 _symmetry_equiv_pos_as_xyz
  1  'x, y, z'
loop_
 _atom_site_type_symbol
 _atom_site_label
 _atom_site_symmetry_multiplicity
 _atom_site_fract_x
 _atom_site_fract_y
 _atom_site_fract_z
 _atom_site_occupancy
  Ac  Ac0  1  0.250000  0.094708  0.828723  1
  Ac  Ac1  1  0.250000  0.594708  0.671277  1
  Ac  Ac2  1  0.750000  0.905292  0.171277  1
  Ac  Ac3  1  0.750000  0.405292  0.328723  1
  Cr  Cr4  1  0.250000  0.339306  0.052234  1
  Cr  Cr5  1  0.250000  0.839306  0.447766  1
  Cr  Cr6  1  0.750000  0.660694  0.947766  1
  Cr  Cr7  1  0.750000  0.160694  0.552234  1
  Se  Se8  1  0.250000  0.192599  0.210502  1
  Se  Se9  1  0.250000  0.692599  0.289498  1
  Se  Se10  1  0.750000  0.807401  0.789498  1
  Se  Se11  1  0.750000  0.307401  0.710502  1
  Se  Se12  1  0.250000  0.336881  0.497536  1
  Se  Se13  1  0.250000  0.836881  0.002464  1
  Se  Se14  1  0.750000  0.663119  0.502464  1
  Se  Se15  1  0.750000  0.163119  0.997536  1
  Se  Se16  1  0.250000  0.488620  0.896789  1
  Se  Se17  1  0.250000  0.988620  0.603211  1
  Se  Se18  1  0.750000  0.511380  0.103211  1
  Se  Se19  1  0.750000  0.011380  0.396789  1
