# generated using pymatgen
data_K13Rb3Ga22
_symmetry_space_group_name_H-M   'P 1'
_cell_length_a   9.60893448
_cell_length_b   9.60893429
_cell_length_c   17.22299452
_cell_angle_alpha   90.00000054
_cell_angle_beta   106.19794455
_cell_angle_gamma   119.99999888
_symmetry_Int_Tables_number   1
_chemical_formula_structural   K13Rb3Ga22
_chemical_formula_sum   'K13 Rb3 Ga22'
_cell_volume   1303.77588972
_cell_formula_units_Z   1
loop_
 _symmetry_equiv_pos_site_id
 _symmetry_equiv_pos_as_xyz
  1  'x, y, z'
loop_
 _atom_site_type_symbol
 _atom_site_label
 _atom_site_symmetry_multiplicity
 _atom_site_fract_x
 _atom_site_fract_y
 _atom_site_fract_z
 _atom_site_occupancy
  K  K0  1  0.975056  0.655929  0.070941  1
  K  K1  1  0.415014  0.319127  0.070941  1
  K  K2  1  0.751813  0.095885  0.070941  1
  K  K3  1  0.155702  0.077852  0.233553  1
  K  K4  1  0.844631  0.422316  0.266948  1
  K  K5  1  0.249497  0.843909  0.430568  1
  K  K6  1  0.586657  0.405587  0.430568  1
  K  K7  1  0.024981  0.181071  0.430568  1
  K  K8  1  0.974305  0.818775  0.568965  1
  K  K9  1  0.413435  0.594658  0.568965  1
  K  K10  1  0.750190  0.155530  0.568965  1
  K  K11  1  0.154322  0.577160  0.731482  1
  K  K12  1  0.843364  0.921682  0.765044  1
  Rb  Rb13  1  0.247309  0.903877  0.932306  1
  Rb  Rb14  1  0.588873  0.684997  0.932306  1
  Rb  Rb15  1  0.028426  0.343430  0.932306  1
  Ga  Ga16  1  0.408340  0.704171  0.112511  1
  Ga  Ga17  1  0.438350  0.985571  0.165428  1
  Ga  Ga18  1  0.712650  0.727077  0.165428  1
  Ga  Ga19  1  0.179856  0.452778  0.165428  1
  Ga  Ga20  1  0.701202  0.950849  0.250418  1
  Ga  Ga21  1  0.299569  0.750354  0.250418  1
  Ga  Ga22  1  0.500064  0.549216  0.250418  1
  Ga  Ga23  1  0.820320  0.772939  0.336396  1
  Ga  Ga24  1  0.289015  0.516076  0.336396  1
  Ga  Ga25  1  0.563456  0.047381  0.336396  1
  Ga  Ga26  1  0.592979  0.796490  0.389469  1
  Ga  Ga27  1  0.407371  0.203687  0.611058  1
  Ga  Ga28  1  0.436845  0.951068  0.663364  1
  Ga  Ga29  1  0.712298  0.485777  0.663364  1
  Ga  Ga30  1  0.177588  0.226520  0.663364  1
  Ga  Ga31  1  0.497894  0.448907  0.748180  1
  Ga  Ga32  1  0.699193  0.250286  0.748180  1
  Ga  Ga33  1  0.299273  0.048988  0.748180  1
  Ga  Ga34  1  0.816347  0.545887  0.834039  1
  Ga  Ga35  1  0.288151  0.270460  0.834039  1
  Ga  Ga36  1  0.563580  0.017692  0.834039  1
  Ga  Ga37  1  0.592083  0.296041  0.888124  1
