# generated using pymatgen
data_Tb20CoSn7BiRu3
_symmetry_space_group_name_H-M   'P 1'
_cell_length_a   7.87618273
_cell_length_b   9.07390785
_cell_length_c   12.25090690
_cell_angle_alpha   90.04679784
_cell_angle_beta   89.93922476
_cell_angle_gamma   89.94140714
_symmetry_Int_Tables_number   1
_chemical_formula_structural   Tb20CoSn7BiRu3
_chemical_formula_sum   'Tb20 Co1 Sn7 Bi1 Ru3'
_cell_volume   875.54358561
_cell_formula_units_Z   1
loop_
 _symmetry_equiv_pos_site_id
 _symmetry_equiv_pos_as_xyz
  1  'x, y, z'
loop_
 _atom_site_type_symbol
 _atom_site_label
 _atom_site_symmetry_multiplicity
 _atom_site_fract_x
 _atom_site_fract_y
 _atom_site_fract_z
 _atom_site_occupancy
  Tb  Tb0  1  0.844164  0.746739  0.792695  1
  Tb  Tb1  1  0.152588  0.250124  0.211843  1
  Tb  Tb2  1  0.348762  0.252875  0.712001  1
  Tb  Tb3  1  0.652335  0.749652  0.287492  1
  Tb  Tb4  1  0.382275  0.747150  0.697259  1
  Tb  Tb5  1  0.624483  0.250081  0.301486  1
  Tb  Tb6  1  0.873599  0.252846  0.804473  1
  Tb  Tb7  1  0.122175  0.749704  0.196669  1
  Tb  Tb8  1  0.953987  0.747004  0.501174  1
  Tb  Tb9  1  0.042195  0.252945  0.495276  1
  Tb  Tb10  1  0.457035  0.250325  0.997691  1
  Tb  Tb11  1  0.547075  0.749768  0.003604  1
  Tb  Tb12  1  0.674949  0.036850  0.568696  1
  Tb  Tb13  1  0.320889  0.964911  0.427236  1
  Tb  Tb14  1  0.182201  0.962990  0.934700  1
  Tb  Tb15  1  0.321040  0.536118  0.429884  1
  Tb  Tb16  1  0.821488  0.030442  0.067500  1
  Tb  Tb17  1  0.679652  0.463744  0.569706  1
  Tb  Tb18  1  0.821618  0.469912  0.067829  1
  Tb  Tb19  1  0.179711  0.536757  0.930214  1
  Co  Co20  1  0.929304  0.750354  0.009270  1
  Sn  Sn21  1  0.573991  0.493890  0.831271  1
  Sn  Sn22  1  0.424490  0.505311  0.169783  1
  Sn  Sn23  1  0.074600  0.506078  0.670195  1
  Sn  Sn24  1  0.425262  0.994940  0.169726  1
  Sn  Sn25  1  0.925072  0.494461  0.329469  1
  Sn  Sn26  1  0.574047  0.005559  0.829935  1
  Sn  Sn27  1  0.923919  0.005070  0.331259  1
  Bi  Bi28  1  0.074856  0.993142  0.672153  1
  Ru  Ru29  1  0.575240  0.750286  0.509465  1
  Ru  Ru30  1  0.423998  0.250134  0.489367  1
  Ru  Ru31  1  0.073001  0.249836  0.990677  1
