# generated using pymatgen
data_Y3Er2(SiHg)2
_symmetry_space_group_name_H-M   'P 1'
_cell_length_a   8.79688553
_cell_length_b   8.75837609
_cell_length_c   7.55472342
_cell_angle_alpha   90.05639672
_cell_angle_beta   90.13818484
_cell_angle_gamma   129.17580194
_symmetry_Int_Tables_number   1
_chemical_formula_structural   Y3Er2(SiHg)2
_chemical_formula_sum   'Y6 Er4 Si4 Hg4'
_cell_volume   451.21931968
_cell_formula_units_Z   2
loop_
 _symmetry_equiv_pos_site_id
 _symmetry_equiv_pos_as_xyz
  1  'x, y, z'
loop_
 _atom_site_type_symbol
 _atom_site_label
 _atom_site_symmetry_multiplicity
 _atom_site_fract_x
 _atom_site_fract_y
 _atom_site_fract_z
 _atom_site_occupancy
  Y  Y0  1  0.054557  0.310626  0.324970  1
  Y  Y1  1  0.945443  0.689374  0.675030  1
  Y  Y2  1  0.444702  0.189873  0.823937  1
  Y  Y3  1  0.808425  0.553431  0.176040  1
  Y  Y4  1  0.555298  0.810127  0.176063  1
  Y  Y5  1  0.191575  0.446569  0.823960  1
  Er  Er6  1  0.693307  0.946631  0.674863  1
  Er  Er7  1  0.306693  0.053369  0.325137  1
  Er  Er8  1  0.000000  0.000000  0.000000  1
  Er  Er9  1  0.500000  0.500000  0.500000  1
  Si  Si10  1  0.379809  0.379169  0.123546  1
  Si  Si11  1  0.620191  0.620831  0.876454  1
  Si  Si12  1  0.118959  0.119150  0.622033  1
  Si  Si13  1  0.881041  0.880850  0.377967  1
  Hg  Hg14  1  0.783187  0.216234  0.997920  1
  Hg  Hg15  1  0.216814  0.783766  0.002080  1
  Hg  Hg16  1  0.713497  0.278800  0.499324  1
  Hg  Hg17  1  0.286503  0.721200  0.500676  1
