# generated using pymatgen
data_Ba2Li4La2Si7Ge
_symmetry_space_group_name_H-M   'P 1'
_cell_length_a   4.40164300
_cell_length_b   7.19137894
_cell_length_c   11.45407079
_cell_angle_alpha   89.31440840
_cell_angle_beta   90.00000000
_cell_angle_gamma   90.00000000
_symmetry_Int_Tables_number   1
_chemical_formula_structural   Ba2Li4La2Si7Ge
_chemical_formula_sum   'Ba2 Li4 La2 Si7 Ge1'
_cell_volume   362.53985791
_cell_formula_units_Z   1
loop_
 _symmetry_equiv_pos_site_id
 _symmetry_equiv_pos_as_xyz
  1  'x, y, z'
loop_
 _atom_site_type_symbol
 _atom_site_label
 _atom_site_symmetry_multiplicity
 _atom_site_fract_x
 _atom_site_fract_y
 _atom_site_fract_z
 _atom_site_occupancy
  Ba  Ba0  1  0.250000  0.632722  0.359634  1
  Ba  Ba1  1  0.750000  0.366274  0.640394  1
  Li  Li2  1  0.250000  0.117396  0.435303  1
  Li  Li3  1  0.750000  0.882921  0.563296  1
  Li  Li4  1  0.250000  0.624131  0.061763  1
  Li  Li5  1  0.750000  0.380503  0.938414  1
  La  La6  1  0.250000  0.135326  0.143133  1
  La  La7  1  0.750000  0.861772  0.857435  1
  Si  Si8  1  0.750000  0.463809  0.155192  1
  Si  Si9  1  0.250000  0.542092  0.844610  1
  Si  Si10  1  0.750000  0.967603  0.326679  1
  Si  Si11  1  0.250000  0.030253  0.670763  1
  Si  Si12  1  0.750000  0.292288  0.335587  1
  Si  Si13  1  0.250000  0.706337  0.662834  1
  Si  Si14  1  0.750000  0.803879  0.143637  1
  Ge  Ge15  1  0.250000  0.192693  0.861327  1
