# generated using pymatgen
data_Ce3In3Pd2Rh
_symmetry_space_group_name_H-M   'P 1'
_cell_length_a   7.68190100
_cell_length_b   7.68190126
_cell_length_c   4.02848000
_cell_angle_alpha   90.00000000
_cell_angle_beta   90.00000000
_cell_angle_gamma   119.99999459
_symmetry_Int_Tables_number   1
_chemical_formula_structural   Ce3In3Pd2Rh
_chemical_formula_sum   'Ce3 In3 Pd2 Rh1'
_cell_volume   205.87769325
_cell_formula_units_Z   1
loop_
 _symmetry_equiv_pos_site_id
 _symmetry_equiv_pos_as_xyz
  1  'x, y, z'
loop_
 _atom_site_type_symbol
 _atom_site_label
 _atom_site_symmetry_multiplicity
 _atom_site_fract_x
 _atom_site_fract_y
 _atom_site_fract_z
 _atom_site_occupancy
  Ce  Ce0  1  0.419310  0.410682  0.000000  1
  Ce  Ce1  1  0.589318  0.008627  0.000000  1
  Ce  Ce2  1  0.991373  0.580690  0.000000  1
  In  In3  1  0.747531  0.746883  0.500000  1
  In  In4  1  0.253117  0.000647  0.500000  1
  In  In5  1  0.999353  0.252469  0.500000  1
  Pd  Pd6  1  0.000000  0.000000  0.000000  1
  Pd  Pd7  1  0.333333  0.666667  0.500000  1
  Rh  Rh8  1  0.666667  0.333333  0.500000  1
