# generated using pymatgen
data_CeNd4Tm15Sn16
_symmetry_space_group_name_H-M   'P 1'
_cell_length_a   8.01845793
_cell_length_b   8.14870743
_cell_length_c   15.39623300
_cell_angle_alpha   90.00428908
_cell_angle_beta   89.87882676
_cell_angle_gamma   89.91293396
_symmetry_Int_Tables_number   1
_chemical_formula_structural   CeNd4Tm15Sn16
_chemical_formula_sum   'Ce1 Nd4 Tm15 Sn16'
_cell_volume   1005.98749306
_cell_formula_units_Z   1
loop_
 _symmetry_equiv_pos_site_id
 _symmetry_equiv_pos_as_xyz
  1  'x, y, z'
loop_
 _atom_site_type_symbol
 _atom_site_label
 _atom_site_symmetry_multiplicity
 _atom_site_fract_x
 _atom_site_fract_y
 _atom_site_fract_z
 _atom_site_occupancy
  Ce  Ce0  1  0.015597  0.179268  0.905337  1
  Nd  Nd1  1  0.983838  0.820762  0.096605  1
  Nd  Nd2  1  0.484112  0.676364  0.094082  1
  Nd  Nd3  1  0.982661  0.821614  0.404331  1
  Nd  Nd4  1  0.516458  0.322137  0.595456  1
  Tm  Tm5  1  0.361082  0.835593  0.876189  1
  Tm  Tm6  1  0.863560  0.662397  0.623152  1
  Tm  Tm7  1  0.635755  0.162853  0.377589  1
  Tm  Tm8  1  0.136731  0.336615  0.122518  1
  Tm  Tm9  1  0.635590  0.162931  0.123935  1
  Tm  Tm10  1  0.134690  0.337150  0.378245  1
  Tm  Tm11  1  0.364821  0.838073  0.623714  1
  Tm  Tm12  1  0.862458  0.661937  0.876184  1
  Tm  Tm13  1  0.522626  0.321106  0.900795  1
  Tm  Tm14  1  0.021815  0.179048  0.598980  1
  Tm  Tm15  1  0.478372  0.678335  0.403029  1
  Tm  Tm16  1  0.195531  0.502979  0.749391  1
  Tm  Tm17  1  0.695701  0.996445  0.749484  1
  Tm  Tm18  1  0.803209  0.496670  0.250779  1
  Tm  Tm19  1  0.304244  0.004498  0.250965  1
  Sn  Sn20  1  0.303538  0.043101  0.040093  1
  Sn  Sn21  1  0.795077  0.463876  0.456948  1
  Sn  Sn22  1  0.704675  0.963771  0.543743  1
  Sn  Sn23  1  0.203427  0.533163  0.955335  1
  Sn  Sn24  1  0.696546  0.962597  0.956987  1
  Sn  Sn25  1  0.200479  0.543113  0.540661  1
  Sn  Sn26  1  0.299179  0.041284  0.460237  1
  Sn  Sn27  1  0.799058  0.454321  0.039023  1
  Sn  Sn28  1  0.560974  0.620352  0.750263  1
  Sn  Sn29  1  0.060375  0.880208  0.750229  1
  Sn  Sn30  1  0.437704  0.377478  0.250748  1
  Sn  Sn31  1  0.937697  0.124093  0.249994  1
  Sn  Sn32  1  0.327082  0.147212  0.752317  1
  Sn  Sn33  1  0.829522  0.351903  0.749537  1
  Sn  Sn34  1  0.669456  0.853143  0.252242  1
  Sn  Sn35  1  0.176362  0.643605  0.250884  1
