# generated using pymatgen
data_Er3Tm5In3Os
_symmetry_space_group_name_H-M   'P 1'
_cell_length_a   10.27251100
_cell_length_b   10.27251033
_cell_length_c   7.02372400
_cell_angle_alpha   90.00000000
_cell_angle_beta   90.00000000
_cell_angle_gamma   119.99999894
_symmetry_Int_Tables_number   1
_chemical_formula_structural   Er3Tm5In3Os
_chemical_formula_sum   'Er6 Tm10 In6 Os2'
_cell_volume   641.87620370
_cell_formula_units_Z   2
loop_
 _symmetry_equiv_pos_site_id
 _symmetry_equiv_pos_as_xyz
  1  'x, y, z'
loop_
 _atom_site_type_symbol
 _atom_site_label
 _atom_site_symmetry_multiplicity
 _atom_site_fract_x
 _atom_site_fract_y
 _atom_site_fract_z
 _atom_site_occupancy
  Er  Er0  1  0.532841  0.065683  0.515188  1
  Er  Er1  1  0.934317  0.467159  0.515188  1
  Er  Er2  1  0.532841  0.467159  0.515188  1
  Er  Er3  1  0.467159  0.934317  0.015188  1
  Er  Er4  1  0.065683  0.532841  0.015188  1
  Er  Er5  1  0.467159  0.532841  0.015188  1
  Tm  Tm6  1  0.177304  0.354609  0.720259  1
  Tm  Tm7  1  0.645391  0.822696  0.720259  1
  Tm  Tm8  1  0.177304  0.822696  0.720259  1
  Tm  Tm9  1  0.822696  0.645391  0.220259  1
  Tm  Tm10  1  0.354609  0.177304  0.220259  1
  Tm  Tm11  1  0.822696  0.177304  0.220259  1
  Tm  Tm12  1  0.666667  0.333333  0.894411  1
  Tm  Tm13  1  0.333333  0.666667  0.394411  1
  Tm  Tm14  1  0.000000  0.000000  0.500127  1
  Tm  Tm15  1  0.000000  0.000000  0.000127  1
  In  In16  1  0.837049  0.674097  0.762241  1
  In  In17  1  0.325903  0.162951  0.762241  1
  In  In18  1  0.837049  0.162951  0.762241  1
  In  In19  1  0.162951  0.325903  0.262241  1
  In  In20  1  0.674097  0.837049  0.262241  1
  In  In21  1  0.162951  0.837049  0.262241  1
  Os  Os22  1  0.666667  0.333333  0.291398  1
  Os  Os23  1  0.333333  0.666667  0.791398  1
