# generated using pymatgen
data_IrRhBr18
_symmetry_space_group_name_H-M   'P 1'
_cell_length_a   9.08617973
_cell_length_b   9.08617736
_cell_length_c   9.08617811
_cell_angle_alpha   92.88805123
_cell_angle_beta   92.88805178
_cell_angle_gamma   92.88805661
_symmetry_Int_Tables_number   1
_chemical_formula_structural   IrRhBr18
_chemical_formula_sum   'Ir1 Rh1 Br18'
_cell_volume   747.18424343
_cell_formula_units_Z   1
loop_
 _symmetry_equiv_pos_site_id
 _symmetry_equiv_pos_as_xyz
  1  'x, y, z'
loop_
 _atom_site_type_symbol
 _atom_site_label
 _atom_site_symmetry_multiplicity
 _atom_site_fract_x
 _atom_site_fract_y
 _atom_site_fract_z
 _atom_site_occupancy
  Ir  Ir0  1  0.000000  0.000000  0.000000  1
  Rh  Rh1  1  0.500000  0.500000  0.500000  1
  Br  Br2  1  0.274588  0.997344  0.023716  1
  Br  Br3  1  0.023716  0.274588  0.997344  1
  Br  Br4  1  0.997344  0.023716  0.274588  1
  Br  Br5  1  0.725412  0.002656  0.976284  1
  Br  Br6  1  0.976284  0.725412  0.002656  1
  Br  Br7  1  0.002656  0.976284  0.725412  1
  Br  Br8  1  0.632595  0.227953  0.124125  1
  Br  Br9  1  0.124125  0.632595  0.227953  1
  Br  Br10  1  0.227953  0.124125  0.632595  1
  Br  Br11  1  0.367405  0.772047  0.875875  1
  Br  Br12  1  0.875875  0.367405  0.772047  1
  Br  Br13  1  0.772047  0.875875  0.367405  1
  Br  Br14  1  0.464555  0.226903  0.522461  1
  Br  Br15  1  0.522461  0.464555  0.226903  1
  Br  Br16  1  0.226903  0.522461  0.464555  1
  Br  Br17  1  0.535445  0.773097  0.477539  1
  Br  Br18  1  0.477539  0.535445  0.773097  1
  Br  Br19  1  0.773097  0.477539  0.535445  1
