# generated using pymatgen
data_Cd2Bi2Ir3RuO14
_symmetry_space_group_name_H-M   'P 1'
_cell_length_a   7.29233236
_cell_length_b   7.30802026
_cell_length_c   7.29233225
_cell_angle_alpha   119.13043454
_cell_angle_beta   120.77343510
_cell_angle_gamma   90.02908788
_symmetry_Int_Tables_number   1
_chemical_formula_structural   Cd2Bi2Ir3RuO14
_chemical_formula_sum   'Cd2 Bi2 Ir3 Ru1 O14'
_cell_volume   275.07332135
_cell_formula_units_Z   1
loop_
 _symmetry_equiv_pos_site_id
 _symmetry_equiv_pos_as_xyz
  1  'x, y, z'
loop_
 _atom_site_type_symbol
 _atom_site_label
 _atom_site_symmetry_multiplicity
 _atom_site_fract_x
 _atom_site_fract_y
 _atom_site_fract_z
 _atom_site_occupancy
  Cd  Cd0  1  0.500000  0.500000  0.000000  1
  Cd  Cd1  1  0.000000  0.500000  0.500000  1
  Bi  Bi2  1  0.500000  0.500000  0.500000  1
  Bi  Bi3  1  0.500000  0.000000  0.000000  1
  Ir  Ir4  1  0.000000  0.000000  0.500000  1
  Ir  Ir5  1  0.000000  0.000000  0.000000  1
  Ir  Ir6  1  0.500000  0.000000  0.500000  1
  Ru  Ru7  1  0.000000  0.500000  0.000000  1
  O  O8  1  0.332158  0.078832  0.661331  1
  O  O9  1  0.917502  0.078832  0.246676  1
  O  O10  1  0.935259  0.684076  0.248817  1
  O  O11  1  0.914933  0.676577  0.849594  1
  O  O12  1  0.326985  0.676577  0.261646  1
  O  O13  1  0.331308  0.082266  0.250958  1
  O  O14  1  0.667842  0.921168  0.338669  1
  O  O15  1  0.082498  0.921168  0.753324  1
  O  O16  1  0.064741  0.315924  0.751183  1
  O  O17  1  0.085067  0.323423  0.150406  1
  O  O18  1  0.673015  0.323423  0.738354  1
  O  O19  1  0.668692  0.917734  0.749042  1
  O  O20  1  0.632717  0.383130  0.250413  1
  O  O21  1  0.367283  0.616870  0.749587  1
