# generated using pymatgen
data_Tb2Cu5P4Pd3
_symmetry_space_group_name_H-M   'P 1'
_cell_length_a   7.37659608
_cell_length_b   7.42728069
_cell_length_c   3.84140000
_cell_angle_alpha   90.00000000
_cell_angle_beta   90.00000000
_cell_angle_gamma   89.65842258
_symmetry_Int_Tables_number   1
_chemical_formula_structural   Tb2Cu5P4Pd3
_chemical_formula_sum   'Tb2 Cu5 P4 Pd3'
_cell_volume   210.45907371
_cell_formula_units_Z   1
loop_
 _symmetry_equiv_pos_site_id
 _symmetry_equiv_pos_as_xyz
  1  'x, y, z'
loop_
 _atom_site_type_symbol
 _atom_site_label
 _atom_site_symmetry_multiplicity
 _atom_site_fract_x
 _atom_site_fract_y
 _atom_site_fract_z
 _atom_site_occupancy
  Tb  Tb0  1  0.998702  0.003703  0.500000  1
  Tb  Tb1  1  0.497774  0.500109  0.000000  1
  Cu  Cu2  1  0.908818  0.669153  0.000000  1
  Cu  Cu3  1  0.421457  0.844799  0.500000  1
  Cu  Cu4  1  0.578986  0.154985  0.500000  1
  Cu  Cu5  1  0.348939  0.076057  0.000000  1
  Cu  Cu6  1  0.664201  0.914062  0.000000  1
  P  P7  1  0.772932  0.207538  0.000000  1
  P  P8  1  0.716202  0.723862  0.500000  1
  P  P9  1  0.287791  0.275833  0.500000  1
  P  P10  1  0.216455  0.791221  0.000000  1
  Pd  Pd11  1  0.096471  0.328548  0.000000  1
  Pd  Pd12  1  0.821794  0.412160  0.500000  1
  Pd  Pd13  1  0.169479  0.597971  0.500000  1
