# generated using pymatgen
data_YbGd2Te2(SO7)2
_symmetry_space_group_name_H-M   'P 1'
_cell_length_a   5.41491967
_cell_length_b   8.06529961
_cell_length_c   8.53199833
_cell_angle_alpha   113.55195412
_cell_angle_beta   105.34793564
_cell_angle_gamma   86.04741350
_symmetry_Int_Tables_number   1
_chemical_formula_structural   YbGd2Te2(SO7)2
_chemical_formula_sum   'Yb1 Gd2 Te2 S2 O14'
_cell_volume   329.10986767
_cell_formula_units_Z   1
loop_
 _symmetry_equiv_pos_site_id
 _symmetry_equiv_pos_as_xyz
  1  'x, y, z'
loop_
 _atom_site_type_symbol
 _atom_site_label
 _atom_site_symmetry_multiplicity
 _atom_site_fract_x
 _atom_site_fract_y
 _atom_site_fract_z
 _atom_site_occupancy
  Yb  Yb0  1  0.000000  0.000000  0.500000  1
  Gd  Gd1  1  0.080265  0.250548  0.982000  1
  Gd  Gd2  1  0.919735  0.749452  0.018000  1
  Te  Te3  1  0.531094  0.296939  0.693617  1
  Te  Te4  1  0.468906  0.703061  0.306383  1
  S  S5  1  0.755029  0.241730  0.239388  1
  S  S6  1  0.244971  0.758270  0.760612  1
  O  O7  1  0.883030  0.399391  0.239746  1
  O  O8  1  0.116970  0.600609  0.760254  1
  O  O9  1  0.841332  0.228044  0.412948  1
  O  O10  1  0.158668  0.771956  0.587052  1
  O  O11  1  0.472153  0.255092  0.193818  1
  O  O12  1  0.527847  0.744908  0.806182  1
  O  O13  1  0.834779  0.078625  0.097854  1
  O  O14  1  0.165221  0.921375  0.902146  1
  O  O15  1  0.752518  0.451335  0.910736  1
  O  O16  1  0.247482  0.548665  0.089264  1
  O  O17  1  0.277870  0.208023  0.760286  1
  O  O18  1  0.722130  0.791977  0.239714  1
  O  O19  1  0.754571  0.105474  0.695752  1
  O  O20  1  0.245429  0.894526  0.304248  1
