# generated using pymatgen
data_Sc20Bi8As3Se
_symmetry_space_group_name_H-M   'P 1'
_cell_length_a   7.55943870
_cell_length_b   8.68109900
_cell_length_c   11.32453254
_cell_angle_alpha   90.00000000
_cell_angle_beta   90.26165221
_cell_angle_gamma   90.00000000
_symmetry_Int_Tables_number   1
_chemical_formula_structural   Sc20Bi8As3Se
_chemical_formula_sum   'Sc20 Bi8 As3 Se1'
_cell_volume   743.15604321
_cell_formula_units_Z   1
loop_
 _symmetry_equiv_pos_site_id
 _symmetry_equiv_pos_as_xyz
  1  'x, y, z'
loop_
 _atom_site_type_symbol
 _atom_site_label
 _atom_site_symmetry_multiplicity
 _atom_site_fract_x
 _atom_site_fract_y
 _atom_site_fract_z
 _atom_site_occupancy
  Sc  Sc0  1  0.184338  0.057842  0.938977  1
  Sc  Sc1  1  0.316458  0.059313  0.439802  1
  Sc  Sc2  1  0.316458  0.440687  0.439802  1
  Sc  Sc3  1  0.342047  0.750000  0.710707  1
  Sc  Sc4  1  0.465627  0.750000  0.001997  1
  Sc  Sc5  1  0.140009  0.250000  0.207704  1
  Sc  Sc6  1  0.817715  0.938956  0.060117  1
  Sc  Sc7  1  0.638628  0.750000  0.291288  1
  Sc  Sc8  1  0.035472  0.750000  0.501311  1
  Sc  Sc9  1  0.683139  0.940722  0.560420  1
  Sc  Sc10  1  0.184338  0.442158  0.938977  1
  Sc  Sc11  1  0.360139  0.250000  0.709736  1
  Sc  Sc12  1  0.158002  0.750000  0.210366  1
  Sc  Sc13  1  0.964976  0.250000  0.498444  1
  Sc  Sc14  1  0.683139  0.559278  0.560420  1
  Sc  Sc15  1  0.653315  0.250000  0.294182  1
  Sc  Sc16  1  0.817715  0.561044  0.060117  1
  Sc  Sc17  1  0.532212  0.250000  0.998295  1
  Sc  Sc18  1  0.840704  0.250000  0.787184  1
  Sc  Sc19  1  0.860989  0.750000  0.791516  1
  Bi  Bi20  1  0.070807  0.489623  0.674099  1
  Bi  Bi21  1  0.571815  0.510465  0.826244  1
  Bi  Bi22  1  0.928787  0.990380  0.324925  1
  Bi  Bi23  1  0.429652  0.010595  0.174240  1
  Bi  Bi24  1  0.571815  0.989535  0.826244  1
  Bi  Bi25  1  0.429652  0.489405  0.174240  1
  Bi  Bi26  1  0.070807  0.010377  0.674099  1
  Bi  Bi27  1  0.928787  0.509620  0.324925  1
  As  As28  1  0.410922  0.750000  0.476485  1
  As  As29  1  0.090795  0.750000  0.976012  1
  As  As30  1  0.588799  0.250000  0.526730  1
  Se  Se31  1  0.911937  0.250000  0.020393  1
