# generated using pymatgen
data_CaSb2PbO7
_symmetry_space_group_name_H-M   'P 1'
_cell_length_a   7.51196776
_cell_length_b   7.51196836
_cell_length_c   7.51196909
_cell_angle_alpha   120.47680727
_cell_angle_beta   118.29363135
_cell_angle_gamma   91.07837547
_symmetry_Int_Tables_number   1
_chemical_formula_structural   CaSb2PbO7
_chemical_formula_sum   'Ca2 Sb4 Pb2 O14'
_cell_volume   302.33428347
_cell_formula_units_Z   2
loop_
 _symmetry_equiv_pos_site_id
 _symmetry_equiv_pos_as_xyz
  1  'x, y, z'
loop_
 _atom_site_type_symbol
 _atom_site_label
 _atom_site_symmetry_multiplicity
 _atom_site_fract_x
 _atom_site_fract_y
 _atom_site_fract_z
 _atom_site_occupancy
  Ca  Ca0  1  0.000000  0.000000  0.000000  1
  Ca  Ca1  1  0.500000  0.500000  0.000000  1
  Sb  Sb2  1  0.500000  0.000000  0.000000  1
  Sb  Sb3  1  0.500000  0.500000  0.500000  1
  Sb  Sb4  1  0.500000  0.000000  0.500000  1
  Sb  Sb5  1  0.000000  0.500000  0.500000  1
  Pb  Pb6  1  0.000000  0.000000  0.500000  1
  Pb  Pb7  1  0.000000  0.500000  0.000000  1
  O  O8  1  0.447063  0.090638  0.773770  1
  O  O9  1  0.552937  0.326707  0.643575  1
  O  O10  1  0.183133  0.409363  0.356425  1
  O  O11  1  0.816867  0.173293  0.226230  1
  O  O12  1  0.552937  0.909363  0.226230  1
  O  O13  1  0.447063  0.673293  0.356425  1
  O  O14  1  0.816867  0.590637  0.643575  1
  O  O15  1  0.183133  0.826707  0.773770  1
  O  O16  1  0.596790  0.750000  0.846790  1
  O  O17  1  0.403210  0.250000  0.153210  1
  O  O18  1  0.188539  0.917234  0.271305  1
  O  O19  1  0.811461  0.082766  0.728695  1
  O  O20  1  0.854071  0.582766  0.271305  1
  O  O21  1  0.145929  0.417234  0.728695  1
