# generated using pymatgen
data_Y6Ni7P12Rh11
_symmetry_space_group_name_H-M   'P 1'
_cell_length_a   3.88179002
_cell_length_b   10.85009306
_cell_length_c   12.67289431
_cell_angle_alpha   89.80732540
_cell_angle_beta   89.99143479
_cell_angle_gamma   89.99104124
_symmetry_Int_Tables_number   1
_chemical_formula_structural   Y6Ni7P12Rh11
_chemical_formula_sum   'Y6 Ni7 P12 Rh11'
_cell_volume   533.75118216
_cell_formula_units_Z   1
loop_
 _symmetry_equiv_pos_site_id
 _symmetry_equiv_pos_as_xyz
  1  'x, y, z'
loop_
 _atom_site_type_symbol
 _atom_site_label
 _atom_site_symmetry_multiplicity
 _atom_site_fract_x
 _atom_site_fract_y
 _atom_site_fract_z
 _atom_site_occupancy
  Y  Y0  1  0.751592  0.999709  0.477129  1
  Y  Y1  1  0.251614  0.500089  0.523965  1
  Y  Y2  1  0.251706  0.679744  0.799159  1
  Y  Y3  1  0.251833  0.325745  0.797394  1
  Y  Y4  1  0.752079  0.818183  0.201888  1
  Y  Y5  1  0.751896  0.177662  0.201892  1
  Ni  Ni6  1  0.752264  0.997558  0.015546  1
  Ni  Ni7  1  0.252301  0.502703  0.982207  1
  Ni  Ni8  1  0.252258  0.830767  0.015836  1
  Ni  Ni9  1  0.752087  0.340404  0.991827  1
  Ni  Ni10  1  0.752611  0.668623  0.988109  1
  Ni  Ni11  1  0.251674  0.999052  0.298431  1
  Ni  Ni12  1  0.751582  0.500850  0.701042  1
  P  P13  1  0.251687  0.179168  0.378418  1
  P  P14  1  0.251658  0.820377  0.379016  1
  P  P15  1  0.751496  0.319921  0.621204  1
  P  P16  1  0.751534  0.678780  0.620495  1
  P  P17  1  0.252127  0.996497  0.126106  1
  P  P18  1  0.752011  0.501529  0.874760  1
  P  P19  1  0.252389  0.650938  0.101092  1
  P  P20  1  0.251963  0.353228  0.101057  1
  P  P21  1  0.751518  0.848045  0.898748  1
  P  P22  1  0.752275  0.157405  0.899315  1
  P  P23  1  0.251388  0.002997  0.658511  1
  P  P24  1  0.751778  0.498835  0.342391  1
  Rh  Rh25  1  0.251567  0.201840  0.568465  1
  Rh  Rh26  1  0.251498  0.795416  0.569021  1
  Rh  Rh27  1  0.751598  0.298389  0.431740  1
  Rh  Rh28  1  0.751717  0.703572  0.431321  1
  Rh  Rh29  1  0.251940  0.625929  0.287377  1
  Rh  Rh30  1  0.251722  0.373159  0.284780  1
  Rh  Rh31  1  0.751254  0.873110  0.710989  1
  Rh  Rh32  1  0.751462  0.127063  0.717020  1
  Rh  Rh33  1  0.252274  0.167521  0.004364  1
  Rh  Rh34  1  0.251058  0.978797  0.844998  1
  Rh  Rh35  1  0.752196  0.506397  0.154387  1
