# generated using pymatgen
data_Rb6TmInAs4
_symmetry_space_group_name_H-M   'P 1'
_cell_length_a   9.66853237
_cell_length_b   9.66853332
_cell_length_c   9.66853105
_cell_angle_alpha   128.89381668
_cell_angle_beta   68.70426724
_cell_angle_gamma   137.33280965
_symmetry_Int_Tables_number   1
_chemical_formula_structural   Rb6TmInAs4
_chemical_formula_sum   'Rb6 Tm1 In1 As4'
_cell_volume   468.37128057
_cell_formula_units_Z   1
loop_
 _symmetry_equiv_pos_site_id
 _symmetry_equiv_pos_as_xyz
  1  'x, y, z'
loop_
 _atom_site_type_symbol
 _atom_site_label
 _atom_site_symmetry_multiplicity
 _atom_site_fract_x
 _atom_site_fract_y
 _atom_site_fract_z
 _atom_site_occupancy
  Rb  Rb0  1  0.804702  0.189024  0.011092  1
  Rb  Rb1  1  0.695298  0.706390  0.384324  1
  Rb  Rb2  1  0.750000  0.250000  0.500000  1
  Rb  Rb3  1  0.250000  0.750000  0.500001  1
  Rb  Rb4  1  0.322068  0.310975  0.615677  1
  Rb  Rb5  1  0.177932  0.793610  0.988907  1
  Tm  Tm6  1  0.250000  0.250000  0.000000  1
  In  In7  1  0.750000  0.750000  0.000000  1
  As  As8  1  0.407233  0.690248  0.089718  1
  As  As9  1  0.092767  0.182486  0.283016  1
  As  As10  1  0.899469  0.809752  0.716984  1
  As  As11  1  0.600530  0.317515  0.910282  1
