# generated using pymatgen
data_NaLu3As6Rh7
_symmetry_space_group_name_H-M   'P 1'
_cell_length_a   7.20281787
_cell_length_b   7.20281821
_cell_length_c   7.20281577
_cell_angle_alpha   109.49107372
_cell_angle_beta   109.49107505
_cell_angle_gamma   109.49107580
_symmetry_Int_Tables_number   1
_chemical_formula_structural   NaLu3As6Rh7
_chemical_formula_sum   'Na1 Lu3 As6 Rh7'
_cell_volume   287.45220854
_cell_formula_units_Z   1
loop_
 _symmetry_equiv_pos_site_id
 _symmetry_equiv_pos_as_xyz
  1  'x, y, z'
loop_
 _atom_site_type_symbol
 _atom_site_label
 _atom_site_symmetry_multiplicity
 _atom_site_fract_x
 _atom_site_fract_y
 _atom_site_fract_z
 _atom_site_occupancy
  Na  Na0  1  0.500000  0.500000  0.500000  1
  Lu  Lu1  1  0.000000  0.500000  0.000000  1
  Lu  Lu2  1  0.500000  0.000000  0.000000  1
  Lu  Lu3  1  0.000000  0.000000  0.500000  1
  As  As4  1  0.679801  0.995358  0.679801  1
  As  As5  1  0.679801  0.679801  0.995358  1
  As  As6  1  0.320199  0.320199  0.004642  1
  As  As7  1  0.995358  0.679801  0.679801  1
  As  As8  1  0.004642  0.320199  0.320199  1
  As  As9  1  0.320199  0.004642  0.320199  1
  Rh  Rh10  1  0.500000  0.751901  0.248099  1
  Rh  Rh11  1  0.751901  0.248099  0.500000  1
  Rh  Rh12  1  0.248099  0.751901  0.500000  1
  Rh  Rh13  1  0.248099  0.500000  0.751901  1
  Rh  Rh14  1  0.000000  0.000000  0.000000  1
  Rh  Rh15  1  0.500000  0.248099  0.751901  1
  Rh  Rh16  1  0.751901  0.500000  0.248099  1
