# generated using pymatgen
data_Rb4GdUTe6
_symmetry_space_group_name_H-M   'P 1'
_cell_length_a   8.24611921
_cell_length_b   8.24611931
_cell_length_c   9.00722769
_cell_angle_alpha   81.11126721
_cell_angle_beta   81.11126297
_cell_angle_gamma   120.29307519
_symmetry_Int_Tables_number   1
_chemical_formula_structural   Rb4GdUTe6
_chemical_formula_sum   'Rb4 Gd1 U1 Te6'
_cell_volume   502.72462855
_cell_formula_units_Z   1
loop_
 _symmetry_equiv_pos_site_id
 _symmetry_equiv_pos_as_xyz
  1  'x, y, z'
loop_
 _atom_site_type_symbol
 _atom_site_label
 _atom_site_symmetry_multiplicity
 _atom_site_fract_x
 _atom_site_fract_y
 _atom_site_fract_z
 _atom_site_occupancy
  Rb  Rb0  1  0.499967  0.500033  0.000000  1
  Rb  Rb1  1  0.655662  0.344338  0.500000  1
  Rb  Rb2  1  0.344243  0.655757  0.500000  1
  Rb  Rb3  1  0.000047  0.999953  0.500000  1
  Gd  Gd4  1  0.832796  0.167204  0.000000  1
  U  U5  1  0.167406  0.832594  0.000000  1
  Te  Te6  1  0.815863  0.805099  0.199872  1
  Te  Te7  1  0.194901  0.184137  0.800128  1
  Te  Te8  1  0.420206  0.046303  0.201988  1
  Te  Te9  1  0.557611  0.942400  0.797798  1
  Te  Te10  1  0.953697  0.579794  0.798012  1
  Te  Te11  1  0.057600  0.442389  0.202202  1
