# generated using pymatgen
data_Li4Ho(ThSi2)2
_symmetry_space_group_name_H-M   'P 1'
_cell_length_a   4.35449781
_cell_length_b   6.78318665
_cell_length_c   8.20430832
_cell_angle_alpha   114.41807277
_cell_angle_beta   105.38945838
_cell_angle_gamma   89.99999305
_symmetry_Int_Tables_number   1
_chemical_formula_structural   Li4Ho(ThSi2)2
_chemical_formula_sum   'Li4 Ho1 Th2 Si4'
_cell_volume   211.07828667
_cell_formula_units_Z   1
loop_
 _symmetry_equiv_pos_site_id
 _symmetry_equiv_pos_as_xyz
  1  'x, y, z'
loop_
 _atom_site_type_symbol
 _atom_site_label
 _atom_site_symmetry_multiplicity
 _atom_site_fract_x
 _atom_site_fract_y
 _atom_site_fract_z
 _atom_site_occupancy
  Li  Li0  1  0.672538  0.988203  0.345075  1
  Li  Li1  1  0.329837  0.021341  0.659674  1
  Li  Li2  1  0.329837  0.638334  0.659674  1
  Li  Li3  1  0.672538  0.356871  0.345075  1
  Ho  Ho4  1  0.871535  0.371535  0.743071  1
  Th  Th5  1  0.998430  0.998430  0.996858  1
  Th  Th6  1  0.127439  0.627439  0.254876  1
  Si  Si7  1  0.499378  0.678196  0.998755  1
  Si  Si8  1  0.499378  0.320560  0.998755  1
  Si  Si9  1  0.784511  0.784511  0.569023  1
  Si  Si10  1  0.214581  0.214581  0.429163  1
