# generated using pymatgen
data_La2Pr2Sn8Ir3Rh
_symmetry_space_group_name_H-M   'P 1'
_cell_length_a   8.89165047
_cell_length_b   8.89165080
_cell_length_c   9.72250186
_cell_angle_alpha   89.90192156
_cell_angle_beta   90.09807776
_cell_angle_gamma   149.31415345
_symmetry_Int_Tables_number   1
_chemical_formula_structural   La2Pr2Sn8Ir3Rh
_chemical_formula_sum   'La2 Pr2 Sn8 Ir3 Rh1'
_cell_volume   392.27773087
_cell_formula_units_Z   1
loop_
 _symmetry_equiv_pos_site_id
 _symmetry_equiv_pos_as_xyz
  1  'x, y, z'
loop_
 _atom_site_type_symbol
 _atom_site_label
 _atom_site_symmetry_multiplicity
 _atom_site_fract_x
 _atom_site_fract_y
 _atom_site_fract_z
 _atom_site_occupancy
  La  La0  1  0.501393  0.498607  0.499666  1
  La  La1  1  0.499852  0.500148  0.000533  1
  Pr  Pr2  1  0.296151  0.703849  0.249369  1
  Pr  Pr3  1  0.703180  0.296820  0.750057  1
  Sn  Sn4  1  0.908675  0.091325  0.749341  1
  Sn  Sn5  1  0.923902  0.076098  0.250731  1
  Sn  Sn6  1  0.090236  0.909764  0.250069  1
  Sn  Sn7  1  0.075543  0.924457  0.749774  1
  Sn  Sn8  1  0.698149  0.301851  0.409514  1
  Sn  Sn9  1  0.302892  0.697108  0.590506  1
  Sn  Sn10  1  0.301941  0.698059  0.909593  1
  Sn  Sn11  1  0.698125  0.301875  0.090097  1
  Ir  Ir12  1  0.147293  0.852707  0.505102  1
  Ir  Ir13  1  0.853014  0.146986  0.004490  1
  Ir  Ir14  1  0.147174  0.852826  0.995265  1
  Rh  Rh15  1  0.852480  0.147520  0.495891  1
