# generated using pymatgen
data_P2AuIO8
_symmetry_space_group_name_H-M   'P 1'
_cell_length_a   4.94604340
_cell_length_b   5.11922241
_cell_length_c   8.17445094
_cell_angle_alpha   84.85897189
_cell_angle_beta   83.85579149
_cell_angle_gamma   73.07600210
_symmetry_Int_Tables_number   1
_chemical_formula_structural   P2AuIO8
_chemical_formula_sum   'P2 Au1 I1 O8'
_cell_volume   196.50296316
_cell_formula_units_Z   1
loop_
 _symmetry_equiv_pos_site_id
 _symmetry_equiv_pos_as_xyz
  1  'x, y, z'
loop_
 _atom_site_type_symbol
 _atom_site_label
 _atom_site_symmetry_multiplicity
 _atom_site_fract_x
 _atom_site_fract_y
 _atom_site_fract_z
 _atom_site_occupancy
  P  P0  1  0.075711  0.930190  0.758356  1
  P  P1  1  0.924289  0.069810  0.241644  1
  Au  Au2  1  0.500000  0.000000  0.000000  1
  I  I3  1  0.000000  0.500000  0.500000  1
  O  O4  1  0.252256  0.807416  0.908506  1
  O  O5  1  0.199391  0.754419  0.605880  1
  O  O6  1  0.747744  0.192584  0.091494  1
  O  O7  1  0.800609  0.245581  0.394120  1
  O  O8  1  0.768532  0.905159  0.796607  1
  O  O9  1  0.091523  0.227256  0.718244  1
  O  O10  1  0.231468  0.094841  0.203393  1
  O  O11  1  0.908477  0.772744  0.281756  1
