# generated using pymatgen
data_LaPr6Tc2Os2C9
_symmetry_space_group_name_H-M   'P 1'
_cell_length_a   6.57569640
_cell_length_b   6.57569672
_cell_length_c   12.02314485
_cell_angle_alpha   71.19895504
_cell_angle_beta   71.19895303
_cell_angle_gamma   48.09335097
_symmetry_Int_Tables_number   1
_chemical_formula_structural   LaPr6Tc2Os2C9
_chemical_formula_sum   'La1 Pr6 Tc2 Os2 C9'
_cell_volume   362.01603194
_cell_formula_units_Z   1
loop_
 _symmetry_equiv_pos_site_id
 _symmetry_equiv_pos_as_xyz
  1  'x, y, z'
loop_
 _atom_site_type_symbol
 _atom_site_label
 _atom_site_symmetry_multiplicity
 _atom_site_fract_x
 _atom_site_fract_y
 _atom_site_fract_z
 _atom_site_occupancy
  La  La0  1  0.628326  0.628326  0.155699  1
  Pr  Pr1  1  0.376035  0.376035  0.841469  1
  Pr  Pr2  1  0.144218  0.144218  0.683837  1
  Pr  Pr3  1  0.855394  0.855394  0.317857  1
  Pr  Pr4  1  0.138139  0.138139  0.379372  1
  Pr  Pr5  1  0.861610  0.861610  0.621094  1
  Pr  Pr6  1  0.001533  0.001533  0.999273  1
  Tc  Tc7  1  0.357017  0.357017  0.140224  1
  Tc  Tc8  1  0.565368  0.565368  0.570327  1
  Os  Os9  1  0.433858  0.433858  0.429635  1
  Os  Os10  1  0.643861  0.643861  0.859166  1
  C  C11  1  0.382585  0.382585  0.290933  1
  C  C12  1  0.923083  0.923083  0.820610  1
  C  C13  1  0.390945  0.390945  0.611881  1
  C  C14  1  0.192995  0.192995  0.142266  1
  C  C15  1  0.805232  0.805232  0.856691  1
  C  C16  1  0.499203  0.499203  0.998991  1
  C  C17  1  0.074937  0.074937  0.182839  1
  C  C18  1  0.616818  0.616818  0.709763  1
  C  C19  1  0.608842  0.608842  0.388074  1
