# generated using pymatgen
data_ZrS35
_symmetry_space_group_name_H-M   'P 1'
_cell_length_a   18.52378684
_cell_length_b   7.82951685
_cell_length_c   10.39886355
_cell_angle_alpha   65.09488437
_cell_angle_beta   94.02866647
_cell_angle_gamma   93.65114078
_symmetry_Int_Tables_number   1
_chemical_formula_structural   ZrS35
_chemical_formula_sum   'Zr1 S35'
_cell_volume   1363.57153454
_cell_formula_units_Z   1
loop_
 _symmetry_equiv_pos_site_id
 _symmetry_equiv_pos_as_xyz
  1  'x, y, z'
loop_
 _atom_site_type_symbol
 _atom_site_label
 _atom_site_symmetry_multiplicity
 _atom_site_fract_x
 _atom_site_fract_y
 _atom_site_fract_z
 _atom_site_occupancy
  Zr  Zr0  1  0.808328  0.208846  0.157582  1
  S  S1  1  0.344116  0.918105  0.753184  1
  S  S2  1  0.368590  0.691948  0.238830  1
  S  S3  1  0.842539  0.146037  0.833416  1
  S  S4  1  0.988006  0.886718  0.917347  1
  S  S5  1  0.567505  0.280254  0.924844  1
  S  S6  1  0.980060  0.324852  0.221960  1
  S  S7  1  0.490814  0.887918  0.575424  1
  S  S8  1  0.757144  0.755478  0.402870  1
  S  S9  1  0.272896  0.401084  0.579376  1
  S  S10  1  0.221289  0.893311  0.049501  1
  S  S11  1  0.742667  0.893007  0.187363  1
  S  S12  1  0.818517  0.950503  0.454873  1
  S  S13  1  0.544249  0.104562  0.134262  1
  S  S14  1  0.703001  0.300697  0.257971  1
  S  S15  1  0.225499  0.471911  0.716277  1
  S  S16  1  0.947238  0.059515  0.224755  1
  S  S17  1  0.456433  0.987985  0.698656  1
  S  S18  1  0.884759  0.357010  0.900439  1
  S  S19  1  0.296785  0.921039  0.562439  1
  S  S20  1  0.442677  0.310654  0.549955  1
  S  S21  1  0.443307  0.757214  0.084611  1
  S  S22  1  0.741396  0.439373  0.931381  1
  S  S23  1  0.176595  0.433824  0.185636  1
  S  S24  1  0.935670  0.866723  0.426442  1
  S  S25  1  0.152738  0.671369  0.186480  1
  S  S26  1  0.702228  0.104038  0.457145  1
  S  S27  1  0.204403  0.764394  0.617843  1
  S  S28  1  0.004169  0.315626  0.892994  1
  S  S29  1  0.541081  0.829221  0.161357  1
  S  S30  1  0.873038  0.895093  0.975488  1
  S  S31  1  0.303284  0.917870  0.185325  1
  S  S32  1  0.881617  0.423002  0.244641  1
  S  S33  1  0.386808  0.421930  0.646357  1
  S  S34  1  0.671048  0.250658  0.884427  1
  S  S35  1  0.003270  0.158230  0.778548  1
