# generated using pymatgen
data_Tb12In2Si3Ru
_symmetry_space_group_name_H-M   'P 1'
_cell_length_a   8.56386095
_cell_length_b   8.56402080
_cell_length_c   8.56386104
_cell_angle_alpha   111.40631173
_cell_angle_beta   111.39747772
_cell_angle_gamma   105.67455949
_symmetry_Int_Tables_number   1
_chemical_formula_structural   Tb12In2Si3Ru
_chemical_formula_sum   'Tb12 In2 Si3 Ru1'
_cell_volume   481.92431185
_cell_formula_units_Z   1
loop_
 _symmetry_equiv_pos_site_id
 _symmetry_equiv_pos_as_xyz
  1  'x, y, z'
loop_
 _atom_site_type_symbol
 _atom_site_label
 _atom_site_symmetry_multiplicity
 _atom_site_fract_x
 _atom_site_fract_y
 _atom_site_fract_z
 _atom_site_occupancy
  Tb  Tb0  1  0.450020  0.240428  0.209550  1
  Tb  Tb1  1  0.561082  0.762667  0.798422  1
  Tb  Tb2  1  0.035756  0.237333  0.798416  1
  Tb  Tb3  1  0.969122  0.759572  0.209593  1
  Tb  Tb4  1  0.185248  0.275299  0.460560  1
  Tb  Tb5  1  0.817815  0.724921  0.542720  1
  Tb  Tb6  1  0.185260  0.724701  0.909949  1
  Tb  Tb7  1  0.817800  0.275079  0.092895  1
  Tb  Tb8  1  0.322952  0.621871  0.296783  1
  Tb  Tb9  1  0.674912  0.378129  0.701082  1
  Tb  Tb10  1  0.322926  0.026146  0.701084  1
  Tb  Tb11  1  0.674938  0.973854  0.296781  1
  In  In12  1  0.499993  0.500000  0.999993  1
  In  In13  1  0.010640  0.000000  0.010640  1
  Si  Si14  1  0.622956  0.000000  0.622956  1
  Si  Si15  1  0.117551  0.614765  0.502795  1
  Si  Si16  1  0.888030  0.385235  0.502786  1
  Ru  Ru17  1  0.342997  0.000000  0.342997  1
