# generated using pymatgen
data_Mn3CdHg24(As2Br3)8
_symmetry_space_group_name_H-M   'P 1'
_cell_length_a   12.72073823
_cell_length_b   12.72073823
_cell_length_c   12.72073823
_cell_angle_alpha   90.08019035
_cell_angle_beta   89.91980965
_cell_angle_gamma   89.91980965
_symmetry_Int_Tables_number   1
_chemical_formula_structural   Mn3CdHg24(As2Br3)8
_chemical_formula_sum   'Mn3 Cd1 Hg24 As16 Br24'
_cell_volume   2058.42795010
_cell_formula_units_Z   1
loop_
 _symmetry_equiv_pos_site_id
 _symmetry_equiv_pos_as_xyz
  1  'x, y, z'
loop_
 _atom_site_type_symbol
 _atom_site_label
 _atom_site_symmetry_multiplicity
 _atom_site_fract_x
 _atom_site_fract_y
 _atom_site_fract_z
 _atom_site_occupancy
  Mn  Mn0  1  0.500000  0.000000  0.500000  1
  Mn  Mn1  1  0.000000  0.000000  0.000000  1
  Mn  Mn2  1  0.000000  0.500000  0.500000  1
  Cd  Cd3  1  0.500000  0.500000  0.000000  1
  Hg  Hg4  1  0.714587  0.718682  0.476419  1
  Hg  Hg5  1  0.218616  0.023562  0.285454  1
  Hg  Hg6  1  0.976419  0.714587  0.781318  1
  Hg  Hg7  1  0.785673  0.281095  0.976376  1
  Hg  Hg8  1  0.523566  0.285232  0.281645  1
  Hg  Hg9  1  0.781384  0.976438  0.714546  1
  Hg  Hg10  1  0.023562  0.214546  0.718616  1
  Hg  Hg11  1  0.476376  0.785673  0.218905  1
  Hg  Hg12  1  0.218355  0.476434  0.785232  1
  Hg  Hg13  1  0.476434  0.714768  0.718355  1
  Hg  Hg14  1  0.785454  0.218616  0.476438  1
  Hg  Hg15  1  0.285413  0.281318  0.523581  1
  Hg  Hg16  1  0.023581  0.285413  0.218682  1
  Hg  Hg17  1  0.976438  0.785454  0.281384  1
  Hg  Hg18  1  0.781645  0.523566  0.214768  1
  Hg  Hg19  1  0.281095  0.523624  0.285673  1
  Hg  Hg20  1  0.285232  0.218355  0.023566  1
  Hg  Hg21  1  0.281318  0.976419  0.785413  1
  Hg  Hg22  1  0.523624  0.214327  0.781095  1
  Hg  Hg23  1  0.214327  0.718905  0.023624  1
  Hg  Hg24  1  0.718905  0.476376  0.714327  1
  Hg  Hg25  1  0.714768  0.781645  0.976434  1
  Hg  Hg26  1  0.214546  0.781384  0.523562  1
  Hg  Hg27  1  0.718682  0.023581  0.214587  1
  As  As28  1  0.830680  0.169320  0.669320  1
  As  As29  1  0.783833  0.716478  0.283679  1
  As  As30  1  0.830626  0.330452  0.169483  1
  As  As31  1  0.169374  0.669548  0.830517  1
  As  As32  1  0.330517  0.169374  0.830452  1
  As  As33  1  0.330452  0.330517  0.330626  1
  As  As34  1  0.216167  0.283522  0.716321  1
  As  As35  1  0.716478  0.216321  0.283833  1
  As  As36  1  0.169320  0.830680  0.330680  1
  As  As37  1  0.669483  0.830626  0.169548  1
  As  As38  1  0.783679  0.783833  0.783522  1
  As  As39  1  0.216321  0.216167  0.216478  1
  As  As40  1  0.283522  0.783679  0.716167  1
  As  As41  1  0.716324  0.283676  0.783676  1
  As  As42  1  0.669548  0.669483  0.669374  1
  As  As43  1  0.283676  0.716324  0.216324  1
  Br  Br44  1  0.031910  0.207665  0.963309  1
  Br  Br45  1  0.792335  0.463309  0.468090  1
  Br  Br46  1  0.968090  0.792335  0.036691  1
  Br  Br47  1  0.533170  0.282718  0.038384  1
  Br  Br48  1  0.967995  0.707718  0.536732  1
  Br  Br49  1  0.282718  0.461616  0.033170  1
  Br  Br50  1  0.036747  0.531966  0.292332  1
  Br  Br51  1  0.463309  0.031910  0.292335  1
  Br  Br52  1  0.792332  0.036747  0.968034  1
  Br  Br53  1  0.538384  0.533170  0.217282  1
  Br  Br54  1  0.707718  0.963268  0.467995  1
  Br  Br55  1  0.207668  0.963253  0.031966  1
  Br  Br56  1  0.461616  0.466830  0.782718  1
  Br  Br57  1  0.292282  0.036732  0.532005  1
  Br  Br58  1  0.963268  0.032005  0.207718  1
  Br  Br59  1  0.032005  0.292282  0.463268  1
  Br  Br60  1  0.536691  0.968090  0.707665  1
  Br  Br61  1  0.717282  0.538384  0.966830  1
  Br  Br62  1  0.207665  0.536691  0.531910  1
  Br  Br63  1  0.531966  0.207668  0.536747  1
  Br  Br64  1  0.963253  0.468034  0.707668  1
  Br  Br65  1  0.036732  0.967995  0.792282  1
  Br  Br66  1  0.468034  0.792332  0.463253  1
  Br  Br67  1  0.466830  0.717282  0.961616  1
