# generated using pymatgen
data_Zr10Tl4Zn2BiPb
_symmetry_space_group_name_H-M   'P 1'
_cell_length_a   8.83604474
_cell_length_b   8.81140385
_cell_length_c   5.96228400
_cell_angle_alpha   90.00000000
_cell_angle_beta   90.00000000
_cell_angle_gamma   120.16439092
_symmetry_Int_Tables_number   1
_chemical_formula_structural   Zr10Tl4Zn2BiPb
_chemical_formula_sum   'Zr10 Tl4 Zn2 Bi1 Pb1'
_cell_volume   401.35114185
_cell_formula_units_Z   1
loop_
 _symmetry_equiv_pos_site_id
 _symmetry_equiv_pos_as_xyz
  1  'x, y, z'
loop_
 _atom_site_type_symbol
 _atom_site_label
 _atom_site_symmetry_multiplicity
 _atom_site_fract_x
 _atom_site_fract_y
 _atom_site_fract_z
 _atom_site_occupancy
  Zr  Zr0  1  0.331937  0.666395  0.998671  1
  Zr  Zr1  1  0.667335  0.333855  0.501907  1
  Zr  Zr2  1  0.667335  0.333855  0.998093  1
  Zr  Zr3  1  0.331937  0.666395  0.501329  1
  Zr  Zr4  1  0.264096  0.999373  0.250000  1
  Zr  Zr5  1  0.265157  0.265212  0.750000  1
  Zr  Zr6  1  0.999738  0.733657  0.750000  1
  Zr  Zr7  1  0.000901  0.265281  0.250000  1
  Zr  Zr8  1  0.736808  0.735381  0.250000  1
  Zr  Zr9  1  0.734761  0.000296  0.750000  1
  Tl  Tl10  1  0.616388  0.616581  0.750000  1
  Tl  Tl11  1  0.000389  0.384273  0.750000  1
  Tl  Tl12  1  0.999204  0.615182  0.250000  1
  Tl  Tl13  1  0.382990  0.000327  0.750000  1
  Zn  Zn14  1  0.000598  0.999709  0.997985  1
  Zn  Zn15  1  0.000598  0.999709  0.502015  1
  Bi  Bi16  1  0.615190  0.999699  0.250000  1
  Pb  Pb17  1  0.384639  0.384821  0.250000  1
