# generated using pymatgen
data_Tb3Pr16DySn16
_symmetry_space_group_name_H-M   'P 1'
_cell_length_a   8.29269000
_cell_length_b   8.44765109
_cell_length_c   16.05011100
_cell_angle_alpha   90.00000000
_cell_angle_beta   90.00000000
_cell_angle_gamma   89.95099000
_symmetry_Int_Tables_number   1
_chemical_formula_structural   Tb3Pr16DySn16
_chemical_formula_sum   'Tb3 Pr16 Dy1 Sn16'
_cell_volume   1124.37007976
_cell_formula_units_Z   1
loop_
 _symmetry_equiv_pos_site_id
 _symmetry_equiv_pos_as_xyz
  1  'x, y, z'
loop_
 _atom_site_type_symbol
 _atom_site_label
 _atom_site_symmetry_multiplicity
 _atom_site_fract_x
 _atom_site_fract_y
 _atom_site_fract_z
 _atom_site_occupancy
  Tb  Tb0  1  0.698397  0.998599  0.750000  1
  Tb  Tb1  1  0.801565  0.498170  0.250000  1
  Tb  Tb2  1  0.301603  0.001678  0.250000  1
  Pr  Pr3  1  0.366792  0.837442  0.878693  1
  Pr  Pr4  1  0.867350  0.662141  0.620994  1
  Pr  Pr5  1  0.632862  0.162506  0.378863  1
  Pr  Pr6  1  0.132902  0.337558  0.120519  1
  Pr  Pr7  1  0.632862  0.162506  0.121137  1
  Pr  Pr8  1  0.132902  0.337558  0.379481  1
  Pr  Pr9  1  0.366792  0.837442  0.621307  1
  Pr  Pr10  1  0.867350  0.662141  0.879006  1
  Pr  Pr11  1  0.518689  0.319483  0.901252  1
  Pr  Pr12  1  0.019055  0.181207  0.598733  1
  Pr  Pr13  1  0.481120  0.680804  0.401615  1
  Pr  Pr14  1  0.981018  0.819063  0.098678  1
  Pr  Pr15  1  0.481120  0.680804  0.098385  1
  Pr  Pr16  1  0.981018  0.819063  0.401322  1
  Pr  Pr17  1  0.518689  0.319483  0.598748  1
  Pr  Pr18  1  0.019055  0.181207  0.901267  1
  Dy  Dy19  1  0.199149  0.501953  0.750000  1
  Sn  Sn20  1  0.292805  0.034377  0.043782  1
  Sn  Sn21  1  0.792441  0.465145  0.456208  1
  Sn  Sn22  1  0.707270  0.965395  0.544000  1
  Sn  Sn23  1  0.207489  0.534396  0.955483  1
  Sn  Sn24  1  0.707270  0.965395  0.956000  1
  Sn  Sn25  1  0.207489  0.534396  0.544517  1
  Sn  Sn26  1  0.292805  0.034377  0.456218  1
  Sn  Sn27  1  0.792441  0.465145  0.043792  1
  Sn  Sn28  1  0.563940  0.615738  0.750000  1
  Sn  Sn29  1  0.064281  0.883856  0.750000  1
  Sn  Sn30  1  0.435406  0.384096  0.250000  1
  Sn  Sn31  1  0.935922  0.116267  0.250000  1
  Sn  Sn32  1  0.324657  0.147706  0.750000  1
  Sn  Sn33  1  0.824801  0.353707  0.750000  1
  Sn  Sn34  1  0.675096  0.852965  0.250000  1
  Sn  Sn35  1  0.175601  0.646233  0.250000  1
