# generated using pymatgen
data_LaSmZn2(Ni3B)2
_symmetry_space_group_name_H-M   'P 1'
_cell_length_a   5.22199800
_cell_length_b   5.22019164
_cell_length_c   6.89311000
_cell_angle_alpha   90.00000000
_cell_angle_beta   90.00000000
_cell_angle_gamma   120.01144736
_symmetry_Int_Tables_number   1
_chemical_formula_structural   LaSmZn2(Ni3B)2
_chemical_formula_sum   'La1 Sm1 Zn2 Ni6 B2'
_cell_volume   162.71173674
_cell_formula_units_Z   1
loop_
 _symmetry_equiv_pos_site_id
 _symmetry_equiv_pos_as_xyz
  1  'x, y, z'
loop_
 _atom_site_type_symbol
 _atom_site_label
 _atom_site_symmetry_multiplicity
 _atom_site_fract_x
 _atom_site_fract_y
 _atom_site_fract_z
 _atom_site_occupancy
  La  La0  1  0.999830  0.000000  0.000000  1
  Sm  Sm1  1  0.999501  0.000000  0.500000  1
  Zn  Zn2  1  0.333303  0.666793  0.000000  1
  Zn  Zn3  1  0.666513  0.333207  0.000000  1
  Ni  Ni4  1  0.500119  0.000000  0.301683  1
  Ni  Ni5  1  0.499911  0.499935  0.301528  1
  Ni  Ni6  1  0.999977  0.500065  0.301528  1
  Ni  Ni7  1  0.500119  0.000000  0.698317  1
  Ni  Ni8  1  0.499911  0.499935  0.698472  1
  Ni  Ni9  1  0.999977  0.500065  0.698472  1
  B  B10  1  0.333530  0.666425  0.500000  1
  B  B11  1  0.667105  0.333575  0.500000  1
