# generated using pymatgen
data_Pr2U(GaIr)3
_symmetry_space_group_name_H-M   'P 1'
_cell_length_a   7.33703964
_cell_length_b   7.41307222
_cell_length_c   3.91574300
_cell_angle_alpha   90.00000000
_cell_angle_beta   90.00000000
_cell_angle_gamma   120.35432846
_symmetry_Int_Tables_number   1
_chemical_formula_structural   Pr2U(GaIr)3
_chemical_formula_sum   'Pr2 U1 Ga3 Ir3'
_cell_volume   183.78166572
_cell_formula_units_Z   1
loop_
 _symmetry_equiv_pos_site_id
 _symmetry_equiv_pos_as_xyz
  1  'x, y, z'
loop_
 _atom_site_type_symbol
 _atom_site_label
 _atom_site_symmetry_multiplicity
 _atom_site_fract_x
 _atom_site_fract_y
 _atom_site_fract_z
 _atom_site_occupancy
  Pr  Pr0  1  0.409378  0.411933  0.500000  1
  Pr  Pr1  1  0.590451  0.002432  0.500000  1
  U  U2  1  0.000019  0.585721  0.500000  1
  Ga  Ga3  1  0.754267  0.753755  0.000000  1
  Ga  Ga4  1  0.245830  0.999569  0.000000  1
  Ga  Ga5  1  0.999994  0.235971  0.000000  1
  Ir  Ir6  1  0.714508  0.372967  0.000000  1
  Ir  Ir7  1  0.285554  0.658488  0.000000  1
  Ir  Ir8  1  0.000000  0.979164  0.500000  1
