# generated using pymatgen
data_Yb2Mn5(PIr)7
_symmetry_space_group_name_H-M   'P 1'
_cell_length_a   9.51042367
_cell_length_b   9.43356547
_cell_length_c   3.82523100
_cell_angle_alpha   90.00000000
_cell_angle_beta   90.00000000
_cell_angle_gamma   119.89288971
_symmetry_Int_Tables_number   1
_chemical_formula_structural   Yb2Mn5(PIr)7
_chemical_formula_sum   'Yb2 Mn5 P7 Ir7'
_cell_volume   297.53068337
_cell_formula_units_Z   1
loop_
 _symmetry_equiv_pos_site_id
 _symmetry_equiv_pos_as_xyz
  1  'x, y, z'
loop_
 _atom_site_type_symbol
 _atom_site_label
 _atom_site_symmetry_multiplicity
 _atom_site_fract_x
 _atom_site_fract_y
 _atom_site_fract_z
 _atom_site_occupancy
  Yb  Yb0  1  0.333762  0.666071  0.000000  1
  Yb  Yb1  1  0.665605  0.331957  0.500000  1
  Mn  Mn2  1  0.732074  0.889470  0.000000  1
  Mn  Mn3  1  0.159455  0.270168  0.000000  1
  Mn  Mn4  1  0.869421  0.777582  0.500000  1
  Mn  Mn5  1  0.906734  0.119345  0.500000  1
  Mn  Mn6  1  0.225099  0.100359  0.500000  1
  P  P7  1  0.879802  0.579469  0.000000  1
  P  P8  1  0.703554  0.111605  0.000000  1
  P  P9  1  0.407416  0.297476  0.000000  1
  P  P10  1  0.286348  0.885775  0.500000  1
  P  P11  1  0.599849  0.720683  0.500000  1
  P  P12  1  0.120410  0.395367  0.500000  1
  P  P13  1  0.994700  0.009909  0.000000  1
  Ir  Ir14  1  0.634649  0.570502  0.000000  1
  Ir  Ir15  1  0.936270  0.361947  0.000000  1
  Ir  Ir16  1  0.434157  0.068164  0.000000  1
  Ir  Ir17  1  0.104268  0.843447  0.000000  1
  Ir  Ir18  1  0.057449  0.611252  0.500000  1
  Ir  Ir19  1  0.561948  0.947073  0.500000  1
  Ir  Ir20  1  0.387027  0.442378  0.500000  1
