# generated using pymatgen
data_YZr2PdF15
_symmetry_space_group_name_H-M   'P 1'
_cell_length_a   8.16487412
_cell_length_b   8.16487383
_cell_length_c   8.15554971
_cell_angle_alpha   79.43093442
_cell_angle_beta   79.43093988
_cell_angle_gamma   99.41426142
_symmetry_Int_Tables_number   1
_chemical_formula_structural   YZr2PdF15
_chemical_formula_sum   'Y2 Zr4 Pd2 F30'
_cell_volume   514.34211773
_cell_formula_units_Z   2
loop_
 _symmetry_equiv_pos_site_id
 _symmetry_equiv_pos_as_xyz
  1  'x, y, z'
loop_
 _atom_site_type_symbol
 _atom_site_label
 _atom_site_symmetry_multiplicity
 _atom_site_fract_x
 _atom_site_fract_y
 _atom_site_fract_z
 _atom_site_occupancy
  Y  Y0  1  0.178130  0.821870  0.250000  1
  Y  Y1  1  0.821870  0.178130  0.750000  1
  Zr  Zr2  1  0.742953  0.678936  0.671093  1
  Zr  Zr3  1  0.321064  0.257047  0.828907  1
  Zr  Zr4  1  0.257047  0.321064  0.328907  1
  Zr  Zr5  1  0.678936  0.742953  0.171093  1
  Pd  Pd6  1  0.749534  0.250466  0.250000  1
  Pd  Pd7  1  0.250466  0.749534  0.750000  1
  F  F8  1  0.311637  0.350295  0.057681  1
  F  F9  1  0.934595  0.808798  0.155589  1
  F  F10  1  0.839138  0.460936  0.689073  1
  F  F11  1  0.460936  0.839138  0.189073  1
  F  F12  1  0.808798  0.934595  0.655589  1
  F  F13  1  0.350295  0.311637  0.557680  1
  F  F14  1  0.688363  0.649705  0.942319  1
  F  F15  1  0.065405  0.191202  0.844411  1
  F  F16  1  0.160862  0.539064  0.310927  1
  F  F17  1  0.539064  0.160862  0.810927  1
  F  F18  1  0.191202  0.065405  0.344411  1
  F  F19  1  0.649705  0.688363  0.442319  1
  F  F20  1  0.770799  0.284906  0.003197  1
  F  F21  1  0.995886  0.271868  0.209826  1
  F  F22  1  0.787122  0.501229  0.223394  1
  F  F23  1  0.501229  0.787122  0.723394  1
  F  F24  1  0.271868  0.995886  0.709826  1
  F  F25  1  0.284906  0.770799  0.503197  1
  F  F26  1  0.229201  0.715094  0.996803  1
  F  F27  1  0.004114  0.728132  0.790174  1
  F  F28  1  0.212878  0.498771  0.776606  1
  F  F29  1  0.498771  0.212878  0.276606  1
  F  F30  1  0.728132  0.004114  0.290174  1
  F  F31  1  0.715094  0.229201  0.496803  1
  F  F32  1  0.472957  0.527043  0.250000  1
  F  F33  1  0.746415  0.954980  0.974874  1
  F  F34  1  0.045020  0.253585  0.525126  1
  F  F35  1  0.253585  0.045020  0.025126  1
  F  F36  1  0.954980  0.746415  0.474874  1
  F  F37  1  0.527043  0.472957  0.750000  1
