# generated using pymatgen
data_SmPa5H8Br15
_symmetry_space_group_name_H-M   'P 1'
_cell_length_a   9.79710775
_cell_length_b   9.79712533
_cell_length_c   9.79711000
_cell_angle_alpha   109.27130715
_cell_angle_beta   109.27121920
_cell_angle_gamma   109.87196644
_symmetry_Int_Tables_number   1
_chemical_formula_structural   SmPa5H8Br15
_chemical_formula_sum   'Sm1 Pa5 H8 Br15'
_cell_volume   723.86275950
_cell_formula_units_Z   1
loop_
 _symmetry_equiv_pos_site_id
 _symmetry_equiv_pos_as_xyz
  1  'x, y, z'
loop_
 _atom_site_type_symbol
 _atom_site_label
 _atom_site_symmetry_multiplicity
 _atom_site_fract_x
 _atom_site_fract_y
 _atom_site_fract_z
 _atom_site_occupancy
  Sm  Sm0  1  0.240324  0.240323  0.999998  1
  Pa  Pa1  1  0.763975  0.763974  0.000002  1
  Pa  Pa2  1  0.235879  0.001213  0.234650  1
  Pa  Pa3  1  0.001213  0.235899  0.234688  1
  Pa  Pa4  1  0.766559  0.001210  0.765346  1
  Pa  Pa5  1  0.001209  0.766496  0.765290  1
  H  H6  1  0.177194  0.997018  0.999957  1
  H  H7  1  0.821827  0.999746  0.000019  1
  H  H8  1  0.997058  0.177240  0.000022  1
  H  H9  1  0.999726  0.821811  0.999958  1
  H  H10  1  0.999726  0.999750  0.177917  1
  H  H11  1  0.177217  0.177241  0.180179  1
  H  H12  1  0.997056  0.997012  0.819823  1
  H  H13  1  0.821852  0.821813  0.822084  1
  Br  Br14  1  0.744901  0.253973  0.000020  1
  Br  Br15  1  0.506166  0.506176  0.000006  1
  Br  Br16  1  0.253949  0.744875  0.999966  1
  Br  Br17  1  0.744837  0.999629  0.254794  1
  Br  Br18  1  0.999602  0.744834  0.254784  1
  Br  Br19  1  0.511932  0.254188  0.257755  1
  Br  Br20  1  0.254171  0.511931  0.257763  1
  Br  Br21  1  0.744904  0.744886  0.490935  1
  Br  Br22  1  0.499672  0.999666  0.500024  1
  Br  Br23  1  0.999641  0.499660  0.500019  1
  Br  Br24  1  0.253948  0.253979  0.509078  1
  Br  Br25  1  0.254165  0.996403  0.742239  1
  Br  Br26  1  0.996418  0.254176  0.742248  1
  Br  Br27  1  0.744840  0.490051  0.745218  1
  Br  Br28  1  0.490047  0.744833  0.745225  1
