# generated using pymatgen
data_Cs2RbSb(AsSe2)6
_symmetry_space_group_name_H-M   'P 1'
_cell_length_a   10.10578000
_cell_length_b   10.10578069
_cell_length_c   8.49086400
_cell_angle_alpha   90.00000000
_cell_angle_beta   90.00000000
_cell_angle_gamma   119.99999775
_symmetry_Int_Tables_number   1
_chemical_formula_structural   Cs2RbSb(AsSe2)6
_chemical_formula_sum   'Cs2 Rb1 Sb1 As6 Se12'
_cell_volume   750.96938952
_cell_formula_units_Z   1
loop_
 _symmetry_equiv_pos_site_id
 _symmetry_equiv_pos_as_xyz
  1  'x, y, z'
loop_
 _atom_site_type_symbol
 _atom_site_label
 _atom_site_symmetry_multiplicity
 _atom_site_fract_x
 _atom_site_fract_y
 _atom_site_fract_z
 _atom_site_occupancy
  Cs  Cs0  1  0.333333  0.666667  0.863008  1
  Cs  Cs1  1  0.666667  0.333333  0.136992  1
  Rb  Rb2  1  0.000000  0.000000  0.000000  1
  Sb  Sb3  1  0.000000  0.000000  0.500000  1
  As  As4  1  0.286041  0.836903  0.403504  1
  As  As5  1  0.163097  0.449139  0.403504  1
  As  As6  1  0.550861  0.713959  0.403504  1
  As  As7  1  0.713959  0.163097  0.596496  1
  As  As8  1  0.836903  0.550861  0.596496  1
  As  As9  1  0.449139  0.286041  0.596496  1
  Se  Se10  1  0.255776  0.040987  0.303726  1
  Se  Se11  1  0.959013  0.214790  0.303726  1
  Se  Se12  1  0.785210  0.744224  0.303726  1
  Se  Se13  1  0.744224  0.959013  0.696274  1
  Se  Se14  1  0.040987  0.785210  0.696274  1
  Se  Se15  1  0.214790  0.255776  0.696274  1
  Se  Se16  1  0.522195  0.905837  0.249809  1
  Se  Se17  1  0.094163  0.616357  0.249809  1
  Se  Se18  1  0.383643  0.477805  0.249809  1
  Se  Se19  1  0.477805  0.094163  0.750191  1
  Se  Se20  1  0.905837  0.383643  0.750191  1
  Se  Se21  1  0.616357  0.522195  0.750191  1
