# generated using pymatgen
data_Tm3TlCd3GaAg
_symmetry_space_group_name_H-M   'P 1'
_cell_length_a   4.37736500
_cell_length_b   7.42325713
_cell_length_c   7.42325700
_cell_angle_alpha   120.00000389
_cell_angle_beta   90.00000000
_cell_angle_gamma   90.00000000
_symmetry_Int_Tables_number   1
_chemical_formula_structural   Tm3TlCd3GaAg
_chemical_formula_sum   'Tm3 Tl1 Cd3 Ga1 Ag1'
_cell_volume   208.89708332
_cell_formula_units_Z   1
loop_
 _symmetry_equiv_pos_site_id
 _symmetry_equiv_pos_as_xyz
  1  'x, y, z'
loop_
 _atom_site_type_symbol
 _atom_site_label
 _atom_site_symmetry_multiplicity
 _atom_site_fract_x
 _atom_site_fract_y
 _atom_site_fract_z
 _atom_site_occupancy
  Tm  Tm0  1  0.000000  0.414325  0.427848  1
  Tm  Tm1  1  0.000000  0.013522  0.585675  1
  Tm  Tm2  1  0.000000  0.572152  0.986478  1
  Tl  Tl3  1  0.500000  0.666667  0.333333  1
  Cd  Cd4  1  0.500000  0.747270  0.762905  1
  Cd  Cd5  1  0.500000  0.015635  0.252730  1
  Cd  Cd6  1  0.500000  0.237095  0.984365  1
  Ga  Ga7  1  0.500000  0.333333  0.666667  1
  Ag  Ag8  1  0.000000  0.000000  0.000000  1
