# generated using pymatgen
data_SrLa3(AsPd)4
_symmetry_space_group_name_H-M   'P 1'
_cell_length_a   4.40864400
_cell_length_b   7.62332863
_cell_length_c   8.21877168
_cell_angle_alpha   90.04655821
_cell_angle_beta   90.00000000
_cell_angle_gamma   90.00000000
_symmetry_Int_Tables_number   1
_chemical_formula_structural   SrLa3(AsPd)4
_chemical_formula_sum   'Sr1 La3 As4 Pd4'
_cell_volume   276.22084212
_cell_formula_units_Z   1
loop_
 _symmetry_equiv_pos_site_id
 _symmetry_equiv_pos_as_xyz
  1  'x, y, z'
loop_
 _atom_site_type_symbol
 _atom_site_label
 _atom_site_symmetry_multiplicity
 _atom_site_fract_x
 _atom_site_fract_y
 _atom_site_fract_z
 _atom_site_occupancy
  Sr  Sr0  1  0.250002  0.250959  0.000040  1
  La  La1  1  0.750000  0.750944  0.500025  1
  La  La2  1  0.250002  0.249168  0.500059  1
  La  La3  1  0.750000  0.748970  0.999864  1
  As  As4  1  0.750000  0.082126  0.259139  1
  As  As5  1  0.250002  0.583524  0.254234  1
  As  As6  1  0.750000  0.417768  0.739076  1
  As  As7  1  0.250002  0.916558  0.747710  1
  Pd  Pd8  1  0.250002  0.914954  0.250219  1
  Pd  Pd9  1  0.750000  0.419216  0.253737  1
  Pd  Pd10  1  0.250002  0.585094  0.748168  1
  Pd  Pd11  1  0.750000  0.080718  0.747724  1
