# generated using pymatgen
data_Tb16Zr3InIr12
_symmetry_space_group_name_H-M   'P 1'
_cell_length_a   10.89586800
_cell_length_b   10.89586800
_cell_length_c   6.26023600
_cell_angle_alpha   90.00000000
_cell_angle_beta   90.00000000
_cell_angle_gamma   90.00000000
_symmetry_Int_Tables_number   1
_chemical_formula_structural   Tb16Zr3InIr12
_chemical_formula_sum   'Tb16 Zr3 In1 Ir12'
_cell_volume   743.21483901
_cell_formula_units_Z   1
loop_
 _symmetry_equiv_pos_site_id
 _symmetry_equiv_pos_as_xyz
  1  'x, y, z'
loop_
 _atom_site_type_symbol
 _atom_site_label
 _atom_site_symmetry_multiplicity
 _atom_site_fract_x
 _atom_site_fract_y
 _atom_site_fract_z
 _atom_site_occupancy
  Tb  Tb0  1  0.282894  0.083421  0.375933  1
  Tb  Tb1  1  0.290247  0.913333  0.876445  1
  Tb  Tb2  1  0.709753  0.086667  0.876445  1
  Tb  Tb3  1  0.717106  0.916579  0.375933  1
  Tb  Tb4  1  0.587261  0.789210  0.876479  1
  Tb  Tb5  1  0.585329  0.209703  0.372518  1
  Tb  Tb6  1  0.414671  0.790297  0.372518  1
  Tb  Tb7  1  0.412739  0.210790  0.876479  1
  Tb  Tb8  1  0.209703  0.414671  0.627482  1
  Tb  Tb9  1  0.210790  0.587261  0.123521  1
  Tb  Tb10  1  0.789210  0.412739  0.123521  1
  Tb  Tb11  1  0.790297  0.585329  0.627482  1
  Tb  Tb12  1  0.913333  0.709753  0.123555  1
  Tb  Tb13  1  0.916579  0.282894  0.624067  1
  Tb  Tb14  1  0.083421  0.717106  0.624067  1
  Tb  Tb15  1  0.086667  0.290247  0.123555  1
  Zr  Zr16  1  0.000000  0.000000  0.000000  1
  Zr  Zr17  1  0.500000  0.500000  0.000000  1
  Zr  Zr18  1  0.500000  0.500000  0.500000  1
  In  In19  1  0.000000  0.000000  0.500000  1
  Ir  Ir20  1  0.853002  0.154290  0.234799  1
  Ir  Ir21  1  0.845710  0.853002  0.765201  1
  Ir  Ir22  1  0.154290  0.146998  0.765201  1
  Ir  Ir23  1  0.146998  0.845710  0.234799  1
  Ir  Ir24  1  0.644781  0.357017  0.745538  1
  Ir  Ir25  1  0.642983  0.644781  0.254462  1
  Ir  Ir26  1  0.357017  0.355219  0.254462  1
  Ir  Ir27  1  0.355219  0.642983  0.745538  1
  Ir  Ir28  1  0.500000  0.000000  0.122485  1
  Ir  Ir29  1  0.500000  0.000000  0.617223  1
  Ir  Ir30  1  0.000000  0.500000  0.877515  1
  Ir  Ir31  1  0.000000  0.500000  0.382777  1
