# generated using pymatgen
data_Ca10TmReN10
_symmetry_space_group_name_H-M   'P 1'
_cell_length_a   7.07866943
_cell_length_b   7.07866822
_cell_length_c   8.95199824
_cell_angle_alpha   80.44722920
_cell_angle_beta   80.44723021
_cell_angle_gamma   59.86013399
_symmetry_Int_Tables_number   1
_chemical_formula_structural   Ca10TmReN10
_chemical_formula_sum   'Ca10 Tm1 Re1 N10'
_cell_volume   380.73911593
_cell_formula_units_Z   1
loop_
 _symmetry_equiv_pos_site_id
 _symmetry_equiv_pos_as_xyz
  1  'x, y, z'
loop_
 _atom_site_type_symbol
 _atom_site_label
 _atom_site_symmetry_multiplicity
 _atom_site_fract_x
 _atom_site_fract_y
 _atom_site_fract_z
 _atom_site_occupancy
  Ca  Ca0  1  0.874115  0.361688  0.824657  1
  Ca  Ca1  1  0.873072  0.873072  0.812916  1
  Ca  Ca2  1  0.736685  0.736685  0.532803  1
  Ca  Ca3  1  0.744983  0.258131  0.515787  1
  Ca  Ca4  1  0.622707  0.140882  0.149022  1
  Ca  Ca5  1  0.361688  0.874115  0.824657  1
  Ca  Ca6  1  0.258131  0.744983  0.515787  1
  Ca  Ca7  1  0.240755  0.240755  0.504265  1
  Ca  Ca8  1  0.141915  0.141915  0.159777  1
  Ca  Ca9  1  0.140882  0.622707  0.149022  1
  Tm  Tm10  1  0.369487  0.369487  0.782617  1
  Re  Re11  1  0.632114  0.632114  0.227408  1
  N  N12  1  0.898878  0.475409  0.313946  1
  N  N13  1  0.992114  0.992114  0.026899  1
  N  N14  1  0.673994  0.673994  0.021283  1
  N  N15  1  0.551815  0.551815  0.682768  1
  N  N16  1  0.475409  0.898878  0.313946  1
  N  N17  1  0.553206  0.065839  0.660791  1
  N  N18  1  0.478363  0.478363  0.295879  1
  N  N19  1  0.315529  0.315529  0.026981  1
  N  N20  1  0.060605  0.060605  0.643806  1
  N  N21  1  0.065839  0.553206  0.660791  1
