# generated using pymatgen
data_ErLuB6W
_symmetry_space_group_name_H-M   'P 1'
_cell_length_a   3.55226800
_cell_length_b   9.25250000
_cell_length_c   11.63546900
_cell_angle_alpha   90.00000000
_cell_angle_beta   90.00000000
_cell_angle_gamma   90.00000000
_symmetry_Int_Tables_number   1
_chemical_formula_structural   ErLuB6W
_chemical_formula_sum   'Er4 Lu4 B24 W4'
_cell_volume   382.42714455
_cell_formula_units_Z   4
loop_
 _symmetry_equiv_pos_site_id
 _symmetry_equiv_pos_as_xyz
  1  'x, y, z'
loop_
 _atom_site_type_symbol
 _atom_site_label
 _atom_site_symmetry_multiplicity
 _atom_site_fract_x
 _atom_site_fract_y
 _atom_site_fract_z
 _atom_site_occupancy
  Er  Er0  1  0.000000  0.320884  0.413784  1
  Er  Er1  1  0.000000  0.679116  0.586216  1
  Er  Er2  1  0.000000  0.820884  0.086216  1
  Er  Er3  1  0.000000  0.179116  0.913784  1
  Lu  Lu4  1  0.000000  0.944200  0.372432  1
  Lu  Lu5  1  0.000000  0.055800  0.627568  1
  Lu  Lu6  1  0.000000  0.444200  0.127568  1
  Lu  Lu7  1  0.000000  0.555800  0.872432  1
  B  B8  1  0.500000  0.551508  0.434834  1
  B  B9  1  0.500000  0.448492  0.565166  1
  B  B10  1  0.500000  0.051508  0.065166  1
  B  B11  1  0.500000  0.948492  0.934834  1
  B  B12  1  0.500000  0.752621  0.421812  1
  B  B13  1  0.500000  0.247379  0.578188  1
  B  B14  1  0.500000  0.252621  0.078188  1
  B  B15  1  0.500000  0.747379  0.921812  1
  B  B16  1  0.500000  0.795700  0.263957  1
  B  B17  1  0.500000  0.204300  0.736043  1
  B  B18  1  0.500000  0.295700  0.236043  1
  B  B19  1  0.500000  0.704300  0.763957  1
  B  B20  1  0.500000  0.631067  0.182387  1
  B  B21  1  0.500000  0.368933  0.817613  1
  B  B22  1  0.500000  0.131067  0.317613  1
  B  B23  1  0.500000  0.868933  0.682387  1
  B  B24  1  0.500000  0.978176  0.213326  1
  B  B25  1  0.500000  0.021824  0.786674  1
  B  B26  1  0.500000  0.478176  0.286674  1
  B  B27  1  0.500000  0.521824  0.713326  1
  B  B28  1  0.500000  0.599838  0.027763  1
  B  B29  1  0.500000  0.400162  0.972237  1
  B  B30  1  0.500000  0.099838  0.472237  1
  B  B31  1  0.500000  0.900162  0.527763  1
  W  W32  1  0.000000  0.639783  0.320079  1
  W  W33  1  0.000000  0.360217  0.679921  1
  W  W34  1  0.000000  0.139783  0.179921  1
  W  W35  1  0.000000  0.860217  0.820079  1
