# generated using pymatgen
data_Tm5LuReSb2
_symmetry_space_group_name_H-M   'P 1'
_cell_length_a   8.02503500
_cell_length_b   8.02620326
_cell_length_c   4.27871100
_cell_angle_alpha   90.00000000
_cell_angle_beta   90.00000000
_cell_angle_gamma   119.99517281
_symmetry_Int_Tables_number   1
_chemical_formula_structural   Tm5LuReSb2
_chemical_formula_sum   'Tm5 Lu1 Re1 Sb2'
_cell_volume   238.68317005
_cell_formula_units_Z   1
loop_
 _symmetry_equiv_pos_site_id
 _symmetry_equiv_pos_as_xyz
  1  'x, y, z'
loop_
 _atom_site_type_symbol
 _atom_site_label
 _atom_site_symmetry_multiplicity
 _atom_site_fract_x
 _atom_site_fract_y
 _atom_site_fract_z
 _atom_site_occupancy
  Tm  Tm0  1  0.611129  0.000000  0.500000  1
  Tm  Tm1  1  0.388625  0.388374  0.500000  1
  Tm  Tm2  1  0.000251  0.611626  0.500000  1
  Tm  Tm3  1  0.000147  0.236726  0.000000  1
  Tm  Tm4  1  0.763421  0.763274  0.000000  1
  Lu  Lu5  1  0.236370  0.000000  0.000000  1
  Re  Re6  1  0.000406  0.000000  0.500000  1
  Sb  Sb7  1  0.666297  0.332943  0.000000  1
  Sb  Sb8  1  0.333354  0.667057  0.000000  1
