# generated using pymatgen
data_Hf5ZrCo10Ni10P13
_symmetry_space_group_name_H-M   'P 1'
_cell_length_a   12.39967296
_cell_length_b   12.41316189
_cell_length_c   3.59708400
_cell_angle_alpha   90.00000000
_cell_angle_beta   90.00000000
_cell_angle_gamma   120.01389117
_symmetry_Int_Tables_number   1
_chemical_formula_structural   Hf5ZrCo10Ni10P13
_chemical_formula_sum   'Hf5 Zr1 Co10 Ni10 P13'
_cell_volume   479.41658446
_cell_formula_units_Z   1
loop_
 _symmetry_equiv_pos_site_id
 _symmetry_equiv_pos_as_xyz
  1  'x, y, z'
loop_
 _atom_site_type_symbol
 _atom_site_label
 _atom_site_symmetry_multiplicity
 _atom_site_fract_x
 _atom_site_fract_y
 _atom_site_fract_z
 _atom_site_occupancy
  Hf  Hf0  1  0.806604  0.286111  0.500000  1
  Hf  Hf1  1  0.717464  0.522395  0.500000  1
  Hf  Hf2  1  0.478492  0.192219  0.500000  1
  Hf  Hf3  1  0.188674  0.715964  0.000000  1
  Hf  Hf4  1  0.281782  0.475103  0.000000  1
  Zr  Zr5  1  0.526072  0.808823  0.000000  1
  Co  Co6  1  0.418748  0.981102  0.000000  1
  Co  Co7  1  0.018108  0.438950  0.000000  1
  Co  Co8  1  0.582774  0.018545  0.500000  1
  Co  Co9  1  0.562575  0.580233  0.000000  1
  Co  Co10  1  0.981576  0.564912  0.500000  1
  Co  Co11  1  0.098053  0.898894  0.000000  1
  Co  Co12  1  0.801614  0.903465  0.000000  1
  Co  Co13  1  0.102315  0.199928  0.000000  1
  Co  Co14  1  0.667132  0.331736  0.000000  1
  Co  Co15  1  0.919894  0.672858  0.000000  1
  Ni  Ni16  1  0.921954  0.080268  0.500000  1
  Ni  Ni17  1  0.163467  0.080506  0.500000  1
  Ni  Ni18  1  0.918731  0.840296  0.500000  1
  Ni  Ni19  1  0.332004  0.665574  0.500000  1
  Ni  Ni20  1  0.676283  0.745525  0.500000  1
  Ni  Ni21  1  0.253972  0.926114  0.500000  1
  Ni  Ni22  1  0.327290  0.246297  0.000000  1
  Ni  Ni23  1  0.753829  0.081227  0.000000  1
  Ni  Ni24  1  0.433630  0.415508  0.500000  1
  Ni  Ni25  1  0.069077  0.326937  0.500000  1
  P  P26  1  0.000900  0.000500  0.000000  1
  P  P27  1  0.228378  0.285462  0.500000  1
  P  P28  1  0.715528  0.945449  0.500000  1
  P  P29  1  0.050876  0.767280  0.500000  1
  P  P30  1  0.767999  0.711228  0.000000  1
  P  P31  1  0.288122  0.054646  0.000000  1
  P  P32  1  0.472281  0.611973  0.500000  1
  P  P33  1  0.388746  0.859672  0.500000  1
  P  P34  1  0.858504  0.474203  0.000000  1
  P  P35  1  0.529485  0.386413  0.000000  1
  P  P36  1  0.613159  0.139848  0.000000  1
  P  P37  1  0.944993  0.234312  0.000000  1
  P  P38  1  0.138915  0.529523  0.500000  1
