# generated using pymatgen
data_Ho6Er4Si5P
_symmetry_space_group_name_H-M   'P 1'
_cell_length_a   8.35376200
_cell_length_b   8.36018034
_cell_length_c   6.25099100
_cell_angle_alpha   90.00000000
_cell_angle_beta   90.00000000
_cell_angle_gamma   119.97459911
_symmetry_Int_Tables_number   1
_chemical_formula_structural   Ho6Er4Si5P
_chemical_formula_sum   'Ho6 Er4 Si5 P1'
_cell_volume   378.17111382
_cell_formula_units_Z   1
loop_
 _symmetry_equiv_pos_site_id
 _symmetry_equiv_pos_as_xyz
  1  'x, y, z'
loop_
 _atom_site_type_symbol
 _atom_site_label
 _atom_site_symmetry_multiplicity
 _atom_site_fract_x
 _atom_site_fract_y
 _atom_site_fract_z
 _atom_site_occupancy
  Ho  Ho0  1  0.001046  0.757231  0.750000  1
  Ho  Ho1  1  0.000769  0.243912  0.250000  1
  Ho  Ho2  1  0.756857  0.756088  0.250000  1
  Ho  Ho3  1  0.755587  0.000000  0.750000  1
  Ho  Ho4  1  0.243814  0.242769  0.750000  1
  Ho  Ho5  1  0.243282  0.000000  0.250000  1
  Er  Er6  1  0.333683  0.667405  0.500356  1
  Er  Er7  1  0.666279  0.332595  0.999644  1
  Er  Er8  1  0.666279  0.332595  0.500356  1
  Er  Er9  1  0.333683  0.667405  0.999644  1
  Si  Si10  1  0.394717  0.394159  0.250000  1
  Si  Si11  1  0.000559  0.605841  0.250000  1
  Si  Si12  1  0.000085  0.394172  0.750000  1
  Si  Si13  1  0.605914  0.605828  0.750000  1
  Si  Si14  1  0.606455  0.000000  0.250000  1
  P  P15  1  0.390992  0.000000  0.750000  1
