# generated using pymatgen
data_Tm3Lu7RuRh3
_symmetry_space_group_name_H-M   'P 1'
_cell_length_a   6.31730180
_cell_length_b   7.11824827
_cell_length_c   8.36124844
_cell_angle_alpha   96.73059336
_cell_angle_beta   112.44470494
_cell_angle_gamma   89.94484114
_symmetry_Int_Tables_number   1
_chemical_formula_structural   Tm3Lu7RuRh3
_chemical_formula_sum   'Tm3 Lu7 Ru1 Rh3'
_cell_volume   344.72003111
_cell_formula_units_Z   1
loop_
 _symmetry_equiv_pos_site_id
 _symmetry_equiv_pos_as_xyz
  1  'x, y, z'
loop_
 _atom_site_type_symbol
 _atom_site_label
 _atom_site_symmetry_multiplicity
 _atom_site_fract_x
 _atom_site_fract_y
 _atom_site_fract_z
 _atom_site_occupancy
  Tm  Tm0  1  0.527224  0.081499  0.816808  1
  Tm  Tm1  1  0.478002  0.918295  0.188563  1
  Tm  Tm2  1  0.713021  0.417138  0.188355  1
  Lu  Lu3  1  0.289742  0.582667  0.812624  1
  Lu  Lu4  1  0.287368  0.312908  0.437598  1
  Lu  Lu5  1  0.709465  0.684989  0.562189  1
  Lu  Lu6  1  0.853835  0.185540  0.560318  1
  Lu  Lu7  1  0.145096  0.816868  0.436565  1
  Lu  Lu8  1  0.076829  0.249771  0.000337  1
  Lu  Lu9  1  0.924377  0.751156  0.000742  1
  Ru  Ru10  1  0.893897  0.073883  0.216633  1
  Rh  Rh11  1  0.322657  0.572940  0.221321  1
  Rh  Rh12  1  0.676899  0.427501  0.778375  1
  Rh  Rh13  1  0.101586  0.924847  0.779572  1
