# generated using pymatgen
data_Ac2Al7Ni
_symmetry_space_group_name_H-M   'P 1'
_cell_length_a   6.30738784
_cell_length_b   6.30638240
_cell_length_c   11.68525531
_cell_angle_alpha   74.34504253
_cell_angle_beta   74.34247655
_cell_angle_gamma   89.99999958
_symmetry_Int_Tables_number   1
_chemical_formula_structural   Ac2Al7Ni
_chemical_formula_sum   'Ac4 Al14 Ni2'
_cell_volume   429.62035340
_cell_formula_units_Z   2
loop_
 _symmetry_equiv_pos_site_id
 _symmetry_equiv_pos_as_xyz
  1  'x, y, z'
loop_
 _atom_site_type_symbol
 _atom_site_label
 _atom_site_symmetry_multiplicity
 _atom_site_fract_x
 _atom_site_fract_y
 _atom_site_fract_z
 _atom_site_occupancy
  Ac  Ac0  1  0.996257  0.996257  0.007487  1
  Ac  Ac1  1  0.501038  0.501038  0.997923  1
  Ac  Ac2  1  0.750948  0.250948  0.498105  1
  Ac  Ac3  1  0.246207  0.746207  0.507588  1
  Al  Al4  1  0.201703  0.201703  0.596595  1
  Al  Al5  1  0.813630  0.813630  0.372740  1
  Al  Al6  1  0.597750  0.134651  0.255188  1
  Al  Al7  1  0.147061  0.610160  0.255188  1
  Al  Al8  1  0.597750  0.610160  0.255188  1
  Al  Al9  1  0.147061  0.134651  0.255188  1
  Al  Al10  1  0.860256  0.347641  0.755166  1
  Al  Al11  1  0.384578  0.897191  0.755166  1
  Al  Al12  1  0.860256  0.897191  0.755166  1
  Al  Al13  1  0.384578  0.347641  0.755166  1
  Al  Al14  1  0.691434  0.691434  0.617132  1
  Al  Al15  1  0.063688  0.563688  0.872623  1
  Al  Al16  1  0.451712  0.951712  0.096576  1
  Al  Al17  1  0.941506  0.441506  0.116987  1
  Ni  Ni18  1  0.313698  0.313698  0.372604  1
  Ni  Ni19  1  0.563721  0.063721  0.872559  1
