# generated using pymatgen
data_Dy6Th2Os3WC8
_symmetry_space_group_name_H-M   'P 1'
_cell_length_a   5.20970500
_cell_length_b   6.57229455
_cell_length_c   9.83768587
_cell_angle_alpha   89.81107729
_cell_angle_beta   90.00000000
_cell_angle_gamma   90.00000000
_symmetry_Int_Tables_number   1
_chemical_formula_structural   Dy6Th2Os3WC8
_chemical_formula_sum   'Dy6 Th2 Os3 W1 C8'
_cell_volume   336.83773713
_cell_formula_units_Z   1
loop_
 _symmetry_equiv_pos_site_id
 _symmetry_equiv_pos_as_xyz
  1  'x, y, z'
loop_
 _atom_site_type_symbol
 _atom_site_label
 _atom_site_symmetry_multiplicity
 _atom_site_fract_x
 _atom_site_fract_y
 _atom_site_fract_z
 _atom_site_occupancy
  Dy  Dy0  1  0.250000  0.678720  0.548547  1
  Dy  Dy1  1  0.750000  0.323690  0.444574  1
  Dy  Dy2  1  0.750000  0.823568  0.054579  1
  Dy  Dy3  1  0.250000  0.180008  0.950731  1
  Dy  Dy4  1  0.250000  0.530820  0.213650  1
  Dy  Dy5  1  0.250000  0.029007  0.285449  1
  Th  Th6  1  0.750000  0.466701  0.778316  1
  Th  Th7  1  0.750000  0.975607  0.715276  1
  Os  Os8  1  0.750000  0.276520  0.138566  1
  Os  Os9  1  0.750000  0.776548  0.361440  1
  Os  Os10  1  0.250000  0.226825  0.631984  1
  W  W11  1  0.250000  0.724338  0.867596  1
  C  C12  1  0.250000  0.455093  0.761803  1
  C  C13  1  0.750000  0.541138  0.241590  1
  C  C14  1  0.750000  0.041679  0.260037  1
  C  C15  1  0.250000  0.959938  0.739325  1
  C  C16  1  0.250000  0.825253  0.058141  1
  C  C17  1  0.750000  0.170045  0.948737  1
  C  C18  1  0.750000  0.669807  0.552678  1
  C  C19  1  0.250000  0.324695  0.446980  1
