# generated using pymatgen
data_Mg2NiSn(AuO2)4
_symmetry_space_group_name_H-M   'P 1'
_cell_length_a   5.39556886
_cell_length_b   6.27529070
_cell_length_c   7.15284037
_cell_angle_alpha   63.97989368
_cell_angle_beta   75.50281638
_cell_angle_gamma   90.00768847
_symmetry_Int_Tables_number   1
_chemical_formula_structural   Mg2NiSn(AuO2)4
_chemical_formula_sum   'Mg2 Ni1 Sn1 Au4 O8'
_cell_volume   209.01933414
_cell_formula_units_Z   1
loop_
 _symmetry_equiv_pos_site_id
 _symmetry_equiv_pos_as_xyz
  1  'x, y, z'
loop_
 _atom_site_type_symbol
 _atom_site_label
 _atom_site_symmetry_multiplicity
 _atom_site_fract_x
 _atom_site_fract_y
 _atom_site_fract_z
 _atom_site_occupancy
  Mg  Mg0  1  0.500002  0.751155  0.000013  1
  Mg  Mg1  1  0.999967  0.507936  0.000014  1
  Ni  Ni2  1  0.000172  0.993581  0.999952  1
  Sn  Sn3  1  0.499969  0.248514  0.999971  1
  Au  Au4  1  0.001815  0.998774  0.504234  1
  Au  Au5  1  0.998137  0.503038  0.495818  1
  Au  Au6  1  0.502601  0.749425  0.500397  1
  Au  Au7  1  0.497375  0.249897  0.499564  1
  O  O8  1  0.890504  0.837905  0.830379  1
  O  O9  1  0.891631  0.332548  0.829051  1
  O  O10  1  0.391828  0.583600  0.829794  1
  O  O11  1  0.387839  0.085983  0.829016  1
  O  O12  1  0.108289  0.161405  0.170979  1
  O  O13  1  0.109531  0.668102  0.169661  1
  O  O14  1  0.612245  0.914930  0.170924  1
  O  O15  1  0.608095  0.413205  0.170230  1
