# generated using pymatgen
data_YbSm(Pd2Au)2
_symmetry_space_group_name_H-M   'P 1'
_cell_length_a   6.07016632
_cell_length_b   6.04128328
_cell_length_c   7.87107900
_cell_angle_alpha   90.00259863
_cell_angle_beta   90.01862298
_cell_angle_gamma   89.98279511
_symmetry_Int_Tables_number   1
_chemical_formula_structural   YbSm(Pd2Au)2
_chemical_formula_sum   'Yb2 Sm2 Pd8 Au4'
_cell_volume   288.64498716
_cell_formula_units_Z   2
loop_
 _symmetry_equiv_pos_site_id
 _symmetry_equiv_pos_as_xyz
  1  'x, y, z'
loop_
 _atom_site_type_symbol
 _atom_site_label
 _atom_site_symmetry_multiplicity
 _atom_site_fract_x
 _atom_site_fract_y
 _atom_site_fract_z
 _atom_site_occupancy
  Yb  Yb0  1  0.750707  0.750004  0.499992  1
  Yb  Yb1  1  0.249292  0.249997  0.500008  1
  Sm  Sm2  1  0.250588  0.249959  0.999993  1
  Sm  Sm3  1  0.749412  0.750042  0.000007  1
  Pd  Pd4  1  0.000110  0.000030  0.255303  1
  Pd  Pd5  1  0.000124  0.499997  0.255277  1
  Pd  Pd6  1  0.500124  0.000005  0.256300  1
  Pd  Pd7  1  0.500112  0.499987  0.256344  1
  Pd  Pd8  1  0.499877  0.999995  0.743700  1
  Pd  Pd9  1  0.499889  0.500012  0.743656  1
  Pd  Pd10  1  0.999889  0.999970  0.744697  1
  Pd  Pd11  1  0.999875  0.500002  0.744723  1
  Au  Au12  1  0.749985  0.249946  0.999998  1
  Au  Au13  1  0.250014  0.750055  0.000002  1
  Au  Au14  1  0.249439  0.750090  0.499982  1
  Au  Au15  1  0.750560  0.249911  0.500018  1
