# generated using pymatgen
data_Sr6DySc(BO3)6
_symmetry_space_group_name_H-M   'P 1'
_cell_length_a   7.79857346
_cell_length_b   7.79857303
_cell_length_c   7.79857320
_cell_angle_alpha   105.12540961
_cell_angle_beta   105.12540200
_cell_angle_gamma   105.12540338
_symmetry_Int_Tables_number   1
_chemical_formula_structural   Sr6DySc(BO3)6
_chemical_formula_sum   'Sr6 Dy1 Sc1 B6 O18'
_cell_volume   413.53524365
_cell_formula_units_Z   1
loop_
 _symmetry_equiv_pos_site_id
 _symmetry_equiv_pos_as_xyz
  1  'x, y, z'
loop_
 _atom_site_type_symbol
 _atom_site_label
 _atom_site_symmetry_multiplicity
 _atom_site_fract_x
 _atom_site_fract_y
 _atom_site_fract_z
 _atom_site_occupancy
  Sr  Sr0  1  0.648225  0.264314  0.159372  1
  Sr  Sr1  1  0.159372  0.648225  0.264314  1
  Sr  Sr2  1  0.735685  0.840629  0.351775  1
  Sr  Sr3  1  0.264315  0.159371  0.648225  1
  Sr  Sr4  1  0.840629  0.351775  0.735686  1
  Sr  Sr5  1  0.351775  0.735686  0.840628  1
  Dy  Dy6  1  0.000000  0.000000  0.000000  1
  Sc  Sc7  1  0.500000  0.500000  0.500000  1
  B  B8  1  0.295093  0.378305  0.042051  1
  B  B9  1  0.378304  0.042051  0.295093  1
  B  B10  1  0.042051  0.295093  0.378304  1
  B  B11  1  0.957949  0.704908  0.621696  1
  B  B12  1  0.621696  0.957950  0.704907  1
  B  B13  1  0.704908  0.621696  0.957950  1
  O  O14  1  0.728414  0.814359  0.017830  1
  O  O15  1  0.807730  0.548631  0.071632  1
  O  O16  1  0.982170  0.271586  0.185639  1
  O  O17  1  0.451368  0.928368  0.192269  1
  O  O18  1  0.432470  0.497071  0.219068  1
  O  O19  1  0.185640  0.982170  0.271585  1
  O  O20  1  0.497070  0.219068  0.432470  1
  O  O21  1  0.928368  0.192269  0.451369  1
  O  O22  1  0.219068  0.432470  0.497071  1
  O  O23  1  0.780932  0.567530  0.502930  1
  O  O24  1  0.071632  0.807730  0.548631  1
  O  O25  1  0.502930  0.780932  0.567530  1
  O  O26  1  0.814359  0.017829  0.728414  1
  O  O27  1  0.567530  0.502930  0.780933  1
  O  O28  1  0.548631  0.071632  0.807731  1
  O  O29  1  0.017829  0.728413  0.814360  1
  O  O30  1  0.192269  0.451368  0.928368  1
  O  O31  1  0.271586  0.185640  0.982170  1
