# generated using pymatgen
data_ErTh9(In2Ir)4
_symmetry_space_group_name_H-M   'P 1'
_cell_length_a   3.82032000
_cell_length_b   8.21466088
_cell_length_c   18.54898296
_cell_angle_alpha   90.46958763
_cell_angle_beta   90.00000000
_cell_angle_gamma   90.00000000
_symmetry_Int_Tables_number   1
_chemical_formula_structural   ErTh9(In2Ir)4
_chemical_formula_sum   'Er1 Th9 In8 Ir4'
_cell_volume   582.09637860
_cell_formula_units_Z   1
loop_
 _symmetry_equiv_pos_site_id
 _symmetry_equiv_pos_as_xyz
  1  'x, y, z'
loop_
 _atom_site_type_symbol
 _atom_site_label
 _atom_site_symmetry_multiplicity
 _atom_site_fract_x
 _atom_site_fract_y
 _atom_site_fract_z
 _atom_site_occupancy
  Er  Er0  1  0.000000  0.000000  0.000000  1
  Th  Th1  1  0.000000  0.500000  0.500000  1
  Th  Th2  1  0.000000  0.753538  0.276479  1
  Th  Th3  1  0.000000  0.246462  0.723521  1
  Th  Th4  1  0.000000  0.748174  0.779235  1
  Th  Th5  1  0.000000  0.251826  0.220765  1
  Th  Th6  1  0.000000  0.619331  0.084662  1
  Th  Th7  1  0.000000  0.380669  0.915338  1
  Th  Th8  1  0.000000  0.874735  0.586015  1
  Th  Th9  1  0.000000  0.125265  0.413985  1
  In  In10  1  0.500000  0.714214  0.934043  1
  In  In11  1  0.500000  0.285786  0.065957  1
  In  In12  1  0.500000  0.793902  0.432204  1
  In  In13  1  0.500000  0.206098  0.567796  1
  In  In14  1  0.500000  0.560429  0.649547  1
  In  In15  1  0.500000  0.439571  0.350453  1
  In  In16  1  0.500000  0.940092  0.146188  1
  In  In17  1  0.500000  0.059908  0.853812  1
  Ir  Ir18  1  0.500000  0.531541  0.196193  1
  Ir  Ir19  1  0.500000  0.468459  0.803807  1
  Ir  Ir20  1  0.500000  0.969375  0.696296  1
  Ir  Ir21  1  0.500000  0.030625  0.303704  1
