# generated using pymatgen
data_Li3Tb3SiAgP
_symmetry_space_group_name_H-M   'P 1'
_cell_length_a   7.11475900
_cell_length_b   7.11475735
_cell_length_c   4.16404700
_cell_angle_alpha   90.00000000
_cell_angle_beta   90.00000000
_cell_angle_gamma   119.99999371
_symmetry_Int_Tables_number   1
_chemical_formula_structural   Li3Tb3SiAgP
_chemical_formula_sum   'Li3 Tb3 Si1 Ag1 P1'
_cell_volume   182.54358224
_cell_formula_units_Z   1
loop_
 _symmetry_equiv_pos_site_id
 _symmetry_equiv_pos_as_xyz
  1  'x, y, z'
loop_
 _atom_site_type_symbol
 _atom_site_label
 _atom_site_symmetry_multiplicity
 _atom_site_fract_x
 _atom_site_fract_y
 _atom_site_fract_z
 _atom_site_occupancy
  Li  Li0  1  0.247269  0.998300  0.500000  1
  Li  Li1  1  0.751031  0.752731  0.500000  1
  Li  Li2  1  0.001700  0.248969  0.500000  1
  Tb  Tb3  1  0.000096  0.574065  0.000000  1
  Tb  Tb4  1  0.573969  0.999904  0.000000  1
  Tb  Tb5  1  0.425935  0.426031  0.000000  1
  Si  Si6  1  0.666667  0.333333  0.500000  1
  Ag  Ag7  1  0.000000  0.000000  0.000000  1
  P  P8  1  0.333333  0.666667  0.500000  1
