# generated using pymatgen
data_Ce2TmLu(MnC4)2
_symmetry_space_group_name_H-M   'P 1'
_cell_length_a   6.46572129
_cell_length_b   6.80714074
_cell_length_c   6.80714138
_cell_angle_alpha   136.83246487
_cell_angle_beta   111.16516570
_cell_angle_gamma   85.63425667
_symmetry_Int_Tables_number   1
_chemical_formula_structural   Ce2TmLu(MnC4)2
_chemical_formula_sum   'Ce2 Tm1 Lu1 Mn2 C8'
_cell_volume   182.72708950
_cell_formula_units_Z   1
loop_
 _symmetry_equiv_pos_site_id
 _symmetry_equiv_pos_as_xyz
  1  'x, y, z'
loop_
 _atom_site_type_symbol
 _atom_site_label
 _atom_site_symmetry_multiplicity
 _atom_site_fract_x
 _atom_site_fract_y
 _atom_site_fract_z
 _atom_site_occupancy
  Ce  Ce0  1  0.499366  0.349724  0.149642  1
  Ce  Ce1  1  0.500445  0.650222  0.850223  1
  Tm  Tm2  1  0.808809  0.139886  0.668921  1
  Lu  Lu3  1  0.194244  0.861451  0.332794  1
  Mn  Mn4  1  0.999353  0.251734  0.251915  1
  Mn  Mn5  1  0.999353  0.747437  0.747619  1
  C  C6  1  0.250512  0.074082  0.176429  1
  C  C7  1  0.747163  0.924544  0.822620  1
  C  C8  1  0.925066  0.583315  0.341752  1
  C  C9  1  0.075401  0.417084  0.658317  1
  C  C10  1  0.476135  0.121347  0.354788  1
  C  C11  1  0.521322  0.877322  0.644000  1
  C  C12  1  0.801274  0.631438  0.169835  1
  C  C13  1  0.201557  0.370414  0.831144  1
