# generated using pymatgen
data_Tb4Nd2Er4In8PdPt3
_symmetry_space_group_name_H-M   'P 1'
_cell_length_a   3.63771800
_cell_length_b   8.20607600
_cell_length_c   18.37268400
_cell_angle_alpha   90.00000000
_cell_angle_beta   90.00000000
_cell_angle_gamma   90.00000000
_symmetry_Int_Tables_number   1
_chemical_formula_structural   Tb4Nd2Er4In8PdPt3
_chemical_formula_sum   'Tb4 Nd2 Er4 In8 Pd1 Pt3'
_cell_volume   548.45016231
_cell_formula_units_Z   1
loop_
 _symmetry_equiv_pos_site_id
 _symmetry_equiv_pos_as_xyz
  1  'x, y, z'
loop_
 _atom_site_type_symbol
 _atom_site_label
 _atom_site_symmetry_multiplicity
 _atom_site_fract_x
 _atom_site_fract_y
 _atom_site_fract_z
 _atom_site_occupancy
  Tb  Tb0  1  0.000000  0.735753  0.281124  1
  Tb  Tb1  1  0.000000  0.261729  0.718782  1
  Tb  Tb2  1  0.000000  0.761489  0.781280  1
  Tb  Tb3  1  0.000000  0.240807  0.217984  1
  Nd  Nd4  1  0.000000  0.500098  0.500097  1
  Nd  Nd5  1  0.000000  0.999787  0.999994  1
  Er  Er6  1  0.000000  0.618990  0.085023  1
  Er  Er7  1  0.000000  0.381120  0.914826  1
  Er  Er8  1  0.000000  0.880829  0.585176  1
  Er  Er9  1  0.000000  0.119499  0.415684  1
  In  In10  1  0.500000  0.700259  0.932771  1
  In  In11  1  0.500000  0.299690  0.067205  1
  In  In12  1  0.500000  0.800440  0.432369  1
  In  In13  1  0.500000  0.200157  0.567143  1
  In  In14  1  0.500000  0.583394  0.652350  1
  In  In15  1  0.500000  0.415554  0.347701  1
  In  In16  1  0.500000  0.917209  0.152790  1
  In  In17  1  0.500000  0.083393  0.847632  1
  Pd  Pd18  1  0.500000  0.023983  0.305267  1
  Pt  Pt19  1  0.500000  0.524180  0.194868  1
  Pt  Pt20  1  0.500000  0.475781  0.805293  1
  Pt  Pt21  1  0.500000  0.975858  0.694640  1
