# generated using pymatgen
data_TiGa2Ru4W
_symmetry_space_group_name_H-M   'P 1'
_cell_length_a   4.34231400
_cell_length_b   6.12542400
_cell_length_c   12.98835000
_cell_angle_alpha   90.00000000
_cell_angle_beta   90.00256800
_cell_angle_gamma   90.00000000
_symmetry_Int_Tables_number   1
_chemical_formula_structural   TiGa2Ru4W
_chemical_formula_sum   'Ti3 Ga6 Ru12 W3'
_cell_volume   345.47081422
_cell_formula_units_Z   3
loop_
 _symmetry_equiv_pos_site_id
 _symmetry_equiv_pos_as_xyz
  1  'x, y, z'
loop_
 _atom_site_type_symbol
 _atom_site_label
 _atom_site_symmetry_multiplicity
 _atom_site_fract_x
 _atom_site_fract_y
 _atom_site_fract_z
 _atom_site_occupancy
  Ti  Ti0  1  0.500016  0.000000  0.504301  1
  Ti  Ti1  1  0.000191  0.500000  0.666648  1
  Ti  Ti2  1  0.500191  0.000000  0.829012  1
  Ga  Ga3  1  0.000010  0.000000  0.997087  1
  Ga  Ga4  1  0.499734  0.500000  0.166656  1
  Ga  Ga5  1  0.999779  0.000000  0.336237  1
  Ga  Ga6  1  0.500013  0.500000  0.504185  1
  Ga  Ga7  1  0.000253  0.000000  0.666653  1
  Ga  Ga8  1  0.500219  0.500000  0.829147  1
  Ru  Ru9  1  0.500014  0.252060  0.002750  1
  Ru  Ru10  1  0.500014  0.747940  0.002750  1
  Ru  Ru11  1  0.999815  0.249294  0.166691  1
  Ru  Ru12  1  0.999815  0.750706  0.166691  1
  Ru  Ru13  1  0.499797  0.252033  0.330623  1
  Ru  Ru14  1  0.499797  0.747967  0.330623  1
  Ru  Ru15  1  0.000014  0.250720  0.497812  1
  Ru  Ru16  1  0.000014  0.749280  0.497812  1
  Ru  Ru17  1  0.500183  0.248478  0.666691  1
  Ru  Ru18  1  0.500183  0.751522  0.666691  1
  Ru  Ru19  1  0.000160  0.250677  0.835496  1
  Ru  Ru20  1  0.000160  0.749323  0.835496  1
  W  W21  1  0.000013  0.500000  0.994493  1
  W  W22  1  0.499815  0.000000  0.166664  1
  W  W23  1  0.999803  0.500000  0.338795  1
