# generated using pymatgen
data_Tm2LuGa3Ge2Rh
_symmetry_space_group_name_H-M   'P 1'
_cell_length_a   6.92061955
_cell_length_b   6.92061953
_cell_length_c   4.16536600
_cell_angle_alpha   90.00000000
_cell_angle_beta   90.00000000
_cell_angle_gamma   119.92336935
_symmetry_Int_Tables_number   1
_chemical_formula_structural   Tm2LuGa3Ge2Rh
_chemical_formula_sum   'Tm2 Lu1 Ga3 Ge2 Rh1'
_cell_volume   172.90541121
_cell_formula_units_Z   1
loop_
 _symmetry_equiv_pos_site_id
 _symmetry_equiv_pos_as_xyz
  1  'x, y, z'
loop_
 _atom_site_type_symbol
 _atom_site_label
 _atom_site_symmetry_multiplicity
 _atom_site_fract_x
 _atom_site_fract_y
 _atom_site_fract_z
 _atom_site_occupancy
  Tm  Tm0  1  0.410249  0.000292  0.000000  1
  Tm  Tm1  1  0.000292  0.410249  0.000000  1
  Lu  Lu2  1  0.590553  0.590554  0.000000  1
  Ga  Ga3  1  0.765099  0.999900  0.499999  1
  Ga  Ga4  1  0.235074  0.235074  0.499999  1
  Ga  Ga5  1  0.999900  0.765099  0.499999  1
  Ge  Ge6  1  0.666301  0.334156  0.499999  1
  Ge  Ge7  1  0.334155  0.666301  0.499999  1
  Rh  Rh8  1  0.998379  0.998379  0.000000  1
