# generated using pymatgen
data_La3(In2Ir)2
_symmetry_space_group_name_H-M   'P 1'
_cell_length_a   7.91751900
_cell_length_b   7.91751997
_cell_length_c   4.18337400
_cell_angle_alpha   90.00000000
_cell_angle_beta   90.00000000
_cell_angle_gamma   119.99999176
_symmetry_Int_Tables_number   1
_chemical_formula_structural   La3(In2Ir)2
_chemical_formula_sum   'La3 In4 Ir2'
_cell_volume   227.10967848
_cell_formula_units_Z   1
loop_
 _symmetry_equiv_pos_site_id
 _symmetry_equiv_pos_as_xyz
  1  'x, y, z'
loop_
 _atom_site_type_symbol
 _atom_site_label
 _atom_site_symmetry_multiplicity
 _atom_site_fract_x
 _atom_site_fract_y
 _atom_site_fract_z
 _atom_site_occupancy
  La  La0  1  0.031268  0.612668  0.500000  1
  La  La1  1  0.581400  0.968732  0.500000  1
  La  La2  1  0.387332  0.418600  0.500000  1
  In  In3  1  0.002145  0.244162  0.000000  1
  In  In4  1  0.242016  0.997855  0.000000  1
  In  In5  1  0.755838  0.757984  0.000000  1
  In  In6  1  0.666667  0.333333  0.000000  1
  Ir  Ir7  1  0.000000  0.000000  0.500000  1
  Ir  Ir8  1  0.333333  0.666667  0.000000  1
