# generated using pymatgen
data_Pu3Np5(B6Mo)4
_symmetry_space_group_name_H-M   'P 1'
_cell_length_a   3.66181100
_cell_length_b   9.29790343
_cell_length_c   11.34453653
_cell_angle_alpha   89.96500822
_cell_angle_beta   90.00000000
_cell_angle_gamma   90.00000000
_symmetry_Int_Tables_number   1
_chemical_formula_structural   Pu3Np5(B6Mo)4
_chemical_formula_sum   'Pu3 Np5 B24 Mo4'
_cell_volume   386.24923581
_cell_formula_units_Z   1
loop_
 _symmetry_equiv_pos_site_id
 _symmetry_equiv_pos_as_xyz
  1  'x, y, z'
loop_
 _atom_site_type_symbol
 _atom_site_label
 _atom_site_symmetry_multiplicity
 _atom_site_fract_x
 _atom_site_fract_y
 _atom_site_fract_z
 _atom_site_occupancy
  Pu  Pu0  1  0.000000  0.337174  0.406874  1
  Pu  Pu1  1  0.000000  0.662758  0.592796  1
  Pu  Pu2  1  0.000000  0.837605  0.092853  1
  Np  Np3  1  0.000000  0.162045  0.906860  1
  Np  Np4  1  0.000000  0.958565  0.400185  1
  Np  Np5  1  0.000000  0.041458  0.600109  1
  Np  Np6  1  0.000000  0.458812  0.100136  1
  Np  Np7  1  0.000000  0.541330  0.899934  1
  B  B8  1  0.500000  0.551921  0.432261  1
  B  B9  1  0.500000  0.448118  0.567863  1
  B  B10  1  0.500000  0.052256  0.067420  1
  B  B11  1  0.500000  0.948820  0.932004  1
  B  B12  1  0.500000  0.745164  0.423927  1
  B  B13  1  0.500000  0.254940  0.575957  1
  B  B14  1  0.500000  0.244852  0.075610  1
  B  B15  1  0.500000  0.754654  0.923835  1
  B  B16  1  0.500000  0.806085  0.274288  1
  B  B17  1  0.500000  0.193896  0.726120  1
  B  B18  1  0.500000  0.305976  0.225704  1
  B  B19  1  0.500000  0.694010  0.774335  1
  B  B20  1  0.500000  0.645030  0.187030  1
  B  B21  1  0.500000  0.354368  0.813211  1
  B  B22  1  0.500000  0.144975  0.312862  1
  B  B23  1  0.500000  0.854810  0.686976  1
  B  B24  1  0.500000  0.987969  0.221118  1
  B  B25  1  0.500000  0.012452  0.779483  1
  B  B26  1  0.500000  0.487963  0.279222  1
  B  B27  1  0.500000  0.512003  0.720783  1
  B  B28  1  0.500000  0.640564  0.038979  1
  B  B29  1  0.500000  0.358557  0.960833  1
  B  B30  1  0.500000  0.140240  0.461190  1
  B  B31  1  0.500000  0.859808  0.538892  1
  Mo  Mo32  1  0.000000  0.647142  0.318825  1
  Mo  Mo33  1  0.000000  0.351966  0.682294  1
  Mo  Mo34  1  0.000000  0.147245  0.180209  1
  Mo  Mo35  1  0.000000  0.854469  0.819022  1
