# generated using pymatgen
data_YbDy4(In2Ir)2
_symmetry_space_group_name_H-M   'P 1'
_cell_length_a   3.67934700
_cell_length_b   8.04331000
_cell_length_c   18.35824000
_cell_angle_alpha   90.00000000
_cell_angle_beta   90.00000000
_cell_angle_gamma   90.00000000
_symmetry_Int_Tables_number   1
_chemical_formula_structural   YbDy4(In2Ir)2
_chemical_formula_sum   'Yb2 Dy8 In8 Ir4'
_cell_volume   543.29611393
_cell_formula_units_Z   2
loop_
 _symmetry_equiv_pos_site_id
 _symmetry_equiv_pos_as_xyz
  1  'x, y, z'
loop_
 _atom_site_type_symbol
 _atom_site_label
 _atom_site_symmetry_multiplicity
 _atom_site_fract_x
 _atom_site_fract_y
 _atom_site_fract_z
 _atom_site_occupancy
  Yb  Yb0  1  0.500000  0.500000  0.000000  1
  Yb  Yb1  1  0.500000  0.000000  0.500000  1
  Dy  Dy2  1  0.500000  0.383019  0.589103  1
  Dy  Dy3  1  0.500000  0.883019  0.910897  1
  Dy  Dy4  1  0.500000  0.116981  0.089103  1
  Dy  Dy5  1  0.500000  0.755081  0.721391  1
  Dy  Dy6  1  0.500000  0.255081  0.778609  1
  Dy  Dy7  1  0.500000  0.744919  0.221391  1
  Dy  Dy8  1  0.500000  0.244919  0.278609  1
  Dy  Dy9  1  0.500000  0.616981  0.410897  1
  In  In10  1  0.000000  0.794296  0.067647  1
  In  In11  1  0.000000  0.929736  0.349901  1
  In  In12  1  0.000000  0.070264  0.650099  1
  In  In13  1  0.000000  0.570264  0.849901  1
  In  In14  1  0.000000  0.705704  0.567647  1
  In  In15  1  0.000000  0.205704  0.932353  1
  In  In16  1  0.000000  0.294296  0.432353  1
  In  In17  1  0.000000  0.429736  0.150099  1
  Ir  Ir18  1  0.000000  0.980778  0.804946  1
  Ir  Ir19  1  0.000000  0.519222  0.304946  1
  Ir  Ir20  1  0.000000  0.480778  0.695054  1
  Ir  Ir21  1  0.000000  0.019222  0.195054  1
