# generated using pymatgen
data_Zn6In5AsRh12
_symmetry_space_group_name_H-M   'P 1'
_cell_length_a   4.41073841
_cell_length_b   6.26452100
_cell_length_c   13.28371919
_cell_angle_alpha   90.00000000
_cell_angle_beta   90.07999845
_cell_angle_gamma   90.00000000
_symmetry_Int_Tables_number   1
_chemical_formula_structural   Zn6In5AsRh12
_chemical_formula_sum   'Zn6 In5 As1 Rh12'
_cell_volume   367.04425754
_cell_formula_units_Z   1
loop_
 _symmetry_equiv_pos_site_id
 _symmetry_equiv_pos_as_xyz
  1  'x, y, z'
loop_
 _atom_site_type_symbol
 _atom_site_label
 _atom_site_symmetry_multiplicity
 _atom_site_fract_x
 _atom_site_fract_y
 _atom_site_fract_z
 _atom_site_occupancy
  Zn  Zn0  1  0.000081  0.000000  0.999981  1
  Zn  Zn1  1  0.500273  0.499999  0.174443  1
  Zn  Zn2  1  0.000064  0.000000  0.329737  1
  Zn  Zn3  1  0.499990  0.499999  0.499993  1
  Zn  Zn4  1  0.000052  0.000000  0.670252  1
  Zn  Zn5  1  0.500057  0.499999  0.825480  1
  In  In6  1  0.499916  0.000000  0.163467  1
  In  In7  1  0.999533  0.499999  0.331880  1
  In  In8  1  0.499893  0.000000  0.499815  1
  In  In9  1  0.999639  0.499999  0.668063  1
  In  In10  1  0.499506  0.000000  0.836618  1
  As  As11  1  0.000066  0.499999  0.000016  1
  Rh  Rh12  1  0.500225  0.273018  0.000064  1
  Rh  Rh13  1  0.500225  0.726982  0.000064  1
  Rh  Rh14  1  0.000563  0.262714  0.153875  1
  Rh  Rh15  1  0.000563  0.737284  0.153875  1
  Rh  Rh16  1  0.500098  0.246437  0.331529  1
  Rh  Rh17  1  0.500098  0.753563  0.331529  1
  Rh  Rh18  1  0.999821  0.250249  0.499982  1
  Rh  Rh19  1  0.999821  0.749749  0.499982  1
  Rh  Rh20  1  0.499936  0.246239  0.668481  1
  Rh  Rh21  1  0.499936  0.753761  0.668481  1
  Rh  Rh22  1  0.999822  0.262706  0.846197  1
  Rh  Rh23  1  0.999822  0.737292  0.846197  1
