# generated using pymatgen
data_LuTi2(TcP)3
_symmetry_space_group_name_H-M   'P 1'
_cell_length_a   7.42940723
_cell_length_b   7.42940717
_cell_length_c   7.42940800
_cell_angle_alpha   127.18254534
_cell_angle_beta   123.89935384
_cell_angle_gamma   80.67164330
_symmetry_Int_Tables_number   1
_chemical_formula_structural   LuTi2(TcP)3
_chemical_formula_sum   'Lu2 Ti4 Tc6 P6'
_cell_volume   261.51150547
_cell_formula_units_Z   2
loop_
 _symmetry_equiv_pos_site_id
 _symmetry_equiv_pos_as_xyz
  1  'x, y, z'
loop_
 _atom_site_type_symbol
 _atom_site_label
 _atom_site_symmetry_multiplicity
 _atom_site_fract_x
 _atom_site_fract_y
 _atom_site_fract_z
 _atom_site_occupancy
  Lu  Lu0  1  0.463752  0.241614  0.277861  1
  Lu  Lu1  1  0.536248  0.814109  0.777861  1
  Ti  Ti2  1  0.744934  0.658899  0.413964  1
  Ti  Ti3  1  0.255066  0.669030  0.913964  1
  Ti  Ti4  1  0.055818  0.845420  0.289603  1
  Ti  Ti5  1  0.944182  0.233785  0.789603  1
  Tc  Tc6  1  0.663141  0.496874  0.909896  1
  Tc  Tc7  1  0.336859  0.246754  0.833733  1
  Tc  Tc8  1  0.913022  0.246754  0.409896  1
  Tc  Tc9  1  0.086978  0.496874  0.333733  1
  Tc  Tc10  1  0.000000  0.995828  0.995828  1
  Tc  Tc11  1  0.500000  0.995828  0.495828  1
  P  P12  1  0.851090  0.575931  0.756584  1
  P  P13  1  0.148910  0.905493  0.724842  1
  P  P14  1  0.680651  0.905493  0.256584  1
  P  P15  1  0.319349  0.575931  0.224842  1
  P  P16  1  0.275219  0.293110  0.517890  1
  P  P17  1  0.724781  0.242670  0.017890  1
