# generated using pymatgen
data_CaEr2(Al3Pd2)3
_symmetry_space_group_name_H-M   'P 1'
_cell_length_a   4.19447600
_cell_length_b   9.41518796
_cell_length_c   9.41282005
_cell_angle_alpha   120.00946446
_cell_angle_beta   90.00000000
_cell_angle_gamma   90.00000000
_symmetry_Int_Tables_number   1
_chemical_formula_structural   CaEr2(Al3Pd2)3
_chemical_formula_sum   'Ca1 Er2 Al9 Pd6'
_cell_volume   321.89606636
_cell_formula_units_Z   1
loop_
 _symmetry_equiv_pos_site_id
 _symmetry_equiv_pos_as_xyz
  1  'x, y, z'
loop_
 _atom_site_type_symbol
 _atom_site_label
 _atom_site_symmetry_multiplicity
 _atom_site_fract_x
 _atom_site_fract_y
 _atom_site_fract_z
 _atom_site_occupancy
  Ca  Ca0  1  0.000000  0.999981  0.000002  1
  Er  Er1  1  0.500000  0.333550  0.667105  1
  Er  Er2  1  0.500000  0.666485  0.332911  1
  Al  Al3  1  0.500000  0.306470  0.999999  1
  Al  Al4  1  0.500000  0.693815  0.693696  1
  Al  Al5  1  0.500000  0.000117  0.306302  1
  Al  Al6  1  0.500000  0.693510  0.999998  1
  Al  Al7  1  0.500000  0.306174  0.306301  1
  Al  Al8  1  0.500000  0.999872  0.693697  1
  Al  Al9  1  0.000000  0.499987  0.999999  1
  Al  Al10  1  0.000000  0.500005  0.499999  1
  Al  Al11  1  0.000000  0.000004  0.499999  1
  Pd  Pd12  1  0.000000  0.185971  0.371939  1
  Pd  Pd13  1  0.000000  0.185923  0.814053  1
  Pd  Pd14  1  0.000000  0.628084  0.814040  1
  Pd  Pd15  1  0.000000  0.814029  0.628055  1
  Pd  Pd16  1  0.000000  0.371876  0.185949  1
  Pd  Pd17  1  0.000000  0.814049  0.185955  1
