# generated using pymatgen
data_Na2Ag3(P2O7)2
_symmetry_space_group_name_H-M   'P 1'
_cell_length_a   6.23631708
_cell_length_b   6.87535580
_cell_length_c   7.82663912
_cell_angle_alpha   78.83885978
_cell_angle_beta   79.50282740
_cell_angle_gamma   74.18917884
_symmetry_Int_Tables_number   1
_chemical_formula_structural   Na2Ag3(P2O7)2
_chemical_formula_sum   'Na2 Ag3 P4 O14'
_cell_volume   313.78633284
_cell_formula_units_Z   1
loop_
 _symmetry_equiv_pos_site_id
 _symmetry_equiv_pos_as_xyz
  1  'x, y, z'
loop_
 _atom_site_type_symbol
 _atom_site_label
 _atom_site_symmetry_multiplicity
 _atom_site_fract_x
 _atom_site_fract_y
 _atom_site_fract_z
 _atom_site_occupancy
  Na  Na0  1  0.597215  0.992066  0.688374  1
  Na  Na1  1  0.402785  0.007934  0.311626  1
  Ag  Ag2  1  0.205389  0.515630  0.309790  1
  Ag  Ag3  1  0.000000  0.000000  0.000000  1
  Ag  Ag4  1  0.794611  0.484370  0.690210  1
  P  P5  1  0.177132  0.737817  0.675393  1
  P  P6  1  0.659449  0.664965  0.087735  1
  P  P7  1  0.340551  0.335035  0.912265  1
  P  P8  1  0.822868  0.262183  0.324607  1
  O  O9  1  0.219296  0.571869  0.852787  1
  O  O10  1  0.604571  0.216614  0.418287  1
  O  O11  1  0.666282  0.685213  0.889226  1
  O  O12  1  0.002316  0.082351  0.256098  1
  O  O13  1  0.934424  0.363007  0.439577  1
  O  O14  1  0.065576  0.636993  0.560423  1
  O  O15  1  0.333718  0.314787  0.110774  1
  O  O16  1  0.395429  0.783386  0.581713  1
  O  O17  1  0.581525  0.284114  0.813305  1
  O  O18  1  0.782906  0.803871  0.143498  1
  O  O19  1  0.217094  0.196129  0.856502  1
  O  O20  1  0.418475  0.715886  0.186695  1
  O  O21  1  0.997684  0.917649  0.743902  1
  O  O22  1  0.780704  0.428131  0.147213  1
