# generated using pymatgen
data_Tb2Sm2ScPt3O14
_symmetry_space_group_name_H-M   'P 1'
_cell_length_a   7.32926051
_cell_length_b   7.32076734
_cell_length_c   7.39369351
_cell_angle_alpha   60.22812763
_cell_angle_beta   60.28786919
_cell_angle_gamma   59.96162075
_symmetry_Int_Tables_number   1
_chemical_formula_structural   Tb2Sm2ScPt3O14
_chemical_formula_sum   'Tb2 Sm2 Sc1 Pt3 O14'
_cell_volume   281.52599863
_cell_formula_units_Z   1
loop_
 _symmetry_equiv_pos_site_id
 _symmetry_equiv_pos_as_xyz
  1  'x, y, z'
loop_
 _atom_site_type_symbol
 _atom_site_label
 _atom_site_symmetry_multiplicity
 _atom_site_fract_x
 _atom_site_fract_y
 _atom_site_fract_z
 _atom_site_occupancy
  Tb  Tb0  1  0.625000  0.625000  0.125000  1
  Tb  Tb1  1  0.625000  0.125000  0.625000  1
  Sm  Sm2  1  0.625000  0.625000  0.625000  1
  Sm  Sm3  1  0.125000  0.625000  0.625000  1
  Sc  Sc4  1  0.125000  0.125000  0.625000  1
  Pt  Pt5  1  0.125000  0.125000  0.125000  1
  Pt  Pt6  1  0.625000  0.125000  0.125000  1
  Pt  Pt7  1  0.125000  0.625000  0.125000  1
  O  O8  1  0.034199  0.473908  0.457694  1
  O  O9  1  0.790619  0.790443  0.199799  1
  O  O10  1  0.790001  0.218036  0.201962  1
  O  O11  1  0.474833  0.035800  0.458512  1
  O  O12  1  0.030861  0.459557  0.050201  1
  O  O13  1  0.743766  0.751644  0.760825  1
  O  O14  1  0.030856  0.035800  0.458512  1
  O  O15  1  0.219139  0.790443  0.199799  1
  O  O16  1  0.219144  0.214200  0.791488  1
  O  O17  1  0.506234  0.498356  0.489175  1
  O  O18  1  0.775167  0.214200  0.791488  1
  O  O19  1  0.459999  0.031964  0.048038  1
  O  O20  1  0.459381  0.459557  0.050201  1
  O  O21  1  0.215801  0.776092  0.792306  1
