# generated using pymatgen
data_Rb3FeBrCl4
_symmetry_space_group_name_H-M   'P 1'
_cell_length_a   9.11231100
_cell_length_b   10.19729100
_cell_length_c   13.07781400
_cell_angle_alpha   90.00000000
_cell_angle_beta   90.00000000
_cell_angle_gamma   90.00000000
_symmetry_Int_Tables_number   1
_chemical_formula_structural   Rb3FeBrCl4
_chemical_formula_sum   'Rb12 Fe4 Br4 Cl16'
_cell_volume   1215.20207624
_cell_formula_units_Z   4
loop_
 _symmetry_equiv_pos_site_id
 _symmetry_equiv_pos_as_xyz
  1  'x, y, z'
loop_
 _atom_site_type_symbol
 _atom_site_label
 _atom_site_symmetry_multiplicity
 _atom_site_fract_x
 _atom_site_fract_y
 _atom_site_fract_z
 _atom_site_occupancy
  Rb  Rb0  1  0.898318  0.750000  0.472779  1
  Rb  Rb1  1  0.601682  0.750000  0.972779  1
  Rb  Rb2  1  0.101682  0.250000  0.527221  1
  Rb  Rb3  1  0.398318  0.250000  0.027221  1
  Rb  Rb4  1  0.584700  0.482743  0.674886  1
  Rb  Rb5  1  0.915300  0.017257  0.174886  1
  Rb  Rb6  1  0.415300  0.982743  0.325114  1
  Rb  Rb7  1  0.084700  0.517257  0.825114  1
  Rb  Rb8  1  0.415300  0.517257  0.325114  1
  Rb  Rb9  1  0.084700  0.982743  0.825114  1
  Rb  Rb10  1  0.584700  0.017257  0.674886  1
  Rb  Rb11  1  0.915300  0.482743  0.174886  1
  Fe  Fe12  1  0.303711  0.750000  0.602483  1
  Fe  Fe13  1  0.196289  0.750000  0.102483  1
  Fe  Fe14  1  0.696289  0.250000  0.397517  1
  Fe  Fe15  1  0.803711  0.250000  0.897517  1
  Br  Br16  1  0.671687  0.750000  0.229567  1
  Br  Br17  1  0.828313  0.750000  0.729567  1
  Br  Br18  1  0.328313  0.250000  0.770433  1
  Br  Br19  1  0.171687  0.250000  0.270433  1
  Cl  Cl20  1  0.808400  0.444422  0.433001  1
  Cl  Cl21  1  0.691600  0.055578  0.933001  1
  Cl  Cl22  1  0.191600  0.944422  0.566999  1
  Cl  Cl23  1  0.308400  0.555578  0.066999  1
  Cl  Cl24  1  0.191600  0.555578  0.566999  1
  Cl  Cl25  1  0.308400  0.944422  0.066999  1
  Cl  Cl26  1  0.808400  0.055578  0.433001  1
  Cl  Cl27  1  0.691600  0.444422  0.933001  1
  Cl  Cl28  1  0.151499  0.750000  0.277812  1
  Cl  Cl29  1  0.348501  0.750000  0.777812  1
  Cl  Cl30  1  0.848501  0.250000  0.722188  1
  Cl  Cl31  1  0.651499  0.250000  0.222188  1
  Cl  Cl32  1  0.515271  0.750000  0.506862  1
  Cl  Cl33  1  0.984729  0.750000  0.006862  1
  Cl  Cl34  1  0.484729  0.250000  0.493138  1
  Cl  Cl35  1  0.015271  0.250000  0.993138  1
