# generated using pymatgen
data_La5Th(Ir7Rh2)2
_symmetry_space_group_name_H-M   'P 1'
_cell_length_a   5.39518100
_cell_length_b   5.39511250
_cell_length_c   17.76217700
_cell_angle_alpha   90.00039330
_cell_angle_beta   89.99970294
_cell_angle_gamma   120.00041385
_symmetry_Int_Tables_number   1
_chemical_formula_structural   La5Th(Ir7Rh2)2
_chemical_formula_sum   'La5 Th1 Ir14 Rh4'
_cell_volume   447.74581850
_cell_formula_units_Z   1
loop_
 _symmetry_equiv_pos_site_id
 _symmetry_equiv_pos_as_xyz
  1  'x, y, z'
loop_
 _atom_site_type_symbol
 _atom_site_label
 _atom_site_symmetry_multiplicity
 _atom_site_fract_x
 _atom_site_fract_y
 _atom_site_fract_z
 _atom_site_occupancy
  La  La0  1  0.666664  0.333330  0.041369  1
  La  La1  1  0.666666  0.333336  0.456783  1
  La  La2  1  0.333334  0.666669  0.959676  1
  La  La3  1  0.333360  0.666686  0.752851  1
  La  La4  1  0.666631  0.333294  0.249228  1
  Th  Th5  1  0.333336  0.666669  0.542068  1
  Ir  Ir6  1  0.166645  0.333295  0.128332  1
  Ir  Ir7  1  0.832773  0.665538  0.626549  1
  Ir  Ir8  1  0.666703  0.833347  0.128332  1
  Ir  Ir9  1  0.166640  0.833348  0.128332  1
  Ir  Ir10  1  0.832769  0.167239  0.626546  1
  Ir  Ir11  1  0.334476  0.167238  0.626545  1
  Ir  Ir12  1  0.833303  0.666601  0.871709  1
  Ir  Ir13  1  0.833308  0.166705  0.871709  1
  Ir  Ir14  1  0.333406  0.166705  0.871711  1
  Ir  Ir15  1  0.665865  0.832936  0.372992  1
  Ir  Ir16  1  0.167061  0.832934  0.372993  1
  Ir  Ir17  1  0.167059  0.334129  0.372989  1
  Ir  Ir18  1  0.999998  0.999999  0.999982  1
  Ir  Ir19  1  0.999999  0.000000  0.499567  1
  Rh  Rh20  1  0.999990  0.999987  0.250748  1
  Rh  Rh21  1  0.000019  0.000015  0.749235  1
  Rh  Rh22  1  0.333328  0.666670  0.250487  1
  Rh  Rh23  1  0.666667  0.333331  0.749266  1
