# generated using pymatgen
data_Sc2VNi11As7
_symmetry_space_group_name_H-M   'P 1'
_cell_length_a   3.73703100
_cell_length_b   9.35905216
_cell_length_c   9.40389464
_cell_angle_alpha   119.79653585
_cell_angle_beta   90.00000000
_cell_angle_gamma   90.00000000
_symmetry_Int_Tables_number   1
_chemical_formula_structural   Sc2VNi11As7
_chemical_formula_sum   'Sc2 V1 Ni11 As7'
_cell_volume   285.41954959
_cell_formula_units_Z   1
loop_
 _symmetry_equiv_pos_site_id
 _symmetry_equiv_pos_as_xyz
  1  'x, y, z'
loop_
 _atom_site_type_symbol
 _atom_site_label
 _atom_site_symmetry_multiplicity
 _atom_site_fract_x
 _atom_site_fract_y
 _atom_site_fract_z
 _atom_site_occupancy
  Sc  Sc0  1  0.500000  0.332152  0.666583  1
  Sc  Sc1  1  0.000000  0.670428  0.338858  1
  V  V2  1  0.500000  0.120499  0.906198  1
  Ni  Ni3  1  0.000000  0.874196  0.718725  1
  Ni  Ni4  1  0.000000  0.285469  0.160876  1
  Ni  Ni5  1  0.000000  0.838669  0.122573  1
  Ni  Ni6  1  0.500000  0.948760  0.566461  1
  Ni  Ni7  1  0.500000  0.431781  0.381948  1
  Ni  Ni8  1  0.500000  0.614640  0.042689  1
  Ni  Ni9  1  0.000000  0.378246  0.941705  1
  Ni  Ni10  1  0.000000  0.057637  0.434119  1
  Ni  Ni11  1  0.000000  0.559530  0.617048  1
  Ni  Ni12  1  0.500000  0.097242  0.220654  1
  Ni  Ni13  1  0.500000  0.790519  0.883361  1
  As  As14  1  0.500000  0.707927  0.590436  1
  As  As15  1  0.500000  0.416544  0.121324  1
  As  As16  1  0.500000  0.877602  0.292216  1
  As  As17  1  0.000000  0.000201  0.002716  1
  As  As18  1  0.000000  0.121530  0.708143  1
  As  As19  1  0.000000  0.288180  0.409744  1
  As  As20  1  0.000000  0.588246  0.873622  1
