# generated using pymatgen
data_Ba5AgSb3
_symmetry_space_group_name_H-M   'P 1'
_cell_length_a   8.92378400
_cell_length_b   9.54299400
_cell_length_c   17.51600200
_cell_angle_alpha   90.00000000
_cell_angle_beta   90.00000000
_cell_angle_gamma   90.00000000
_symmetry_Int_Tables_number   1
_chemical_formula_structural   Ba5AgSb3
_chemical_formula_sum   'Ba20 Ag4 Sb12'
_cell_volume   1491.65602466
_cell_formula_units_Z   4
loop_
 _symmetry_equiv_pos_site_id
 _symmetry_equiv_pos_as_xyz
  1  'x, y, z'
loop_
 _atom_site_type_symbol
 _atom_site_label
 _atom_site_symmetry_multiplicity
 _atom_site_fract_x
 _atom_site_fract_y
 _atom_site_fract_z
 _atom_site_occupancy
  Ba  Ba0  1  0.480374  0.698370  0.591665  1
  Ba  Ba1  1  0.980374  0.801630  0.908335  1
  Ba  Ba2  1  0.019626  0.198370  0.408335  1
  Ba  Ba3  1  0.519626  0.301630  0.091665  1
  Ba  Ba4  1  0.480374  0.698370  0.908335  1
  Ba  Ba5  1  0.980374  0.801630  0.591665  1
  Ba  Ba6  1  0.019626  0.198370  0.091665  1
  Ba  Ba7  1  0.519626  0.301630  0.408335  1
  Ba  Ba8  1  0.357797  0.864325  0.384016  1
  Ba  Ba9  1  0.857797  0.635675  0.115984  1
  Ba  Ba10  1  0.142203  0.364325  0.615984  1
  Ba  Ba11  1  0.642203  0.135675  0.884016  1
  Ba  Ba12  1  0.642203  0.135675  0.615984  1
  Ba  Ba13  1  0.142203  0.364325  0.884016  1
  Ba  Ba14  1  0.857797  0.635675  0.384016  1
  Ba  Ba15  1  0.357797  0.864325  0.115984  1
  Ba  Ba16  1  0.296211  0.992771  0.750000  1
  Ba  Ba17  1  0.796211  0.507229  0.750000  1
  Ba  Ba18  1  0.203789  0.492771  0.250000  1
  Ba  Ba19  1  0.703789  0.007229  0.250000  1
  Ag  Ag20  1  0.434166  0.362699  0.750000  1
  Ag  Ag21  1  0.934166  0.137301  0.750000  1
  Ag  Ag22  1  0.065834  0.862699  0.250000  1
  Ag  Ag23  1  0.565834  0.637301  0.250000  1
  Sb  Sb24  1  0.726817  0.955517  0.050561  1
  Sb  Sb25  1  0.226817  0.544483  0.449439  1
  Sb  Sb26  1  0.773183  0.455517  0.949439  1
  Sb  Sb27  1  0.273183  0.044483  0.550561  1
  Sb  Sb28  1  0.273183  0.044483  0.949439  1
  Sb  Sb29  1  0.773183  0.455517  0.550561  1
  Sb  Sb30  1  0.226817  0.544483  0.050561  1
  Sb  Sb31  1  0.726817  0.955517  0.449439  1
  Sb  Sb32  1  0.188313  0.639113  0.750000  1
  Sb  Sb33  1  0.688313  0.860887  0.750000  1
  Sb  Sb34  1  0.311687  0.139113  0.250000  1
  Sb  Sb35  1  0.811687  0.360887  0.250000  1
