# generated using pymatgen
data_ErZrMn12P7
_symmetry_space_group_name_H-M   'P 1'
_cell_length_a   9.23310200
_cell_length_b   9.23310210
_cell_length_c   3.56726500
_cell_angle_alpha   90.00000000
_cell_angle_beta   90.00000000
_cell_angle_gamma   120.00000586
_symmetry_Int_Tables_number   1
_chemical_formula_structural   ErZrMn12P7
_chemical_formula_sum   'Er1 Zr1 Mn12 P7'
_cell_volume   263.36693532
_cell_formula_units_Z   1
loop_
 _symmetry_equiv_pos_site_id
 _symmetry_equiv_pos_as_xyz
  1  'x, y, z'
loop_
 _atom_site_type_symbol
 _atom_site_label
 _atom_site_symmetry_multiplicity
 _atom_site_fract_x
 _atom_site_fract_y
 _atom_site_fract_z
 _atom_site_occupancy
  Er  Er0  1  0.000000  0.000000  0.500000  1
  Zr  Zr1  1  0.333333  0.666667  0.000000  1
  Mn  Mn2  1  0.044458  0.286245  0.000000  1
  Mn  Mn3  1  0.713755  0.758212  0.000000  1
  Mn  Mn4  1  0.241788  0.955542  0.000000  1
  Mn  Mn5  1  0.546359  0.054318  0.000000  1
  Mn  Mn6  1  0.945682  0.492042  0.000000  1
  Mn  Mn7  1  0.507958  0.453641  0.000000  1
  Mn  Mn8  1  0.620228  0.893092  0.500000  1
  Mn  Mn9  1  0.106908  0.727136  0.500000  1
  Mn  Mn10  1  0.272864  0.379772  0.500000  1
  Mn  Mn11  1  0.792130  0.229517  0.500000  1
  Mn  Mn12  1  0.770483  0.562613  0.500000  1
  Mn  Mn13  1  0.437387  0.207870  0.500000  1
  P  P14  1  0.788193  0.042792  0.000000  1
  P  P15  1  0.957208  0.745400  0.000000  1
  P  P16  1  0.254600  0.211807  0.000000  1
  P  P17  1  0.386412  0.921401  0.500000  1
  P  P18  1  0.078599  0.465012  0.500000  1
  P  P19  1  0.534988  0.613588  0.500000  1
  P  P20  1  0.666667  0.333333  0.000000  1
