# generated using pymatgen
data_Nb12FeCo7(OsN)4
_symmetry_space_group_name_H-M   'P 1'
_cell_length_a   8.11160395
_cell_length_b   8.10836469
_cell_length_c   8.10836500
_cell_angle_alpha   60.00000282
_cell_angle_beta   60.01321186
_cell_angle_gamma   60.01320431
_symmetry_Int_Tables_number   1
_chemical_formula_structural   Nb12FeCo7(OsN)4
_chemical_formula_sum   'Nb12 Fe1 Co7 Os4 N4'
_cell_volume   377.17681342
_cell_formula_units_Z   1
loop_
 _symmetry_equiv_pos_site_id
 _symmetry_equiv_pos_as_xyz
  1  'x, y, z'
loop_
 _atom_site_type_symbol
 _atom_site_label
 _atom_site_symmetry_multiplicity
 _atom_site_fract_x
 _atom_site_fract_y
 _atom_site_fract_z
 _atom_site_occupancy
  Nb  Nb0  1  0.806571  0.805822  0.193803  1
  Nb  Nb1  1  0.195203  0.194822  0.804988  1
  Nb  Nb2  1  0.806571  0.193803  0.805822  1
  Nb  Nb3  1  0.195203  0.804988  0.194822  1
  Nb  Nb4  1  0.195203  0.804988  0.804988  1
  Nb  Nb5  1  0.806571  0.193803  0.193803  1
  Nb  Nb6  1  0.444513  0.444380  0.055554  1
  Nb  Nb7  1  0.055703  0.056070  0.444114  1
  Nb  Nb8  1  0.444513  0.055554  0.444380  1
  Nb  Nb9  1  0.055703  0.444114  0.056070  1
  Nb  Nb10  1  0.055703  0.444114  0.444114  1
  Nb  Nb11  1  0.444513  0.055554  0.055554  1
  Fe  Fe12  1  0.725925  0.424692  0.424692  1
  Co  Co13  1  0.421272  0.734146  0.422292  1
  Co  Co14  1  0.421272  0.422292  0.734146  1
  Co  Co15  1  0.421272  0.422292  0.422292  1
  Co  Co16  1  0.513738  0.828753  0.828753  1
  Co  Co17  1  0.827906  0.515316  0.828388  1
  Co  Co18  1  0.827906  0.828388  0.515316  1
  Co  Co19  1  0.827906  0.828388  0.828388  1
  Os  Os20  1  0.124374  0.625209  0.625209  1
  Os  Os21  1  0.626888  0.125237  0.623937  1
  Os  Os22  1  0.626888  0.623937  0.125237  1
  Os  Os23  1  0.626888  0.623937  0.623937  1
  N  N24  1  0.625219  0.124927  0.124927  1
  N  N25  1  0.125525  0.625022  0.124726  1
  N  N26  1  0.125525  0.124726  0.625022  1
  N  N27  1  0.125525  0.124726  0.124726  1
