# generated using pymatgen
data_Ho2Tm2B3C4
_symmetry_space_group_name_H-M   'P 1'
_cell_length_a   3.47423987
_cell_length_b   3.57621443
_cell_length_c   11.78061830
_cell_angle_alpha   92.85482560
_cell_angle_beta   96.28710262
_cell_angle_gamma   90.19915809
_symmetry_Int_Tables_number   1
_chemical_formula_structural   Ho2Tm2B3C4
_chemical_formula_sum   'Ho2 Tm2 B3 C4'
_cell_volume   145.30302275
_cell_formula_units_Z   1
loop_
 _symmetry_equiv_pos_site_id
 _symmetry_equiv_pos_as_xyz
  1  'x, y, z'
loop_
 _atom_site_type_symbol
 _atom_site_label
 _atom_site_symmetry_multiplicity
 _atom_site_fract_x
 _atom_site_fract_y
 _atom_site_fract_z
 _atom_site_occupancy
  Ho  Ho0  1  0.806629  0.024310  0.650867  1
  Ho  Ho1  1  0.193371  0.975690  0.349133  1
  Tm  Tm2  1  0.387812  0.554331  0.860607  1
  Tm  Tm3  1  0.612188  0.445669  0.139393  1
  B  B4  1  0.000000  0.000000  0.000000  1
  B  B5  1  0.266111  0.506333  0.540756  1
  B  B6  1  0.733889  0.493667  0.459244  1
  C  C7  1  0.889591  0.063475  0.878494  1
  C  C8  1  0.110409  0.936525  0.121506  1
  C  C9  1  0.313738  0.528004  0.669047  1
  C  C10  1  0.686262  0.471996  0.330953  1
