# generated using pymatgen
data_La7Er13Sn16
_symmetry_space_group_name_H-M   'P 1'
_cell_length_a   8.13912243
_cell_length_b   8.28960596
_cell_length_c   15.63232303
_cell_angle_alpha   90.03301725
_cell_angle_beta   90.28500662
_cell_angle_gamma   89.61581492
_symmetry_Int_Tables_number   1
_chemical_formula_structural   La7Er13Sn16
_chemical_formula_sum   'La7 Er13 Sn16'
_cell_volume   1054.67776252
_cell_formula_units_Z   1
loop_
 _symmetry_equiv_pos_site_id
 _symmetry_equiv_pos_as_xyz
  1  'x, y, z'
loop_
 _atom_site_type_symbol
 _atom_site_label
 _atom_site_symmetry_multiplicity
 _atom_site_fract_x
 _atom_site_fract_y
 _atom_site_fract_z
 _atom_site_occupancy
  La  La0  1  0.015633  0.179077  0.598452  1
  La  La1  1  0.485220  0.677571  0.403851  1
  La  La2  1  0.984686  0.821295  0.095562  1
  La  La3  1  0.483322  0.676345  0.095564  1
  La  La4  1  0.985111  0.822581  0.403733  1
  La  La5  1  0.513617  0.323052  0.595677  1
  La  La6  1  0.015426  0.179561  0.903287  1
  Er  Er7  1  0.360948  0.835835  0.875980  1
  Er  Er8  1  0.858542  0.663086  0.623993  1
  Er  Er9  1  0.640374  0.163731  0.375997  1
  Er  Er10  1  0.137148  0.337326  0.121680  1
  Er  Er11  1  0.637555  0.164476  0.122879  1
  Er  Er12  1  0.140225  0.336230  0.376919  1
  Er  Er13  1  0.360172  0.837144  0.625709  1
  Er  Er14  1  0.861948  0.661924  0.877745  1
  Er  Er15  1  0.521449  0.322489  0.901465  1
  Er  Er16  1  0.195094  0.502568  0.751513  1
  Er  Er17  1  0.693155  0.996091  0.751133  1
  Er  Er18  1  0.805071  0.496259  0.249404  1
  Er  Er19  1  0.306026  0.004543  0.249576  1
  Sn  Sn20  1  0.306953  0.042258  0.041401  1
  Sn  Sn21  1  0.806789  0.457078  0.457577  1
  Sn  Sn22  1  0.692734  0.959112  0.543004  1
  Sn  Sn23  1  0.204552  0.535325  0.955188  1
  Sn  Sn24  1  0.691460  0.962764  0.956733  1
  Sn  Sn25  1  0.192390  0.544249  0.542937  1
  Sn  Sn26  1  0.307419  0.041455  0.458208  1
  Sn  Sn27  1  0.797747  0.454787  0.039806  1
  Sn  Sn28  1  0.559392  0.623181  0.751029  1
  Sn  Sn29  1  0.058159  0.873287  0.750543  1
  Sn  Sn30  1  0.439843  0.374392  0.249622  1
  Sn  Sn31  1  0.941179  0.127213  0.249170  1
  Sn  Sn32  1  0.329749  0.145932  0.753562  1
  Sn  Sn33  1  0.819967  0.358979  0.751399  1
  Sn  Sn34  1  0.675326  0.858385  0.249754  1
  Sn  Sn35  1  0.175620  0.640417  0.249949  1
