# generated using pymatgen
data_Ho7Er9Cd4IrPd3
_symmetry_space_group_name_H-M   'P 1'
_cell_length_a   9.63877633
_cell_length_b   9.58749449
_cell_length_c   9.59342000
_cell_angle_alpha   59.97955310
_cell_angle_beta   60.15553865
_cell_angle_gamma   60.24156551
_symmetry_Int_Tables_number   1
_chemical_formula_structural   Ho7Er9Cd4IrPd3
_chemical_formula_sum   'Ho7 Er9 Cd4 Ir1 Pd3'
_cell_volume   628.65780844
_cell_formula_units_Z   1
loop_
 _symmetry_equiv_pos_site_id
 _symmetry_equiv_pos_as_xyz
  1  'x, y, z'
loop_
 _atom_site_type_symbol
 _atom_site_label
 _atom_site_symmetry_multiplicity
 _atom_site_fract_x
 _atom_site_fract_y
 _atom_site_fract_z
 _atom_site_occupancy
  Ho  Ho0  1  0.059024  0.065773  0.437601  1
  Ho  Ho1  1  0.186358  0.814653  0.815394  1
  Ho  Ho2  1  0.816811  0.186238  0.185271  1
  Ho  Ho3  1  0.816811  0.186238  0.811678  1
  Ho  Ho4  1  0.186358  0.814653  0.183596  1
  Ho  Ho5  1  0.818546  0.813305  0.184074  1
  Ho  Ho6  1  0.186596  0.186127  0.813639  1
  Er  Er7  1  0.605542  0.599333  0.597209  1
  Er  Er8  1  0.605542  0.599333  0.197918  1
  Er  Er9  1  0.609153  0.191103  0.599873  1
  Er  Er10  1  0.179863  0.609272  0.605434  1
  Er  Er11  1  0.057944  0.439052  0.438615  1
  Er  Er12  1  0.441408  0.060365  0.059546  1
  Er  Er13  1  0.441408  0.060365  0.438681  1
  Er  Er14  1  0.057944  0.439052  0.064388  1
  Er  Er15  1  0.441960  0.438675  0.059683  1
  Cd  Cd16  1  0.830454  0.831319  0.833679  1
  Cd  Cd17  1  0.830454  0.831319  0.504546  1
  Cd  Cd18  1  0.829147  0.503837  0.833507  1
  Cd  Cd19  1  0.505878  0.829380  0.832371  1
  Ir  Ir20  1  0.821362  0.391650  0.393494  1
  Pd  Pd21  1  0.390608  0.395455  0.398544  1
  Pd  Pd22  1  0.390608  0.395455  0.815394  1
  Pd  Pd23  1  0.390219  0.818052  0.395865  1
