# generated using pymatgen
data_Sr4Li3AlAu4
_symmetry_space_group_name_H-M   'P 1'
_cell_length_a   4.49412900
_cell_length_b   7.65641329
_cell_length_c   8.86517200
_cell_angle_alpha   90.78973764
_cell_angle_beta   90.00000000
_cell_angle_gamma   90.00000000
_symmetry_Int_Tables_number   1
_chemical_formula_structural   Sr4Li3AlAu4
_chemical_formula_sum   'Sr4 Li3 Al1 Au4'
_cell_volume   305.01192051
_cell_formula_units_Z   1
loop_
 _symmetry_equiv_pos_site_id
 _symmetry_equiv_pos_as_xyz
  1  'x, y, z'
loop_
 _atom_site_type_symbol
 _atom_site_label
 _atom_site_symmetry_multiplicity
 _atom_site_fract_x
 _atom_site_fract_y
 _atom_site_fract_z
 _atom_site_occupancy
  Sr  Sr0  1  0.750000  0.478059  0.818852  1
  Sr  Sr1  1  0.250000  0.027117  0.312399  1
  Sr  Sr2  1  0.750000  0.970648  0.685794  1
  Sr  Sr3  1  0.250000  0.524307  0.184806  1
  Li  Li4  1  0.250000  0.636628  0.557883  1
  Li  Li5  1  0.250000  0.132307  0.941332  1
  Li  Li6  1  0.750000  0.373373  0.443296  1
  Al  Al7  1  0.750000  0.857605  0.057772  1
  Au  Au8  1  0.250000  0.784593  0.907964  1
  Au  Au9  1  0.250000  0.277162  0.611294  1
  Au  Au10  1  0.750000  0.731137  0.373093  1
  Au  Au11  1  0.750000  0.207065  0.105516  1
