# generated using pymatgen
data_Th4Tc7Os
_symmetry_space_group_name_H-M   'P 1'
_cell_length_a   5.27052900
_cell_length_b   5.27052925
_cell_length_c   9.72841600
_cell_angle_alpha   90.00000000
_cell_angle_beta   90.00000000
_cell_angle_gamma   120.00000474
_symmetry_Int_Tables_number   1
_chemical_formula_structural   Th4Tc7Os
_chemical_formula_sum   'Th4 Tc7 Os1'
_cell_volume   234.03519829
_cell_formula_units_Z   1
loop_
 _symmetry_equiv_pos_site_id
 _symmetry_equiv_pos_as_xyz
  1  'x, y, z'
loop_
 _atom_site_type_symbol
 _atom_site_label
 _atom_site_symmetry_multiplicity
 _atom_site_fract_x
 _atom_site_fract_y
 _atom_site_fract_z
 _atom_site_occupancy
  Th  Th0  1  0.333333  0.666667  0.435442  1
  Th  Th1  1  0.666667  0.333333  0.564558  1
  Th  Th2  1  0.666667  0.333333  0.935290  1
  Th  Th3  1  0.333333  0.666667  0.064710  1
  Tc  Tc4  1  0.000000  0.000000  0.000000  1
  Tc  Tc5  1  0.830500  0.169500  0.250967  1
  Tc  Tc6  1  0.830500  0.660999  0.250967  1
  Tc  Tc7  1  0.339001  0.169500  0.250967  1
  Tc  Tc8  1  0.169500  0.830500  0.749033  1
  Tc  Tc9  1  0.169500  0.339001  0.749033  1
  Tc  Tc10  1  0.660999  0.830500  0.749033  1
  Os  Os11  1  0.000000  0.000000  0.500000  1
