# generated using pymatgen
data_Sm7OsI12
_symmetry_space_group_name_H-M   'P 1'
_cell_length_a   10.00196281
_cell_length_b   9.99866629
_cell_length_c   10.01355959
_cell_angle_alpha   107.05251099
_cell_angle_beta   106.93796654
_cell_angle_gamma   107.08821851
_symmetry_Int_Tables_number   1
_chemical_formula_structural   Sm7OsI12
_chemical_formula_sum   'Sm7 Os1 I12'
_cell_volume   833.39255134
_cell_formula_units_Z   1
loop_
 _symmetry_equiv_pos_site_id
 _symmetry_equiv_pos_as_xyz
  1  'x, y, z'
loop_
 _atom_site_type_symbol
 _atom_site_label
 _atom_site_symmetry_multiplicity
 _atom_site_fract_x
 _atom_site_fract_y
 _atom_site_fract_z
 _atom_site_occupancy
  Sm  Sm0  1  0.500000  0.500000  0.500000  1
  Sm  Sm1  1  0.094099  0.295047  0.017881  1
  Sm  Sm2  1  0.296184  0.017932  0.095074  1
  Sm  Sm3  1  0.018448  0.094841  0.296530  1
  Sm  Sm4  1  0.981551  0.905159  0.703470  1
  Sm  Sm5  1  0.703816  0.982067  0.904925  1
  Sm  Sm6  1  0.905901  0.704953  0.982119  1
  Os  Os7  1  0.000000  0.000000  0.000000  1
  I  I8  1  0.223961  0.677481  0.073220  1
  I  I9  1  0.459997  0.379752  0.160793  1
  I  I10  1  0.677618  0.073365  0.224145  1
  I  I11  1  0.926597  0.775589  0.322346  1
  I  I12  1  0.160886  0.460218  0.379499  1
  I  I13  1  0.379715  0.160613  0.460172  1
  I  I14  1  0.620285  0.839387  0.539828  1
  I  I15  1  0.839113  0.539782  0.620501  1
  I  I16  1  0.073404  0.224412  0.677655  1
  I  I17  1  0.322383  0.926636  0.775855  1
  I  I18  1  0.540002  0.620247  0.839207  1
  I  I19  1  0.776039  0.322520  0.926780  1
