# generated using pymatgen
data_Rb3Ti2Cl9
_symmetry_space_group_name_H-M   'P 1'
_cell_length_a   7.29534100
_cell_length_b   7.29533970
_cell_length_c   17.74323300
_cell_angle_alpha   90.00000000
_cell_angle_beta   90.00000000
_cell_angle_gamma   119.99999229
_symmetry_Int_Tables_number   1
_chemical_formula_structural   Rb3Ti2Cl9
_chemical_formula_sum   'Rb6 Ti4 Cl18'
_cell_volume   817.81399230
_cell_formula_units_Z   2
loop_
 _symmetry_equiv_pos_site_id
 _symmetry_equiv_pos_as_xyz
  1  'x, y, z'
loop_
 _atom_site_type_symbol
 _atom_site_label
 _atom_site_symmetry_multiplicity
 _atom_site_fract_x
 _atom_site_fract_y
 _atom_site_fract_z
 _atom_site_occupancy
  Rb  Rb0  1  0.666667  0.333333  0.569973  1
  Rb  Rb1  1  0.333333  0.666667  0.069973  1
  Rb  Rb2  1  0.333333  0.666667  0.430027  1
  Rb  Rb3  1  0.666667  0.333333  0.930027  1
  Rb  Rb4  1  0.000000  0.000000  0.250000  1
  Rb  Rb5  1  0.000000  0.000000  0.750000  1
  Ti  Ti6  1  0.333333  0.666667  0.664712  1
  Ti  Ti7  1  0.666667  0.333333  0.335288  1
  Ti  Ti8  1  0.333333  0.666667  0.835288  1
  Ti  Ti9  1  0.666667  0.333333  0.164712  1
  Cl  Cl10  1  0.824130  0.648260  0.407373  1
  Cl  Cl11  1  0.175870  0.824130  0.592627  1
  Cl  Cl12  1  0.648260  0.824130  0.592627  1
  Cl  Cl13  1  0.824130  0.175870  0.407373  1
  Cl  Cl14  1  0.351740  0.175870  0.407373  1
  Cl  Cl15  1  0.175870  0.351740  0.907373  1
  Cl  Cl16  1  0.016794  0.508397  0.750000  1
  Cl  Cl17  1  0.648260  0.824130  0.907373  1
  Cl  Cl18  1  0.824130  0.648260  0.092627  1
  Cl  Cl19  1  0.175870  0.351740  0.592627  1
  Cl  Cl20  1  0.491603  0.983206  0.750000  1
  Cl  Cl21  1  0.508397  0.491603  0.250000  1
  Cl  Cl22  1  0.491603  0.508397  0.750000  1
  Cl  Cl23  1  0.175870  0.824130  0.907373  1
  Cl  Cl24  1  0.351740  0.175870  0.092627  1
  Cl  Cl25  1  0.983206  0.491603  0.250000  1
  Cl  Cl26  1  0.508397  0.016794  0.250000  1
  Cl  Cl27  1  0.824130  0.175870  0.092627  1
