# generated using pymatgen
data_TbCdSiIr2
_symmetry_space_group_name_H-M   'P 1'
_cell_length_a   4.08494600
_cell_length_b   4.08494600
_cell_length_c   11.21976800
_cell_angle_alpha   90.00000000
_cell_angle_beta   90.00000000
_cell_angle_gamma   90.00000000
_symmetry_Int_Tables_number   1
_chemical_formula_structural   TbCdSiIr2
_chemical_formula_sum   'Tb2 Cd2 Si2 Ir4'
_cell_volume   187.22184316
_cell_formula_units_Z   2
loop_
 _symmetry_equiv_pos_site_id
 _symmetry_equiv_pos_as_xyz
  1  'x, y, z'
loop_
 _atom_site_type_symbol
 _atom_site_label
 _atom_site_symmetry_multiplicity
 _atom_site_fract_x
 _atom_site_fract_y
 _atom_site_fract_z
 _atom_site_occupancy
  Tb  Tb0  1  0.000000  0.500000  0.235221  1
  Tb  Tb1  1  0.500000  0.000000  0.764779  1
  Cd  Cd2  1  0.000000  0.000000  0.500000  1
  Cd  Cd3  1  0.500000  0.500000  0.500000  1
  Si  Si4  1  0.000000  0.500000  0.885924  1
  Si  Si5  1  0.500000  0.000000  0.114076  1
  Ir  Ir6  1  0.000000  0.000000  0.000000  1
  Ir  Ir7  1  0.500000  0.500000  0.000000  1
  Ir  Ir8  1  0.000000  0.500000  0.679815  1
  Ir  Ir9  1  0.500000  0.000000  0.320185  1
