# generated using pymatgen
data_La3ZnPt8
_symmetry_space_group_name_H-M   'P 1'
_cell_length_a   5.51583100
_cell_length_b   5.51583008
_cell_length_c   17.83228000
_cell_angle_alpha   90.00000000
_cell_angle_beta   90.00000000
_cell_angle_gamma   119.99999950
_symmetry_Int_Tables_number   1
_chemical_formula_structural   La3ZnPt8
_chemical_formula_sum   'La6 Zn2 Pt16'
_cell_volume   469.85011684
_cell_formula_units_Z   2
loop_
 _symmetry_equiv_pos_site_id
 _symmetry_equiv_pos_as_xyz
  1  'x, y, z'
loop_
 _atom_site_type_symbol
 _atom_site_label
 _atom_site_symmetry_multiplicity
 _atom_site_fract_x
 _atom_site_fract_y
 _atom_site_fract_z
 _atom_site_occupancy
  La  La0  1  0.333333  0.666667  0.539343  1
  La  La1  1  0.666667  0.333333  0.039343  1
  La  La2  1  0.666667  0.333333  0.460657  1
  La  La3  1  0.333333  0.666667  0.960657  1
  La  La4  1  0.333333  0.666667  0.750000  1
  La  La5  1  0.666667  0.333333  0.250000  1
  Zn  Zn6  1  0.000000  0.000000  0.250000  1
  Zn  Zn7  1  0.000000  0.000000  0.750000  1
  Pt  Pt8  1  0.166699  0.333397  0.126715  1
  Pt  Pt9  1  0.833301  0.666603  0.626715  1
  Pt  Pt10  1  0.666603  0.833301  0.126715  1
  Pt  Pt11  1  0.166699  0.833301  0.126715  1
  Pt  Pt12  1  0.833301  0.166699  0.626715  1
  Pt  Pt13  1  0.333397  0.166699  0.626715  1
  Pt  Pt14  1  0.833301  0.666603  0.873285  1
  Pt  Pt15  1  0.833301  0.166699  0.873285  1
  Pt  Pt16  1  0.333397  0.166699  0.873285  1
  Pt  Pt17  1  0.666603  0.833301  0.373285  1
  Pt  Pt18  1  0.166699  0.833301  0.373285  1
  Pt  Pt19  1  0.166699  0.333397  0.373285  1
  Pt  Pt20  1  0.333333  0.666667  0.250000  1
  Pt  Pt21  1  0.666667  0.333333  0.750000  1
  Pt  Pt22  1  0.000000  0.000000  0.000000  1
  Pt  Pt23  1  0.000000  0.000000  0.500000  1
