# generated using pymatgen
data_Tm12In2Co2SiRu
_symmetry_space_group_name_H-M   'P 1'
_cell_length_a   8.34599801
_cell_length_b   8.34590550
_cell_length_c   8.34599927
_cell_angle_alpha   112.95282849
_cell_angle_beta   111.13597108
_cell_angle_gamma   104.44504875
_symmetry_Int_Tables_number   1
_chemical_formula_structural   Tm12In2Co2SiRu
_chemical_formula_sum   'Tm12 In2 Co2 Si1 Ru1'
_cell_volume   444.83735728
_cell_formula_units_Z   1
loop_
 _symmetry_equiv_pos_site_id
 _symmetry_equiv_pos_as_xyz
  1  'x, y, z'
loop_
 _atom_site_type_symbol
 _atom_site_label
 _atom_site_symmetry_multiplicity
 _atom_site_fract_x
 _atom_site_fract_y
 _atom_site_fract_z
 _atom_site_occupancy
  Tm  Tm0  1  0.444764  0.241301  0.203463  1
  Tm  Tm1  1  0.560153  0.760412  0.799742  1
  Tm  Tm2  1  0.039330  0.239588  0.799741  1
  Tm  Tm3  1  0.962162  0.758699  0.203463  1
  Tm  Tm4  1  0.189806  0.286056  0.475874  1
  Tm  Tm5  1  0.815273  0.709919  0.525184  1
  Tm  Tm6  1  0.189818  0.713944  0.903749  1
  Tm  Tm7  1  0.815266  0.290081  0.105354  1
  Tm  Tm8  1  0.308264  0.622534  0.311719  1
  Tm  Tm9  1  0.689185  0.377466  0.685730  1
  Tm  Tm10  1  0.308308  0.996596  0.685750  1
  Tm  Tm11  1  0.689153  0.003404  0.311712  1
  In  In12  1  0.502593  0.500000  0.002593  1
  In  In13  1  0.011816  0.000000  0.011816  1
  Co  Co14  1  0.109187  0.610211  0.498967  1
  Co  Co15  1  0.888755  0.389789  0.498976  1
  Si  Si16  1  0.633136  0.000000  0.633136  1
  Ru  Ru17  1  0.343030  0.000000  0.343030  1
