# generated using pymatgen
data_MnCrH2
_symmetry_space_group_name_H-M   'P 1'
_cell_length_a   2.66467981
_cell_length_b   2.66262352
_cell_length_c   4.20457060
_cell_angle_alpha   90.08038959
_cell_angle_beta   89.99962872
_cell_angle_gamma   119.96997581
_symmetry_Int_Tables_number   1
_chemical_formula_structural   MnCrH2
_chemical_formula_sum   'Mn1 Cr1 H2'
_cell_volume   25.84269627
_cell_formula_units_Z   1
loop_
 _symmetry_equiv_pos_site_id
 _symmetry_equiv_pos_as_xyz
  1  'x, y, z'
loop_
 _atom_site_type_symbol
 _atom_site_label
 _atom_site_symmetry_multiplicity
 _atom_site_fract_x
 _atom_site_fract_y
 _atom_site_fract_z
 _atom_site_occupancy
  Mn  Mn0  1  0.339998  0.568124  0.083843  1
  Cr  Cr1  1  0.007263  0.902208  0.583447  1
  H  H2  1  0.673321  0.235969  0.837813  1
  H  H3  1  0.674121  0.234351  0.329455  1
