# generated using pymatgen
data_Tm2GaB2RuRh4
_symmetry_space_group_name_H-M   'P 1'
_cell_length_a   9.54715300
_cell_length_b   9.54715300
_cell_length_c   3.09796800
_cell_angle_alpha   90.00000000
_cell_angle_beta   90.00000000
_cell_angle_gamma   90.00000000
_symmetry_Int_Tables_number   1
_chemical_formula_structural   Tm2GaB2RuRh4
_chemical_formula_sum   'Tm4 Ga2 B4 Ru2 Rh8'
_cell_volume   282.37399126
_cell_formula_units_Z   2
loop_
 _symmetry_equiv_pos_site_id
 _symmetry_equiv_pos_as_xyz
  1  'x, y, z'
loop_
 _atom_site_type_symbol
 _atom_site_label
 _atom_site_symmetry_multiplicity
 _atom_site_fract_x
 _atom_site_fract_y
 _atom_site_fract_z
 _atom_site_occupancy
  Tm  Tm0  1  0.824904  0.324904  0.000000  1
  Tm  Tm1  1  0.324904  0.175096  0.000000  1
  Tm  Tm2  1  0.675096  0.824904  0.000000  1
  Tm  Tm3  1  0.175096  0.675096  0.000000  1
  Ga  Ga4  1  0.000000  0.000000  0.000000  1
  Ga  Ga5  1  0.500000  0.500000  0.000000  1
  B  B6  1  0.621126  0.121126  0.000000  1
  B  B7  1  0.121126  0.378874  0.000000  1
  B  B8  1  0.878874  0.621126  0.000000  1
  B  B9  1  0.378874  0.878874  0.000000  1
  Ru  Ru10  1  0.500000  0.000000  0.500000  1
  Ru  Ru11  1  0.000000  0.500000  0.500000  1
  Rh  Rh12  1  0.070180  0.217612  0.500000  1
  Rh  Rh13  1  0.217612  0.929820  0.500000  1
  Rh  Rh14  1  0.782388  0.070180  0.500000  1
  Rh  Rh15  1  0.929820  0.782388  0.500000  1
  Rh  Rh16  1  0.429820  0.717612  0.500000  1
  Rh  Rh17  1  0.570180  0.282388  0.500000  1
  Rh  Rh18  1  0.717612  0.570180  0.500000  1
  Rh  Rh19  1  0.282388  0.429820  0.500000  1
