# generated using pymatgen
data_Er3Pa(CdRh2)2
_symmetry_space_group_name_H-M   'P 1'
_cell_length_a   7.62619600
_cell_length_b   7.62619607
_cell_length_c   3.62581700
_cell_angle_alpha   90.00000000
_cell_angle_beta   90.00000000
_cell_angle_gamma   92.15370171
_symmetry_Int_Tables_number   1
_chemical_formula_structural   Er3Pa(CdRh2)2
_chemical_formula_sum   'Er3 Pa1 Cd2 Rh4'
_cell_volume   210.72444601
_cell_formula_units_Z   1
loop_
 _symmetry_equiv_pos_site_id
 _symmetry_equiv_pos_as_xyz
  1  'x, y, z'
loop_
 _atom_site_type_symbol
 _atom_site_label
 _atom_site_symmetry_multiplicity
 _atom_site_fract_x
 _atom_site_fract_y
 _atom_site_fract_z
 _atom_site_occupancy
  Er  Er0  1  0.329537  0.829537  0.500000  1
  Er  Er1  1  0.164612  0.337746  0.500000  1
  Er  Er2  1  0.837746  0.664612  0.500000  1
  Pa  Pa3  1  0.660836  0.160836  0.500000  1
  Cd  Cd4  1  0.010966  0.997129  0.000000  1
  Cd  Cd5  1  0.497129  0.510966  0.000000  1
  Rh  Rh6  1  0.126498  0.626498  0.000000  1
  Rh  Rh7  1  0.846141  0.346141  0.000000  1
  Rh  Rh8  1  0.644405  0.882129  0.000000  1
  Rh  Rh9  1  0.382129  0.144405  0.000000  1
