# generated using pymatgen
data_ErPaNi2Sn
_symmetry_space_group_name_H-M   'P 1'
_cell_length_a   7.36892335
_cell_length_b   7.36892335
_cell_length_c   3.60299800
_cell_angle_alpha   90.00000000
_cell_angle_beta   90.00000000
_cell_angle_gamma   93.58721923
_symmetry_Int_Tables_number   1
_chemical_formula_structural   ErPaNi2Sn
_chemical_formula_sum   'Er2 Pa2 Ni4 Sn2'
_cell_volume   195.26317901
_cell_formula_units_Z   2
loop_
 _symmetry_equiv_pos_site_id
 _symmetry_equiv_pos_as_xyz
  1  'x, y, z'
loop_
 _atom_site_type_symbol
 _atom_site_label
 _atom_site_symmetry_multiplicity
 _atom_site_fract_x
 _atom_site_fract_y
 _atom_site_fract_z
 _atom_site_occupancy
  Er  Er0  1  0.172186  0.327814  0.500000  1
  Er  Er1  1  0.827814  0.672186  0.500000  1
  Pa  Pa2  1  0.675140  0.175140  0.500000  1
  Pa  Pa3  1  0.324860  0.824860  0.500000  1
  Ni  Ni4  1  0.868336  0.368336  0.000000  1
  Ni  Ni5  1  0.131664  0.631664  0.000000  1
  Ni  Ni6  1  0.382765  0.117235  0.000000  1
  Ni  Ni7  1  0.617235  0.882765  0.000000  1
  Sn  Sn8  1  0.500000  0.500000  0.000000  1
  Sn  Sn9  1  0.000000  0.000000  0.000000  1
