# generated using pymatgen
data_Ti12Ga7Cu5O4
_symmetry_space_group_name_H-M   'P 1'
_cell_length_a   8.09789493
_cell_length_b   8.07217965
_cell_length_c   8.09789500
_cell_angle_alpha   59.89456673
_cell_angle_beta   60.00000382
_cell_angle_gamma   59.89456545
_symmetry_Int_Tables_number   1
_chemical_formula_structural   Ti12Ga7Cu5O4
_chemical_formula_sum   'Ti12 Ga7 Cu5 O4'
_cell_volume   373.70263932
_cell_formula_units_Z   1
loop_
 _symmetry_equiv_pos_site_id
 _symmetry_equiv_pos_as_xyz
  1  'x, y, z'
loop_
 _atom_site_type_symbol
 _atom_site_label
 _atom_site_symmetry_multiplicity
 _atom_site_fract_x
 _atom_site_fract_y
 _atom_site_fract_z
 _atom_site_occupancy
  Ti  Ti0  1  0.931967  0.567617  0.568449  1
  Ti  Ti1  1  0.681908  0.319208  0.681908  1
  Ti  Ti2  1  0.931967  0.567617  0.931967  1
  Ti  Ti3  1  0.565836  0.934495  0.933833  1
  Ti  Ti4  1  0.316583  0.683696  0.316583  1
  Ti  Ti5  1  0.565836  0.934495  0.565836  1
  Ti  Ti6  1  0.683138  0.683696  0.316583  1
  Ti  Ti7  1  0.933833  0.934495  0.565836  1
  Ti  Ti8  1  0.316975  0.319208  0.681908  1
  Ti  Ti9  1  0.681908  0.319208  0.316975  1
  Ti  Ti10  1  0.568449  0.567617  0.931967  1
  Ti  Ti11  1  0.316583  0.683696  0.683138  1
  Ga  Ga12  1  0.258996  0.913404  0.913800  1
  Ga  Ga13  1  0.337324  0.329065  0.337324  1
  Ga  Ga14  1  0.337324  0.329065  0.996287  1
  Ga  Ga15  1  0.913631  0.259108  0.913631  1
  Ga  Ga16  1  0.913800  0.913404  0.913800  1
  Ga  Ga17  1  0.996287  0.329065  0.337324  1
  Ga  Ga18  1  0.913800  0.913404  0.258996  1
  Cu  Cu19  1  0.334803  0.995590  0.334803  1
  Cu  Cu20  1  0.125559  0.623322  0.125559  1
  Cu  Cu21  1  0.124362  0.123715  0.627560  1
  Cu  Cu22  1  0.627560  0.123715  0.124362  1
  Cu  Cu23  1  0.124362  0.123715  0.124362  1
  O  O24  1  0.624907  0.125280  0.624907  1
  O  O25  1  0.623515  0.627701  0.125270  1
  O  O26  1  0.125270  0.627701  0.623515  1
  O  O27  1  0.623515  0.627701  0.623515  1
