# generated using pymatgen
data_CsLi(LaTe2)2
_symmetry_space_group_name_H-M   'P 1'
_cell_length_a   4.70841000
_cell_length_b   8.31131096
_cell_length_c   16.14756300
_cell_angle_alpha   90.00000000
_cell_angle_beta   90.00000000
_cell_angle_gamma   106.45445195
_symmetry_Int_Tables_number   1
_chemical_formula_structural   CsLi(LaTe2)2
_chemical_formula_sum   'Cs2 Li2 La4 Te8'
_cell_volume   606.02407151
_cell_formula_units_Z   2
loop_
 _symmetry_equiv_pos_site_id
 _symmetry_equiv_pos_as_xyz
  1  'x, y, z'
loop_
 _atom_site_type_symbol
 _atom_site_label
 _atom_site_symmetry_multiplicity
 _atom_site_fract_x
 _atom_site_fract_y
 _atom_site_fract_z
 _atom_site_occupancy
  Cs  Cs0  1  0.106900  0.213801  0.250000  1
  Cs  Cs1  1  0.893099  0.786198  0.750000  1
  Li  Li2  1  0.832886  0.665773  0.250000  1
  Li  Li3  1  0.167113  0.334227  0.750000  1
  La  La4  1  0.366987  0.733973  0.060044  1
  La  La5  1  0.366987  0.733973  0.439956  1
  La  La6  1  0.633012  0.266027  0.560044  1
  La  La7  1  0.633012  0.266027  0.939956  1
  Te  Te8  1  0.000000  0.000000  0.000000  1
  Te  Te9  1  0.738693  0.477387  0.108327  1
  Te  Te10  1  0.421955  0.843911  0.250000  1
  Te  Te11  1  0.738693  0.477387  0.391673  1
  Te  Te12  1  0.000000  0.000000  0.500000  1
  Te  Te13  1  0.261307  0.522613  0.608327  1
  Te  Te14  1  0.578044  0.156088  0.750000  1
  Te  Te15  1  0.261307  0.522613  0.891673  1
