# generated using pymatgen
data_CsRb3Na2DyAlSb4
_symmetry_space_group_name_H-M   'P 1'
_cell_length_a   10.05305565
_cell_length_b   10.05305540
_cell_length_c   10.05305500
_cell_angle_alpha   136.91157205
_cell_angle_beta   61.21487641
_cell_angle_gamma   138.69668074
_symmetry_Int_Tables_number   1
_chemical_formula_structural   CsRb3Na2DyAlSb4
_chemical_formula_sum   'Cs1 Rb3 Na2 Dy1 Al1 Sb4'
_cell_volume   453.00888834
_cell_formula_units_Z   1
loop_
 _symmetry_equiv_pos_site_id
 _symmetry_equiv_pos_as_xyz
  1  'x, y, z'
loop_
 _atom_site_type_symbol
 _atom_site_label
 _atom_site_symmetry_multiplicity
 _atom_site_fract_x
 _atom_site_fract_y
 _atom_site_fract_z
 _atom_site_occupancy
  Cs  Cs0  1  0.674210  0.221977  0.902454  1
  Rb  Rb1  1  0.327381  0.771350  0.096737  1
  Rb  Rb2  1  0.172777  0.269090  0.443246  1
  Rb  Rb3  1  0.825680  0.729360  0.556488  1
  Na  Na4  1  0.749842  0.250811  0.500380  1
  Na  Na5  1  0.249505  0.749965  0.499658  1
  Dy  Dy6  1  0.250155  0.252067  0.000157  1
  Al  Al7  1  0.750291  0.749970  0.999629  1
  Sb  Sb8  1  0.884992  0.197076  0.119780  1
  Sb  Sb9  1  0.615813  0.736355  0.313453  1
  Sb  Sb10  1  0.419947  0.303252  0.686171  1
  Sb  Sb11  1  0.079407  0.768731  0.881851  1
