# generated using pymatgen
data_Dy4Ni2B16IrPt
_symmetry_space_group_name_H-M   'P 1'
_cell_length_a   6.92171793
_cell_length_b   6.92219362
_cell_length_c   6.92172213
_cell_angle_alpha   111.27542124
_cell_angle_beta   113.31883367
_cell_angle_gamma   103.96092401
_symmetry_Int_Tables_number   1
_chemical_formula_structural   Dy4Ni2B16IrPt
_chemical_formula_sum   'Dy4 Ni2 B16 Ir1 Pt1'
_cell_volume   253.47020564
_cell_formula_units_Z   1
loop_
 _symmetry_equiv_pos_site_id
 _symmetry_equiv_pos_as_xyz
  1  'x, y, z'
loop_
 _atom_site_type_symbol
 _atom_site_label
 _atom_site_symmetry_multiplicity
 _atom_site_fract_x
 _atom_site_fract_y
 _atom_site_fract_z
 _atom_site_occupancy
  Dy  Dy0  1  0.796399  0.793249  0.003161  1
  Dy  Dy1  1  0.209912  0.206751  0.003151  1
  Dy  Dy2  1  0.748072  0.250351  0.497714  1
  Dy  Dy3  1  0.247363  0.749649  0.497721  1
  Ni  Ni4  1  0.500049  0.744715  0.244750  1
  Ni  Ni5  1  0.500036  0.255285  0.755335  1
  B  B6  1  0.272426  0.107761  0.380156  1
  B  B7  1  0.727788  0.891735  0.619563  1
  B  B8  1  0.272395  0.892238  0.164665  1
  B  B9  1  0.727828  0.108266  0.836053  1
  B  B10  1  0.110218  0.733472  0.843681  1
  B  B11  1  0.889498  0.269225  0.158745  1
  B  B12  1  0.110208  0.266527  0.376745  1
  B  B13  1  0.889521  0.730776  0.620274  1
  B  B14  1  0.113622  0.106367  0.525496  1
  B  B15  1  0.580304  0.585704  0.471241  1
  B  B16  1  0.113629  0.588168  0.007298  1
  B  B17  1  0.580311  0.109112  0.994655  1
  B  B18  1  0.885543  0.890888  0.471200  1
  B  B19  1  0.419131  0.411833  0.525461  1
  B  B20  1  0.885536  0.414295  0.994600  1
  B  B21  1  0.419130  0.893633  0.007255  1
  Ir  Ir22  1  0.725147  0.500000  0.225147  1
  Pt  Pt23  1  0.275934  0.500000  0.775934  1
