# generated using pymatgen
data_Sc4Al6RuPt
_symmetry_space_group_name_H-M   'P 1'
_cell_length_a   5.33443800
_cell_length_b   5.33443779
_cell_length_c   8.50427700
_cell_angle_alpha   90.00000000
_cell_angle_beta   90.00000000
_cell_angle_gamma   120.00001372
_symmetry_Int_Tables_number   1
_chemical_formula_structural   Sc4Al6RuPt
_chemical_formula_sum   'Sc4 Al6 Ru1 Pt1'
_cell_volume   209.57780891
_cell_formula_units_Z   1
loop_
 _symmetry_equiv_pos_site_id
 _symmetry_equiv_pos_as_xyz
  1  'x, y, z'
loop_
 _atom_site_type_symbol
 _atom_site_label
 _atom_site_symmetry_multiplicity
 _atom_site_fract_x
 _atom_site_fract_y
 _atom_site_fract_z
 _atom_site_occupancy
  Sc  Sc0  1  0.333333  0.666667  0.060815  1
  Sc  Sc1  1  0.666667  0.333333  0.551611  1
  Sc  Sc2  1  0.333333  0.666667  0.448389  1
  Sc  Sc3  1  0.666667  0.333333  0.939185  1
  Al  Al4  1  0.833138  0.666275  0.247949  1
  Al  Al5  1  0.166862  0.833138  0.752051  1
  Al  Al6  1  0.666275  0.833138  0.752051  1
  Al  Al7  1  0.333725  0.166862  0.247949  1
  Al  Al8  1  0.833138  0.166862  0.247949  1
  Al  Al9  1  0.166862  0.333725  0.752051  1
  Ru  Ru10  1  0.000000  0.000000  0.000000  1
  Pt  Pt11  1  0.000000  0.000000  0.500000  1
