# generated using pymatgen
data_YZr2PbF15
_symmetry_space_group_name_H-M   'P 1'
_cell_length_a   8.18775188
_cell_length_b   8.18775203
_cell_length_c   8.17744800
_cell_angle_alpha   79.84520959
_cell_angle_beta   79.84520941
_cell_angle_gamma   100.14366245
_symmetry_Int_Tables_number   1
_chemical_formula_structural   YZr2PbF15
_chemical_formula_sum   'Y2 Zr4 Pb2 F30'
_cell_volume   518.88170716
_cell_formula_units_Z   2
loop_
 _symmetry_equiv_pos_site_id
 _symmetry_equiv_pos_as_xyz
  1  'x, y, z'
loop_
 _atom_site_type_symbol
 _atom_site_label
 _atom_site_symmetry_multiplicity
 _atom_site_fract_x
 _atom_site_fract_y
 _atom_site_fract_z
 _atom_site_occupancy
  Y  Y0  1  0.176671  0.823329  0.250000  1
  Y  Y1  1  0.823329  0.176671  0.750000  1
  Zr  Zr2  1  0.747126  0.678016  0.674967  1
  Zr  Zr3  1  0.321984  0.252874  0.825033  1
  Zr  Zr4  1  0.252874  0.321984  0.325033  1
  Zr  Zr5  1  0.678016  0.747126  0.174967  1
  Pb  Pb6  1  0.751669  0.248331  0.250000  1
  Pb  Pb7  1  0.248331  0.751669  0.750000  1
  F  F8  1  0.320640  0.349349  0.052050  1
  F  F9  1  0.937495  0.818122  0.149020  1
  F  F10  1  0.840137  0.460110  0.680323  1
  F  F11  1  0.460110  0.840137  0.180323  1
  F  F12  1  0.818122  0.937495  0.649020  1
  F  F13  1  0.349349  0.320640  0.552049  1
  F  F14  1  0.679360  0.650651  0.947950  1
  F  F15  1  0.062505  0.181878  0.850980  1
  F  F16  1  0.159863  0.539890  0.319677  1
  F  F17  1  0.539890  0.159863  0.819677  1
  F  F18  1  0.181878  0.062505  0.350980  1
  F  F19  1  0.650651  0.679360  0.447950  1
  F  F20  1  0.775113  0.295119  0.989181  1
  F  F21  1  0.017837  0.276497  0.207415  1
  F  F22  1  0.790373  0.515674  0.223864  1
  F  F23  1  0.515674  0.790373  0.723864  1
  F  F24  1  0.276497  0.017837  0.707415  1
  F  F25  1  0.295119  0.775113  0.489181  1
  F  F26  1  0.224887  0.704881  0.010819  1
  F  F27  1  0.982163  0.723503  0.792585  1
  F  F28  1  0.209627  0.484326  0.776136  1
  F  F29  1  0.484326  0.209627  0.276136  1
  F  F30  1  0.723503  0.982163  0.292585  1
  F  F31  1  0.704881  0.224887  0.510819  1
  F  F32  1  0.472939  0.527061  0.250000  1
  F  F33  1  0.745899  0.957893  0.974615  1
  F  F34  1  0.042107  0.254101  0.525385  1
  F  F35  1  0.254101  0.042107  0.025385  1
  F  F36  1  0.957893  0.745899  0.474615  1
  F  F37  1  0.527061  0.472939  0.750000  1
