# generated using pymatgen
data_CaLa6(SiSe7)2
_symmetry_space_group_name_H-M   'P 1'
_cell_length_a   10.93673800
_cell_length_b   10.93673892
_cell_length_c   6.05802200
_cell_angle_alpha   90.00000000
_cell_angle_beta   90.00000000
_cell_angle_gamma   119.99999723
_symmetry_Int_Tables_number   1
_chemical_formula_structural   CaLa6(SiSe7)2
_chemical_formula_sum   'Ca1 La6 Si2 Se14'
_cell_volume   627.53382940
_cell_formula_units_Z   1
loop_
 _symmetry_equiv_pos_site_id
 _symmetry_equiv_pos_as_xyz
  1  'x, y, z'
loop_
 _atom_site_type_symbol
 _atom_site_label
 _atom_site_symmetry_multiplicity
 _atom_site_fract_x
 _atom_site_fract_y
 _atom_site_fract_z
 _atom_site_occupancy
  Ca  Ca0  1  0.333333  0.666667  0.513422  1
  La  La1  1  0.973707  0.432074  0.754900  1
  La  La2  1  0.458366  0.026293  0.754900  1
  La  La3  1  0.567926  0.541634  0.754900  1
  La  La4  1  0.692676  0.900667  0.246159  1
  La  La5  1  0.207991  0.307324  0.246159  1
  La  La6  1  0.099333  0.792009  0.246159  1
  Si  Si7  1  0.666667  0.333333  0.164904  1
  Si  Si8  1  0.000000  0.000000  0.657817  1
  Se  Se9  1  0.666667  0.333333  0.538447  1
  Se  Se10  1  0.000000  0.000000  0.032293  1
  Se  Se11  1  0.076693  0.498766  0.266829  1
  Se  Se12  1  0.422074  0.923307  0.266829  1
  Se  Se13  1  0.501234  0.577926  0.266829  1
  Se  Se14  1  0.588920  0.835451  0.761541  1
  Se  Se15  1  0.246531  0.411080  0.761541  1
  Se  Se16  1  0.164549  0.753469  0.761541  1
  Se  Se17  1  0.811896  0.555083  0.017258  1
  Se  Se18  1  0.743187  0.188104  0.017258  1
  Se  Se19  1  0.444917  0.256813  0.017258  1
  Se  Se20  1  0.854469  0.777853  0.512363  1
  Se  Se21  1  0.923386  0.145531  0.512363  1
  Se  Se22  1  0.222147  0.076614  0.512363  1
