# generated using pymatgen
data_Pr3Nd7C4Cl17
_symmetry_space_group_name_H-M   'P 1'
_cell_length_a   8.88681162
_cell_length_b   9.52817275
_cell_length_c   11.98352520
_cell_angle_alpha   104.58188246
_cell_angle_beta   96.15377265
_cell_angle_gamma   110.90705531
_symmetry_Int_Tables_number   1
_chemical_formula_structural   Pr3Nd7C4Cl17
_chemical_formula_sum   'Pr3 Nd7 C4 Cl17'
_cell_volume   895.31232121
_cell_formula_units_Z   1
loop_
 _symmetry_equiv_pos_site_id
 _symmetry_equiv_pos_as_xyz
  1  'x, y, z'
loop_
 _atom_site_type_symbol
 _atom_site_label
 _atom_site_symmetry_multiplicity
 _atom_site_fract_x
 _atom_site_fract_y
 _atom_site_fract_z
 _atom_site_occupancy
  Pr  Pr0  1  0.654283  0.486586  0.438218  1
  Pr  Pr1  1  0.345985  0.513485  0.562034  1
  Pr  Pr2  1  0.077227  0.424439  0.268490  1
  Nd  Nd3  1  0.921238  0.575814  0.731374  1
  Nd  Nd4  1  0.409491  0.367675  0.135365  1
  Nd  Nd5  1  0.590284  0.632255  0.864524  1
  Nd  Nd6  1  0.492539  0.782224  0.340909  1
  Nd  Nd7  1  0.507783  0.217847  0.659145  1
  Nd  Nd8  1  0.206095  0.096700  0.307643  1
  Nd  Nd9  1  0.794128  0.903321  0.692424  1
  C  C10  1  0.396578  0.525827  0.341592  1
  C  C11  1  0.604413  0.474235  0.658621  1
  C  C12  1  0.326670  0.364528  0.336394  1
  C  C13  1  0.674321  0.635606  0.663866  1
  Cl  Cl14  1  0.104899  0.348839  0.038527  1
  Cl  Cl15  1  0.895477  0.650658  0.960010  1
  Cl  Cl16  1  0.811150  0.821388  0.445264  1
  Cl  Cl17  1  0.188936  0.178638  0.554780  1
  Cl  Cl18  1  0.999722  0.500303  0.501002  1
  Cl  Cl19  1  0.297447  0.043239  0.095211  1
  Cl  Cl20  1  0.702561  0.956746  0.904773  1
  Cl  Cl21  1  0.903333  0.102508  0.248389  1
  Cl  Cl22  1  0.095928  0.895707  0.751553  1
  Cl  Cl23  1  0.542252  0.132538  0.412608  1
  Cl  Cl24  1  0.457828  0.867479  0.587419  1
  Cl  Cl25  1  0.738385  0.414101  0.210597  1
  Cl  Cl26  1  0.260485  0.585885  0.789198  1
  Cl  Cl27  1  0.166470  0.757109  0.286938  1
  Cl  Cl28  1  0.834044  0.244323  0.713163  1
  Cl  Cl29  1  0.535345  0.684154  0.111213  1
  Cl  Cl30  1  0.464707  0.315847  0.888754  1
