# generated using pymatgen
data_YErTi2(Fe4P3)2
_symmetry_space_group_name_H-M   'P 1'
_cell_length_a   3.67918800
_cell_length_b   10.55668400
_cell_length_c   12.04929200
_cell_angle_alpha   90.00000000
_cell_angle_beta   90.00000000
_cell_angle_gamma   90.00000000
_symmetry_Int_Tables_number   1
_chemical_formula_structural   YErTi2(Fe4P3)2
_chemical_formula_sum   'Y2 Er2 Ti4 Fe16 P12'
_cell_volume   467.99480363
_cell_formula_units_Z   2
loop_
 _symmetry_equiv_pos_site_id
 _symmetry_equiv_pos_as_xyz
  1  'x, y, z'
loop_
 _atom_site_type_symbol
 _atom_site_label
 _atom_site_symmetry_multiplicity
 _atom_site_fract_x
 _atom_site_fract_y
 _atom_site_fract_z
 _atom_site_occupancy
  Y  Y0  1  0.250000  0.581173  0.705470  1
  Y  Y1  1  0.250000  0.918827  0.205470  1
  Er  Er2  1  0.750000  0.418588  0.294634  1
  Er  Er3  1  0.750000  0.081412  0.794634  1
  Ti  Ti4  1  0.250000  0.699180  0.987469  1
  Ti  Ti5  1  0.250000  0.800820  0.487469  1
  Ti  Ti6  1  0.750000  0.301272  0.012068  1
  Ti  Ti7  1  0.750000  0.198728  0.512068  1
  Fe  Fe8  1  0.250000  0.406156  0.493330  1
  Fe  Fe9  1  0.250000  0.093845  0.993330  1
  Fe  Fe10  1  0.750000  0.593718  0.505373  1
  Fe  Fe11  1  0.750000  0.906282  0.005373  1
  Fe  Fe12  1  0.250000  0.217804  0.178852  1
  Fe  Fe13  1  0.250000  0.282196  0.678852  1
  Fe  Fe14  1  0.750000  0.783169  0.821527  1
  Fe  Fe15  1  0.750000  0.716831  0.321527  1
  Fe  Fe16  1  0.250000  0.873187  0.705877  1
  Fe  Fe17  1  0.250000  0.626813  0.205877  1
  Fe  Fe18  1  0.750000  0.128453  0.294384  1
  Fe  Fe19  1  0.750000  0.371547  0.794384  1
  Fe  Fe20  1  0.250000  0.460479  0.931536  1
  Fe  Fe21  1  0.250000  0.039521  0.431536  1
  Fe  Fe22  1  0.750000  0.538350  0.069340  1
  Fe  Fe23  1  0.750000  0.961650  0.569340  1
  P  P24  1  0.250000  0.430568  0.115139  1
  P  P25  1  0.250000  0.069432  0.615139  1
  P  P26  1  0.750000  0.568528  0.886221  1
  P  P27  1  0.750000  0.931472  0.386221  1
  P  P28  1  0.250000  0.262207  0.870109  1
  P  P29  1  0.250000  0.237793  0.370109  1
  P  P30  1  0.750000  0.736533  0.129563  1
  P  P31  1  0.750000  0.763467  0.629563  1
  P  P32  1  0.250000  0.588361  0.394071  1
  P  P33  1  0.250000  0.911639  0.894071  1
  P  P34  1  0.750000  0.410190  0.605035  1
  P  P35  1  0.750000  0.089810  0.105035  1
