# generated using pymatgen
data_ErSi4(PdRh)3
_symmetry_space_group_name_H-M   'P 1'
_cell_length_a   7.11764000
_cell_length_b   7.11763945
_cell_length_c   3.77448600
_cell_angle_alpha   90.00000000
_cell_angle_beta   90.00000000
_cell_angle_gamma   119.99999325
_symmetry_Int_Tables_number   1
_chemical_formula_structural   ErSi4(PdRh)3
_chemical_formula_sum   'Er1 Si4 Pd3 Rh3'
_cell_volume   165.60005746
_cell_formula_units_Z   1
loop_
 _symmetry_equiv_pos_site_id
 _symmetry_equiv_pos_as_xyz
  1  'x, y, z'
loop_
 _atom_site_type_symbol
 _atom_site_label
 _atom_site_symmetry_multiplicity
 _atom_site_fract_x
 _atom_site_fract_y
 _atom_site_fract_z
 _atom_site_occupancy
  Er  Er0  1  0.000000  0.000000  0.000000  1
  Si  Si1  1  0.333334  0.666667  0.000000  1
  Si  Si2  1  0.402552  0.201276  0.500001  1
  Si  Si3  1  0.798724  0.201276  0.500001  1
  Si  Si4  1  0.798723  0.597448  0.500001  1
  Pd  Pd5  1  0.195265  0.390529  0.500001  1
  Pd  Pd6  1  0.195265  0.804735  0.500001  1
  Pd  Pd7  1  0.609470  0.804735  0.500001  1
  Rh  Rh8  1  0.533669  0.067339  0.000000  1
  Rh  Rh9  1  0.533669  0.466331  0.000000  1
  Rh  Rh10  1  0.932661  0.466331  0.000000  1
