# generated using pymatgen
data_Ac(Mo3S4)2
_symmetry_space_group_name_H-M   'P 1'
_cell_length_a   6.63257326
_cell_length_b   6.62093021
_cell_length_c   6.63515406
_cell_angle_alpha   88.49632725
_cell_angle_beta   88.68286620
_cell_angle_gamma   88.92799510
_symmetry_Int_Tables_number   1
_chemical_formula_structural   Ac(Mo3S4)2
_chemical_formula_sum   'Ac1 Mo6 S8'
_cell_volume   291.14977050
_cell_formula_units_Z   1
loop_
 _symmetry_equiv_pos_site_id
 _symmetry_equiv_pos_as_xyz
  1  'x, y, z'
loop_
 _atom_site_type_symbol
 _atom_site_label
 _atom_site_symmetry_multiplicity
 _atom_site_fract_x
 _atom_site_fract_y
 _atom_site_fract_z
 _atom_site_occupancy
  Ac  Ac0  1  0.000205  0.002719  0.997360  1
  Mo  Mo1  1  0.563177  0.230192  0.421209  1
  Mo  Mo2  1  0.420124  0.563031  0.230770  1
  Mo  Mo3  1  0.229924  0.419110  0.564717  1
  Mo  Mo4  1  0.436859  0.769241  0.579034  1
  Mo  Mo5  1  0.579547  0.436519  0.769836  1
  Mo  Mo6  1  0.770007  0.580703  0.435800  1
  S  S7  1  0.621370  0.874399  0.255887  1
  S  S8  1  0.256423  0.619816  0.873451  1
  S  S9  1  0.247070  0.246368  0.250983  1
  S  S10  1  0.752851  0.752649  0.750124  1
  S  S11  1  0.127174  0.741790  0.377773  1
  S  S12  1  0.379488  0.124904  0.744219  1
  S  S13  1  0.743037  0.380159  0.126892  1
  S  S14  1  0.872746  0.258402  0.621948  1
