# generated using pymatgen
data_Ho4Er8Ir3Pd
_symmetry_space_group_name_H-M   'P 1'
_cell_length_a   6.38496804
_cell_length_b   7.16426622
_cell_length_c   9.21348500
_cell_angle_alpha   90.00000000
_cell_angle_beta   90.00000000
_cell_angle_gamma   90.03954321
_symmetry_Int_Tables_number   1
_chemical_formula_structural   Ho4Er8Ir3Pd
_chemical_formula_sum   'Ho4 Er8 Ir3 Pd1'
_cell_volume   421.45797163
_cell_formula_units_Z   1
loop_
 _symmetry_equiv_pos_site_id
 _symmetry_equiv_pos_as_xyz
  1  'x, y, z'
loop_
 _atom_site_type_symbol
 _atom_site_label
 _atom_site_symmetry_multiplicity
 _atom_site_fract_x
 _atom_site_fract_y
 _atom_site_fract_z
 _atom_site_occupancy
  Ho  Ho0  1  0.865346  0.524917  0.250000  1
  Ho  Ho1  1  0.625171  0.036456  0.250000  1
  Ho  Ho2  1  0.127628  0.467734  0.750000  1
  Ho  Ho3  1  0.370677  0.966225  0.750000  1
  Er  Er4  1  0.333581  0.675838  0.059295  1
  Er  Er5  1  0.173859  0.184395  0.440785  1
  Er  Er6  1  0.674444  0.319788  0.562914  1
  Er  Er7  1  0.823697  0.821140  0.935299  1
  Er  Er8  1  0.674444  0.319788  0.937086  1
  Er  Er9  1  0.823697  0.821140  0.564701  1
  Er  Er10  1  0.333581  0.675838  0.440705  1
  Er  Er11  1  0.173859  0.184395  0.059215  1
  Ir  Ir12  1  0.449876  0.384738  0.250000  1
  Ir  Ir13  1  0.955861  0.115628  0.750000  1
  Ir  Ir14  1  0.543349  0.615178  0.750000  1
  Pd  Pd15  1  0.050927  0.886802  0.250000  1
