# generated using pymatgen
data_ScAl2VCo4
_symmetry_space_group_name_H-M   'P 1'
_cell_length_a   7.20486373
_cell_length_b   7.20486414
_cell_length_c   7.20486452
_cell_angle_alpha   33.43431437
_cell_angle_beta   33.43431023
_cell_angle_gamma   33.43431088
_symmetry_Int_Tables_number   1
_chemical_formula_structural   ScAl2VCo4
_chemical_formula_sum   'Sc1 Al2 V1 Co4'
_cell_volume   101.11258765
_cell_formula_units_Z   1
loop_
 _symmetry_equiv_pos_site_id
 _symmetry_equiv_pos_as_xyz
  1  'x, y, z'
loop_
 _atom_site_type_symbol
 _atom_site_label
 _atom_site_symmetry_multiplicity
 _atom_site_fract_x
 _atom_site_fract_y
 _atom_site_fract_z
 _atom_site_occupancy
  Sc  Sc0  1  0.000000  0.000000  0.000000  1
  Al  Al1  1  0.248802  0.248802  0.248802  1
  Al  Al2  1  0.751198  0.751198  0.751198  1
  V  V3  1  0.500000  0.500000  0.500000  1
  Co  Co4  1  0.619008  0.619008  0.619008  1
  Co  Co5  1  0.129488  0.129488  0.129488  1
  Co  Co6  1  0.870512  0.870512  0.870512  1
  Co  Co7  1  0.380992  0.380992  0.380992  1
