# generated using pymatgen
data_Nd15Y5(Ir2Ru)4
_symmetry_space_group_name_H-M   'P 1'
_cell_length_a   11.16646772
_cell_length_b   11.16112662
_cell_length_c   6.56253141
_cell_angle_alpha   90.06216034
_cell_angle_beta   89.95807787
_cell_angle_gamma   90.04802382
_symmetry_Int_Tables_number   1
_chemical_formula_structural   Nd15Y5(Ir2Ru)4
_chemical_formula_sum   'Nd15 Y5 Ir8 Ru4'
_cell_volume   817.88966579
_cell_formula_units_Z   1
loop_
 _symmetry_equiv_pos_site_id
 _symmetry_equiv_pos_as_xyz
  1  'x, y, z'
loop_
 _atom_site_type_symbol
 _atom_site_label
 _atom_site_symmetry_multiplicity
 _atom_site_fract_x
 _atom_site_fract_y
 _atom_site_fract_z
 _atom_site_occupancy
  Nd  Nd0  1  0.290878  0.087577  0.379462  1
  Nd  Nd1  1  0.291751  0.913406  0.880273  1
  Nd  Nd2  1  0.708629  0.086633  0.880588  1
  Nd  Nd3  1  0.708396  0.913216  0.380250  1
  Nd  Nd4  1  0.586627  0.791610  0.880106  1
  Nd  Nd5  1  0.586797  0.208580  0.380277  1
  Nd  Nd6  1  0.413359  0.791621  0.380361  1
  Nd  Nd7  1  0.412877  0.208421  0.880743  1
  Nd  Nd8  1  0.207568  0.412305  0.619787  1
  Nd  Nd9  1  0.207714  0.584673  0.119947  1
  Nd  Nd10  1  0.792822  0.412628  0.119768  1
  Nd  Nd11  1  0.791442  0.586158  0.619986  1
  Nd  Nd12  1  0.913627  0.708044  0.119660  1
  Nd  Nd13  1  0.914582  0.291609  0.619474  1
  Nd  Nd14  1  0.086886  0.708462  0.619482  1
  Y  Y15  1  0.086001  0.292942  0.117511  1
  Y  Y16  1  0.000049  0.000340  0.500059  1
  Y  Y17  1  0.000787  0.001465  0.000587  1
  Y  Y18  1  0.499885  0.499635  0.000560  1
  Y  Y19  1  0.499664  0.499910  0.500015  1
  Ir  Ir20  1  0.852549  0.150509  0.248809  1
  Ir  Ir21  1  0.850687  0.850495  0.749996  1
  Ir  Ir22  1  0.148950  0.150958  0.753875  1
  Ir  Ir23  1  0.149343  0.851024  0.250130  1
  Ir  Ir24  1  0.649259  0.350534  0.750030  1
  Ir  Ir25  1  0.649329  0.649539  0.249837  1
  Ir  Ir26  1  0.348228  0.350080  0.249041  1
  Ir  Ir27  1  0.350410  0.649219  0.750245  1
  Ru  Ru28  1  0.499799  0.000183  0.120439  1
  Ru  Ru29  1  0.500052  0.000319  0.620094  1
  Ru  Ru30  1  0.000472  0.498729  0.880512  1
  Ru  Ru31  1  0.000581  0.499175  0.378096  1
