# generated using pymatgen
data_Yb2Ho6Sc12Si15Pt
_symmetry_space_group_name_H-M   'P 1'
_cell_length_a   7.08389428
_cell_length_b   7.43129522
_cell_length_c   14.00723756
_cell_angle_alpha   90.00859916
_cell_angle_beta   89.89825661
_cell_angle_gamma   90.13392215
_symmetry_Int_Tables_number   1
_chemical_formula_structural   Yb2Ho6Sc12Si15Pt
_chemical_formula_sum   'Yb2 Ho6 Sc12 Si15 Pt1'
_cell_volume   737.37295402
_cell_formula_units_Z   1
loop_
 _symmetry_equiv_pos_site_id
 _symmetry_equiv_pos_as_xyz
  1  'x, y, z'
loop_
 _atom_site_type_symbol
 _atom_site_label
 _atom_site_symmetry_multiplicity
 _atom_site_fract_x
 _atom_site_fract_y
 _atom_site_fract_z
 _atom_site_occupancy
  Yb  Yb0  1  0.008523  0.174419  0.094483  1
  Yb  Yb1  1  0.992790  0.828460  0.905325  1
  Ho  Ho2  1  0.487966  0.677892  0.904589  1
  Ho  Ho3  1  0.989895  0.821959  0.593966  1
  Ho  Ho4  1  0.511016  0.322286  0.097275  1
  Ho  Ho5  1  0.011821  0.178204  0.404778  1
  Ho  Ho6  1  0.512127  0.322624  0.403705  1
  Ho  Ho7  1  0.488598  0.676735  0.594554  1
  Sc  Sc8  1  0.157722  0.504635  0.749879  1
  Sc  Sc9  1  0.839035  0.494801  0.249942  1
  Sc  Sc10  1  0.338307  0.005954  0.249955  1
  Sc  Sc11  1  0.666781  0.996726  0.749711  1
  Sc  Sc12  1  0.324917  0.173649  0.624843  1
  Sc  Sc13  1  0.671655  0.825425  0.374312  1
  Sc  Sc14  1  0.170375  0.677289  0.374797  1
  Sc  Sc15  1  0.672838  0.827446  0.126718  1
  Sc  Sc16  1  0.831173  0.322545  0.625122  1
  Sc  Sc17  1  0.324036  0.172648  0.873990  1
  Sc  Sc18  1  0.829868  0.323788  0.874993  1
  Sc  Sc19  1  0.171575  0.677125  0.125697  1
  Si  Si20  1  0.968476  0.883219  0.251208  1
  Si  Si21  1  0.468627  0.614761  0.250306  1
  Si  Si22  1  0.528899  0.389372  0.749976  1
  Si  Si23  1  0.289128  0.868973  0.746733  1
  Si  Si24  1  0.713536  0.127805  0.252591  1
  Si  Si25  1  0.216534  0.373943  0.251888  1
  Si  Si26  1  0.776516  0.623078  0.748404  1
  Si  Si27  1  0.159701  0.466455  0.538223  1
  Si  Si28  1  0.841809  0.536245  0.461248  1
  Si  Si29  1  0.344553  0.965580  0.460118  1
  Si  Si30  1  0.841879  0.536711  0.040025  1
  Si  Si31  1  0.659184  0.033390  0.538805  1
  Si  Si32  1  0.159973  0.466216  0.961410  1
  Si  Si33  1  0.649752  0.034022  0.960134  1
  Si  Si34  1  0.351369  0.965641  0.040757  1
  Pt  Pt35  1  0.029044  0.109979  0.749536  1
