# generated using pymatgen
data_Ti5Nb(V2Ga3)2
_symmetry_space_group_name_H-M   'P 1'
_cell_length_a   7.54161770
_cell_length_b   7.54161603
_cell_length_c   5.08518100
_cell_angle_alpha   90.00000000
_cell_angle_beta   90.00000000
_cell_angle_gamma   120.45974310
_symmetry_Int_Tables_number   1
_chemical_formula_structural   Ti5Nb(V2Ga3)2
_chemical_formula_sum   'Ti5 Nb1 V4 Ga6'
_cell_volume   249.30749350
_cell_formula_units_Z   1
loop_
 _symmetry_equiv_pos_site_id
 _symmetry_equiv_pos_as_xyz
  1  'x, y, z'
loop_
 _atom_site_type_symbol
 _atom_site_label
 _atom_site_symmetry_multiplicity
 _atom_site_fract_x
 _atom_site_fract_y
 _atom_site_fract_z
 _atom_site_occupancy
  Ti  Ti0  1  0.242123  0.998631  0.750000  1
  Ti  Ti1  1  0.998631  0.242123  0.750000  1
  Ti  Ti2  1  0.240328  0.240328  0.250000  1
  Ti  Ti3  1  0.754406  0.999177  0.250000  1
  Ti  Ti4  1  0.999177  0.754406  0.250000  1
  Nb  Nb5  1  0.762712  0.762712  0.750000  1
  V  V6  1  0.666872  0.335681  0.000842  1
  V  V7  1  0.335681  0.666872  0.000842  1
  V  V8  1  0.335681  0.666872  0.499158  1
  V  V9  1  0.666872  0.335681  0.499158  1
  Ga  Ga10  1  0.397888  0.397888  0.750000  1
  Ga  Ga11  1  0.598714  0.003241  0.750000  1
  Ga  Ga12  1  0.003241  0.598714  0.750000  1
  Ga  Ga13  1  0.599370  0.599370  0.250000  1
  Ga  Ga14  1  0.398610  0.999694  0.250000  1
  Ga  Ga15  1  0.999694  0.398610  0.250000  1
