# generated using pymatgen
data_Ac3Nd3(BiO7)2
_symmetry_space_group_name_H-M   'P 1'
_cell_length_a   6.79548195
_cell_length_b   6.83238496
_cell_length_c   8.01099200
_cell_angle_alpha   106.91459074
_cell_angle_beta   89.89254951
_cell_angle_gamma   98.44214669
_symmetry_Int_Tables_number   1
_chemical_formula_structural   Ac3Nd3(BiO7)2
_chemical_formula_sum   'Ac3 Nd3 Bi2 O14'
_cell_volume   351.67090023
_cell_formula_units_Z   1
loop_
 _symmetry_equiv_pos_site_id
 _symmetry_equiv_pos_as_xyz
  1  'x, y, z'
loop_
 _atom_site_type_symbol
 _atom_site_label
 _atom_site_symmetry_multiplicity
 _atom_site_fract_x
 _atom_site_fract_y
 _atom_site_fract_z
 _atom_site_occupancy
  Ac  Ac0  1  0.734419  0.467244  0.115676  1
  Ac  Ac1  1  0.746778  0.488060  0.622579  1
  Ac  Ac2  1  0.249779  0.511433  0.380436  1
  Nd  Nd3  1  0.461292  0.002972  0.252998  1
  Nd  Nd4  1  0.535853  0.995447  0.746800  1
  Nd  Nd5  1  0.268240  0.538093  0.882873  1
  Bi  Bi6  1  0.001496  0.003150  0.502627  1
  Bi  Bi7  1  0.003551  0.999971  0.998064  1
  O  O8  1  0.436651  0.648281  0.161249  1
  O  O9  1  0.544764  0.349709  0.832545  1
  O  O10  1  0.298461  0.931878  0.956457  1
  O  O11  1  0.706127  0.057747  0.044797  1
  O  O12  1  0.294073  0.935782  0.513134  1
  O  O13  1  0.707437  0.064215  0.485846  1
  O  O14  1  0.547429  0.358102  0.344410  1
  O  O15  1  0.446487  0.641712  0.661298  1
  O  O16  1  0.935490  0.673351  0.944922  1
  O  O17  1  0.081804  0.322362  0.041105  1
  O  O18  1  0.077588  0.330805  0.620205  1
  O  O19  1  0.925060  0.674431  0.390455  1
  O  O20  1  0.888055  0.924809  0.730853  1
  O  O21  1  0.109170  0.080443  0.270671  1
