# generated using pymatgen
data_Ho3Sc7(Si5Rh2)4
_symmetry_space_group_name_H-M   'P 1'
_cell_length_a   12.47424208
_cell_length_b   12.47424129
_cell_length_c   4.10270000
_cell_angle_alpha   90.00000000
_cell_angle_beta   90.00000000
_cell_angle_gamma   90.04631710
_symmetry_Int_Tables_number   1
_chemical_formula_structural   Ho3Sc7(Si5Rh2)4
_chemical_formula_sum   'Ho3 Sc7 Si20 Rh8'
_cell_volume   638.40742258
_cell_formula_units_Z   1
loop_
 _symmetry_equiv_pos_site_id
 _symmetry_equiv_pos_as_xyz
  1  'x, y, z'
loop_
 _atom_site_type_symbol
 _atom_site_label
 _atom_site_symmetry_multiplicity
 _atom_site_fract_x
 _atom_site_fract_y
 _atom_site_fract_z
 _atom_site_occupancy
  Ho  Ho0  1  0.115016  0.614904  0.500000  1
  Ho  Ho1  1  0.885096  0.384984  0.500000  1
  Ho  Ho2  1  0.614692  0.885308  0.500000  1
  Sc  Sc3  1  0.385258  0.114742  0.500000  1
  Sc  Sc4  1  0.673311  0.174218  0.500000  1
  Sc  Sc5  1  0.325782  0.826689  0.500000  1
  Sc  Sc6  1  0.175037  0.324963  0.500000  1
  Sc  Sc7  1  0.825833  0.674167  0.500000  1
  Sc  Sc8  1  0.000389  0.000027  0.000000  1
  Sc  Sc9  1  0.499973  0.499611  0.000000  1
  Si  Si10  1  0.565604  0.067541  0.000000  1
  Si  Si11  1  0.432459  0.934396  0.000000  1
  Si  Si12  1  0.067562  0.432438  0.000000  1
  Si  Si13  1  0.932867  0.567133  0.000000  1
  Si  Si14  1  0.200663  0.163964  0.000000  1
  Si  Si15  1  0.800876  0.835608  0.000000  1
  Si  Si16  1  0.164846  0.801771  0.000000  1
  Si  Si17  1  0.698229  0.335154  0.000000  1
  Si  Si18  1  0.835311  0.199077  0.000000  1
  Si  Si19  1  0.300923  0.664689  0.000000  1
  Si  Si20  1  0.664392  0.699124  0.000000  1
  Si  Si21  1  0.336036  0.299337  0.000000  1
  Si  Si22  1  0.007013  0.151904  0.500000  1
  Si  Si23  1  0.993306  0.848107  0.500000  1
  Si  Si24  1  0.153577  0.994556  0.500000  1
  Si  Si25  1  0.505444  0.346423  0.500000  1
  Si  Si26  1  0.847882  0.007598  0.500000  1
  Si  Si27  1  0.492402  0.652118  0.500000  1
  Si  Si28  1  0.651893  0.506694  0.500000  1
  Si  Si29  1  0.348096  0.492987  0.500000  1
  Rh  Rh30  1  0.020777  0.243552  0.000000  1
  Rh  Rh31  1  0.979929  0.756300  0.000000  1
  Rh  Rh32  1  0.245616  0.980908  0.000000  1
  Rh  Rh33  1  0.519092  0.254384  0.000000  1
  Rh  Rh34  1  0.755072  0.020403  0.000000  1
  Rh  Rh35  1  0.479597  0.744928  0.000000  1
  Rh  Rh36  1  0.743700  0.520071  0.000000  1
  Rh  Rh37  1  0.256448  0.479223  0.000000  1
