# generated using pymatgen
data_Y4P8Pd15Rh
_symmetry_space_group_name_H-M   'P 1'
_cell_length_a   4.18694200
_cell_length_b   7.42715354
_cell_length_c   15.06792500
_cell_angle_alpha   90.15317663
_cell_angle_beta   90.00000000
_cell_angle_gamma   90.00000000
_symmetry_Int_Tables_number   1
_chemical_formula_structural   Y4P8Pd15Rh
_chemical_formula_sum   'Y4 P8 Pd15 Rh1'
_cell_volume   468.56650996
_cell_formula_units_Z   1
loop_
 _symmetry_equiv_pos_site_id
 _symmetry_equiv_pos_as_xyz
  1  'x, y, z'
loop_
 _atom_site_type_symbol
 _atom_site_label
 _atom_site_symmetry_multiplicity
 _atom_site_fract_x
 _atom_site_fract_y
 _atom_site_fract_z
 _atom_site_occupancy
  Y  Y0  1  0.250000  0.858144  0.182705  1
  Y  Y1  1  0.750000  0.141103  0.817260  1
  Y  Y2  1  0.250000  0.356600  0.317680  1
  Y  Y3  1  0.750000  0.642073  0.681633  1
  P  P4  1  0.250000  0.315046  0.692055  1
  P  P5  1  0.250000  0.768420  0.553259  1
  P  P6  1  0.750000  0.225619  0.447352  1
  P  P7  1  0.750000  0.189579  0.194822  1
  P  P8  1  0.250000  0.810443  0.804202  1
  P  P9  1  0.250000  0.277441  0.945401  1
  P  P10  1  0.750000  0.721740  0.054607  1
  P  P11  1  0.750000  0.689365  0.306459  1
  Pd  Pd12  1  0.250000  0.983694  0.673116  1
  Pd  Pd13  1  0.250000  0.482618  0.824549  1
  Pd  Pd14  1  0.750000  0.380300  0.991763  1
  Pd  Pd15  1  0.750000  0.740262  0.882940  1
  Pd  Pd16  1  0.750000  0.537531  0.446260  1
  Pd  Pd17  1  0.750000  0.241163  0.616939  1
  Pd  Pd18  1  0.750000  0.516525  0.175501  1
  Pd  Pd19  1  0.750000  0.032615  0.056911  1
  Pd  Pd20  1  0.250000  0.758206  0.384069  1
  Pd  Pd21  1  0.250000  0.260042  0.116565  1
  Pd  Pd22  1  0.250000  0.966916  0.942291  1
  Pd  Pd23  1  0.250000  0.120575  0.490558  1
  Pd  Pd24  1  0.750000  0.882560  0.509634  1
  Pd  Pd25  1  0.750000  0.016974  0.325800  1
  Pd  Pd26  1  0.250000  0.620736  0.007825  1
  Rh  Rh27  1  0.250000  0.463713  0.557841  1
