# generated using pymatgen
data_Eu7ErSb6
_symmetry_space_group_name_H-M   'P 1'
_cell_length_a   8.30529951
_cell_length_b   8.38894329
_cell_length_c   8.38894400
_cell_angle_alpha   109.67231911
_cell_angle_beta   109.26936863
_cell_angle_gamma   109.26935994
_symmetry_Int_Tables_number   1
_chemical_formula_structural   Eu7ErSb6
_chemical_formula_sum   'Eu7 Er1 Sb6'
_cell_volume   451.04909404
_cell_formula_units_Z   1
loop_
 _symmetry_equiv_pos_site_id
 _symmetry_equiv_pos_as_xyz
  1  'x, y, z'
loop_
 _atom_site_type_symbol
 _atom_site_label
 _atom_site_symmetry_multiplicity
 _atom_site_fract_x
 _atom_site_fract_y
 _atom_site_fract_z
 _atom_site_occupancy
  Eu  Eu0  1  0.502034  0.005194  0.362654  1
  Eu  Eu1  1  0.996839  0.357460  0.494806  1
  Eu  Eu2  1  0.501389  0.001309  0.855795  1
  Eu  Eu3  1  0.645594  0.644205  0.645516  1
  Eu  Eu4  1  0.139381  0.137346  0.142540  1
  Eu  Eu5  1  0.856568  0.500000  0.000000  1
  Eu  Eu6  1  0.000079  0.854484  0.498691  1
  Er  Er7  1  0.358225  0.500000  0.000000  1
  Sb  Sb8  1  0.737732  0.864897  0.123020  1
  Sb  Sb9  1  0.372835  0.258123  0.635103  1
  Sb  Sb10  1  0.254338  0.622260  0.366143  1
  Sb  Sb11  1  0.888196  0.133857  0.756117  1
  Sb  Sb12  1  0.614711  0.376980  0.241877  1
  Sb  Sb13  1  0.132079  0.743883  0.877740  1
