# generated using pymatgen
data_LiDy16Cd3FeNi3
_symmetry_space_group_name_H-M   'P 1'
_cell_length_a   9.52325527
_cell_length_b   9.52325487
_cell_length_c   9.52325575
_cell_angle_alpha   59.78370230
_cell_angle_beta   59.78370570
_cell_angle_gamma   59.78369919
_symmetry_Int_Tables_number   1
_chemical_formula_structural   LiDy16Cd3FeNi3
_chemical_formula_sum   'Li1 Dy16 Cd3 Fe1 Ni3'
_cell_volume   607.71977251
_cell_formula_units_Z   1
loop_
 _symmetry_equiv_pos_site_id
 _symmetry_equiv_pos_as_xyz
  1  'x, y, z'
loop_
 _atom_site_type_symbol
 _atom_site_label
 _atom_site_symmetry_multiplicity
 _atom_site_fract_x
 _atom_site_fract_y
 _atom_site_fract_z
 _atom_site_occupancy
  Li  Li0  1  0.821011  0.821011  0.821011  1
  Dy  Dy1  1  0.598824  0.598824  0.598824  1
  Dy  Dy2  1  0.595466  0.595466  0.209821  1
  Dy  Dy3  1  0.595466  0.209821  0.595466  1
  Dy  Dy4  1  0.209821  0.595466  0.595466  1
  Dy  Dy5  1  0.066040  0.439086  0.439086  1
  Dy  Dy6  1  0.435948  0.063384  0.063384  1
  Dy  Dy7  1  0.439086  0.066040  0.439086  1
  Dy  Dy8  1  0.063384  0.435948  0.063384  1
  Dy  Dy9  1  0.439086  0.439086  0.066040  1
  Dy  Dy10  1  0.063384  0.063384  0.435948  1
  Dy  Dy11  1  0.185623  0.814160  0.814160  1
  Dy  Dy12  1  0.811418  0.187251  0.187251  1
  Dy  Dy13  1  0.814160  0.185623  0.814160  1
  Dy  Dy14  1  0.187251  0.811418  0.187251  1
  Dy  Dy15  1  0.814160  0.814160  0.185623  1
  Dy  Dy16  1  0.187251  0.187251  0.811418  1
  Cd  Cd17  1  0.831706  0.831706  0.506002  1
  Cd  Cd18  1  0.831706  0.506002  0.831706  1
  Cd  Cd19  1  0.506002  0.831706  0.831706  1
  Fe  Fe20  1  0.393383  0.393383  0.393383  1
  Ni  Ni21  1  0.392448  0.392448  0.824930  1
  Ni  Ni22  1  0.392448  0.824930  0.392448  1
  Ni  Ni23  1  0.824930  0.392448  0.392448  1
