# generated using pymatgen
data_Ba2YB2IO6
_symmetry_space_group_name_H-M   'P 1'
_cell_length_a   5.38360000
_cell_length_b   6.82184508
_cell_length_c   11.82693313
_cell_angle_alpha   90.11381880
_cell_angle_beta   90.00000000
_cell_angle_gamma   90.00000000
_symmetry_Int_Tables_number   1
_chemical_formula_structural   Ba2YB2IO6
_chemical_formula_sum   'Ba4 Y2 B4 I2 O12'
_cell_volume   434.35609646
_cell_formula_units_Z   2
loop_
 _symmetry_equiv_pos_site_id
 _symmetry_equiv_pos_as_xyz
  1  'x, y, z'
loop_
 _atom_site_type_symbol
 _atom_site_label
 _atom_site_symmetry_multiplicity
 _atom_site_fract_x
 _atom_site_fract_y
 _atom_site_fract_z
 _atom_site_occupancy
  Ba  Ba0  1  0.250000  0.956756  0.669828  1
  Ba  Ba1  1  0.250000  0.655122  0.081189  1
  Ba  Ba2  1  0.750000  0.344878  0.918811  1
  Ba  Ba3  1  0.750000  0.043244  0.330172  1
  Y  Y4  1  0.250000  0.627289  0.414165  1
  Y  Y5  1  0.750000  0.372711  0.585835  1
  B  B6  1  0.750000  0.795829  0.564249  1
  B  B7  1  0.750000  0.622738  0.223426  1
  B  B8  1  0.250000  0.377262  0.776574  1
  B  B9  1  0.250000  0.204171  0.435751  1
  I  I10  1  0.750000  0.850295  0.875103  1
  I  I11  1  0.250000  0.149705  0.124897  1
  O  O12  1  0.472086  0.321065  0.723922  1
  O  O13  1  0.532464  0.683094  0.559906  1
  O  O14  1  0.467536  0.316906  0.440094  1
  O  O15  1  0.750000  0.538726  0.117881  1
  O  O16  1  0.967536  0.683094  0.559906  1
  O  O17  1  0.032464  0.316906  0.440094  1
  O  O18  1  0.250000  0.461274  0.882119  1
  O  O19  1  0.750000  0.996312  0.573112  1
  O  O20  1  0.027914  0.321065  0.723922  1
  O  O21  1  0.250000  0.003688  0.426888  1
  O  O22  1  0.972086  0.678935  0.276078  1
  O  O23  1  0.527914  0.678935  0.276078  1
