# generated using pymatgen
data_Pr6Dy3Er(In3Br)2
_symmetry_space_group_name_H-M   'P 1'
_cell_length_a   9.52540900
_cell_length_b   9.52540860
_cell_length_c   6.76672600
_cell_angle_alpha   90.00000000
_cell_angle_beta   90.00000000
_cell_angle_gamma   119.99999792
_symmetry_Int_Tables_number   1
_chemical_formula_structural   Pr6Dy3Er(In3Br)2
_chemical_formula_sum   'Pr6 Dy3 Er1 In6 Br2'
_cell_volume   531.71202041
_cell_formula_units_Z   1
loop_
 _symmetry_equiv_pos_site_id
 _symmetry_equiv_pos_as_xyz
  1  'x, y, z'
loop_
 _atom_site_type_symbol
 _atom_site_label
 _atom_site_symmetry_multiplicity
 _atom_site_fract_x
 _atom_site_fract_y
 _atom_site_fract_z
 _atom_site_occupancy
  Pr  Pr0  1  0.731143  0.731425  0.250257  1
  Pr  Pr1  1  0.000282  0.731425  0.749743  1
  Pr  Pr2  1  0.731143  0.999718  0.749743  1
  Pr  Pr3  1  0.268575  0.268857  0.749743  1
  Pr  Pr4  1  0.000282  0.268857  0.250257  1
  Pr  Pr5  1  0.268575  0.999718  0.250257  1
  Dy  Dy6  1  0.666667  0.333333  0.500000  1
  Dy  Dy7  1  0.333333  0.666667  0.000000  1
  Dy  Dy8  1  0.666667  0.333333  0.000000  1
  Er  Er9  1  0.333333  0.666667  0.500000  1
  In  In10  1  0.394594  0.999625  0.749746  1
  In  In11  1  0.000375  0.605406  0.250254  1
  In  In12  1  0.605031  0.999625  0.250254  1
  In  In13  1  0.000375  0.394969  0.749746  1
  In  In14  1  0.394594  0.394969  0.250254  1
  In  In15  1  0.605031  0.605406  0.749746  1
  Br  Br16  1  0.000000  0.000000  0.500000  1
  Br  Br17  1  0.000000  0.000000  0.000000  1
