# generated using pymatgen
data_Tb3DyNiB16Ir3
_symmetry_space_group_name_H-M   'P 1'
_cell_length_a   6.98723502
_cell_length_b   6.98782871
_cell_length_c   6.98723329
_cell_angle_alpha   111.33684112
_cell_angle_beta   112.28718617
_cell_angle_gamma   104.88309684
_symmetry_Int_Tables_number   1
_chemical_formula_structural   Tb3DyNiB16Ir3
_chemical_formula_sum   'Tb3 Dy1 Ni1 B16 Ir3'
_cell_volume   261.36358513
_cell_formula_units_Z   1
loop_
 _symmetry_equiv_pos_site_id
 _symmetry_equiv_pos_as_xyz
  1  'x, y, z'
loop_
 _atom_site_type_symbol
 _atom_site_label
 _atom_site_symmetry_multiplicity
 _atom_site_fract_x
 _atom_site_fract_y
 _atom_site_fract_z
 _atom_site_occupancy
  Tb  Tb0  1  0.787431  0.790352  0.002921  1
  Tb  Tb1  1  0.212599  0.215489  0.002889  1
  Tb  Tb2  1  0.751480  0.252095  0.500614  1
  Dy  Dy3  1  0.248504  0.749236  0.500730  1
  Ni  Ni4  1  0.499887  0.256493  0.756606  1
  B  B5  1  0.270172  0.108745  0.378903  1
  B  B6  1  0.735242  0.893815  0.629027  1
  B  B7  1  0.264788  0.893815  0.158573  1
  B  B8  1  0.729841  0.108745  0.838573  1
  B  B9  1  0.108193  0.731575  0.839836  1
  B  B10  1  0.890909  0.264718  0.155765  1
  B  B11  1  0.108953  0.264718  0.373809  1
  B  B12  1  0.891738  0.731575  0.623381  1
  B  B13  1  0.117961  0.112802  0.531583  1
  B  B14  1  0.584740  0.584371  0.474790  1
  B  B15  1  0.109583  0.584371  0.999633  1
  B  B16  1  0.581218  0.112802  0.994840  1
  B  B17  1  0.890479  0.889944  0.474786  1
  B  B18  1  0.418636  0.413684  0.531492  1
  B  B19  1  0.882191  0.413684  0.995048  1
  B  B20  1  0.415159  0.889944  0.999464  1
  Ir  Ir21  1  0.267109  0.497165  0.763581  1
  Ir  Ir22  1  0.733584  0.497165  0.230056  1
  Ir  Ir23  1  0.499600  0.742701  0.243101  1
