# generated using pymatgen
data_Ho2Er10Ir3Pd
_symmetry_space_group_name_H-M   'P 1'
_cell_length_a   6.38129218
_cell_length_b   7.15889183
_cell_length_c   9.21279800
_cell_angle_alpha   90.00000000
_cell_angle_beta   90.00000000
_cell_angle_gamma   90.05460224
_symmetry_Int_Tables_number   1
_chemical_formula_structural   Ho2Er10Ir3Pd
_chemical_formula_sum   'Ho2 Er10 Ir3 Pd1'
_cell_volume   420.86787980
_cell_formula_units_Z   1
loop_
 _symmetry_equiv_pos_site_id
 _symmetry_equiv_pos_as_xyz
  1  'x, y, z'
loop_
 _atom_site_type_symbol
 _atom_site_label
 _atom_site_symmetry_multiplicity
 _atom_site_fract_x
 _atom_site_fract_y
 _atom_site_fract_z
 _atom_site_occupancy
  Ho  Ho0  1  0.865721  0.524795  0.250000  1
  Ho  Ho1  1  0.624661  0.036435  0.250000  1
  Er  Er2  1  0.333559  0.675845  0.059105  1
  Er  Er3  1  0.173993  0.184560  0.441076  1
  Er  Er4  1  0.674787  0.319637  0.563146  1
  Er  Er5  1  0.823402  0.821029  0.935093  1
  Er  Er6  1  0.674787  0.319637  0.936854  1
  Er  Er7  1  0.823402  0.821029  0.564907  1
  Er  Er8  1  0.333559  0.675845  0.440895  1
  Er  Er9  1  0.173993  0.184560  0.058924  1
  Er  Er10  1  0.127407  0.467654  0.750000  1
  Er  Er11  1  0.370565  0.965885  0.750000  1
  Ir  Ir12  1  0.449443  0.385126  0.250000  1
  Ir  Ir13  1  0.956825  0.115462  0.750000  1
  Ir  Ir14  1  0.542272  0.614917  0.750000  1
  Pd  Pd15  1  0.051621  0.887585  0.250000  1
