# generated using pymatgen
data_Pr10PPb6Cl
_symmetry_space_group_name_H-M   'P 1'
_cell_length_a   9.59534800
_cell_length_b   9.59534826
_cell_length_c   7.05459500
_cell_angle_alpha   90.00000000
_cell_angle_beta   90.00000000
_cell_angle_gamma   119.99999222
_symmetry_Int_Tables_number   1
_chemical_formula_structural   Pr10PPb6Cl
_chemical_formula_sum   'Pr10 P1 Pb6 Cl1'
_cell_volume   562.50219814
_cell_formula_units_Z   1
loop_
 _symmetry_equiv_pos_site_id
 _symmetry_equiv_pos_as_xyz
  1  'x, y, z'
loop_
 _atom_site_type_symbol
 _atom_site_label
 _atom_site_symmetry_multiplicity
 _atom_site_fract_x
 _atom_site_fract_y
 _atom_site_fract_z
 _atom_site_occupancy
  Pr  Pr0  1  0.246090  0.246090  0.760696  1
  Pr  Pr1  1  0.000000  0.753910  0.760696  1
  Pr  Pr2  1  0.246090  0.000000  0.239304  1
  Pr  Pr3  1  0.753910  0.000000  0.760696  1
  Pr  Pr4  1  0.333333  0.666667  0.500000  1
  Pr  Pr5  1  0.666667  0.333333  0.500000  1
  Pr  Pr6  1  0.753910  0.753910  0.239304  1
  Pr  Pr7  1  0.000000  0.246090  0.239304  1
  Pr  Pr8  1  0.333333  0.666667  0.000000  1
  Pr  Pr9  1  0.666667  0.333333  0.000000  1
  P  P10  1  0.000000  0.000000  0.000000  1
  Pb  Pb11  1  0.604249  0.000000  0.249529  1
  Pb  Pb12  1  0.000000  0.604249  0.249529  1
  Pb  Pb13  1  0.604249  0.604249  0.750471  1
  Pb  Pb14  1  0.395751  0.395751  0.249529  1
  Pb  Pb15  1  0.000000  0.395751  0.750471  1
  Pb  Pb16  1  0.395751  0.000000  0.750471  1
  Cl  Cl17  1  0.000000  0.000000  0.500000  1
