# generated using pymatgen
data_Lu9Mg(AlTe)4
_symmetry_space_group_name_H-M   'P 1'
_cell_length_a   8.60151198
_cell_length_b   8.60151282
_cell_length_c   7.68045033
_cell_angle_alpha   89.98507746
_cell_angle_beta   89.98507209
_cell_angle_gamma   127.00250280
_symmetry_Int_Tables_number   1
_chemical_formula_structural   Lu9Mg(AlTe)4
_chemical_formula_sum   'Lu9 Mg1 Al4 Te4'
_cell_volume   453.80635211
_cell_formula_units_Z   1
loop_
 _symmetry_equiv_pos_site_id
 _symmetry_equiv_pos_as_xyz
  1  'x, y, z'
loop_
 _atom_site_type_symbol
 _atom_site_label
 _atom_site_symmetry_multiplicity
 _atom_site_fract_x
 _atom_site_fract_y
 _atom_site_fract_z
 _atom_site_occupancy
  Lu  Lu0  1  0.500000  0.500000  0.500000  1
  Lu  Lu1  1  0.795696  0.540498  0.164828  1
  Lu  Lu2  1  0.459502  0.204304  0.835172  1
  Lu  Lu3  1  0.962108  0.708474  0.669249  1
  Lu  Lu4  1  0.291526  0.037892  0.330751  1
  Lu  Lu5  1  0.204304  0.459502  0.835172  1
  Lu  Lu6  1  0.540498  0.795696  0.164828  1
  Lu  Lu7  1  0.037892  0.291526  0.330751  1
  Lu  Lu8  1  0.708474  0.962108  0.669249  1
  Mg  Mg9  1  0.000000  0.000000  0.000000  1
  Al  Al10  1  0.870586  0.870586  0.375943  1
  Al  Al11  1  0.129414  0.129414  0.624057  1
  Al  Al12  1  0.624384  0.624384  0.872896  1
  Al  Al13  1  0.375616  0.375616  0.127104  1
  Te  Te14  1  0.207606  0.792394  0.000000  1
  Te  Te15  1  0.706492  0.293508  0.500000  1
  Te  Te16  1  0.792394  0.207606  0.000000  1
  Te  Te17  1  0.293508  0.706492  0.500000  1
