# generated using pymatgen
data_DyY5Cd23P
_symmetry_space_group_name_H-M   'P 1'
_cell_length_a   9.99881221
_cell_length_b   9.95408489
_cell_length_c   9.95408400
_cell_angle_alpha   60.29759881
_cell_angle_beta   59.85129715
_cell_angle_gamma   59.85129602
_symmetry_Int_Tables_number   1
_chemical_formula_structural   DyY5Cd23P
_chemical_formula_sum   'Dy1 Y5 Cd23 P1'
_cell_volume   700.51762205
_cell_formula_units_Z   1
loop_
 _symmetry_equiv_pos_site_id
 _symmetry_equiv_pos_as_xyz
  1  'x, y, z'
loop_
 _atom_site_type_symbol
 _atom_site_label
 _atom_site_symmetry_multiplicity
 _atom_site_fract_x
 _atom_site_fract_y
 _atom_site_fract_z
 _atom_site_occupancy
  Dy  Dy0  1  0.198992  0.800942  0.800942  1
  Y  Y1  1  0.803635  0.802988  0.196311  1
  Y  Y2  1  0.197028  0.803028  0.196347  1
  Y  Y3  1  0.801258  0.198789  0.198789  1
  Y  Y4  1  0.197028  0.196347  0.803028  1
  Y  Y5  1  0.803635  0.196311  0.802988  1
  Cd  Cd6  1  0.835971  0.838485  0.489598  1
  Cd  Cd7  1  0.835971  0.489598  0.838485  1
  Cd  Cd8  1  0.492672  0.835344  0.835344  1
  Cd  Cd9  1  0.836701  0.835365  0.835365  1
  Cd  Cd10  1  0.164672  0.163337  0.507297  1
  Cd  Cd11  1  0.164672  0.507297  0.163337  1
  Cd  Cd12  1  0.510427  0.164022  0.164022  1
  Cd  Cd13  1  0.161477  0.163998  0.163998  1
  Cd  Cd14  1  0.620182  0.622235  0.137445  1
  Cd  Cd15  1  0.620182  0.137445  0.622235  1
  Cd  Cd16  1  0.134332  0.620448  0.620448  1
  Cd  Cd17  1  0.624798  0.620423  0.620423  1
  Cd  Cd18  1  0.379555  0.375164  0.865676  1
  Cd  Cd19  1  0.379555  0.865676  0.375164  1
  Cd  Cd20  1  0.862551  0.379815  0.379815  1
  Cd  Cd21  1  0.377806  0.379839  0.379839  1
  Cd  Cd22  1  0.000108  0.999892  0.500549  1
  Cd  Cd23  1  0.499453  0.999892  0.500549  1
  Cd  Cd24  1  0.999879  0.500123  0.500123  1
  Cd  Cd25  1  0.499453  0.500549  0.999892  1
  Cd  Cd26  1  0.000108  0.500549  0.999892  1
  Cd  Cd27  1  0.499879  0.000122  0.000122  1
  Cd  Cd28  1  0.497517  0.502485  0.502485  1
  P  P29  1  0.000506  0.999488  0.999488  1
