# generated using pymatgen
data_Y15ErIn3HgRh4
_symmetry_space_group_name_H-M   'P 1'
_cell_length_a   9.68916453
_cell_length_b   9.67768341
_cell_length_c   9.68916455
_cell_angle_alpha   60.08360736
_cell_angle_beta   59.89381898
_cell_angle_gamma   60.08361412
_symmetry_Int_Tables_number   1
_chemical_formula_structural   Y15ErIn3HgRh4
_chemical_formula_sum   'Y15 Er1 In3 Hg1 Rh4'
_cell_volume   642.72645809
_cell_formula_units_Z   1
loop_
 _symmetry_equiv_pos_site_id
 _symmetry_equiv_pos_as_xyz
  1  'x, y, z'
loop_
 _atom_site_type_symbol
 _atom_site_label
 _atom_site_symmetry_multiplicity
 _atom_site_fract_x
 _atom_site_fract_y
 _atom_site_fract_z
 _atom_site_occupancy
  Y  Y0  1  0.190426  0.190258  0.811995  1
  Y  Y1  1  0.438117  0.057959  0.063339  1
  Y  Y2  1  0.436534  0.059904  0.436534  1
  Y  Y3  1  0.061921  0.436984  0.061921  1
  Y  Y4  1  0.648219  0.050624  0.648219  1
  Y  Y5  1  0.190328  0.809172  0.812089  1
  Y  Y6  1  0.063339  0.057959  0.438117  1
  Y  Y7  1  0.811995  0.190258  0.190426  1
  Y  Y8  1  0.812089  0.809172  0.190328  1
  Y  Y9  1  0.647090  0.648039  0.052595  1
  Y  Y10  1  0.651660  0.651109  0.651660  1
  Y  Y11  1  0.063756  0.435645  0.437186  1
  Y  Y12  1  0.052595  0.648039  0.647090  1
  Y  Y13  1  0.809645  0.191233  0.809645  1
  Y  Y14  1  0.437186  0.435645  0.063756  1
  Er  Er15  1  0.188715  0.812544  0.188715  1
  In  In16  1  0.417483  0.419767  0.746983  1
  In  In17  1  0.746983  0.419767  0.417483  1
  In  In18  1  0.417037  0.418651  0.417037  1
  Hg  Hg19  1  0.414285  0.758855  0.414285  1
  Rh  Rh20  1  0.857938  0.426096  0.857938  1
  Rh  Rh21  1  0.861162  0.857383  0.424749  1
  Rh  Rh22  1  0.424749  0.857383  0.861162  1
  Rh  Rh23  1  0.856749  0.857556  0.856749  1
