# generated using pymatgen
data_LaPr4(Sn5Ir2)2
_symmetry_space_group_name_H-M   'P 1'
_cell_length_a   14.23024300
_cell_length_b   14.23024300
_cell_length_c   4.69742300
_cell_angle_alpha   90.00000000
_cell_angle_beta   90.00000000
_cell_angle_gamma   90.00000000
_symmetry_Int_Tables_number   1
_chemical_formula_structural   LaPr4(Sn5Ir2)2
_chemical_formula_sum   'La2 Pr8 Sn20 Ir8'
_cell_volume   951.22729242
_cell_formula_units_Z   2
loop_
 _symmetry_equiv_pos_site_id
 _symmetry_equiv_pos_as_xyz
  1  'x, y, z'
loop_
 _atom_site_type_symbol
 _atom_site_label
 _atom_site_symmetry_multiplicity
 _atom_site_fract_x
 _atom_site_fract_y
 _atom_site_fract_z
 _atom_site_occupancy
  La  La0  1  0.500000  0.500000  0.000000  1
  La  La1  1  0.000000  0.000000  0.000000  1
  Pr  Pr2  1  0.677372  0.177372  0.500000  1
  Pr  Pr3  1  0.322628  0.822628  0.500000  1
  Pr  Pr4  1  0.177372  0.322628  0.500000  1
  Pr  Pr5  1  0.822628  0.677372  0.500000  1
  Pr  Pr6  1  0.887046  0.387046  0.500000  1
  Pr  Pr7  1  0.112954  0.612954  0.500000  1
  Pr  Pr8  1  0.387046  0.112954  0.500000  1
  Pr  Pr9  1  0.612954  0.887046  0.500000  1
  Sn  Sn10  1  0.569626  0.069626  0.000000  1
  Sn  Sn11  1  0.430374  0.930374  0.000000  1
  Sn  Sn12  1  0.069626  0.430374  0.000000  1
  Sn  Sn13  1  0.930374  0.569626  0.000000  1
  Sn  Sn14  1  0.654065  0.698635  0.000000  1
  Sn  Sn15  1  0.345935  0.301365  0.000000  1
  Sn  Sn16  1  0.154065  0.801365  0.000000  1
  Sn  Sn17  1  0.845935  0.198635  0.000000  1
  Sn  Sn18  1  0.301365  0.654065  0.000000  1
  Sn  Sn19  1  0.698635  0.345935  0.000000  1
  Sn  Sn20  1  0.198635  0.154065  0.000000  1
  Sn  Sn21  1  0.801365  0.845935  0.000000  1
  Sn  Sn22  1  0.663353  0.504960  0.500000  1
  Sn  Sn23  1  0.336647  0.495040  0.500000  1
  Sn  Sn24  1  0.163353  0.995040  0.500000  1
  Sn  Sn25  1  0.836647  0.004960  0.500000  1
  Sn  Sn26  1  0.495040  0.663353  0.500000  1
  Sn  Sn27  1  0.504960  0.336647  0.500000  1
  Sn  Sn28  1  0.004960  0.163353  0.500000  1
  Sn  Sn29  1  0.995040  0.836647  0.500000  1
  Ir  Ir30  1  0.746425  0.528581  0.000000  1
  Ir  Ir31  1  0.253575  0.471419  0.000000  1
  Ir  Ir32  1  0.246425  0.971419  0.000000  1
  Ir  Ir33  1  0.753575  0.028581  0.000000  1
  Ir  Ir34  1  0.471419  0.746425  0.000000  1
  Ir  Ir35  1  0.528581  0.253575  0.000000  1
  Ir  Ir36  1  0.028581  0.246425  0.000000  1
  Ir  Ir37  1  0.971419  0.753575  0.000000  1
