# generated using pymatgen
data_La4ErIn2Sn
_symmetry_space_group_name_H-M   'P 1'
_cell_length_a   9.45326387
_cell_length_b   9.45405866
_cell_length_c   9.45326477
_cell_angle_alpha   96.50593997
_cell_angle_beta   96.58165827
_cell_angle_gamma   140.53383100
_symmetry_Int_Tables_number   1
_chemical_formula_structural   La4ErIn2Sn
_chemical_formula_sum   'La8 Er2 In4 Sn2'
_cell_volume   505.49420439
_cell_formula_units_Z   2
loop_
 _symmetry_equiv_pos_site_id
 _symmetry_equiv_pos_as_xyz
  1  'x, y, z'
loop_
 _atom_site_type_symbol
 _atom_site_label
 _atom_site_symmetry_multiplicity
 _atom_site_fract_x
 _atom_site_fract_y
 _atom_site_fract_z
 _atom_site_occupancy
  La  La0  1  0.910739  0.223301  0.134093  1
  La  La1  1  0.223624  0.089027  0.312676  1
  La  La2  1  0.776896  0.910169  0.687093  1
  La  La3  1  0.089777  0.776618  0.866393  1
  La  La4  1  0.723076  0.410169  0.133273  1
  La  La5  1  0.276351  0.589027  0.865403  1
  La  La6  1  0.589208  0.723301  0.312562  1
  La  La7  1  0.410225  0.276618  0.686841  1
  Er  Er8  1  0.750030  0.250291  0.500302  1
  Er  Er9  1  0.249990  0.750291  0.500261  1
  In  In10  1  0.749996  0.750743  0.000708  1
  In  In11  1  0.250035  0.250743  0.000747  1
  In  In12  1  0.845297  0.654122  0.499397  1
  In  In13  1  0.654725  0.154122  0.808825  1
  Sn  Sn14  1  0.346647  0.845728  0.192347  1
  Sn  Sn15  1  0.153382  0.345728  0.499081  1
