# generated using pymatgen
data_Er3Tm(Zn14Cu3)2
_symmetry_space_group_name_H-M   'P 1'
_cell_length_a   8.86970400
_cell_length_b   8.86984626
_cell_length_c   8.62844300
_cell_angle_alpha   90.00000000
_cell_angle_beta   90.00000000
_cell_angle_gamma   120.00047404
_symmetry_Int_Tables_number   1
_chemical_formula_structural   Er3Tm(Zn14Cu3)2
_chemical_formula_sum   'Er3 Tm1 Zn28 Cu6'
_cell_volume   587.87665033
_cell_formula_units_Z   1
loop_
 _symmetry_equiv_pos_site_id
 _symmetry_equiv_pos_as_xyz
  1  'x, y, z'
loop_
 _atom_site_type_symbol
 _atom_site_label
 _atom_site_symmetry_multiplicity
 _atom_site_fract_x
 _atom_site_fract_y
 _atom_site_fract_z
 _atom_site_occupancy
  Er  Er0  1  0.000033  0.000042  0.750000  1
  Er  Er1  1  0.333369  0.666700  0.750000  1
  Er  Er2  1  0.666690  0.333325  0.250000  1
  Tm  Tm3  1  0.999996  0.999998  0.250000  1
  Zn  Zn4  1  0.333328  0.666665  0.403503  1
  Zn  Zn5  1  0.666666  0.333333  0.596468  1
  Zn  Zn6  1  0.666666  0.333333  0.903532  1
  Zn  Zn7  1  0.333328  0.666665  0.096497  1
  Zn  Zn8  1  0.332544  0.368084  0.250000  1
  Zn  Zn9  1  0.631910  0.964461  0.250000  1
  Zn  Zn10  1  0.035536  0.667444  0.250000  1
  Zn  Zn11  1  0.631908  0.667446  0.250000  1
  Zn  Zn12  1  0.035535  0.368087  0.250000  1
  Zn  Zn13  1  0.332546  0.964459  0.250000  1
  Zn  Zn14  1  0.667294  0.631658  0.750000  1
  Zn  Zn15  1  0.368337  0.035633  0.750000  1
  Zn  Zn16  1  0.964363  0.332707  0.750000  1
  Zn  Zn17  1  0.368341  0.332706  0.750000  1
  Zn  Zn18  1  0.964362  0.631656  0.750000  1
  Zn  Zn19  1  0.667293  0.035633  0.750000  1
  Zn  Zn20  1  0.164149  0.835843  0.520759  1
  Zn  Zn21  1  0.164149  0.328306  0.520758  1
  Zn  Zn22  1  0.671692  0.835846  0.520760  1
  Zn  Zn23  1  0.835874  0.164124  0.479108  1
  Zn  Zn24  1  0.835875  0.671748  0.479110  1
  Zn  Zn25  1  0.328246  0.164121  0.479108  1
  Zn  Zn26  1  0.835874  0.164124  0.020892  1
  Zn  Zn27  1  0.835875  0.671748  0.020890  1
  Zn  Zn28  1  0.328246  0.164121  0.020892  1
  Zn  Zn29  1  0.164149  0.835843  0.979241  1
  Zn  Zn30  1  0.164149  0.328306  0.979242  1
  Zn  Zn31  1  0.671692  0.835846  0.979240  1
  Cu  Cu32  1  0.500005  0.499988  0.499942  1
  Cu  Cu33  1  0.500006  0.000016  0.499941  1
  Cu  Cu34  1  0.999981  0.499990  0.499942  1
  Cu  Cu35  1  0.500005  0.499988  0.000058  1
  Cu  Cu36  1  0.500006  0.000016  0.000059  1
  Cu  Cu37  1  0.999981  0.499990  0.000058  1
