# generated using pymatgen
data_NdAl7Ag5
_symmetry_space_group_name_H-M   'P 1'
_cell_length_a   7.09659515
_cell_length_b   7.09659595
_cell_length_c   7.09659550
_cell_angle_alpha   133.75436213
_cell_angle_beta   99.96764875
_cell_angle_gamma   97.77827142
_symmetry_Int_Tables_number   1
_chemical_formula_structural   NdAl7Ag5
_chemical_formula_sum   'Nd1 Al7 Ag5'
_cell_volume   237.35377091
_cell_formula_units_Z   1
loop_
 _symmetry_equiv_pos_site_id
 _symmetry_equiv_pos_as_xyz
  1  'x, y, z'
loop_
 _atom_site_type_symbol
 _atom_site_label
 _atom_site_symmetry_multiplicity
 _atom_site_fract_x
 _atom_site_fract_y
 _atom_site_fract_z
 _atom_site_occupancy
  Nd  Nd0  1  0.999226  0.000000  0.999226  1
  Al  Al1  1  0.643906  0.000000  0.643906  1
  Al  Al2  1  0.352388  0.000000  0.352388  1
  Al  Al3  1  0.349026  0.353357  0.995668  1
  Al  Al4  1  0.642312  0.646643  0.995668  1
  Al  Al5  1  0.775639  0.500000  0.275639  1
  Al  Al6  1  0.790857  0.285667  0.505189  1
  Al  Al7  1  0.219523  0.714333  0.505189  1
  Ag  Ag8  1  0.510848  0.506638  0.501053  1
  Ag  Ag9  1  0.510848  0.009795  0.004211  1
  Ag  Ag10  1  0.994414  0.990205  0.501053  1
  Ag  Ag11  1  0.994414  0.493362  0.004211  1
  Ag  Ag12  1  0.216598  0.500000  0.716598  1
