# generated using pymatgen
data_Eu4AlGePt4
_symmetry_space_group_name_H-M   'P 1'
_cell_length_a   5.73358285
_cell_length_b   5.73358402
_cell_length_c   8.11134129
_cell_angle_alpha   100.57812007
_cell_angle_beta   100.57812338
_cell_angle_gamma   60.91212208
_symmetry_Int_Tables_number   1
_chemical_formula_structural   Eu4AlGePt4
_chemical_formula_sum   'Eu4 Al1 Ge1 Pt4'
_cell_volume   227.67528263
_cell_formula_units_Z   1
loop_
 _symmetry_equiv_pos_site_id
 _symmetry_equiv_pos_as_xyz
  1  'x, y, z'
loop_
 _atom_site_type_symbol
 _atom_site_label
 _atom_site_symmetry_multiplicity
 _atom_site_fract_x
 _atom_site_fract_y
 _atom_site_fract_z
 _atom_site_occupancy
  Eu  Eu0  1  0.521102  0.778310  0.152778  1
  Eu  Eu1  1  0.221690  0.478898  0.347222  1
  Eu  Eu2  1  0.784090  0.517204  0.648658  1
  Eu  Eu3  1  0.482797  0.215911  0.851343  1
  Al  Al4  1  0.113550  0.886449  0.750000  1
  Ge  Ge5  1  0.869468  0.130533  0.250001  1
  Pt  Pt6  1  0.002511  0.260075  0.997600  1
  Pt  Pt7  1  0.739925  0.997489  0.502401  1
  Pt  Pt8  1  0.259057  0.994188  0.505255  1
  Pt  Pt9  1  0.005811  0.740943  0.994745  1
