# generated using pymatgen
data_Pa8Be3Si12Pd
_symmetry_space_group_name_H-M   'P 1'
_cell_length_a   7.93588700
_cell_length_b   7.93588697
_cell_length_c   8.01371300
_cell_angle_alpha   90.00000000
_cell_angle_beta   90.00000000
_cell_angle_gamma   119.99999595
_symmetry_Int_Tables_number   1
_chemical_formula_structural   Pa8Be3Si12Pd
_chemical_formula_sum   'Pa8 Be3 Si12 Pd1'
_cell_volume   437.07441309
_cell_formula_units_Z   1
loop_
 _symmetry_equiv_pos_site_id
 _symmetry_equiv_pos_as_xyz
  1  'x, y, z'
loop_
 _atom_site_type_symbol
 _atom_site_label
 _atom_site_symmetry_multiplicity
 _atom_site_fract_x
 _atom_site_fract_y
 _atom_site_fract_z
 _atom_site_occupancy
  Pa  Pa0  1  0.502756  0.005511  0.246000  1
  Pa  Pa1  1  0.502576  0.005153  0.753979  1
  Pa  Pa2  1  0.994489  0.497244  0.246000  1
  Pa  Pa3  1  0.994847  0.497424  0.753979  1
  Pa  Pa4  1  0.502756  0.497244  0.246000  1
  Pa  Pa5  1  0.502576  0.497424  0.753979  1
  Pa  Pa6  1  0.000000  0.000000  0.246644  1
  Pa  Pa7  1  0.000000  0.000000  0.753237  1
  Be  Be8  1  0.333333  0.666667  0.001137  1
  Be  Be9  1  0.666667  0.333333  0.999764  1
  Be  Be10  1  0.666667  0.333333  0.500043  1
  Si  Si11  1  0.172790  0.345580  0.999969  1
  Si  Si12  1  0.826052  0.652107  0.999870  1
  Si  Si13  1  0.654420  0.827210  0.999969  1
  Si  Si14  1  0.822231  0.644464  0.500076  1
  Si  Si15  1  0.347893  0.173948  0.999870  1
  Si  Si16  1  0.160966  0.321931  0.499967  1
  Si  Si17  1  0.172790  0.827210  0.999969  1
  Si  Si18  1  0.355536  0.177769  0.500076  1
  Si  Si19  1  0.826052  0.173948  0.999870  1
  Si  Si20  1  0.678069  0.839034  0.499967  1
  Si  Si21  1  0.822231  0.177769  0.500076  1
  Si  Si22  1  0.160966  0.839034  0.499967  1
  Pd  Pd23  1  0.333333  0.666667  0.499593  1
