# generated using pymatgen
data_Lu12ZnInCoCu3
_symmetry_space_group_name_H-M   'P 1'
_cell_length_a   8.22595398
_cell_length_b   8.22595330
_cell_length_c   8.22595414
_cell_angle_alpha   111.27055074
_cell_angle_beta   110.64611799
_cell_angle_gamma   106.53689685
_symmetry_Int_Tables_number   1
_chemical_formula_structural   Lu12ZnInCoCu3
_chemical_formula_sum   'Lu12 Zn1 In1 Co1 Cu3'
_cell_volume   427.63543026
_cell_formula_units_Z   1
loop_
 _symmetry_equiv_pos_site_id
 _symmetry_equiv_pos_as_xyz
  1  'x, y, z'
loop_
 _atom_site_type_symbol
 _atom_site_label
 _atom_site_symmetry_multiplicity
 _atom_site_fract_x
 _atom_site_fract_y
 _atom_site_fract_z
 _atom_site_occupancy
  Lu  Lu0  1  0.436813  0.233144  0.203668  1
  Lu  Lu1  1  0.569741  0.767951  0.801790  1
  Lu  Lu2  1  0.029476  0.233144  0.796332  1
  Lu  Lu3  1  0.966161  0.767951  0.198210  1
  Lu  Lu4  1  0.178245  0.284001  0.468406  1
  Lu  Lu5  1  0.815595  0.709838  0.531594  1
  Lu  Lu6  1  0.178245  0.709838  0.894245  1
  Lu  Lu7  1  0.815595  0.284001  0.105755  1
  Lu  Lu8  1  0.322613  0.616549  0.293934  1
  Lu  Lu9  1  0.684468  0.382529  0.698063  1
  Lu  Lu10  1  0.322613  0.028679  0.706066  1
  Lu  Lu11  1  0.684468  0.986405  0.301937  1
  Zn  Zn12  1  0.002553  0.002553  0.000000  1
  In  In13  1  0.499745  0.499745  0.000000  1
  Co  Co14  1  0.875593  0.375593  0.500000  1
  Cu  Cu15  1  0.357713  0.997406  0.360307  1
  Cu  Cu16  1  0.637099  0.997406  0.639693  1
  Cu  Cu17  1  0.123264  0.623264  0.500000  1
