# generated using pymatgen
data_Ce4Tl2AgIr3
_symmetry_space_group_name_H-M   'P 1'
_cell_length_a   7.97943400
_cell_length_b   7.97943435
_cell_length_c   3.69338700
_cell_angle_alpha   90.00000000
_cell_angle_beta   90.00000000
_cell_angle_gamma   88.61198023
_symmetry_Int_Tables_number   1
_chemical_formula_structural   Ce4Tl2AgIr3
_chemical_formula_sum   'Ce4 Tl2 Ag1 Ir3'
_cell_volume   235.09400707
_cell_formula_units_Z   1
loop_
 _symmetry_equiv_pos_site_id
 _symmetry_equiv_pos_as_xyz
  1  'x, y, z'
loop_
 _atom_site_type_symbol
 _atom_site_label
 _atom_site_symmetry_multiplicity
 _atom_site_fract_x
 _atom_site_fract_y
 _atom_site_fract_z
 _atom_site_occupancy
  Ce  Ce0  1  0.646104  0.146104  0.500000  1
  Ce  Ce1  1  0.195542  0.338845  0.500000  1
  Ce  Ce2  1  0.838845  0.695542  0.500000  1
  Ce  Ce3  1  0.323876  0.823876  0.500000  1
  Tl  Tl4  1  0.003199  0.009926  0.000000  1
  Tl  Tl5  1  0.509926  0.503199  0.000000  1
  Ag  Ag6  1  0.869009  0.369009  0.000000  1
  Ir  Ir7  1  0.363610  0.127922  0.000000  1
  Ir  Ir8  1  0.121967  0.621967  0.000000  1
  Ir  Ir9  1  0.627922  0.863610  0.000000  1
