# generated using pymatgen
data_Li6NiAs5Rh12
_symmetry_space_group_name_H-M   'P 1'
_cell_length_a   4.16387403
_cell_length_b   5.90294600
_cell_length_c   12.50205109
_cell_angle_alpha   90.00000000
_cell_angle_beta   90.01387825
_cell_angle_gamma   90.00000000
_symmetry_Int_Tables_number   1
_chemical_formula_structural   Li6NiAs5Rh12
_chemical_formula_sum   'Li6 Ni1 As5 Rh12'
_cell_volume   307.28944943
_cell_formula_units_Z   1
loop_
 _symmetry_equiv_pos_site_id
 _symmetry_equiv_pos_as_xyz
  1  'x, y, z'
loop_
 _atom_site_type_symbol
 _atom_site_label
 _atom_site_symmetry_multiplicity
 _atom_site_fract_x
 _atom_site_fract_y
 _atom_site_fract_z
 _atom_site_occupancy
  Li  Li0  1  0.000000  0.000000  0.000000  1
  Li  Li1  1  0.499485  0.500001  0.163004  1
  Li  Li2  1  0.999634  0.000000  0.333813  1
  Li  Li3  1  0.499999  0.500001  0.500000  1
  Li  Li4  1  0.000367  0.000000  0.666186  1
  Li  Li5  1  0.500516  0.500001  0.836995  1
  Ni  Ni6  1  0.000000  0.500001  0.000000  1
  As  As7  1  0.499627  0.000000  0.162122  1
  As  As8  1  0.999603  0.500001  0.329993  1
  As  As9  1  0.499999  0.000000  0.500000  1
  As  As10  1  0.000396  0.500001  0.670006  1
  As  As11  1  0.500375  0.000000  0.837878  1
  Rh  Rh12  1  0.499999  0.248429  0.000000  1
  Rh  Rh13  1  0.499999  0.751572  0.000000  1
  Rh  Rh14  1  0.999602  0.247671  0.169841  1
  Rh  Rh15  1  0.999602  0.752328  0.169841  1
  Rh  Rh16  1  0.499702  0.249609  0.335131  1
  Rh  Rh17  1  0.499702  0.750391  0.335131  1
  Rh  Rh18  1  0.000000  0.251131  0.500000  1
  Rh  Rh19  1  0.000000  0.748870  0.500000  1
  Rh  Rh20  1  0.500297  0.249609  0.664869  1
  Rh  Rh21  1  0.500297  0.750391  0.664869  1
  Rh  Rh22  1  0.000400  0.247671  0.830159  1
  Rh  Rh23  1  0.000400  0.752328  0.830159  1
