# generated using pymatgen
data_Sr6MgZn5(TeO6)4
_symmetry_space_group_name_H-M   'P 1'
_cell_length_a   11.28386811
_cell_length_b   11.28533400
_cell_length_c   11.28443067
_cell_angle_alpha   109.44249966
_cell_angle_beta   109.43720153
_cell_angle_gamma   109.53482464
_symmetry_Int_Tables_number   1
_chemical_formula_structural   Sr6MgZn5(TeO6)4
_chemical_formula_sum   'Sr12 Mg2 Zn10 Te8 O48'
_cell_volume   1106.17859483
_cell_formula_units_Z   2
loop_
 _symmetry_equiv_pos_site_id
 _symmetry_equiv_pos_as_xyz
  1  'x, y, z'
loop_
 _atom_site_type_symbol
 _atom_site_label
 _atom_site_symmetry_multiplicity
 _atom_site_fract_x
 _atom_site_fract_y
 _atom_site_fract_z
 _atom_site_occupancy
  Sr  Sr0  1  0.374788  0.750026  0.124821  1
  Sr  Sr1  1  0.250035  0.374794  0.124823  1
  Sr  Sr2  1  0.874963  0.624962  0.249927  1
  Sr  Sr3  1  0.374636  0.124634  0.249269  1
  Sr  Sr4  1  0.126184  0.249992  0.376220  1
  Sr  Sr5  1  0.750037  0.126228  0.376223  1
  Sr  Sr6  1  0.875408  0.750373  0.624958  1
  Sr  Sr7  1  0.249552  0.874587  0.624960  1
  Sr  Sr8  1  0.125446  0.375446  0.750891  1
  Sr  Sr9  1  0.624978  0.874978  0.749957  1
  Sr  Sr10  1  0.623578  0.249524  0.873969  1
  Sr  Sr11  1  0.750390  0.624447  0.873968  1
  Mg  Mg12  1  0.749892  0.874803  0.125159  1
  Mg  Mg13  1  0.875270  0.250359  0.125155  1
  Zn  Zn14  1  0.624739  0.374890  0.249956  1
  Zn  Zn15  1  0.125217  0.875067  0.249958  1
  Zn  Zn16  1  0.624817  0.749917  0.375034  1
  Zn  Zn17  1  0.250217  0.625117  0.375033  1
  Zn  Zn18  1  0.375149  0.250016  0.625223  1
  Zn  Zn19  1  0.750074  0.375206  0.625225  1
  Zn  Zn20  1  0.875146  0.124973  0.749809  1
  Zn  Zn21  1  0.374663  0.624836  0.749811  1
  Zn  Zn22  1  0.124860  0.750110  0.874884  1
  Zn  Zn23  1  0.250023  0.124774  0.874885  1
  Te  Te24  1  0.999780  0.999929  0.000246  1
  Te  Te25  1  0.500466  0.000317  0.000245  1
  Te  Te26  1  0.999447  0.499748  0.999937  1
  Te  Te27  1  0.500491  0.500190  0.999937  1
  Te  Te28  1  0.999739  0.000308  0.499830  1
  Te  Te29  1  0.500025  0.500012  0.499966  1
  Te  Te30  1  0.499942  0.999955  0.499967  1
  Te  Te31  1  0.000092  0.499522  0.499830  1
  O  O32  1  0.330667  0.905870  0.017883  1
  O  O33  1  0.187215  0.112013  0.017882  1
  O  O34  1  0.685650  0.669713  0.073802  1
  O  O35  1  0.888150  0.404090  0.073801  1
  O  O36  1  0.981917  0.669498  0.094016  1
  O  O37  1  0.612099  0.424518  0.094016  1
  O  O38  1  0.596229  0.926548  0.111644  1
  O  O39  1  0.015414  0.185098  0.111645  1
  O  O40  1  0.187182  0.575276  0.169373  1
  O  O41  1  0.482190  0.594096  0.169372  1
  O  O42  1  0.575228  0.169647  0.187697  1
  O  O43  1  0.112472  0.018052  0.187699  1
  O  O44  1  0.330612  0.924284  0.312489  1
  O  O45  1  0.481876  0.388205  0.312490  1
  O  O46  1  0.903977  0.015823  0.330274  1
  O  O47  1  0.926297  0.314450  0.330274  1
  O  O48  1  0.575520  0.906052  0.387904  1
  O  O49  1  0.312384  0.481850  0.387906  1
  O  O50  1  0.830533  0.517539  0.405809  1
  O  O51  1  0.075275  0.888268  0.405809  1
  O  O52  1  0.830386  0.812363  0.424491  1
  O  O53  1  0.094103  0.612127  0.424492  1
  O  O54  1  0.593833  0.169708  0.482223  1
  O  O55  1  0.388389  0.312514  0.482223  1
  O  O56  1  0.612062  0.687659  0.518184  1
  O  O57  1  0.406122  0.830524  0.518183  1
  O  O58  1  0.169636  0.187612  0.575805  1
  O  O59  1  0.906169  0.388193  0.575805  1
  O  O60  1  0.924661  0.112373  0.594194  1
  O  O61  1  0.169533  0.481820  0.594193  1
  O  O62  1  0.687490  0.517945  0.611486  1
  O  O63  1  0.423997  0.093541  0.611486  1
  O  O64  1  0.093871  0.982171  0.669254  1
  O  O65  1  0.075382  0.687082  0.669253  1
  O  O66  1  0.517915  0.611939  0.687447  1
  O  O67  1  0.669533  0.075509  0.687447  1
  O  O68  1  0.888065  0.982239  0.812855  1
  O  O69  1  0.424791  0.830617  0.812855  1
  O  O70  1  0.517994  0.405893  0.830298  1
  O  O71  1  0.812303  0.424405  0.830299  1
  O  O72  1  0.982084  0.812710  0.887705  1
  O  O73  1  0.405622  0.074995  0.887705  1
  O  O74  1  0.017964  0.330511  0.906091  1
  O  O75  1  0.388126  0.575580  0.906090  1
  O  O76  1  0.111820  0.594150  0.924690  1
  O  O77  1  0.312869  0.330540  0.924690  1
  O  O78  1  0.669951  0.096271  0.984344  1
  O  O79  1  0.814391  0.888073  0.984343  1
