# generated using pymatgen
data_Dy2Fe5P6Rh4W
_symmetry_space_group_name_H-M   'P 1'
_cell_length_a   3.76671600
_cell_length_b   10.49945000
_cell_length_c   12.23393600
_cell_angle_alpha   90.00000000
_cell_angle_beta   90.00000000
_cell_angle_gamma   90.00000000
_symmetry_Int_Tables_number   1
_chemical_formula_structural   Dy2Fe5P6Rh4W
_chemical_formula_sum   'Dy4 Fe10 P12 Rh8 W2'
_cell_volume   483.83316101
_cell_formula_units_Z   2
loop_
 _symmetry_equiv_pos_site_id
 _symmetry_equiv_pos_as_xyz
  1  'x, y, z'
loop_
 _atom_site_type_symbol
 _atom_site_label
 _atom_site_symmetry_multiplicity
 _atom_site_fract_x
 _atom_site_fract_y
 _atom_site_fract_z
 _atom_site_occupancy
  Dy  Dy0  1  0.250000  0.583960  0.711807  1
  Dy  Dy1  1  0.250000  0.916040  0.211807  1
  Dy  Dy2  1  0.750000  0.425094  0.291147  1
  Dy  Dy3  1  0.750000  0.074906  0.791147  1
  Fe  Fe4  1  0.750000  0.775223  0.826142  1
  Fe  Fe5  1  0.750000  0.724777  0.326142  1
  Fe  Fe6  1  0.250000  0.875160  0.695874  1
  Fe  Fe7  1  0.250000  0.624840  0.195874  1
  Fe  Fe8  1  0.750000  0.117150  0.302210  1
  Fe  Fe9  1  0.750000  0.382850  0.802210  1
  Fe  Fe10  1  0.250000  0.458946  0.937109  1
  Fe  Fe11  1  0.250000  0.041054  0.437109  1
  Fe  Fe12  1  0.750000  0.536653  0.062737  1
  Fe  Fe13  1  0.750000  0.963347  0.562737  1
  P  P14  1  0.250000  0.438497  0.114036  1
  P  P15  1  0.250000  0.061503  0.614036  1
  P  P16  1  0.750000  0.574204  0.886534  1
  P  P17  1  0.750000  0.925796  0.386534  1
  P  P18  1  0.250000  0.271666  0.862789  1
  P  P19  1  0.250000  0.228334  0.362789  1
  P  P20  1  0.750000  0.724259  0.142731  1
  P  P21  1  0.750000  0.775741  0.642731  1
  P  P22  1  0.250000  0.607723  0.377680  1
  P  P23  1  0.250000  0.892277  0.877680  1
  P  P24  1  0.750000  0.402574  0.617314  1
  P  P25  1  0.750000  0.097426  0.117314  1
  Rh  Rh26  1  0.750000  0.292561  0.009689  1
  Rh  Rh27  1  0.750000  0.207439  0.509689  1
  Rh  Rh28  1  0.250000  0.408212  0.479609  1
  Rh  Rh29  1  0.250000  0.091788  0.979609  1
  Rh  Rh30  1  0.750000  0.599865  0.520500  1
  Rh  Rh31  1  0.750000  0.900135  0.020500  1
  Rh  Rh32  1  0.250000  0.229066  0.174502  1
  Rh  Rh33  1  0.250000  0.270934  0.674502  1
  W  W34  1  0.250000  0.700381  0.987591  1
  W  W35  1  0.250000  0.799619  0.487591  1
