# generated using pymatgen
data_Co5Mo12Pt3N4
_symmetry_space_group_name_H-M   'P 1'
_cell_length_a   6.71518411
_cell_length_b   6.71518434
_cell_length_c   6.71518394
_cell_angle_alpha   89.85101460
_cell_angle_beta   90.14898257
_cell_angle_gamma   89.85101207
_symmetry_Int_Tables_number   1
_chemical_formula_structural   Co5Mo12Pt3N4
_chemical_formula_sum   'Co5 Mo12 Pt3 N4'
_cell_volume   302.80940795
_cell_formula_units_Z   1
loop_
 _symmetry_equiv_pos_site_id
 _symmetry_equiv_pos_as_xyz
  1  'x, y, z'
loop_
 _atom_site_type_symbol
 _atom_site_label
 _atom_site_symmetry_multiplicity
 _atom_site_fract_x
 _atom_site_fract_y
 _atom_site_fract_z
 _atom_site_occupancy
  Co  Co0  1  0.195566  0.182072  0.176792  1
  Co  Co1  1  0.317928  0.823208  0.695566  1
  Co  Co2  1  0.436047  0.063953  0.936047  1
  Co  Co3  1  0.811612  0.688388  0.311612  1
  Co  Co4  1  0.676792  0.304434  0.817928  1
  Mo  Mo5  1  0.622395  0.704861  0.954820  1
  Mo  Mo6  1  0.454820  0.877605  0.295139  1
  Mo  Mo7  1  0.695715  0.958644  0.632468  1
  Mo  Mo8  1  0.541356  0.367532  0.195715  1
  Mo  Mo9  1  0.373391  0.194775  0.550590  1
  Mo  Mo10  1  0.195692  0.540511  0.371354  1
  Mo  Mo11  1  0.871354  0.304308  0.459489  1
  Mo  Mo12  1  0.050590  0.126609  0.805225  1
  Mo  Mo13  1  0.305225  0.449410  0.873391  1
  Mo  Mo14  1  0.132468  0.804285  0.041356  1
  Mo  Mo15  1  0.795139  0.045180  0.122395  1
  Mo  Mo16  1  0.959489  0.628646  0.695692  1
  Pt  Pt17  1  0.563018  0.565021  0.564685  1
  Pt  Pt18  1  0.064685  0.936982  0.434979  1
  Pt  Pt19  1  0.934979  0.435315  0.063018  1
  N  N20  1  0.374467  0.623206  0.125209  1
  N  N21  1  0.876794  0.874791  0.874467  1
  N  N22  1  0.125269  0.374731  0.625269  1
  N  N23  1  0.625209  0.125533  0.376794  1
