# generated using pymatgen
data_Rb8Ac3PrI20
_symmetry_space_group_name_H-M   'P 1'
_cell_length_a   9.65618546
_cell_length_b   10.26484500
_cell_length_c   15.32590126
_cell_angle_alpha   90.00000000
_cell_angle_beta   89.77599187
_cell_angle_gamma   90.00000000
_symmetry_Int_Tables_number   1
_chemical_formula_structural   Rb8Ac3PrI20
_chemical_formula_sum   'Rb8 Ac3 Pr1 I20'
_cell_volume   1519.08018371
_cell_formula_units_Z   1
loop_
 _symmetry_equiv_pos_site_id
 _symmetry_equiv_pos_as_xyz
  1  'x, y, z'
loop_
 _atom_site_type_symbol
 _atom_site_label
 _atom_site_symmetry_multiplicity
 _atom_site_fract_x
 _atom_site_fract_y
 _atom_site_fract_z
 _atom_site_occupancy
  Rb  Rb0  1  0.943234  0.002563  0.826889  1
  Rb  Rb1  1  0.056186  0.996732  0.173178  1
  Rb  Rb2  1  0.443887  0.996862  0.673908  1
  Rb  Rb3  1  0.056186  0.503268  0.173178  1
  Rb  Rb4  1  0.556234  0.002655  0.326104  1
  Rb  Rb5  1  0.943234  0.497437  0.826889  1
  Rb  Rb6  1  0.556234  0.497345  0.326104  1
  Rb  Rb7  1  0.443887  0.503138  0.673908  1
  Ac  Ac8  1  0.922875  0.750000  0.505172  1
  Ac  Ac9  1  0.077266  0.250000  0.494681  1
  Ac  Ac10  1  0.423609  0.250000  0.994693  1
  Pr  Pr11  1  0.577577  0.750000  0.004607  1
  I  I12  1  0.125808  0.750000  0.679700  1
  I  I13  1  0.873870  0.250000  0.320173  1
  I  I14  1  0.626485  0.250000  0.819846  1
  I  I15  1  0.380431  0.750000  0.174053  1
  I  I16  1  0.831783  0.046784  0.576640  1
  I  I17  1  0.168356  0.953156  0.423277  1
  I  I18  1  0.337097  0.949092  0.925925  1
  I  I19  1  0.168356  0.546844  0.423277  1
  I  I20  1  0.665032  0.039354  0.074229  1
  I  I21  1  0.831783  0.453216  0.576640  1
  I  I22  1  0.665032  0.460646  0.074229  1
  I  I23  1  0.337097  0.550908  0.925925  1
  I  I24  1  0.575184  0.750000  0.509957  1
  I  I25  1  0.424767  0.250000  0.490429  1
  I  I26  1  0.076224  0.250000  0.990088  1
  I  I27  1  0.914673  0.750000  0.009846  1
  I  I28  1  0.657816  0.750000  0.801146  1
  I  I29  1  0.339495  0.250000  0.204956  1
  I  I30  1  0.160584  0.250000  0.704815  1
  I  I31  1  0.839717  0.750000  0.295537  1
