# generated using pymatgen
data_TbTh3CdNi4Hg
_symmetry_space_group_name_H-M   'P 1'
_cell_length_a   7.59935850
_cell_length_b   7.58938971
_cell_length_c   3.67954800
_cell_angle_alpha   90.00000000
_cell_angle_beta   90.00000000
_cell_angle_gamma   91.25531568
_symmetry_Int_Tables_number   1
_chemical_formula_structural   TbTh3CdNi4Hg
_chemical_formula_sum   'Tb1 Th3 Cd1 Ni4 Hg1'
_cell_volume   212.16513380
_cell_formula_units_Z   1
loop_
 _symmetry_equiv_pos_site_id
 _symmetry_equiv_pos_as_xyz
  1  'x, y, z'
loop_
 _atom_site_type_symbol
 _atom_site_label
 _atom_site_symmetry_multiplicity
 _atom_site_fract_x
 _atom_site_fract_y
 _atom_site_fract_z
 _atom_site_occupancy
  Tb  Tb0  1  0.828204  0.673984  0.500000  1
  Th  Th1  1  0.675727  0.171577  0.500000  1
  Th  Th2  1  0.326523  0.825689  0.500000  1
  Th  Th3  1  0.170674  0.328767  0.500000  1
  Cd  Cd4  1  0.508480  0.503610  0.000000  1
  Ni  Ni5  1  0.128197  0.618771  0.000000  1
  Ni  Ni6  1  0.878521  0.374377  0.000000  1
  Ni  Ni7  1  0.612367  0.884666  0.000000  1
  Ni  Ni8  1  0.375349  0.127624  0.000000  1
  Hg  Hg9  1  0.995959  0.990934  0.000000  1
