# generated using pymatgen
data_Tm3Ga2RuC
_symmetry_space_group_name_H-M   'P 1'
_cell_length_a   8.97538489
_cell_length_b   8.97538580
_cell_length_c   8.97538500
_cell_angle_alpha   59.99999925
_cell_angle_beta   59.99999590
_cell_angle_gamma   60.00000274
_symmetry_Int_Tables_number   1
_chemical_formula_structural   Tm3Ga2RuC
_chemical_formula_sum   'Tm12 Ga8 Ru4 C4'
_cell_volume   511.26291107
_cell_formula_units_Z   4
loop_
 _symmetry_equiv_pos_site_id
 _symmetry_equiv_pos_as_xyz
  1  'x, y, z'
loop_
 _atom_site_type_symbol
 _atom_site_label
 _atom_site_symmetry_multiplicity
 _atom_site_fract_x
 _atom_site_fract_y
 _atom_site_fract_z
 _atom_site_occupancy
  Tm  Tm0  1  0.956300  0.956300  0.543700  1
  Tm  Tm1  1  0.706300  0.293700  0.293700  1
  Tm  Tm2  1  0.293700  0.706300  0.706300  1
  Tm  Tm3  1  0.706300  0.706300  0.293700  1
  Tm  Tm4  1  0.706300  0.293700  0.706300  1
  Tm  Tm5  1  0.293700  0.706300  0.293700  1
  Tm  Tm6  1  0.543700  0.956300  0.543700  1
  Tm  Tm7  1  0.543700  0.956300  0.956300  1
  Tm  Tm8  1  0.956300  0.543700  0.543700  1
  Tm  Tm9  1  0.956300  0.543700  0.956300  1
  Tm  Tm10  1  0.293700  0.293700  0.706300  1
  Tm  Tm11  1  0.543700  0.543700  0.956300  1
  Ga  Ga12  1  0.922585  0.232246  0.922585  1
  Ga  Ga13  1  0.327415  0.327415  0.017754  1
  Ga  Ga14  1  0.017754  0.327415  0.327415  1
  Ga  Ga15  1  0.327415  0.327415  0.327415  1
  Ga  Ga16  1  0.232246  0.922585  0.922585  1
  Ga  Ga17  1  0.922585  0.922585  0.922585  1
  Ga  Ga18  1  0.922585  0.922585  0.232246  1
  Ga  Ga19  1  0.327415  0.017754  0.327415  1
  Ru  Ru20  1  0.125000  0.625000  0.125000  1
  Ru  Ru21  1  0.125000  0.125000  0.625000  1
  Ru  Ru22  1  0.625000  0.125000  0.125000  1
  Ru  Ru23  1  0.125000  0.125000  0.125000  1
  C  C24  1  0.625000  0.125000  0.625000  1
  C  C25  1  0.625000  0.625000  0.125000  1
  C  C26  1  0.125000  0.625000  0.625000  1
  C  C27  1  0.625000  0.625000  0.625000  1
