# generated using pymatgen
data_Dy5Ho3Si12Ir3Rh
_symmetry_space_group_name_H-M   'P 1'
_cell_length_a   8.16154400
_cell_length_b   8.16154412
_cell_length_c   7.91528300
_cell_angle_alpha   90.00000000
_cell_angle_beta   90.00000000
_cell_angle_gamma   120.00000762
_symmetry_Int_Tables_number   1
_chemical_formula_structural   Dy5Ho3Si12Ir3Rh
_chemical_formula_sum   'Dy5 Ho3 Si12 Ir3 Rh1'
_cell_volume   456.60609511
_cell_formula_units_Z   1
loop_
 _symmetry_equiv_pos_site_id
 _symmetry_equiv_pos_as_xyz
  1  'x, y, z'
loop_
 _atom_site_type_symbol
 _atom_site_label
 _atom_site_symmetry_multiplicity
 _atom_site_fract_x
 _atom_site_fract_y
 _atom_site_fract_z
 _atom_site_occupancy
  Dy  Dy0  1  0.000000  0.000000  0.248815  1
  Dy  Dy1  1  0.000000  0.000000  0.750362  1
  Dy  Dy2  1  0.509808  0.490192  0.250187  1
  Dy  Dy3  1  0.509808  0.019617  0.250187  1
  Dy  Dy4  1  0.980383  0.490192  0.250187  1
  Ho  Ho5  1  0.490724  0.509276  0.749847  1
  Ho  Ho6  1  0.490724  0.981450  0.749847  1
  Ho  Ho7  1  0.018550  0.509276  0.749847  1
  Si  Si8  1  0.166869  0.833131  0.499129  1
  Si  Si9  1  0.166869  0.333736  0.499129  1
  Si  Si10  1  0.666264  0.833131  0.499129  1
  Si  Si11  1  0.833218  0.166782  0.501048  1
  Si  Si12  1  0.833218  0.666437  0.501048  1
  Si  Si13  1  0.333563  0.166782  0.501048  1
  Si  Si14  1  0.833353  0.166647  0.999047  1
  Si  Si15  1  0.833353  0.666706  0.999047  1
  Si  Si16  1  0.333294  0.166647  0.999047  1
  Si  Si17  1  0.167286  0.832714  0.999673  1
  Si  Si18  1  0.167286  0.334572  0.999673  1
  Si  Si19  1  0.665428  0.832714  0.999673  1
  Ir  Ir20  1  0.333333  0.666667  0.469349  1
  Ir  Ir21  1  0.666667  0.333333  0.534387  1
  Ir  Ir22  1  0.666667  0.333333  0.964247  1
  Rh  Rh23  1  0.333333  0.666667  0.036048  1
