# generated using pymatgen
data_Ba6MnCu(NiO5)3
_symmetry_space_group_name_H-M   'P 1'
_cell_length_a   7.27448099
_cell_length_b   7.31031308
_cell_length_c   7.24866683
_cell_angle_alpha   88.19234535
_cell_angle_beta   88.36615864
_cell_angle_gamma   88.22148724
_symmetry_Int_Tables_number   1
_chemical_formula_structural   Ba6MnCu(NiO5)3
_chemical_formula_sum   'Ba6 Mn1 Cu1 Ni3 O15'
_cell_volume   384.95121105
_cell_formula_units_Z   1
loop_
 _symmetry_equiv_pos_site_id
 _symmetry_equiv_pos_as_xyz
  1  'x, y, z'
loop_
 _atom_site_type_symbol
 _atom_site_label
 _atom_site_symmetry_multiplicity
 _atom_site_fract_x
 _atom_site_fract_y
 _atom_site_fract_z
 _atom_site_occupancy
  Ba  Ba0  1  0.337497  0.669091  0.990784  1
  Ba  Ba1  1  0.993912  0.329497  0.669974  1
  Ba  Ba2  1  0.670321  0.982945  0.335167  1
  Ba  Ba3  1  0.155708  0.843111  0.500454  1
  Ba  Ba4  1  0.500401  0.130743  0.852404  1
  Ba  Ba5  1  0.862912  0.500599  0.142093  1
  Mn  Mn6  1  0.280268  0.304274  0.291200  1
  Cu  Cu7  1  0.553388  0.445089  0.500325  1
  Ni  Ni8  1  0.702877  0.719629  0.711009  1
  Ni  Ni9  1  0.100236  0.090487  0.096962  1
  Ni  Ni10  1  0.907984  0.905680  0.904919  1
  O  O11  1  0.146010  0.998671  0.859027  1
  O  O12  1  0.862564  0.140993  0.004179  1
  O  O13  1  0.006265  0.855987  0.143391  1
  O  O14  1  0.041483  0.184622  0.332387  1
  O  O15  1  0.335772  0.038533  0.197565  1
  O  O16  1  0.196500  0.324199  0.033943  1
  O  O17  1  0.821146  0.978308  0.670223  1
  O  O18  1  0.677070  0.811721  0.976963  1
  O  O19  1  0.959676  0.671602  0.802693  1
  O  O20  1  0.375446  0.261703  0.532853  1
  O  O21  1  0.522832  0.395817  0.246183  1
  O  O22  1  0.177021  0.528185  0.347292  1
  O  O23  1  0.737438  0.613229  0.460053  1
  O  O24  1  0.470509  0.814557  0.648178  1
  O  O25  1  0.604763  0.460728  0.749781  1
