# generated using pymatgen
data_Y3Mn(Co4P3)2
_symmetry_space_group_name_H-M   'P 1'
_cell_length_a   3.67619300
_cell_length_b   10.50550900
_cell_length_c   12.16440200
_cell_angle_alpha   90.00000000
_cell_angle_beta   90.00000000
_cell_angle_gamma   90.00000000
_symmetry_Int_Tables_number   1
_chemical_formula_structural   Y3Mn(Co4P3)2
_chemical_formula_sum   'Y6 Mn2 Co16 P12'
_cell_volume   469.79259482
_cell_formula_units_Z   2
loop_
 _symmetry_equiv_pos_site_id
 _symmetry_equiv_pos_as_xyz
  1  'x, y, z'
loop_
 _atom_site_type_symbol
 _atom_site_label
 _atom_site_symmetry_multiplicity
 _atom_site_fract_x
 _atom_site_fract_y
 _atom_site_fract_z
 _atom_site_occupancy
  Y  Y0  1  0.000000  0.500000  0.522607  1
  Y  Y1  1  0.500000  0.000000  0.477393  1
  Y  Y2  1  0.500000  0.817829  0.205152  1
  Y  Y3  1  0.500000  0.182171  0.205152  1
  Y  Y4  1  0.000000  0.682171  0.794848  1
  Y  Y5  1  0.000000  0.317829  0.794848  1
  Mn  Mn6  1  0.500000  0.500000  0.158521  1
  Mn  Mn7  1  0.000000  0.000000  0.841479  1
  Co  Co8  1  0.500000  0.500000  0.702775  1
  Co  Co9  1  0.000000  0.000000  0.297225  1
  Co  Co10  1  0.000000  0.500000  0.986149  1
  Co  Co11  1  0.500000  0.000000  0.013851  1
  Co  Co12  1  0.500000  0.333113  0.993835  1
  Co  Co13  1  0.500000  0.666887  0.993835  1
  Co  Co14  1  0.000000  0.166887  0.006165  1
  Co  Co15  1  0.000000  0.833113  0.006165  1
  Co  Co16  1  0.500000  0.296772  0.430492  1
  Co  Co17  1  0.500000  0.703228  0.430492  1
  Co  Co18  1  0.000000  0.203228  0.569508  1
  Co  Co19  1  0.000000  0.796772  0.569508  1
  Co  Co20  1  0.500000  0.879759  0.709321  1
  Co  Co21  1  0.500000  0.120241  0.709321  1
  Co  Co22  1  0.000000  0.620241  0.290679  1
  Co  Co23  1  0.000000  0.379759  0.290679  1
  P  P24  1  0.500000  0.500000  0.882601  1
  P  P25  1  0.000000  0.000000  0.117399  1
  P  P26  1  0.500000  0.500000  0.344548  1
  P  P27  1  0.000000  0.000000  0.655452  1
  P  P28  1  0.500000  0.310993  0.616127  1
  P  P29  1  0.500000  0.689007  0.616127  1
  P  P30  1  0.000000  0.189007  0.383873  1
  P  P31  1  0.000000  0.810993  0.383873  1
  P  P32  1  0.500000  0.847848  0.892912  1
  P  P33  1  0.500000  0.152152  0.892912  1
  P  P34  1  0.000000  0.652152  0.107088  1
  P  P35  1  0.000000  0.347848  0.107088  1
