# generated using pymatgen
data_Zr2AlNiRh4
_symmetry_space_group_name_H-M   'P 1'
_cell_length_a   5.50630699
_cell_length_b   5.50630647
_cell_length_c   8.21792100
_cell_angle_alpha   90.00003958
_cell_angle_beta   90.00003460
_cell_angle_gamma   98.44069955
_symmetry_Int_Tables_number   1
_chemical_formula_structural   Zr2AlNiRh4
_chemical_formula_sum   'Zr4 Al2 Ni2 Rh8'
_cell_volume   246.46369686
_cell_formula_units_Z   2
loop_
 _symmetry_equiv_pos_site_id
 _symmetry_equiv_pos_as_xyz
  1  'x, y, z'
loop_
 _atom_site_type_symbol
 _atom_site_label
 _atom_site_symmetry_multiplicity
 _atom_site_fract_x
 _atom_site_fract_y
 _atom_site_fract_z
 _atom_site_occupancy
  Zr  Zr0  1  0.780874  0.219126  0.500000  1
  Zr  Zr1  1  0.219126  0.780874  0.000000  1
  Zr  Zr2  1  0.219126  0.780874  0.500000  1
  Zr  Zr3  1  0.780874  0.219126  0.000000  1
  Al  Al4  1  0.500260  0.500260  0.750002  1
  Al  Al5  1  0.499740  0.499740  0.249998  1
  Ni  Ni6  1  0.000064  0.000064  0.250013  1
  Ni  Ni7  1  0.999936  0.999936  0.749987  1
  Rh  Rh8  1  0.719898  0.719898  0.000096  1
  Rh  Rh9  1  0.719899  0.719899  0.499904  1
  Rh  Rh10  1  0.280102  0.280102  0.999904  1
  Rh  Rh11  1  0.280101  0.280101  0.500096  1
  Rh  Rh12  1  0.499996  0.000044  0.749986  1
  Rh  Rh13  1  0.500004  0.999956  0.250014  1
  Rh  Rh14  1  0.000044  0.499996  0.749986  1
  Rh  Rh15  1  0.999956  0.500004  0.250014  1
