# generated using pymatgen
data_Hf7Zr3CuGeSb6
_symmetry_space_group_name_H-M   'P 1'
_cell_length_a   8.62490700
_cell_length_b   8.62490799
_cell_length_c   5.80086700
_cell_angle_alpha   90.00000000
_cell_angle_beta   90.00000000
_cell_angle_gamma   119.99999236
_symmetry_Int_Tables_number   1
_chemical_formula_structural   Hf7Zr3CuGeSb6
_chemical_formula_sum   'Hf7 Zr3 Cu1 Ge1 Sb6'
_cell_volume   373.70806032
_cell_formula_units_Z   1
loop_
 _symmetry_equiv_pos_site_id
 _symmetry_equiv_pos_as_xyz
  1  'x, y, z'
loop_
 _atom_site_type_symbol
 _atom_site_label
 _atom_site_symmetry_multiplicity
 _atom_site_fract_x
 _atom_site_fract_y
 _atom_site_fract_z
 _atom_site_occupancy
  Hf  Hf0  1  0.666667  0.333333  0.000868  1
  Hf  Hf1  1  0.333333  0.666667  0.000868  1
  Hf  Hf2  1  0.333333  0.666667  0.498739  1
  Hf  Hf3  1  0.666667  0.333333  0.498739  1
  Hf  Hf4  1  0.269936  0.269936  0.246721  1
  Hf  Hf5  1  0.730064  0.000000  0.246721  1
  Hf  Hf6  1  0.000000  0.730064  0.246721  1
  Zr  Zr7  1  0.739533  0.739533  0.752258  1
  Zr  Zr8  1  0.260467  0.000000  0.752258  1
  Zr  Zr9  1  0.000000  0.260467  0.752258  1
  Cu  Cu10  1  0.000000  0.000000  0.018074  1
  Ge  Ge11  1  0.000000  0.000000  0.486878  1
  Sb  Sb12  1  0.392663  0.392663  0.751288  1
  Sb  Sb13  1  0.607337  0.000000  0.751288  1
  Sb  Sb14  1  0.000000  0.607337  0.751288  1
  Sb  Sb15  1  0.612911  0.612911  0.248344  1
  Sb  Sb16  1  0.387089  0.000000  0.248344  1
  Sb  Sb17  1  0.000000  0.387089  0.248344  1
