# generated using pymatgen
data_Rb4Ho7(LuTe4)5
_symmetry_space_group_name_H-M   'P 1'
_cell_length_a   4.38054200
_cell_length_b   13.26546856
_cell_length_c   23.39639300
_cell_angle_alpha   89.87502479
_cell_angle_beta   90.00000000
_cell_angle_gamma   90.00000000
_symmetry_Int_Tables_number   1
_chemical_formula_structural   Rb4Ho7(LuTe4)5
_chemical_formula_sum   'Rb4 Ho7 Lu5 Te20'
_cell_volume   1359.55980983
_cell_formula_units_Z   1
loop_
 _symmetry_equiv_pos_site_id
 _symmetry_equiv_pos_as_xyz
  1  'x, y, z'
loop_
 _atom_site_type_symbol
 _atom_site_label
 _atom_site_symmetry_multiplicity
 _atom_site_fract_x
 _atom_site_fract_y
 _atom_site_fract_z
 _atom_site_occupancy
  Rb  Rb0  1  0.250000  0.347407  0.092743  1
  Rb  Rb1  1  0.750000  0.653459  0.908244  1
  Rb  Rb2  1  0.750000  0.846176  0.407472  1
  Rb  Rb3  1  0.250000  0.153813  0.592041  1
  Ho  Ho4  1  0.250000  0.455516  0.698818  1
  Ho  Ho5  1  0.750000  0.544740  0.300364  1
  Ho  Ho6  1  0.750000  0.955355  0.801178  1
  Ho  Ho7  1  0.250000  0.042992  0.198998  1
  Ho  Ho8  1  0.250000  0.798900  0.671761  1
  Ho  Ho9  1  0.750000  0.201006  0.327884  1
  Ho  Ho10  1  0.750000  0.298845  0.828173  1
  Lu  Lu11  1  0.250000  0.701843  0.172428  1
  Lu  Lu12  1  0.250000  0.392880  0.444687  1
  Lu  Lu13  1  0.750000  0.607546  0.554730  1
  Lu  Lu14  1  0.750000  0.892144  0.055648  1
  Lu  Lu15  1  0.250000  0.106945  0.945119  1
  Te  Te16  1  0.250000  0.447097  0.568733  1
  Te  Te17  1  0.750000  0.553398  0.430591  1
  Te  Te18  1  0.750000  0.946265  0.931374  1
  Te  Te19  1  0.250000  0.052755  0.069154  1
  Te  Te20  1  0.250000  0.764782  0.542327  1
  Te  Te21  1  0.750000  0.235831  0.457266  1
  Te  Te22  1  0.750000  0.264097  0.957548  1
  Te  Te23  1  0.250000  0.734771  0.044582  1
  Te  Te24  1  0.250000  0.799532  0.802368  1
  Te  Te25  1  0.750000  0.199105  0.197435  1
  Te  Te26  1  0.750000  0.299788  0.697645  1
  Te  Te27  1  0.250000  0.700580  0.301325  1
  Te  Te28  1  0.250000  0.457026  0.829982  1
  Te  Te29  1  0.750000  0.547143  0.169341  1
  Te  Te30  1  0.750000  0.957065  0.669977  1
  Te  Te31  1  0.250000  0.042894  0.330200  1
  Te  Te32  1  0.250000  0.373059  0.313833  1
  Te  Te33  1  0.750000  0.627074  0.685609  1
  Te  Te34  1  0.750000  0.871238  0.186145  1
  Te  Te35  1  0.250000  0.126933  0.814280  1
