# generated using pymatgen
data_Tm8Hf9Si16Mo3
_symmetry_space_group_name_H-M   'P 1'
_cell_length_a   6.90800899
_cell_length_b   7.12064527
_cell_length_c   13.62929500
_cell_angle_alpha   90.00000000
_cell_angle_beta   90.00000000
_cell_angle_gamma   90.09549603
_symmetry_Int_Tables_number   1
_chemical_formula_structural   Tm8Hf9Si16Mo3
_chemical_formula_sum   'Tm8 Hf9 Si16 Mo3'
_cell_volume   670.41702355
_cell_formula_units_Z   1
loop_
 _symmetry_equiv_pos_site_id
 _symmetry_equiv_pos_as_xyz
  1  'x, y, z'
loop_
 _atom_site_type_symbol
 _atom_site_label
 _atom_site_symmetry_multiplicity
 _atom_site_fract_x
 _atom_site_fract_y
 _atom_site_fract_z
 _atom_site_occupancy
  Tm  Tm0  1  0.009719  0.177120  0.098361  1
  Tm  Tm1  1  0.990180  0.822111  0.904054  1
  Tm  Tm2  1  0.487868  0.674166  0.904934  1
  Tm  Tm3  1  0.990180  0.822111  0.595946  1
  Tm  Tm4  1  0.510056  0.323442  0.099276  1
  Tm  Tm5  1  0.009719  0.177120  0.401639  1
  Tm  Tm6  1  0.510056  0.323442  0.400724  1
  Tm  Tm7  1  0.487868  0.674166  0.595066  1
  Hf  Hf8  1  0.654748  0.003000  0.750000  1
  Hf  Hf9  1  0.325670  0.177145  0.624627  1
  Hf  Hf10  1  0.673249  0.825524  0.372747  1
  Hf  Hf11  1  0.174259  0.674445  0.373502  1
  Hf  Hf12  1  0.673249  0.825524  0.127253  1
  Hf  Hf13  1  0.829376  0.328171  0.625241  1
  Hf  Hf14  1  0.325670  0.177145  0.875373  1
  Hf  Hf15  1  0.829376  0.328171  0.874759  1
  Hf  Hf16  1  0.174259  0.674445  0.126498  1
  Si  Si17  1  0.030162  0.116973  0.750000  1
  Si  Si18  1  0.974982  0.887568  0.250000  1
  Si  Si19  1  0.474693  0.610283  0.250000  1
  Si  Si20  1  0.524463  0.388852  0.750000  1
  Si  Si21  1  0.281281  0.863043  0.750000  1
  Si  Si22  1  0.713074  0.134003  0.250000  1
  Si  Si23  1  0.211297  0.364679  0.250000  1
  Si  Si24  1  0.788516  0.632288  0.750000  1
  Si  Si25  1  0.157688  0.467495  0.541241  1
  Si  Si26  1  0.840515  0.532552  0.456797  1
  Si  Si27  1  0.342730  0.969329  0.455886  1
  Si  Si28  1  0.840515  0.532552  0.043203  1
  Si  Si29  1  0.659329  0.033263  0.539130  1
  Si  Si30  1  0.157688  0.467495  0.958759  1
  Si  Si31  1  0.659329  0.033263  0.960870  1
  Si  Si32  1  0.342730  0.969329  0.044114  1
  Mo  Mo33  1  0.152391  0.491783  0.750000  1
  Mo  Mo34  1  0.846960  0.507650  0.250000  1
  Mo  Mo35  1  0.346154  0.990351  0.250000  1
