# generated using pymatgen
data_Nd2Sm4RuI10
_symmetry_space_group_name_H-M   'P 1'
_cell_length_a   7.92853428
_cell_length_b   9.89497768
_cell_length_c   9.98407912
_cell_angle_alpha   107.09515955
_cell_angle_beta   96.64920163
_cell_angle_gamma   104.79295641
_symmetry_Int_Tables_number   1
_chemical_formula_structural   Nd2Sm4RuI10
_chemical_formula_sum   'Nd2 Sm4 Ru1 I10'
_cell_volume   708.25243964
_cell_formula_units_Z   1
loop_
 _symmetry_equiv_pos_site_id
 _symmetry_equiv_pos_as_xyz
  1  'x, y, z'
loop_
 _atom_site_type_symbol
 _atom_site_label
 _atom_site_symmetry_multiplicity
 _atom_site_fract_x
 _atom_site_fract_y
 _atom_site_fract_z
 _atom_site_occupancy
  Nd  Nd0  1  0.116971  0.043558  0.759753  1
  Nd  Nd1  1  0.883029  0.956442  0.240247  1
  Sm  Sm2  1  0.968439  0.280302  0.082566  1
  Sm  Sm3  1  0.647171  0.873000  0.832051  1
  Sm  Sm4  1  0.352829  0.127000  0.167949  1
  Sm  Sm5  1  0.031561  0.719698  0.917434  1
  Ru  Ru6  1  0.000000  0.000000  0.000000  1
  I  I7  1  0.347581  0.448819  0.270677  1
  I  I8  1  0.652419  0.551181  0.729323  1
  I  I9  1  0.738945  0.912248  0.542437  1
  I  I10  1  0.085199  0.372813  0.822632  1
  I  I11  1  0.914801  0.627187  0.177368  1
  I  I12  1  0.450889  0.815648  0.089623  1
  I  I13  1  0.549111  0.184352  0.910377  1
  I  I14  1  0.781421  0.259472  0.343713  1
  I  I15  1  0.218579  0.740528  0.656287  1
  I  I16  1  0.261055  0.087752  0.457563  1
