# generated using pymatgen
data_NaCaMoH9
_symmetry_space_group_name_H-M   'P 1'
_cell_length_a   8.61523200
_cell_length_b   8.61522910
_cell_length_c   4.97341600
_cell_angle_alpha   90.00000000
_cell_angle_beta   90.00000000
_cell_angle_gamma   120.00000346
_symmetry_Int_Tables_number   1
_chemical_formula_structural   NaCaMoH9
_chemical_formula_sum   'Na3 Ca3 Mo3 H27'
_cell_volume   319.68275680
_cell_formula_units_Z   3
loop_
 _symmetry_equiv_pos_site_id
 _symmetry_equiv_pos_as_xyz
  1  'x, y, z'
loop_
 _atom_site_type_symbol
 _atom_site_label
 _atom_site_symmetry_multiplicity
 _atom_site_fract_x
 _atom_site_fract_y
 _atom_site_fract_z
 _atom_site_occupancy
  Na  Na0  1  0.000000  0.260223  0.500000  1
  Na  Na1  1  0.739777  0.739777  0.500000  1
  Na  Na2  1  0.260223  0.000000  0.500000  1
  Ca  Ca3  1  0.000000  0.607453  0.000000  1
  Ca  Ca4  1  0.392547  0.392547  0.000000  1
  Ca  Ca5  1  0.607453  0.000000  0.000000  1
  Mo  Mo6  1  0.666667  0.333333  0.500000  1
  Mo  Mo7  1  0.333333  0.666667  0.500000  1
  Mo  Mo8  1  0.000000  0.000000  0.000000  1
  H  H9  1  0.808251  0.330192  0.756658  1
  H  H10  1  0.669808  0.478058  0.756658  1
  H  H11  1  0.521942  0.191749  0.756658  1
  H  H12  1  0.191749  0.521942  0.243342  1
  H  H13  1  0.521942  0.191749  0.243342  1
  H  H14  1  0.808251  0.330192  0.243342  1
  H  H15  1  0.669808  0.478058  0.243342  1
  H  H16  1  0.330192  0.808251  0.756658  1
  H  H17  1  0.478058  0.669808  0.756658  1
  H  H18  1  0.201684  0.000000  0.000000  1
  H  H19  1  0.798316  0.798316  0.000000  1
  H  H20  1  0.000000  0.201684  0.000000  1
  H  H21  1  0.853657  0.000000  0.246974  1
  H  H22  1  0.146343  0.146343  0.753026  1
  H  H23  1  0.000000  0.853657  0.753026  1
  H  H24  1  0.000000  0.853657  0.246974  1
  H  H25  1  0.146343  0.146343  0.246974  1
  H  H26  1  0.853657  0.000000  0.753026  1
  H  H27  1  0.133870  0.667045  0.500000  1
  H  H28  1  0.533176  0.866130  0.500000  1
  H  H29  1  0.332955  0.466824  0.500000  1
  H  H30  1  0.466824  0.332955  0.500000  1
  H  H31  1  0.866130  0.533176  0.500000  1
  H  H32  1  0.667045  0.133870  0.500000  1
  H  H33  1  0.191749  0.521942  0.756658  1
  H  H34  1  0.330192  0.808251  0.243342  1
  H  H35  1  0.478058  0.669808  0.243342  1
