# generated using pymatgen
data_LiAsP4O13
_symmetry_space_group_name_H-M   'P 1'
_cell_length_a   4.91330500
_cell_length_b   7.77455565
_cell_length_c   14.44021798
_cell_angle_alpha   84.70607596
_cell_angle_beta   85.12591894
_cell_angle_gamma   81.78895417
_symmetry_Int_Tables_number   1
_chemical_formula_structural   LiAsP4O13
_chemical_formula_sum   'Li2 As2 P8 O26'
_cell_volume   542.17097820
_cell_formula_units_Z   2
loop_
 _symmetry_equiv_pos_site_id
 _symmetry_equiv_pos_as_xyz
  1  'x, y, z'
loop_
 _atom_site_type_symbol
 _atom_site_label
 _atom_site_symmetry_multiplicity
 _atom_site_fract_x
 _atom_site_fract_y
 _atom_site_fract_z
 _atom_site_occupancy
  Li  Li0  1  0.501851  0.498975  0.503172  1
  Li  Li1  1  0.993364  0.601219  0.015909  1
  As  As2  1  0.420843  0.060483  0.258829  1
  As  As3  1  0.569137  0.936758  0.736704  1
  P  P4  1  0.129934  0.771999  0.638620  1
  P  P5  1  0.292948  0.676112  0.299379  1
  P  P6  1  0.346624  0.585283  0.810597  1
  P  P7  1  0.638912  0.416913  0.184272  1
  P  P8  1  0.694580  0.320977  0.703384  1
  P  P9  1  0.859258  0.228723  0.355990  1
  P  P10  1  0.980160  0.889918  0.162244  1
  P  P11  1  0.006214  0.098037  0.839964  1
  O  O12  1  0.143030  0.041544  0.181840  1
  O  O13  1  0.008063  0.752026  0.255162  1
  O  O14  1  0.065429  0.799791  0.076955  1
  O  O15  1  0.173086  0.150367  0.352515  1
  O  O16  1  0.274429  0.543748  0.378032  1
  O  O17  1  0.147263  0.629327  0.727810  1
  O  O18  1  0.321952  0.023867  0.831534  1
  O  O19  1  0.230779  0.692077  0.551389  1
  O  O20  1  0.425897  0.284440  0.197530  1
  O  O21  1  0.196531  0.577729  0.902760  1
  O  O22  1  0.471464  0.601699  0.208981  1
  O  O23  1  0.420988  0.838900  0.321008  1
  O  O24  1  0.287275  0.923412  0.662223  1
  O  O25  1  0.702800  0.076800  0.332322  1
  O  O26  1  0.568851  0.160142  0.677772  1
  O  O27  1  0.503052  0.395588  0.791631  1
  O  O28  1  0.785698  0.442297  0.092166  1
  O  O29  1  0.762897  0.308297  0.443376  1
  O  O30  1  0.667881  0.966942  0.165713  1
  O  O31  1  0.571088  0.709437  0.793015  1
  O  O32  1  0.842261  0.369218  0.265882  1
  O  O33  1  0.718507  0.452816  0.624322  1
  O  O34  1  0.915626  0.169216  0.929448  1
  O  O35  1  0.816976  0.850509  0.640607  1
  O  O36  1  0.973317  0.246710  0.750433  1
  O  O37  1  0.852150  0.946937  0.811292  1
