# generated using pymatgen
data_Ac5YbTlSn9
_symmetry_space_group_name_H-M   'P 1'
_cell_length_a   6.85770220
_cell_length_b   6.85770255
_cell_length_c   10.86350700
_cell_angle_alpha   90.16430872
_cell_angle_beta   90.16430873
_cell_angle_gamma   102.05477592
_symmetry_Int_Tables_number   1
_chemical_formula_structural   Ac5YbTlSn9
_chemical_formula_sum   'Ac5 Yb1 Tl1 Sn9'
_cell_volume   499.61875580
_cell_formula_units_Z   1
loop_
 _symmetry_equiv_pos_site_id
 _symmetry_equiv_pos_as_xyz
  1  'x, y, z'
loop_
 _atom_site_type_symbol
 _atom_site_label
 _atom_site_symmetry_multiplicity
 _atom_site_fract_x
 _atom_site_fract_y
 _atom_site_fract_z
 _atom_site_occupancy
  Ac  Ac0  1  0.133690  0.133690  0.252086  1
  Ac  Ac1  1  0.292915  0.700868  0.501102  1
  Ac  Ac2  1  0.293866  0.702716  0.000041  1
  Ac  Ac3  1  0.700868  0.292915  0.501102  1
  Ac  Ac4  1  0.702716  0.293866  0.000041  1
  Yb  Yb5  1  0.871153  0.871153  0.747560  1
  Tl  Tl6  1  0.809735  0.809735  0.029139  1
  Sn  Sn7  1  0.984623  0.584843  0.249674  1
  Sn  Sn8  1  0.430778  0.010288  0.751090  1
  Sn  Sn9  1  0.010288  0.430778  0.751090  1
  Sn  Sn10  1  0.584843  0.984623  0.249674  1
  Sn  Sn11  1  0.183811  0.183811  0.949304  1
  Sn  Sn12  1  0.811028  0.811028  0.460639  1
  Sn  Sn13  1  0.181163  0.181163  0.555364  1
  Sn  Sn14  1  0.530386  0.530386  0.251354  1
  Sn  Sn15  1  0.478140  0.478140  0.750741  1
