# generated using pymatgen
data_Pr5Tc5(P6Ir7)2
_symmetry_space_group_name_H-M   'P 1'
_cell_length_a   12.74288695
_cell_length_b   12.82599706
_cell_length_c   4.02992900
_cell_angle_alpha   90.00000000
_cell_angle_beta   90.00000000
_cell_angle_gamma   120.11737194
_symmetry_Int_Tables_number   1
_chemical_formula_structural   Pr5Tc5(P6Ir7)2
_chemical_formula_sum   'Pr5 Tc5 P12 Ir14'
_cell_volume   569.73398884
_cell_formula_units_Z   1
loop_
 _symmetry_equiv_pos_site_id
 _symmetry_equiv_pos_as_xyz
  1  'x, y, z'
loop_
 _atom_site_type_symbol
 _atom_site_label
 _atom_site_symmetry_multiplicity
 _atom_site_fract_x
 _atom_site_fract_y
 _atom_site_fract_z
 _atom_site_occupancy
  Pr  Pr0  1  0.334214  0.667929  0.500000  1
  Pr  Pr1  1  0.666709  0.333458  0.500000  1
  Pr  Pr2  1  0.999848  0.811091  0.000000  1
  Pr  Pr3  1  0.186709  0.185698  0.000000  1
  Pr  Pr4  1  0.810423  0.998200  0.000000  1
  Tc  Tc5  1  0.996821  0.449774  0.500000  1
  Tc  Tc6  1  0.548876  0.545180  0.500000  1
  Tc  Tc7  1  0.456271  0.008971  0.500000  1
  Tc  Tc8  1  0.619513  0.797788  0.500000  1
  Tc  Tc9  1  0.202732  0.822417  0.500000  1
  P  P10  1  0.006869  0.636923  0.500000  1
  P  P11  1  0.366258  0.367502  0.500000  1
  P  P12  1  0.629651  0.993102  0.500000  1
  P  P13  1  0.521880  0.694624  0.000000  1
  P  P14  1  0.307305  0.830505  0.000000  1
  P  P15  1  0.169077  0.481664  0.000000  1
  P  P16  1  0.481973  0.168499  0.000000  1
  P  P17  1  0.686742  0.517962  0.000000  1
  P  P18  1  0.832973  0.314036  0.000000  1
  P  P19  1  0.998779  0.178355  0.500000  1
  P  P20  1  0.815024  0.817619  0.500000  1
  P  P21  1  0.180067  0.994881  0.500000  1
  Ir  Ir22  1  0.509387  0.877339  0.000000  1
  Ir  Ir23  1  0.125013  0.634663  0.000000  1
  Ir  Ir24  1  0.362777  0.492257  0.000000  1
  Ir  Ir25  1  0.489823  0.360218  0.000000  1
  Ir  Ir26  1  0.868420  0.507765  0.000000  1
  Ir  Ir27  1  0.642320  0.134082  0.000000  1
  Ir  Ir28  1  0.000223  0.287413  0.000000  1
  Ir  Ir29  1  0.713710  0.709091  0.000000  1
  Ir  Ir30  1  0.289377  0.004827  0.000000  1
  Ir  Ir31  1  0.179266  0.377236  0.500000  1
  Ir  Ir32  1  0.376491  0.183326  0.500000  1
  Ir  Ir33  1  0.804851  0.620823  0.500000  1
  Ir  Ir34  1  0.820146  0.195723  0.500000  1
  Ir  Ir35  1  0.999479  0.999058  0.500000  1
