# generated using pymatgen
data_Y4Er4Re3B24Os
_symmetry_space_group_name_H-M   'P 1'
_cell_length_a   3.66594000
_cell_length_b   9.15407567
_cell_length_c   11.54376701
_cell_angle_alpha   90.07169430
_cell_angle_beta   90.00000000
_cell_angle_gamma   90.00000000
_symmetry_Int_Tables_number   1
_chemical_formula_structural   Y4Er4Re3B24Os
_chemical_formula_sum   'Y4 Er4 Re3 B24 Os1'
_cell_volume   387.38880277
_cell_formula_units_Z   1
loop_
 _symmetry_equiv_pos_site_id
 _symmetry_equiv_pos_as_xyz
  1  'x, y, z'
loop_
 _atom_site_type_symbol
 _atom_site_label
 _atom_site_symmetry_multiplicity
 _atom_site_fract_x
 _atom_site_fract_y
 _atom_site_fract_z
 _atom_site_occupancy
  Y  Y0  1  0.000000  0.321689  0.414149  1
  Y  Y1  1  0.000000  0.677608  0.587554  1
  Y  Y2  1  0.000000  0.824129  0.084569  1
  Y  Y3  1  0.000000  0.176875  0.913593  1
  Er  Er4  1  0.000000  0.942835  0.370055  1
  Er  Er5  1  0.000000  0.056366  0.629397  1
  Er  Er6  1  0.000000  0.442919  0.129764  1
  Er  Er7  1  0.000000  0.556738  0.870844  1
  Re  Re8  1  0.000000  0.361682  0.678510  1
  Re  Re9  1  0.000000  0.138835  0.179991  1
  Re  Re10  1  0.000000  0.861210  0.820482  1
  B  B11  1  0.500000  0.554074  0.432603  1
  B  B12  1  0.500000  0.446785  0.566978  1
  B  B13  1  0.500000  0.053370  0.067057  1
  B  B14  1  0.500000  0.946664  0.932814  1
  B  B15  1  0.500000  0.749219  0.418334  1
  B  B16  1  0.500000  0.250043  0.581315  1
  B  B17  1  0.500000  0.249772  0.081378  1
  B  B18  1  0.500000  0.750617  0.918690  1
  B  B19  1  0.500000  0.791306  0.265725  1
  B  B20  1  0.500000  0.207735  0.734162  1
  B  B21  1  0.500000  0.292154  0.234612  1
  B  B22  1  0.500000  0.707616  0.765971  1
  B  B23  1  0.500000  0.631073  0.185799  1
  B  B24  1  0.500000  0.369575  0.814130  1
  B  B25  1  0.500000  0.130886  0.314901  1
  B  B26  1  0.500000  0.869096  0.685557  1
  B  B27  1  0.500000  0.982515  0.212266  1
  B  B28  1  0.500000  0.017576  0.787479  1
  B  B29  1  0.500000  0.483446  0.287780  1
  B  B30  1  0.500000  0.517969  0.712327  1
  B  B31  1  0.500000  0.601051  0.028593  1
  B  B32  1  0.500000  0.399156  0.972130  1
  B  B33  1  0.500000  0.100178  0.471751  1
  B  B34  1  0.500000  0.898534  0.527946  1
  Os  Os35  1  0.000000  0.638703  0.320793  1
