# generated using pymatgen
data_Dy3Ho7Ru4
_symmetry_space_group_name_H-M   'P 1'
_cell_length_a   6.32716898
_cell_length_b   7.27542256
_cell_length_c   8.45632715
_cell_angle_alpha   96.72453181
_cell_angle_beta   112.00264403
_cell_angle_gamma   89.95608201
_symmetry_Int_Tables_number   1
_chemical_formula_structural   Dy3Ho7Ru4
_chemical_formula_sum   'Dy3 Ho7 Ru4'
_cell_volume   358.04105457
_cell_formula_units_Z   1
loop_
 _symmetry_equiv_pos_site_id
 _symmetry_equiv_pos_as_xyz
  1  'x, y, z'
loop_
 _atom_site_type_symbol
 _atom_site_label
 _atom_site_symmetry_multiplicity
 _atom_site_fract_x
 _atom_site_fract_y
 _atom_site_fract_z
 _atom_site_occupancy
  Dy  Dy0  1  0.978208  0.915580  0.186622  1
  Dy  Dy1  1  0.791731  0.584304  0.813405  1
  Dy  Dy2  1  0.021925  0.084428  0.813444  1
  Ho  Ho3  1  0.208240  0.415676  0.186626  1
  Ho  Ho4  1  0.640795  0.814873  0.434714  1
  Ho  Ho5  1  0.206041  0.685162  0.565339  1
  Ho  Ho6  1  0.359167  0.185139  0.565228  1
  Ho  Ho7  1  0.793839  0.314794  0.434529  1
  Ho  Ho8  1  0.419615  0.749867  0.999939  1
  Ho  Ho9  1  0.580359  0.250135  0.000121  1
  Ru  Ru10  1  0.823505  0.576043  0.220535  1
  Ru  Ru11  1  0.602796  0.924177  0.779382  1
  Ru  Ru12  1  0.176649  0.423908  0.779508  1
  Ru  Ru13  1  0.397128  0.075913  0.220608  1
