# generated using pymatgen
data_ZrHg3(OF3)2
_symmetry_space_group_name_H-M   'P 1'
_cell_length_a   6.98270600
_cell_length_b   6.98270619
_cell_length_c   5.49433400
_cell_angle_alpha   90.00000000
_cell_angle_beta   90.00000000
_cell_angle_gamma   119.99999911
_symmetry_Int_Tables_number   1
_chemical_formula_structural   ZrHg3(OF3)2
_chemical_formula_sum   'Zr1 Hg3 O2 F6'
_cell_volume   232.00279535
_cell_formula_units_Z   1
loop_
 _symmetry_equiv_pos_site_id
 _symmetry_equiv_pos_as_xyz
  1  'x, y, z'
loop_
 _atom_site_type_symbol
 _atom_site_label
 _atom_site_symmetry_multiplicity
 _atom_site_fract_x
 _atom_site_fract_y
 _atom_site_fract_z
 _atom_site_occupancy
  Zr  Zr0  1  0.000000  0.000000  0.499999  1
  Hg  Hg1  1  0.500001  0.000000  0.000000  1
  Hg  Hg2  1  0.000000  0.500000  0.000000  1
  Hg  Hg3  1  0.500000  0.500000  0.000000  1
  O  O4  1  0.333333  0.666667  0.895453  1
  O  O5  1  0.666668  0.333334  0.104545  1
  F  F6  1  0.138172  0.276345  0.285074  1
  F  F7  1  0.138173  0.861828  0.285074  1
  F  F8  1  0.723655  0.861828  0.285074  1
  F  F9  1  0.276344  0.138172  0.714924  1
  F  F10  1  0.861828  0.138172  0.714924  1
  F  F11  1  0.861829  0.723656  0.714924  1
