# generated using pymatgen
data_Dy3TlAgHg3Ir
_symmetry_space_group_name_H-M   'P 1'
_cell_length_a   8.15168400
_cell_length_b   8.15168376
_cell_length_c   3.69831000
_cell_angle_alpha   90.00000000
_cell_angle_beta   90.00000000
_cell_angle_gamma   120.00001016
_symmetry_Int_Tables_number   1
_chemical_formula_structural   Dy3TlAgHg3Ir
_chemical_formula_sum   'Dy3 Tl1 Ag1 Hg3 Ir1'
_cell_volume   212.82789923
_cell_formula_units_Z   1
loop_
 _symmetry_equiv_pos_site_id
 _symmetry_equiv_pos_as_xyz
  1  'x, y, z'
loop_
 _atom_site_type_symbol
 _atom_site_label
 _atom_site_symmetry_multiplicity
 _atom_site_fract_x
 _atom_site_fract_y
 _atom_site_fract_z
 _atom_site_occupancy
  Dy  Dy0  1  0.424763  0.383262  0.500000  1
  Dy  Dy1  1  0.616738  0.041500  0.500000  1
  Dy  Dy2  1  0.958500  0.575237  0.500000  1
  Tl  Tl3  1  0.333333  0.666667  0.000000  1
  Ag  Ag4  1  0.000000  0.000000  0.500000  1
  Hg  Hg5  1  0.729527  0.725486  0.000000  1
  Hg  Hg6  1  0.274514  0.004043  0.000000  1
  Hg  Hg7  1  0.995957  0.270473  0.000000  1
  Ir  Ir8  1  0.666667  0.333333  0.000000  1
