# generated using pymatgen
data_Li3Pr3CdSn4
_symmetry_space_group_name_H-M   'P 1'
_cell_length_a   8.97267009
_cell_length_b   8.90936259
_cell_length_c   8.90936103
_cell_angle_alpha   149.15608366
_cell_angle_beta   131.06858776
_cell_angle_gamma   58.90042142
_symmetry_Int_Tables_number   1
_chemical_formula_structural   Li3Pr3CdSn4
_chemical_formula_sum   'Li3 Pr3 Cd1 Sn4'
_cell_volume   273.21196978
_cell_formula_units_Z   1
loop_
 _symmetry_equiv_pos_site_id
 _symmetry_equiv_pos_as_xyz
  1  'x, y, z'
loop_
 _atom_site_type_symbol
 _atom_site_label
 _atom_site_symmetry_multiplicity
 _atom_site_fract_x
 _atom_site_fract_y
 _atom_site_fract_z
 _atom_site_occupancy
  Li  Li0  1  0.484036  0.672060  0.811977  1
  Li  Li1  1  0.855884  0.672103  0.183780  1
  Li  Li2  1  0.137352  0.329626  0.807725  1
  Pr  Pr3  1  0.497630  0.998248  0.499381  1
  Pr  Pr4  1  0.882144  0.872345  0.009799  1
  Pr  Pr5  1  0.128414  0.126073  0.002341  1
  Cd  Cd6  1  0.520264  0.328358  0.191905  1
  Sn  Sn7  1  0.263071  0.782654  0.480417  1
  Sn  Sn8  1  0.721309  0.212971  0.508338  1
  Sn  Sn9  1  0.811725  0.505220  0.306505  1
  Sn  Sn10  1  0.198173  0.500342  0.697830  1
