# generated using pymatgen
data_Cs8MnMo7N16
_symmetry_space_group_name_H-M   'P 1'
_cell_length_a   6.16000901
_cell_length_b   8.64565336
_cell_length_c   12.33600600
_cell_angle_alpha   90.00000000
_cell_angle_beta   90.00000000
_cell_angle_gamma   89.98018188
_symmetry_Int_Tables_number   1
_chemical_formula_structural   Cs8MnMo7N16
_chemical_formula_sum   'Cs8 Mn1 Mo7 N16'
_cell_volume   656.98236494
_cell_formula_units_Z   1
loop_
 _symmetry_equiv_pos_site_id
 _symmetry_equiv_pos_as_xyz
  1  'x, y, z'
loop_
 _atom_site_type_symbol
 _atom_site_label
 _atom_site_symmetry_multiplicity
 _atom_site_fract_x
 _atom_site_fract_y
 _atom_site_fract_z
 _atom_site_occupancy
  Cs  Cs0  1  0.750076  0.125780  0.997831  1
  Cs  Cs1  1  0.249145  0.882416  0.490643  1
  Cs  Cs2  1  0.249145  0.882416  0.009357  1
  Cs  Cs3  1  0.750076  0.125780  0.502169  1
  Cs  Cs4  1  0.715953  0.359711  0.250000  1
  Cs  Cs5  1  0.215755  0.624879  0.250000  1
  Cs  Cs6  1  0.282221  0.624220  0.750000  1
  Cs  Cs7  1  0.783244  0.378305  0.750000  1
  Mn  Mn8  1  0.230637  0.125356  0.250000  1
  Mo  Mo9  1  0.247969  0.367587  0.007065  1
  Mo  Mo10  1  0.747844  0.625538  0.494927  1
  Mo  Mo11  1  0.747844  0.625538  0.005073  1
  Mo  Mo12  1  0.247969  0.367587  0.492935  1
  Mo  Mo13  1  0.731364  0.893316  0.250000  1
  Mo  Mo14  1  0.772571  0.871076  0.750000  1
  Mo  Mo15  1  0.272739  0.122201  0.750000  1
  N  N16  1  0.975352  0.023247  0.250000  1
  N  N17  1  0.467336  0.002730  0.250000  1
  N  N18  1  0.045774  0.974905  0.750000  1
  N  N19  1  0.546135  0.020577  0.750000  1
  N  N20  1  0.243612  0.242337  0.370403  1
  N  N21  1  0.745425  0.761955  0.123424  1
  N  N22  1  0.749289  0.746529  0.875126  1
  N  N23  1  0.251290  0.244128  0.622350  1
  N  N24  1  0.749289  0.746529  0.624874  1
  N  N25  1  0.251290  0.244128  0.877650  1
  N  N26  1  0.243612  0.242337  0.129597  1
  N  N27  1  0.745425  0.761955  0.376576  1
  N  N28  1  0.499194  0.496402  0.491783  1
  N  N29  1  0.996617  0.497068  0.007998  1
  N  N30  1  0.499194  0.496402  0.008217  1
  N  N31  1  0.996617  0.497068  0.492002  1
