# generated using pymatgen
data_Ho3Er2Ga2Bi
_symmetry_space_group_name_H-M   'P 1'
_cell_length_a   8.69196113
_cell_length_b   8.72427609
_cell_length_c   6.54148100
_cell_angle_alpha   90.00000000
_cell_angle_beta   90.00000000
_cell_angle_gamma   120.12305839
_symmetry_Int_Tables_number   1
_chemical_formula_structural   Ho3Er2Ga2Bi
_chemical_formula_sum   'Ho6 Er4 Ga4 Bi2'
_cell_volume   429.05604291
_cell_formula_units_Z   2
loop_
 _symmetry_equiv_pos_site_id
 _symmetry_equiv_pos_as_xyz
  1  'x, y, z'
loop_
 _atom_site_type_symbol
 _atom_site_label
 _atom_site_symmetry_multiplicity
 _atom_site_fract_x
 _atom_site_fract_y
 _atom_site_fract_z
 _atom_site_occupancy
  Ho  Ho0  1  0.982428  0.748656  0.750000  1
  Ho  Ho1  1  0.982428  0.233773  0.250000  1
  Ho  Ho2  1  0.768299  0.768944  0.250000  1
  Ho  Ho3  1  0.768299  0.999355  0.750000  1
  Ho  Ho4  1  0.233650  0.250842  0.750000  1
  Ho  Ho5  1  0.233650  0.982808  0.250000  1
  Er  Er6  1  0.329847  0.664924  0.500000  1
  Er  Er7  1  0.692345  0.346172  0.000000  1
  Er  Er8  1  0.692345  0.346172  0.500000  1
  Er  Er9  1  0.329847  0.664924  0.000000  1
  Ga  Ga10  1  0.001719  0.601105  0.250000  1
  Ga  Ga11  1  0.001719  0.400613  0.750000  1
  Ga  Ga12  1  0.596217  0.601101  0.750000  1
  Ga  Ga13  1  0.596217  0.995115  0.250000  1
  Bi  Bi14  1  0.395496  0.006200  0.750000  1
  Bi  Bi15  1  0.395496  0.389296  0.250000  1
