# generated using pymatgen
data_Ho6Al24Ir5Ru2Pt
_symmetry_space_group_name_H-M   'P 1'
_cell_length_a   8.82145776
_cell_length_b   8.83138106
_cell_length_c   9.49133831
_cell_angle_alpha   90.00000074
_cell_angle_beta   90.05648125
_cell_angle_gamma   120.03721281
_symmetry_Int_Tables_number   1
_chemical_formula_structural   Ho6Al24Ir5Ru2Pt
_chemical_formula_sum   'Ho6 Al24 Ir5 Ru2 Pt1'
_cell_volume   640.12356182
_cell_formula_units_Z   1
loop_
 _symmetry_equiv_pos_site_id
 _symmetry_equiv_pos_as_xyz
  1  'x, y, z'
loop_
 _atom_site_type_symbol
 _atom_site_label
 _atom_site_symmetry_multiplicity
 _atom_site_fract_x
 _atom_site_fract_y
 _atom_site_fract_z
 _atom_site_occupancy
  Ho  Ho0  1  0.193557  0.385550  0.249834  1
  Ho  Ho1  1  0.806443  0.614450  0.750166  1
  Ho  Ho2  1  0.614292  0.807147  0.248754  1
  Ho  Ho3  1  0.385708  0.192853  0.751246  1
  Ho  Ho4  1  0.193557  0.808008  0.249834  1
  Ho  Ho5  1  0.806443  0.191992  0.750166  1
  Al  Al6  1  0.333141  0.666571  0.030308  1
  Al  Al7  1  0.666859  0.333429  0.969692  1
  Al  Al8  1  0.663455  0.331728  0.531005  1
  Al  Al9  1  0.336545  0.668272  0.468995  1
  Al  Al10  1  0.165918  0.324962  0.578621  1
  Al  Al11  1  0.834082  0.675038  0.421379  1
  Al  Al12  1  0.673453  0.836726  0.577220  1
  Al  Al13  1  0.836833  0.673772  0.076729  1
  Al  Al14  1  0.326547  0.163274  0.422780  1
  Al  Al15  1  0.163167  0.326228  0.923271  1
  Al  Al16  1  0.165918  0.840957  0.578621  1
  Al  Al17  1  0.326869  0.163434  0.076642  1
  Al  Al18  1  0.834082  0.159043  0.421379  1
  Al  Al19  1  0.673131  0.836566  0.923358  1
  Al  Al20  1  0.836833  0.163060  0.076729  1
  Al  Al21  1  0.163167  0.836940  0.923271  1
  Al  Al22  1  0.562146  0.124658  0.250035  1
  Al  Al23  1  0.437854  0.875342  0.749965  1
  Al  Al24  1  0.873786  0.436893  0.248056  1
  Al  Al25  1  0.126214  0.563107  0.751944  1
  Al  Al26  1  0.562146  0.437488  0.250035  1
  Al  Al27  1  0.437854  0.562512  0.749965  1
  Al  Al28  1  0.000507  0.000253  0.249881  1
  Al  Al29  1  0.999493  0.999747  0.750119  1
  Ir  Ir30  1  0.500000  0.000000  0.000000  1
  Ir  Ir31  1  0.000000  0.500000  0.000000  1
  Ir  Ir32  1  0.500000  0.000000  0.500000  1
  Ir  Ir33  1  0.500000  0.500000  0.000000  1
  Ir  Ir34  1  0.500000  0.500000  0.500000  1
  Ru  Ru35  1  0.000000  0.000000  0.000000  1
  Ru  Ru36  1  0.000000  0.000000  0.500000  1
  Pt  Pt37  1  0.000000  0.500000  0.500000  1
