# generated using pymatgen
data_Ho3Lu7(SiSb)4
_symmetry_space_group_name_H-M   'P 1'
_cell_length_a   8.34907529
_cell_length_b   8.43095970
_cell_length_c   7.73337287
_cell_angle_alpha   89.93681413
_cell_angle_beta   89.86677888
_cell_angle_gamma   125.30058536
_symmetry_Int_Tables_number   1
_chemical_formula_structural   Ho3Lu7(SiSb)4
_chemical_formula_sum   'Ho3 Lu7 Si4 Sb4'
_cell_volume   444.26434109
_cell_formula_units_Z   1
loop_
 _symmetry_equiv_pos_site_id
 _symmetry_equiv_pos_as_xyz
  1  'x, y, z'
loop_
 _atom_site_type_symbol
 _atom_site_label
 _atom_site_symmetry_multiplicity
 _atom_site_fract_x
 _atom_site_fract_y
 _atom_site_fract_z
 _atom_site_occupancy
  Ho  Ho0  1  0.205049  0.457778  0.833165  1
  Ho  Ho1  1  0.705033  0.958171  0.666965  1
  Ho  Ho2  1  0.296344  0.042292  0.333028  1
  Lu  Lu3  1  0.040271  0.287683  0.335384  1
  Lu  Lu4  1  0.960792  0.712873  0.664214  1
  Lu  Lu5  1  0.460301  0.212455  0.835614  1
  Lu  Lu6  1  0.791802  0.542215  0.165402  1
  Lu  Lu7  1  0.539616  0.787070  0.164486  1
  Lu  Lu8  1  0.999306  0.999374  0.000465  1
  Lu  Lu9  1  0.500828  0.500186  0.499493  1
  Si  Si10  1  0.368097  0.368738  0.131326  1
  Si  Si11  1  0.633380  0.631478  0.869321  1
  Si  Si12  1  0.133617  0.131988  0.631939  1
  Si  Si13  1  0.866925  0.866614  0.367091  1
  Sb  Sb14  1  0.788610  0.202784  0.007566  1
  Sb  Sb15  1  0.207338  0.795879  0.995962  1
  Sb  Sb16  1  0.712279  0.300868  0.504125  1
  Sb  Sb17  1  0.290412  0.701554  0.494452  1
