# generated using pymatgen
data_Ac(PaI4)3
_symmetry_space_group_name_H-M   'P 1'
_cell_length_a   13.78362076
_cell_length_b   8.03155211
_cell_length_c   8.87269700
_cell_angle_alpha   63.85814700
_cell_angle_beta   91.28710813
_cell_angle_gamma   89.45495334
_symmetry_Int_Tables_number   1
_chemical_formula_structural   Ac(PaI4)3
_chemical_formula_sum   'Ac1 Pa3 I12'
_cell_volume   881.33574552
_cell_formula_units_Z   1
loop_
 _symmetry_equiv_pos_site_id
 _symmetry_equiv_pos_as_xyz
  1  'x, y, z'
loop_
 _atom_site_type_symbol
 _atom_site_label
 _atom_site_symmetry_multiplicity
 _atom_site_fract_x
 _atom_site_fract_y
 _atom_site_fract_z
 _atom_site_occupancy
  Ac  Ac0  1  0.336196  0.463628  0.021323  1
  Pa  Pa1  1  0.842290  0.032120  0.980679  1
  Pa  Pa2  1  0.686144  0.539447  0.976087  1
  Pa  Pa3  1  0.138737  0.965233  0.022805  1
  I  I4  1  0.537222  0.272135  0.236728  1
  I  I5  1  0.006109  0.272785  0.756651  1
  I  I6  1  0.496799  0.735268  0.759395  1
  I  I7  1  0.977055  0.727108  0.248137  1
  I  I8  1  0.314619  0.206670  0.819485  1
  I  I9  1  0.846189  0.252826  0.197845  1
  I  I10  1  0.673108  0.774217  0.180030  1
  I  I11  1  0.159434  0.754566  0.799317  1
  I  I12  1  0.177280  0.157818  0.256816  1
  I  I13  1  0.693770  0.340928  0.740557  1
  I  I14  1  0.824077  0.843356  0.737406  1
  I  I15  1  0.290973  0.661897  0.266737  1
