# generated using pymatgen
data_Rb6V2IrRhBr18
_symmetry_space_group_name_H-M   'P 1'
_cell_length_a   7.56195700
_cell_length_b   7.56195773
_cell_length_c   18.90346600
_cell_angle_alpha   90.00000000
_cell_angle_beta   90.00000000
_cell_angle_gamma   119.99999242
_symmetry_Int_Tables_number   1
_chemical_formula_structural   Rb6V2IrRhBr18
_chemical_formula_sum   'Rb6 V2 Ir1 Rh1 Br18'
_cell_volume   936.13946546
_cell_formula_units_Z   1
loop_
 _symmetry_equiv_pos_site_id
 _symmetry_equiv_pos_as_xyz
  1  'x, y, z'
loop_
 _atom_site_type_symbol
 _atom_site_label
 _atom_site_symmetry_multiplicity
 _atom_site_fract_x
 _atom_site_fract_y
 _atom_site_fract_z
 _atom_site_occupancy
  Rb  Rb0  1  0.666667  0.333333  0.567582  1
  Rb  Rb1  1  0.333333  0.666667  0.063499  1
  Rb  Rb2  1  0.333333  0.666667  0.433184  1
  Rb  Rb3  1  0.666667  0.333333  0.937063  1
  Rb  Rb4  1  0.000000  0.000000  0.249461  1
  Rb  Rb5  1  0.000000  0.000000  0.749188  1
  V  V6  1  0.333333  0.666667  0.835568  1
  V  V7  1  0.666667  0.333333  0.167722  1
  Ir  Ir8  1  0.666667  0.333333  0.329489  1
  Rh  Rh9  1  0.333333  0.666667  0.667668  1
  Br  Br10  1  0.822502  0.645005  0.405836  1
  Br  Br11  1  0.177143  0.822857  0.592237  1
  Br  Br12  1  0.645714  0.822857  0.592237  1
  Br  Br13  1  0.822502  0.177498  0.405836  1
  Br  Br14  1  0.354995  0.177498  0.405836  1
  Br  Br15  1  0.173385  0.346771  0.906825  1
  Br  Br16  1  0.020694  0.510347  0.747661  1
  Br  Br17  1  0.653229  0.826615  0.906825  1
  Br  Br18  1  0.825909  0.651818  0.094383  1
  Br  Br19  1  0.177143  0.354286  0.592237  1
  Br  Br20  1  0.489653  0.979306  0.747661  1
  Br  Br21  1  0.507841  0.492159  0.252916  1
  Br  Br22  1  0.489653  0.510347  0.747661  1
  Br  Br23  1  0.173385  0.826615  0.906825  1
  Br  Br24  1  0.348182  0.174091  0.094383  1
  Br  Br25  1  0.984318  0.492159  0.252916  1
  Br  Br26  1  0.507841  0.015682  0.252916  1
  Br  Br27  1  0.825909  0.174091  0.094383  1
