# generated using pymatgen
data_DyTh3(InGa2)2
_symmetry_space_group_name_H-M   'P 1'
_cell_length_a   7.41642798
_cell_length_b   7.41642798
_cell_length_c   4.46446600
_cell_angle_alpha   90.00000000
_cell_angle_beta   90.00000000
_cell_angle_gamma   90.53879536
_symmetry_Int_Tables_number   1
_chemical_formula_structural   DyTh3(InGa2)2
_chemical_formula_sum   'Dy1 Th3 In2 Ga4'
_cell_volume   245.54996948
_cell_formula_units_Z   1
loop_
 _symmetry_equiv_pos_site_id
 _symmetry_equiv_pos_as_xyz
  1  'x, y, z'
loop_
 _atom_site_type_symbol
 _atom_site_label
 _atom_site_symmetry_multiplicity
 _atom_site_fract_x
 _atom_site_fract_y
 _atom_site_fract_z
 _atom_site_occupancy
  Dy  Dy0  1  0.675505  0.175505  0.500000  1
  Th  Th1  1  0.174616  0.324043  0.500000  1
  Th  Th2  1  0.824043  0.674616  0.500000  1
  Th  Th3  1  0.326448  0.826448  0.500000  1
  In  In4  1  0.997089  0.002096  0.000000  1
  In  In5  1  0.502096  0.497089  0.000000  1
  Ga  Ga6  1  0.872939  0.372939  0.000000  1
  Ga  Ga7  1  0.381926  0.124122  0.000000  1
  Ga  Ga8  1  0.624122  0.881926  0.000000  1
  Ga  Ga9  1  0.121215  0.621215  0.000000  1
