# generated using pymatgen
data_Dy5GaSi8P3Ir19
_symmetry_space_group_name_H-M   'P 1'
_cell_length_a   12.85647091
_cell_length_b   12.83688887
_cell_length_c   3.95852300
_cell_angle_alpha   90.00000000
_cell_angle_beta   90.00000000
_cell_angle_gamma   119.94962767
_symmetry_Int_Tables_number   1
_chemical_formula_structural   Dy5GaSi8P3Ir19
_chemical_formula_sum   'Dy5 Ga1 Si8 P3 Ir19'
_cell_volume   566.06405079
_cell_formula_units_Z   1
loop_
 _symmetry_equiv_pos_site_id
 _symmetry_equiv_pos_as_xyz
  1  'x, y, z'
loop_
 _atom_site_type_symbol
 _atom_site_label
 _atom_site_symmetry_multiplicity
 _atom_site_fract_x
 _atom_site_fract_y
 _atom_site_fract_z
 _atom_site_occupancy
  Dy  Dy0  1  0.331178  0.664598  0.500000  1
  Dy  Dy1  1  0.668822  0.333420  0.500000  1
  Dy  Dy2  1  0.000000  0.815981  0.000000  1
  Dy  Dy3  1  0.187080  0.185843  0.000000  1
  Dy  Dy4  1  0.812920  0.998763  0.000000  1
  Ga  Ga5  1  0.000000  0.637431  0.500000  1
  Si  Si6  1  0.365788  0.366681  0.500000  1
  Si  Si7  1  0.634212  0.000894  0.500000  1
  Si  Si8  1  0.516688  0.686178  0.000000  1
  Si  Si9  1  0.315125  0.833239  0.000000  1
  Si  Si10  1  0.164475  0.478867  0.000000  1
  Si  Si11  1  0.483312  0.169488  0.000000  1
  Si  Si12  1  0.684875  0.518113  0.000000  1
  Si  Si13  1  0.835525  0.314392  0.000000  1
  P  P14  1  0.000000  0.175798  0.500000  1
  P  P15  1  0.818785  0.819431  0.500000  1
  P  P16  1  0.181215  0.000646  0.500000  1
  Ir  Ir17  1  0.513558  0.874318  0.000000  1
  Ir  Ir18  1  0.131673  0.641196  0.000000  1
  Ir  Ir19  1  0.357267  0.486535  0.000000  1
  Ir  Ir20  1  0.486442  0.360759  0.000000  1
  Ir  Ir21  1  0.868327  0.509522  0.000000  1
  Ir  Ir22  1  0.642733  0.129267  0.000000  1
  Ir  Ir23  1  0.000000  0.442006  0.500000  1
  Ir  Ir24  1  0.548742  0.554203  0.500000  1
  Ir  Ir25  1  0.451258  0.005461  0.500000  1
  Ir  Ir26  1  0.000000  0.274988  0.000000  1
  Ir  Ir27  1  0.718274  0.721584  0.000000  1
  Ir  Ir28  1  0.281726  0.003309  0.000000  1
  Ir  Ir29  1  0.626036  0.807514  0.500000  1
  Ir  Ir30  1  0.202782  0.826174  0.500000  1
  Ir  Ir31  1  0.178459  0.370123  0.500000  1
  Ir  Ir32  1  0.373964  0.181478  0.500000  1
  Ir  Ir33  1  0.797218  0.623392  0.500000  1
  Ir  Ir34  1  0.821541  0.191664  0.500000  1
  Ir  Ir35  1  0.000000  0.996745  0.500000  1
