# generated using pymatgen
data_Er20CdIn5Ru2
_symmetry_space_group_name_H-M   'P 1'
_cell_length_a   9.64613871
_cell_length_b   9.72373177
_cell_length_c   9.59344400
_cell_angle_alpha   90.00000000
_cell_angle_beta   90.00000000
_cell_angle_gamma   120.26645502
_symmetry_Int_Tables_number   1
_chemical_formula_structural   Er20CdIn5Ru2
_chemical_formula_sum   'Er20 Cd1 In5 Ru2'
_cell_volume   777.17586589
_cell_formula_units_Z   1
loop_
 _symmetry_equiv_pos_site_id
 _symmetry_equiv_pos_as_xyz
  1  'x, y, z'
loop_
 _atom_site_type_symbol
 _atom_site_label
 _atom_site_symmetry_multiplicity
 _atom_site_fract_x
 _atom_site_fract_y
 _atom_site_fract_z
 _atom_site_occupancy
  Er  Er0  1  0.996317  0.998159  0.501894  1
  Er  Er1  1  0.996317  0.998159  0.998106  1
  Er  Er2  1  0.210984  0.789848  0.440784  1
  Er  Er3  1  0.210984  0.421138  0.440784  1
  Er  Er4  1  0.578641  0.789321  0.438336  1
  Er  Er5  1  0.789732  0.211711  0.559280  1
  Er  Er6  1  0.789732  0.578020  0.559280  1
  Er  Er7  1  0.420342  0.210170  0.561249  1
  Er  Er8  1  0.789732  0.211711  0.940720  1
  Er  Er9  1  0.789732  0.578020  0.940720  1
  Er  Er10  1  0.420342  0.210170  0.938751  1
  Er  Er11  1  0.210984  0.789848  0.059216  1
  Er  Er12  1  0.210984  0.421138  0.059216  1
  Er  Er13  1  0.578641  0.789321  0.061664  1
  Er  Er14  1  0.541361  0.460041  0.250000  1
  Er  Er15  1  0.541361  0.081322  0.250000  1
  Er  Er16  1  0.922803  0.461402  0.250000  1
  Er  Er17  1  0.461646  0.542231  0.750000  1
  Er  Er18  1  0.461646  0.919414  0.750000  1
  Er  Er19  1  0.081711  0.540855  0.750000  1
  Cd  Cd20  1  0.765981  0.882991  0.750000  1
  In  In21  1  0.884758  0.118687  0.250000  1
  In  In22  1  0.884758  0.766071  0.250000  1
  In  In23  1  0.231774  0.115887  0.250000  1
  In  In24  1  0.115220  0.881036  0.750000  1
  In  In25  1  0.115220  0.234183  0.750000  1
  Ru  Ru26  1  0.330322  0.665161  0.250000  1
  Ru  Ru27  1  0.667977  0.333989  0.750000  1
