# generated using pymatgen
data_Nb2Fe5Co7SiP6
_symmetry_space_group_name_H-M   'P 1'
_cell_length_a   8.85687893
_cell_length_b   8.83174228
_cell_length_c   3.55300700
_cell_angle_alpha   90.00000000
_cell_angle_beta   90.00000000
_cell_angle_gamma   119.96475360
_symmetry_Int_Tables_number   1
_chemical_formula_structural   Nb2Fe5Co7SiP6
_chemical_formula_sum   'Nb2 Fe5 Co7 Si1 P6'
_cell_volume   240.77307934
_cell_formula_units_Z   1
loop_
 _symmetry_equiv_pos_site_id
 _symmetry_equiv_pos_as_xyz
  1  'x, y, z'
loop_
 _atom_site_type_symbol
 _atom_site_label
 _atom_site_symmetry_multiplicity
 _atom_site_fract_x
 _atom_site_fract_y
 _atom_site_fract_z
 _atom_site_occupancy
  Nb  Nb0  1  0.664096  0.331970  0.500000  1
  Nb  Nb1  1  0.336687  0.667813  0.000000  1
  Fe  Fe2  1  0.391048  0.442038  0.500000  1
  Fe  Fe3  1  0.558725  0.950335  0.500000  1
  Fe  Fe4  1  0.222079  0.095067  0.500000  1
  Fe  Fe5  1  0.871520  0.776646  0.500000  1
  Fe  Fe6  1  0.906296  0.127473  0.500000  1
  Co  Co7  1  0.121473  0.832682  0.000000  1
  Co  Co8  1  0.713962  0.879080  0.000000  1
  Co  Co9  1  0.932172  0.369523  0.000000  1
  Co  Co10  1  0.630857  0.564207  0.000000  1
  Co  Co11  1  0.434638  0.066137  0.000000  1
  Co  Co12  1  0.051272  0.608041  0.500000  1
  Co  Co13  1  0.164914  0.287465  0.000000  1
  Si  Si14  1  0.000445  0.999452  0.000000  1
  P  P15  1  0.593009  0.714013  0.500000  1
  P  P16  1  0.702104  0.117360  0.000000  1
  P  P17  1  0.881424  0.585634  0.000000  1
  P  P18  1  0.414041  0.297546  0.000000  1
  P  P19  1  0.287511  0.880372  0.500000  1
  P  P20  1  0.121724  0.407147  0.500000  1
