# generated using pymatgen
data_Yb5Er3(TmSn4)2
_symmetry_space_group_name_H-M   'P 1'
_cell_length_a   7.79807600
_cell_length_b   8.38686608
_cell_length_c   15.80670614
_cell_angle_alpha   90.01533105
_cell_angle_beta   90.00000000
_cell_angle_gamma   90.00000000
_symmetry_Int_Tables_number   1
_chemical_formula_structural   Yb5Er3(TmSn4)2
_chemical_formula_sum   'Yb10 Er6 Tm4 Sn16'
_cell_volume   1033.78097523
_cell_formula_units_Z   2
loop_
 _symmetry_equiv_pos_site_id
 _symmetry_equiv_pos_as_xyz
  1  'x, y, z'
loop_
 _atom_site_type_symbol
 _atom_site_label
 _atom_site_symmetry_multiplicity
 _atom_site_fract_x
 _atom_site_fract_y
 _atom_site_fract_z
 _atom_site_occupancy
  Yb  Yb0  1  0.502049  0.684303  0.593638  1
  Yb  Yb1  1  0.002049  0.815697  0.906362  1
  Yb  Yb2  1  0.495879  0.312096  0.091046  1
  Yb  Yb3  1  0.995879  0.187904  0.408954  1
  Yb  Yb4  1  0.495956  0.312079  0.408984  1
  Yb  Yb5  1  0.995956  0.187921  0.091016  1
  Yb  Yb6  1  0.502020  0.684292  0.906351  1
  Yb  Yb7  1  0.002020  0.815708  0.593649  1
  Yb  Yb8  1  0.163935  0.489065  0.249990  1
  Yb  Yb9  1  0.663935  0.010935  0.250010  1
  Er  Er10  1  0.326302  0.835169  0.121480  1
  Er  Er11  1  0.826302  0.664831  0.378520  1
  Er  Er12  1  0.326321  0.835141  0.378503  1
  Er  Er13  1  0.826321  0.664859  0.121497  1
  Er  Er14  1  0.675681  0.162078  0.875987  1
  Er  Er15  1  0.175681  0.337922  0.624013  1
  Tm  Tm16  1  0.675651  0.162032  0.624087  1
  Tm  Tm17  1  0.175651  0.337968  0.875913  1
  Tm  Tm18  1  0.838218  0.508522  0.750012  1
  Tm  Tm19  1  0.338218  0.991478  0.749988  1
  Sn  Sn20  1  0.672334  0.962371  0.460254  1
  Sn  Sn21  1  0.172334  0.537629  0.039746  1
  Sn  Sn22  1  0.327738  0.035796  0.955833  1
  Sn  Sn23  1  0.827738  0.464204  0.544167  1
  Sn  Sn24  1  0.328206  0.035659  0.544100  1
  Sn  Sn25  1  0.828206  0.464341  0.955900  1
  Sn  Sn26  1  0.672343  0.962318  0.039819  1
  Sn  Sn27  1  0.172343  0.537682  0.460181  1
  Sn  Sn28  1  0.477047  0.370207  0.749997  1
  Sn  Sn29  1  0.977047  0.129793  0.750003  1
  Sn  Sn30  1  0.527825  0.627763  0.250008  1
  Sn  Sn31  1  0.027825  0.872237  0.249992  1
  Sn  Sn32  1  0.711194  0.861548  0.749926  1
  Sn  Sn33  1  0.211194  0.638452  0.750074  1
  Sn  Sn34  1  0.281301  0.127681  0.250002  1
  Sn  Sn35  1  0.781301  0.372319  0.249998  1
