# generated using pymatgen
data_IrRuI18
_symmetry_space_group_name_H-M   'P 1'
_cell_length_a   9.96558804
_cell_length_b   9.99708405
_cell_length_c   9.95272251
_cell_angle_alpha   93.30274104
_cell_angle_beta   93.41662576
_cell_angle_gamma   93.23311522
_symmetry_Int_Tables_number   1
_chemical_formula_structural   IrRuI18
_chemical_formula_sum   'Ir1 Ru1 I18'
_cell_volume   986.36914824
_cell_formula_units_Z   1
loop_
 _symmetry_equiv_pos_site_id
 _symmetry_equiv_pos_as_xyz
  1  'x, y, z'
loop_
 _atom_site_type_symbol
 _atom_site_label
 _atom_site_symmetry_multiplicity
 _atom_site_fract_x
 _atom_site_fract_y
 _atom_site_fract_z
 _atom_site_occupancy
  Ir  Ir0  1  0.000000  0.000000  0.000000  1
  Ru  Ru1  1  0.500000  0.500000  0.500000  1
  I  I2  1  0.771494  0.492858  0.518071  1
  I  I3  1  0.517433  0.770553  0.492160  1
  I  I4  1  0.493409  0.518413  0.771773  1
  I  I5  1  0.228506  0.507142  0.481929  1
  I  I6  1  0.482567  0.229447  0.507840  1
  I  I7  1  0.506591  0.481587  0.228227  1
  I  I8  1  0.882848  0.368060  0.758222  1
  I  I9  1  0.757152  0.881458  0.367771  1
  I  I10  1  0.368270  0.757441  0.882749  1
  I  I11  1  0.117152  0.631940  0.241778  1
  I  I12  1  0.242848  0.118542  0.632229  1
  I  I13  1  0.631730  0.242559  0.117251  1
  I  I14  1  0.005955  0.967890  0.730385  1
  I  I15  1  0.730714  0.006281  0.966292  1
  I  I16  1  0.966487  0.731453  0.004616  1
  I  I17  1  0.994045  0.032110  0.269615  1
  I  I18  1  0.269286  0.993719  0.033708  1
  I  I19  1  0.033513  0.268547  0.995384  1
