# generated using pymatgen
data_Nd6Sc4Al12Rh7
_symmetry_space_group_name_H-M   'P 1'
_cell_length_a   9.22124488
_cell_length_b   9.22124520
_cell_length_c   9.22124400
_cell_angle_alpha   59.99999712
_cell_angle_beta   59.99999599
_cell_angle_gamma   59.99999846
_symmetry_Int_Tables_number   1
_chemical_formula_structural   Nd6Sc4Al12Rh7
_chemical_formula_sum   'Nd6 Sc4 Al12 Rh7'
_cell_volume   554.43879899
_cell_formula_units_Z   1
loop_
 _symmetry_equiv_pos_site_id
 _symmetry_equiv_pos_as_xyz
  1  'x, y, z'
loop_
 _atom_site_type_symbol
 _atom_site_label
 _atom_site_symmetry_multiplicity
 _atom_site_fract_x
 _atom_site_fract_y
 _atom_site_fract_z
 _atom_site_occupancy
  Nd  Nd0  1  0.701186  0.701186  0.298814  1
  Nd  Nd1  1  0.298814  0.701186  0.298814  1
  Nd  Nd2  1  0.701186  0.298814  0.298814  1
  Nd  Nd3  1  0.298814  0.298814  0.701186  1
  Nd  Nd4  1  0.701186  0.298814  0.701186  1
  Nd  Nd5  1  0.298814  0.701186  0.701186  1
  Sc  Sc6  1  0.882214  0.882214  0.353358  1
  Sc  Sc7  1  0.882214  0.353358  0.882214  1
  Sc  Sc8  1  0.353358  0.882214  0.882214  1
  Sc  Sc9  1  0.882214  0.882214  0.882214  1
  Al  Al10  1  0.120551  0.120551  0.638348  1
  Al  Al11  1  0.120551  0.638348  0.120551  1
  Al  Al12  1  0.638348  0.120551  0.120551  1
  Al  Al13  1  0.120551  0.120551  0.120551  1
  Al  Al14  1  0.671538  0.671538  0.985387  1
  Al  Al15  1  0.671538  0.985387  0.671538  1
  Al  Al16  1  0.985387  0.671538  0.671538  1
  Al  Al17  1  0.671538  0.671538  0.671538  1
  Al  Al18  1  0.326603  0.326603  0.020193  1
  Al  Al19  1  0.326603  0.020193  0.326603  1
  Al  Al20  1  0.020193  0.326603  0.326603  1
  Al  Al21  1  0.326603  0.326603  0.326603  1
  Rh  Rh22  1  0.000000  0.000000  0.000000  1
  Rh  Rh23  1  0.001316  0.001316  0.498684  1
  Rh  Rh24  1  0.498684  0.001316  0.498684  1
  Rh  Rh25  1  0.001316  0.498684  0.498684  1
  Rh  Rh26  1  0.498684  0.498684  0.001316  1
  Rh  Rh27  1  0.001316  0.498684  0.001316  1
  Rh  Rh28  1  0.498684  0.001316  0.001316  1
