# generated using pymatgen
data_Ac4BeSiN6
_symmetry_space_group_name_H-M   'P 1'
_cell_length_a   6.66188835
_cell_length_b   6.66188832
_cell_length_c   12.03595295
_cell_angle_alpha   86.46181537
_cell_angle_beta   93.53818515
_cell_angle_gamma   130.70646664
_symmetry_Int_Tables_number   1
_chemical_formula_structural   Ac4BeSiN6
_chemical_formula_sum   'Ac8 Be2 Si2 N12'
_cell_volume   403.99476475
_cell_formula_units_Z   2
loop_
 _symmetry_equiv_pos_site_id
 _symmetry_equiv_pos_as_xyz
  1  'x, y, z'
loop_
 _atom_site_type_symbol
 _atom_site_label
 _atom_site_symmetry_multiplicity
 _atom_site_fract_x
 _atom_site_fract_y
 _atom_site_fract_z
 _atom_site_occupancy
  Ac  Ac0  1  0.053899  0.946101  0.860626  1
  Ac  Ac1  1  0.946101  0.053899  0.139374  1
  Ac  Ac2  1  0.417718  0.582282  0.332900  1
  Ac  Ac3  1  0.582282  0.417718  0.667100  1
  Ac  Ac4  1  0.649612  0.350388  0.070337  1
  Ac  Ac5  1  0.350388  0.649612  0.929663  1
  Ac  Ac6  1  0.859092  0.140908  0.578094  1
  Ac  Ac7  1  0.140908  0.859092  0.421906  1
  Be  Be8  1  0.787234  0.212766  0.824925  1
  Be  Be9  1  0.212766  0.787234  0.175075  1
  Si  Si10  1  0.759478  0.240522  0.330985  1
  Si  Si11  1  0.240522  0.759478  0.669015  1
  N  N12  1  0.537349  0.462651  0.865122  1
  N  N13  1  0.462651  0.537349  0.134878  1
  N  N14  1  0.909179  0.090821  0.371978  1
  N  N15  1  0.090821  0.909179  0.628022  1
  N  N16  1  0.518971  0.995264  0.749415  1
  N  N17  1  0.995264  0.518971  0.250585  1
  N  N18  1  0.481029  0.004736  0.250585  1
  N  N19  1  0.004736  0.481029  0.749415  1
  N  N20  1  0.858836  0.141164  0.950191  1
  N  N21  1  0.141164  0.858836  0.049809  1
  N  N22  1  0.675516  0.324484  0.447095  1
  N  N23  1  0.324484  0.675516  0.552905  1
