# generated using pymatgen
data_Li3Ca4Y4Si12Pd
_symmetry_space_group_name_H-M   'P 1'
_cell_length_a   4.25879600
_cell_length_b   10.49980954
_cell_length_c   10.95761707
_cell_angle_alpha   89.56653611
_cell_angle_beta   90.00000000
_cell_angle_gamma   90.00000000
_symmetry_Int_Tables_number   1
_chemical_formula_structural   Li3Ca4Y4Si12Pd
_chemical_formula_sum   'Li3 Ca4 Y4 Si12 Pd1'
_cell_volume   489.97277497
_cell_formula_units_Z   1
loop_
 _symmetry_equiv_pos_site_id
 _symmetry_equiv_pos_as_xyz
  1  'x, y, z'
loop_
 _atom_site_type_symbol
 _atom_site_label
 _atom_site_symmetry_multiplicity
 _atom_site_fract_x
 _atom_site_fract_y
 _atom_site_fract_z
 _atom_site_occupancy
  Li  Li0  1  0.500000  0.137393  0.715790  1
  Li  Li1  1  0.000000  0.359773  0.217204  1
  Li  Li2  1  0.000000  0.641159  0.784059  1
  Ca  Ca3  1  0.500000  0.823690  0.574720  1
  Ca  Ca4  1  0.500000  0.176050  0.420717  1
  Ca  Ca5  1  0.000000  0.322423  0.923920  1
  Ca  Ca6  1  0.000000  0.677422  0.079076  1
  Y  Y7  1  0.500000  0.557394  0.346476  1
  Y  Y8  1  0.500000  0.448564  0.647401  1
  Y  Y9  1  0.000000  0.051343  0.152349  1
  Y  Y10  1  0.000000  0.945779  0.855224  1
  Si  Si11  1  0.500000  0.891931  0.054576  1
  Si  Si12  1  0.500000  0.103987  0.958336  1
  Si  Si13  1  0.000000  0.395275  0.455442  1
  Si  Si14  1  0.000000  0.608894  0.540449  1
  Si  Si15  1  0.000000  0.968145  0.395454  1
  Si  Si16  1  0.000000  0.031870  0.600884  1
  Si  Si17  1  0.500000  0.464535  0.100044  1
  Si  Si18  1  0.500000  0.533119  0.898353  1
  Si  Si19  1  0.000000  0.257462  0.634878  1
  Si  Si20  1  0.000000  0.744448  0.353439  1
  Si  Si21  1  0.500000  0.759078  0.869393  1
  Si  Si22  1  0.500000  0.241851  0.134912  1
  Pd  Pd23  1  0.500000  0.858416  0.286899  1
