# generated using pymatgen
data_Tl2MoOF5
_symmetry_space_group_name_H-M   'P 1'
_cell_length_a   8.34192600
_cell_length_b   8.34192677
_cell_length_c   7.51244400
_cell_angle_alpha   90.00000000
_cell_angle_beta   90.00000000
_cell_angle_gamma   134.95929600
_symmetry_Int_Tables_number   1
_chemical_formula_structural   Tl2MoOF5
_chemical_formula_sum   'Tl4 Mo2 O2 F10'
_cell_volume   369.91953618
_cell_formula_units_Z   2
loop_
 _symmetry_equiv_pos_site_id
 _symmetry_equiv_pos_as_xyz
  1  'x, y, z'
loop_
 _atom_site_type_symbol
 _atom_site_label
 _atom_site_symmetry_multiplicity
 _atom_site_fract_x
 _atom_site_fract_y
 _atom_site_fract_z
 _atom_site_occupancy
  Tl  Tl0  1  0.585465  0.414535  0.750000  1
  Tl  Tl1  1  0.414535  0.585465  0.250000  1
  Tl  Tl2  1  0.247653  0.752347  0.750000  1
  Tl  Tl3  1  0.752347  0.247653  0.250000  1
  Mo  Mo4  1  0.887824  0.112176  0.750000  1
  Mo  Mo5  1  0.112176  0.887824  0.250000  1
  O  O6  1  0.999273  0.000727  0.750000  1
  O  O7  1  0.000727  0.999273  0.250000  1
  F  F8  1  0.750030  0.249970  0.750000  1
  F  F9  1  0.249970  0.750030  0.250000  1
  F  F10  1  0.644053  0.906068  0.565755  1
  F  F11  1  0.906068  0.644053  0.434245  1
  F  F12  1  0.644053  0.906068  0.934245  1
  F  F13  1  0.906068  0.644053  0.065755  1
  F  F14  1  0.355947  0.093932  0.434245  1
  F  F15  1  0.093932  0.355947  0.565755  1
  F  F16  1  0.355947  0.093932  0.065755  1
  F  F17  1  0.093932  0.355947  0.934245  1
