# generated using pymatgen
data_Hg4PdRu3O14
_symmetry_space_group_name_H-M   'P 1'
_cell_length_a   7.33886430
_cell_length_b   7.31433157
_cell_length_c   7.33886400
_cell_angle_alpha   59.88898768
_cell_angle_beta   60.00000133
_cell_angle_gamma   59.88898462
_symmetry_Int_Tables_number   1
_chemical_formula_structural   Hg4PdRu3O14
_chemical_formula_sum   'Hg4 Pd1 Ru3 O14'
_cell_volume   278.09076739
_cell_formula_units_Z   1
loop_
 _symmetry_equiv_pos_site_id
 _symmetry_equiv_pos_as_xyz
  1  'x, y, z'
loop_
 _atom_site_type_symbol
 _atom_site_label
 _atom_site_symmetry_multiplicity
 _atom_site_fract_x
 _atom_site_fract_y
 _atom_site_fract_z
 _atom_site_occupancy
  Hg  Hg0  1  0.125000  0.625000  0.125000  1
  Hg  Hg1  1  0.125000  0.125000  0.625000  1
  Hg  Hg2  1  0.625000  0.125000  0.125000  1
  Hg  Hg3  1  0.125000  0.125000  0.125000  1
  Pd  Pd4  1  0.625000  0.125000  0.625000  1
  Ru  Ru5  1  0.625000  0.625000  0.125000  1
  Ru  Ru6  1  0.125000  0.625000  0.625000  1
  Ru  Ru7  1  0.625000  0.625000  0.625000  1
  O  O8  1  0.697132  0.667806  0.317531  1
  O  O9  1  0.932469  0.582194  0.552868  1
  O  O10  1  0.544523  0.948502  0.962453  1
  O  O11  1  0.962453  0.948502  0.544523  1
  O  O12  1  0.932469  0.582194  0.932469  1
  O  O13  1  0.544523  0.948502  0.544523  1
  O  O14  1  0.317531  0.667806  0.317531  1
  O  O15  1  0.317531  0.667806  0.697132  1
  O  O16  1  0.705477  0.301498  0.287547  1
  O  O17  1  0.705477  0.301498  0.705477  1
  O  O18  1  0.552868  0.582194  0.932469  1
  O  O19  1  0.287547  0.301498  0.705477  1
  O  O20  1  0.245900  0.262300  0.245900  1
  O  O21  1  0.004100  0.987700  0.004100  1
