# generated using pymatgen
data_Ta6Be4Ir3Ru7
_symmetry_space_group_name_H-M   'P 1'
_cell_length_a   9.48846005
_cell_length_b   9.48498905
_cell_length_c   3.10596700
_cell_angle_alpha   90.00000000
_cell_angle_beta   90.00000000
_cell_angle_gamma   90.01160202
_symmetry_Int_Tables_number   1
_chemical_formula_structural   Ta6Be4Ir3Ru7
_chemical_formula_sum   'Ta6 Be4 Ir3 Ru7'
_cell_volume   279.53062489
_cell_formula_units_Z   1
loop_
 _symmetry_equiv_pos_site_id
 _symmetry_equiv_pos_as_xyz
  1  'x, y, z'
loop_
 _atom_site_type_symbol
 _atom_site_label
 _atom_site_symmetry_multiplicity
 _atom_site_fract_x
 _atom_site_fract_y
 _atom_site_fract_z
 _atom_site_occupancy
  Ta  Ta0  1  0.827343  0.677635  0.000000  1
  Ta  Ta1  1  0.176879  0.322321  0.000000  1
  Ta  Ta2  1  0.318831  0.825711  0.000000  1
  Ta  Ta3  1  0.677530  0.177761  0.000000  1
  Ta  Ta4  1  0.498328  0.494182  0.000000  1
  Ta  Ta5  1  0.999297  0.000932  0.000000  1
  Be  Be6  1  0.624014  0.879568  0.000000  1
  Be  Be7  1  0.376064  0.121158  0.000000  1
  Be  Be8  1  0.123626  0.622494  0.000000  1
  Be  Be9  1  0.877141  0.377927  0.000000  1
  Ir  Ir10  1  0.570898  0.713135  0.500000  1
  Ir  Ir11  1  0.499566  0.999149  0.500000  1
  Ir  Ir12  1  0.001768  0.499300  0.500000  1
  Ru  Ru13  1  0.429846  0.284793  0.500000  1
  Ru  Ru14  1  0.069596  0.786545  0.500000  1
  Ru  Ru15  1  0.928554  0.213715  0.500000  1
  Ru  Ru16  1  0.288290  0.571906  0.500000  1
  Ru  Ru17  1  0.713490  0.432208  0.500000  1
  Ru  Ru18  1  0.212643  0.070117  0.500000  1
  Ru  Ru19  1  0.786296  0.929444  0.500000  1
