# generated using pymatgen
data_Li30Si7Pd
_symmetry_space_group_name_H-M   'P 1'
_cell_length_a   9.14074957
_cell_length_b   9.14074918
_cell_length_c   9.14074866
_cell_angle_alpha   109.40197742
_cell_angle_beta   109.40197661
_cell_angle_gamma   109.40198136
_symmetry_Int_Tables_number   1
_chemical_formula_structural   Li30Si7Pd
_chemical_formula_sum   'Li30 Si7 Pd1'
_cell_volume   589.42950642
_cell_formula_units_Z   1
loop_
 _symmetry_equiv_pos_site_id
 _symmetry_equiv_pos_as_xyz
  1  'x, y, z'
loop_
 _atom_site_type_symbol
 _atom_site_label
 _atom_site_symmetry_multiplicity
 _atom_site_fract_x
 _atom_site_fract_y
 _atom_site_fract_z
 _atom_site_occupancy
  Li  Li0  1  0.870076  0.257509  0.129763  1
  Li  Li1  1  0.623350  0.750634  0.373086  1
  Li  Li2  1  0.257509  0.129763  0.870076  1
  Li  Li3  1  0.750634  0.373086  0.623350  1
  Li  Li4  1  0.129763  0.870076  0.257509  1
  Li  Li5  1  0.373086  0.623350  0.750634  1
  Li  Li6  1  0.776212  0.688943  0.161861  1
  Li  Li7  1  0.466689  0.810609  0.584864  1
  Li  Li8  1  0.031586  0.616440  0.341434  1
  Li  Li9  1  0.712200  0.872791  0.908377  1
  Li  Li10  1  0.658625  0.190090  0.277982  1
  Li  Li11  1  0.087656  0.310923  0.963874  1
  Li  Li12  1  0.837855  0.119039  0.531599  1
  Li  Li13  1  0.426490  0.390026  0.229566  1
  Li  Li14  1  0.688943  0.161861  0.776212  1
  Li  Li15  1  0.810609  0.584864  0.466689  1
  Li  Li16  1  0.616440  0.341434  0.031586  1
  Li  Li17  1  0.872791  0.908377  0.712200  1
  Li  Li18  1  0.190090  0.277982  0.658625  1
  Li  Li19  1  0.310923  0.963874  0.087656  1
  Li  Li20  1  0.119039  0.531599  0.837855  1
  Li  Li21  1  0.390026  0.229566  0.426490  1
  Li  Li22  1  0.161861  0.776212  0.688943  1
  Li  Li23  1  0.584864  0.466689  0.810609  1
  Li  Li24  1  0.341434  0.031586  0.616440  1
  Li  Li25  1  0.908377  0.712200  0.872791  1
  Li  Li26  1  0.277982  0.658625  0.190090  1
  Li  Li27  1  0.963874  0.087656  0.310923  1
  Li  Li28  1  0.531599  0.837855  0.119039  1
  Li  Li29  1  0.229566  0.426490  0.390026  1
  Si  Si30  1  0.917996  0.500538  0.001499  1
  Si  Si31  1  0.500538  0.001499  0.917996  1
  Si  Si32  1  0.001499  0.917996  0.500538  1
  Si  Si33  1  0.585705  0.585705  0.585705  1
  Si  Si34  1  0.497191  0.999285  0.413964  1
  Si  Si35  1  0.413964  0.497191  0.999285  1
  Si  Si36  1  0.999285  0.413964  0.497191  1
  Pd  Pd37  1  0.083672  0.083672  0.083672  1
