# generated using pymatgen
data_Th4OsRh3
_symmetry_space_group_name_H-M   'P 1'
_cell_length_a   4.13538600
_cell_length_b   6.05076100
_cell_length_c   14.95181900
_cell_angle_alpha   90.00000000
_cell_angle_beta   90.00000000
_cell_angle_gamma   90.00000000
_symmetry_Int_Tables_number   1
_chemical_formula_structural   Th4OsRh3
_chemical_formula_sum   'Th8 Os2 Rh6'
_cell_volume   374.12788876
_cell_formula_units_Z   2
loop_
 _symmetry_equiv_pos_site_id
 _symmetry_equiv_pos_as_xyz
  1  'x, y, z'
loop_
 _atom_site_type_symbol
 _atom_site_label
 _atom_site_symmetry_multiplicity
 _atom_site_fract_x
 _atom_site_fract_y
 _atom_site_fract_z
 _atom_site_occupancy
  Th  Th0  1  0.250000  0.547817  0.282583  1
  Th  Th1  1  0.750000  0.449120  0.713814  1
  Th  Th2  1  0.250000  0.949120  0.786186  1
  Th  Th3  1  0.250000  0.757620  0.533846  1
  Th  Th4  1  0.250000  0.744894  0.038639  1
  Th  Th5  1  0.750000  0.257620  0.966154  1
  Th  Th6  1  0.750000  0.047817  0.217417  1
  Th  Th7  1  0.750000  0.244894  0.461361  1
  Os  Os8  1  0.250000  0.060631  0.351539  1
  Os  Os9  1  0.750000  0.560631  0.148461  1
  Rh  Rh10  1  0.750000  0.720289  0.404221  1
  Rh  Rh11  1  0.250000  0.435964  0.849053  1
  Rh  Rh12  1  0.750000  0.935964  0.650947  1
  Rh  Rh13  1  0.750000  0.783666  0.900321  1
  Rh  Rh14  1  0.250000  0.220289  0.095779  1
  Rh  Rh15  1  0.250000  0.283666  0.599679  1
