# generated using pymatgen
data_Tb5Nd3Cd2PdRu
_symmetry_space_group_name_H-M   'P 1'
_cell_length_a   9.78587805
_cell_length_b   9.78587815
_cell_length_c   9.80311200
_cell_angle_alpha   59.94172637
_cell_angle_beta   59.94172603
_cell_angle_gamma   60.14562448
_symmetry_Int_Tables_number   1
_chemical_formula_structural   Tb5Nd3Cd2PdRu
_chemical_formula_sum   'Tb10 Nd6 Cd4 Pd2 Ru2'
_cell_volume   663.95755739
_cell_formula_units_Z   2
loop_
 _symmetry_equiv_pos_site_id
 _symmetry_equiv_pos_as_xyz
  1  'x, y, z'
loop_
 _atom_site_type_symbol
 _atom_site_label
 _atom_site_symmetry_multiplicity
 _atom_site_fract_x
 _atom_site_fract_y
 _atom_site_fract_z
 _atom_site_occupancy
  Tb  Tb0  1  0.347879  0.347879  0.355317  1
  Tb  Tb1  1  0.347879  0.347879  0.948925  1
  Tb  Tb2  1  0.343516  0.956970  0.349757  1
  Tb  Tb3  1  0.956970  0.343516  0.349757  1
  Tb  Tb4  1  0.818481  0.186098  0.188778  1
  Tb  Tb5  1  0.186098  0.818481  0.806643  1
  Tb  Tb6  1  0.186098  0.818481  0.188778  1
  Tb  Tb7  1  0.818481  0.186098  0.806643  1
  Tb  Tb8  1  0.186347  0.186347  0.813653  1
  Tb  Tb9  1  0.810548  0.810548  0.189452  1
  Nd  Nd10  1  0.938444  0.556488  0.564425  1
  Nd  Nd11  1  0.556488  0.938444  0.940641  1
  Nd  Nd12  1  0.556488  0.938444  0.564425  1
  Nd  Nd13  1  0.938444  0.556488  0.940641  1
  Nd  Nd14  1  0.561553  0.561553  0.938447  1
  Nd  Nd15  1  0.940269  0.940269  0.559731  1
  Cd  Cd16  1  0.579485  0.579485  0.579806  1
  Cd  Cd17  1  0.579485  0.579485  0.261225  1
  Cd  Cd18  1  0.580481  0.258910  0.580305  1
  Cd  Cd19  1  0.258910  0.580481  0.580305  1
  Pd  Pd20  1  0.146262  0.572391  0.140673  1
  Pd  Pd21  1  0.572391  0.146262  0.140673  1
  Ru  Ru22  1  0.144502  0.144502  0.137027  1
  Ru  Ru23  1  0.144502  0.144502  0.573969  1
