# generated using pymatgen
data_TbSm(Ho3B10)2
_symmetry_space_group_name_H-M   'P 1'
_cell_length_a   7.10113032
_cell_length_b   7.09341255
_cell_length_c   7.12145387
_cell_angle_alpha   76.56350846
_cell_angle_beta   90.11865999
_cell_angle_gamma   89.95474006
_symmetry_Int_Tables_number   1
_chemical_formula_structural   TbSm(Ho3B10)2
_chemical_formula_sum   'Tb1 Sm1 Ho6 B20'
_cell_volume   348.89670587
_cell_formula_units_Z   1
loop_
 _symmetry_equiv_pos_site_id
 _symmetry_equiv_pos_as_xyz
  1  'x, y, z'
loop_
 _atom_site_type_symbol
 _atom_site_label
 _atom_site_symmetry_multiplicity
 _atom_site_fract_x
 _atom_site_fract_y
 _atom_site_fract_z
 _atom_site_occupancy
  Tb  Tb0  1  0.308121  0.769754  0.624478  1
  Sm  Sm1  1  0.189973  0.774897  0.122523  1
  Ho  Ho2  1  0.185253  0.244868  0.248233  1
  Ho  Ho3  1  0.814770  0.756013  0.752869  1
  Ho  Ho4  1  0.315071  0.244249  0.747774  1
  Ho  Ho5  1  0.806182  0.232683  0.872376  1
  Ho  Ho6  1  0.693895  0.232220  0.372362  1
  Ho  Ho7  1  0.684703  0.756053  0.253141  1
  B  B8  1  0.674337  0.495857  0.039776  1
  B  B9  1  0.538721  0.503124  0.825526  1
  B  B10  1  0.173248  0.503159  0.460630  1
  B  B11  1  0.825540  0.495885  0.539871  1
  B  B12  1  0.410886  0.496699  0.411421  1
  B  B13  1  0.498525  0.313693  0.041876  1
  B  B14  1  0.515699  0.927676  0.923901  1
  B  B15  1  0.504244  0.686742  0.957920  1
  B  B16  1  0.462623  0.495932  0.174405  1
  B  B17  1  0.008888  0.073413  0.577342  1
  B  B18  1  0.492190  0.074081  0.075871  1
  B  B19  1  0.985404  0.927385  0.425301  1
  B  B20  1  0.088993  0.496227  0.911376  1
  B  B21  1  0.589129  0.499132  0.589531  1
  B  B22  1  0.037734  0.496060  0.674703  1
  B  B23  1  0.960696  0.502611  0.326134  1
  B  B24  1  0.996013  0.686506  0.459399  1
  B  B25  1  0.001662  0.313517  0.542168  1
  B  B26  1  0.910708  0.498429  0.089499  1
  B  B27  1  0.326791  0.503132  0.959591  1
