# generated using pymatgen
data_Eu5GaCu2
_symmetry_space_group_name_H-M   'P 1'
_cell_length_a   9.21385086
_cell_length_b   9.21385094
_cell_length_c   9.21385203
_cell_angle_alpha   128.33901764
_cell_angle_beta   128.33902000
_cell_angle_gamma   76.07647264
_symmetry_Int_Tables_number   1
_chemical_formula_structural   Eu5GaCu2
_chemical_formula_sum   'Eu10 Ga2 Cu4'
_cell_volume   467.82615112
_cell_formula_units_Z   2
loop_
 _symmetry_equiv_pos_site_id
 _symmetry_equiv_pos_as_xyz
  1  'x, y, z'
loop_
 _atom_site_type_symbol
 _atom_site_label
 _atom_site_symmetry_multiplicity
 _atom_site_fract_x
 _atom_site_fract_y
 _atom_site_fract_z
 _atom_site_occupancy
  Eu  Eu0  1  0.500000  0.500000  0.000000  1
  Eu  Eu1  1  0.000000  0.000000  0.000000  1
  Eu  Eu2  1  0.525742  0.025742  0.838518  1
  Eu  Eu3  1  0.187225  0.687225  0.161482  1
  Eu  Eu4  1  0.025742  0.187225  0.500000  1
  Eu  Eu5  1  0.687225  0.525742  0.500000  1
  Eu  Eu6  1  0.474258  0.974258  0.161482  1
  Eu  Eu7  1  0.812775  0.312775  0.838518  1
  Eu  Eu8  1  0.974258  0.812775  0.500000  1
  Eu  Eu9  1  0.312775  0.474258  0.500000  1
  Ga  Ga10  1  0.250000  0.250000  0.000000  1
  Ga  Ga11  1  0.750000  0.750000  0.000000  1
  Cu  Cu12  1  0.115052  0.615052  0.730102  1
  Cu  Cu13  1  0.884948  0.384948  0.269898  1
  Cu  Cu14  1  0.615052  0.884948  0.500000  1
  Cu  Cu15  1  0.384948  0.115052  0.500000  1
