# generated using pymatgen
data_Ta2Nb10Fe5Co3(ReN)4
_symmetry_space_group_name_H-M   'P 1'
_cell_length_a   8.13287244
_cell_length_b   8.13308343
_cell_length_c   8.13076700
_cell_angle_alpha   60.00927883
_cell_angle_beta   60.00860807
_cell_angle_gamma   59.98334779
_symmetry_Int_Tables_number   1
_chemical_formula_structural   Ta2Nb10Fe5Co3(ReN)4
_chemical_formula_sum   'Ta2 Nb10 Fe5 Co3 Re4 N4'
_cell_volume   380.29419906
_cell_formula_units_Z   1
loop_
 _symmetry_equiv_pos_site_id
 _symmetry_equiv_pos_as_xyz
  1  'x, y, z'
loop_
 _atom_site_type_symbol
 _atom_site_label
 _atom_site_symmetry_multiplicity
 _atom_site_fract_x
 _atom_site_fract_y
 _atom_site_fract_z
 _atom_site_occupancy
  Ta  Ta0  1  0.805298  0.805848  0.194503  1
  Ta  Ta1  1  0.194110  0.194354  0.805767  1
  Nb  Nb2  1  0.806082  0.193636  0.806676  1
  Nb  Nb3  1  0.193273  0.806549  0.193633  1
  Nb  Nb4  1  0.193354  0.806550  0.806548  1
  Nb  Nb5  1  0.806082  0.193550  0.193689  1
  Nb  Nb6  1  0.442053  0.442856  0.057585  1
  Nb  Nb7  1  0.057516  0.058052  0.442205  1
  Nb  Nb8  1  0.442929  0.056704  0.443678  1
  Nb  Nb9  1  0.056660  0.443079  0.057233  1
  Nb  Nb10  1  0.056659  0.443125  0.443052  1
  Nb  Nb11  1  0.442885  0.056701  0.056755  1
  Fe  Fe12  1  0.729989  0.423637  0.423171  1
  Fe  Fe13  1  0.423279  0.729090  0.423799  1
  Fe  Fe14  1  0.422997  0.423765  0.729096  1
  Fe  Fe15  1  0.422971  0.423744  0.424134  1
  Fe  Fe16  1  0.521815  0.826619  0.825763  1
  Co  Co17  1  0.828628  0.517033  0.827149  1
  Co  Co18  1  0.827964  0.827190  0.516752  1
  Co  Co19  1  0.827927  0.827160  0.828033  1
  Re  Re20  1  0.125550  0.624601  0.624863  1
  Re  Re21  1  0.624319  0.124848  0.625372  1
  Re  Re22  1  0.624387  0.625394  0.124904  1
  Re  Re23  1  0.624487  0.625461  0.625240  1
  N  N24  1  0.625989  0.122359  0.125838  1
  N  N25  1  0.121994  0.626230  0.125898  1
  N  N26  1  0.125401  0.125929  0.626193  1
  N  N27  1  0.125399  0.125932  0.122472  1
