# generated using pymatgen
data_Ca2Zn9Pt
_symmetry_space_group_name_H-M   'P 1'
_cell_length_a   6.92065999
_cell_length_b   6.92066187
_cell_length_c   6.92001124
_cell_angle_alpha   135.41928874
_cell_angle_beta   103.99528314
_cell_angle_gamma   92.63567027
_symmetry_Int_Tables_number   1
_chemical_formula_structural   Ca2Zn9Pt
_chemical_formula_sum   'Ca2 Zn9 Pt1'
_cell_volume   213.83201910
_cell_formula_units_Z   1
loop_
 _symmetry_equiv_pos_site_id
 _symmetry_equiv_pos_as_xyz
  1  'x, y, z'
loop_
 _atom_site_type_symbol
 _atom_site_label
 _atom_site_symmetry_multiplicity
 _atom_site_fract_x
 _atom_site_fract_y
 _atom_site_fract_z
 _atom_site_occupancy
  Ca  Ca0  1  0.765243  0.497497  0.762740  1
  Ca  Ca1  1  0.234757  0.502503  0.237260  1
  Zn  Zn2  1  0.082365  0.835718  0.752595  1
  Zn  Zn3  1  0.416877  0.170231  0.752595  1
  Zn  Zn4  1  0.583123  0.829769  0.247405  1
  Zn  Zn5  1  0.917635  0.164282  0.247405  1
  Zn  Zn6  1  0.500000  0.000000  0.000000  1
  Zn  Zn7  1  0.748211  0.997934  0.747476  1
  Zn  Zn8  1  0.750458  0.500734  0.252524  1
  Zn  Zn9  1  0.249542  0.499266  0.747476  1
  Zn  Zn10  1  0.251789  0.002066  0.252524  1
  Pt  Pt11  1  0.000000  0.000000  0.500000  1
