# generated using pymatgen
data_LiRhSe4
_symmetry_space_group_name_H-M   'P 1'
_cell_length_a   6.10576100
_cell_length_b   6.28585526
_cell_length_c   6.14209634
_cell_angle_alpha   91.71498949
_cell_angle_beta   90.00000000
_cell_angle_gamma   90.00000000
_symmetry_Int_Tables_number   1
_chemical_formula_structural   LiRhSe4
_chemical_formula_sum   'Li2 Rh2 Se8'
_cell_volume   235.62763382
_cell_formula_units_Z   2
loop_
 _symmetry_equiv_pos_site_id
 _symmetry_equiv_pos_as_xyz
  1  'x, y, z'
loop_
 _atom_site_type_symbol
 _atom_site_label
 _atom_site_symmetry_multiplicity
 _atom_site_fract_x
 _atom_site_fract_y
 _atom_site_fract_z
 _atom_site_occupancy
  Li  Li0  1  0.500000  0.000000  0.500000  1
  Li  Li1  1  0.000000  0.000000  0.000000  1
  Rh  Rh2  1  0.500000  0.500000  0.000000  1
  Rh  Rh3  1  0.000000  0.500000  0.500000  1
  Se  Se4  1  0.896517  0.879201  0.608576  1
  Se  Se5  1  0.396517  0.120799  0.891424  1
  Se  Se6  1  0.121376  0.604382  0.124301  1
  Se  Se7  1  0.621376  0.395618  0.375699  1
  Se  Se8  1  0.103483  0.120799  0.391424  1
  Se  Se9  1  0.603483  0.879201  0.108576  1
  Se  Se10  1  0.878624  0.395618  0.875699  1
  Se  Se11  1  0.378624  0.604382  0.624301  1
