# generated using pymatgen
data_TbHo19(Bi2Pt)4
_symmetry_space_group_name_H-M   'P 1'
_cell_length_a   8.05378227
_cell_length_b   9.02762400
_cell_length_c   12.36175542
_cell_angle_alpha   90.00000000
_cell_angle_beta   90.02983139
_cell_angle_gamma   90.00000000
_symmetry_Int_Tables_number   1
_chemical_formula_structural   TbHo19(Bi2Pt)4
_chemical_formula_sum   'Tb1 Ho19 Bi8 Pt4'
_cell_volume   898.78007275
_cell_formula_units_Z   1
loop_
 _symmetry_equiv_pos_site_id
 _symmetry_equiv_pos_as_xyz
  1  'x, y, z'
loop_
 _atom_site_type_symbol
 _atom_site_label
 _atom_site_symmetry_multiplicity
 _atom_site_fract_x
 _atom_site_fract_y
 _atom_site_fract_z
 _atom_site_occupancy
  Tb  Tb0  1  0.165544  0.750000  0.210823  1
  Ho  Ho1  1  0.334501  0.750000  0.710239  1
  Ho  Ho2  1  0.834449  0.250000  0.789680  1
  Ho  Ho3  1  0.665490  0.250000  0.289813  1
  Ho  Ho4  1  0.452124  0.750000  0.999789  1
  Ho  Ho5  1  0.048055  0.750000  0.500137  1
  Ho  Ho6  1  0.548401  0.250000  0.999973  1
  Ho  Ho7  1  0.951756  0.250000  0.500181  1
  Ho  Ho8  1  0.627698  0.750000  0.303612  1
  Ho  Ho9  1  0.872631  0.750000  0.803483  1
  Ho  Ho10  1  0.372637  0.250000  0.696453  1
  Ho  Ho11  1  0.127287  0.250000  0.196462  1
  Ho  Ho12  1  0.821788  0.547491  0.066375  1
  Ho  Ho13  1  0.678004  0.952321  0.566606  1
  Ho  Ho14  1  0.178097  0.047745  0.933370  1
  Ho  Ho15  1  0.322041  0.452153  0.433489  1
  Ho  Ho16  1  0.178097  0.452255  0.933370  1
  Ho  Ho17  1  0.322041  0.047847  0.433489  1
  Ho  Ho18  1  0.821788  0.952509  0.066375  1
  Ho  Ho19  1  0.678004  0.547679  0.566606  1
  Bi  Bi20  1  0.931861  0.509190  0.327320  1
  Bi  Bi21  1  0.567508  0.990330  0.826939  1
  Bi  Bi22  1  0.067566  0.009763  0.673083  1
  Bi  Bi23  1  0.433028  0.489902  0.172903  1
  Bi  Bi24  1  0.067566  0.490237  0.673083  1
  Bi  Bi25  1  0.433028  0.010098  0.172903  1
  Bi  Bi26  1  0.931861  0.990810  0.327320  1
  Bi  Bi27  1  0.567508  0.509670  0.826939  1
  Pt  Pt28  1  0.420396  0.750000  0.487881  1
  Pt  Pt29  1  0.079363  0.750000  0.987092  1
  Pt  Pt30  1  0.579468  0.250000  0.512137  1
  Pt  Pt31  1  0.920415  0.250000  0.012075  1
