# generated using pymatgen
data_CaTbSc2(ReB6)2
_symmetry_space_group_name_H-M   'P 1'
_cell_length_a   3.57697000
_cell_length_b   9.04626335
_cell_length_c   11.41704844
_cell_angle_alpha   90.03195084
_cell_angle_beta   90.00000000
_cell_angle_gamma   90.00000000
_symmetry_Int_Tables_number   1
_chemical_formula_structural   CaTbSc2(ReB6)2
_chemical_formula_sum   'Ca2 Tb2 Sc4 Re4 B24'
_cell_volume   369.43522361
_cell_formula_units_Z   2
loop_
 _symmetry_equiv_pos_site_id
 _symmetry_equiv_pos_as_xyz
  1  'x, y, z'
loop_
 _atom_site_type_symbol
 _atom_site_label
 _atom_site_symmetry_multiplicity
 _atom_site_fract_x
 _atom_site_fract_y
 _atom_site_fract_z
 _atom_site_occupancy
  Ca  Ca0  1  0.000000  0.322881  0.414618  1
  Ca  Ca1  1  0.000000  0.677119  0.585382  1
  Tb  Tb2  1  0.000000  0.822157  0.085716  1
  Tb  Tb3  1  0.000000  0.177843  0.914284  1
  Sc  Sc4  1  0.000000  0.943278  0.368073  1
  Sc  Sc5  1  0.000000  0.056722  0.631927  1
  Sc  Sc6  1  0.000000  0.444310  0.130798  1
  Sc  Sc7  1  0.000000  0.555690  0.869202  1
  Re  Re8  1  0.000000  0.644139  0.317077  1
  Re  Re9  1  0.000000  0.355861  0.682923  1
  Re  Re10  1  0.000000  0.140847  0.182181  1
  Re  Re11  1  0.000000  0.859153  0.817819  1
  B  B12  1  0.500000  0.553986  0.432124  1
  B  B13  1  0.500000  0.446014  0.567876  1
  B  B14  1  0.500000  0.054442  0.067640  1
  B  B15  1  0.500000  0.945558  0.932360  1
  B  B16  1  0.500000  0.754410  0.418541  1
  B  B17  1  0.500000  0.245590  0.581459  1
  B  B18  1  0.500000  0.254383  0.081910  1
  B  B19  1  0.500000  0.745617  0.918090  1
  B  B20  1  0.500000  0.795790  0.264507  1
  B  B21  1  0.500000  0.204210  0.735493  1
  B  B22  1  0.500000  0.295868  0.235243  1
  B  B23  1  0.500000  0.704132  0.764757  1
  B  B24  1  0.500000  0.629111  0.182931  1
  B  B25  1  0.500000  0.370889  0.817069  1
  B  B26  1  0.500000  0.129380  0.317240  1
  B  B27  1  0.500000  0.870620  0.682760  1
  B  B28  1  0.500000  0.981760  0.213824  1
  B  B29  1  0.500000  0.018240  0.786176  1
  B  B30  1  0.500000  0.481648  0.286270  1
  B  B31  1  0.500000  0.518352  0.713730  1
  B  B32  1  0.500000  0.594297  0.025685  1
  B  B33  1  0.500000  0.405703  0.974315  1
  B  B34  1  0.500000  0.092093  0.474897  1
  B  B35  1  0.500000  0.907907  0.525103  1
