# generated using pymatgen
data_DySc7Ti12Si15Ge
_symmetry_space_group_name_H-M   'P 1'
_cell_length_a   6.90773739
_cell_length_b   6.89889388
_cell_length_c   12.67212070
_cell_angle_alpha   90.05180239
_cell_angle_beta   89.85391443
_cell_angle_gamma   89.97801853
_symmetry_Int_Tables_number   1
_chemical_formula_structural   DySc7Ti12Si15Ge
_chemical_formula_sum   'Dy1 Sc7 Ti12 Si15 Ge1'
_cell_volume   603.89712580
_cell_formula_units_Z   1
loop_
 _symmetry_equiv_pos_site_id
 _symmetry_equiv_pos_as_xyz
  1  'x, y, z'
loop_
 _atom_site_type_symbol
 _atom_site_label
 _atom_site_symmetry_multiplicity
 _atom_site_fract_x
 _atom_site_fract_y
 _atom_site_fract_z
 _atom_site_occupancy
  Dy  Dy0  1  0.340205  0.006047  0.467155  1
  Sc  Sc1  1  0.998766  0.658709  0.032709  1
  Sc  Sc2  1  0.999673  0.340759  0.535563  1
  Sc  Sc3  1  0.658540  0.998997  0.966805  1
  Sc  Sc4  1  0.158410  0.501056  0.784246  1
  Sc  Sc5  1  0.838399  0.497879  0.280240  1
  Sc  Sc6  1  0.500990  0.158471  0.215612  1
  Sc  Sc7  1  0.499872  0.841080  0.717628  1
  Ti  Ti8  1  0.353513  0.505056  0.374024  1
  Ti  Ti9  1  0.847386  0.996856  0.373231  1
  Ti  Ti10  1  0.005586  0.149128  0.123353  1
  Ti  Ti11  1  0.995558  0.849061  0.628091  1
  Ti  Ti12  1  0.510120  0.350056  0.626892  1
  Ti  Ti13  1  0.148822  0.006302  0.875879  1
  Ti  Ti14  1  0.670254  0.671891  0.500859  1
  Ti  Ti15  1  0.827162  0.173311  0.751371  1
  Ti  Ti16  1  0.173069  0.827496  0.247352  1
  Ti  Ti17  1  0.326959  0.327437  0.999882  1
  Ti  Ti18  1  0.493675  0.648510  0.123556  1
  Ti  Ti19  1  0.648794  0.493568  0.875517  1
  Si  Si20  1  0.953238  0.296704  0.935481  1
  Si  Si21  1  0.710609  0.047034  0.566046  1
  Si  Si22  1  0.203363  0.454782  0.184090  1
  Si  Si23  1  0.797274  0.547035  0.686313  1
  Si  Si24  1  0.453602  0.203401  0.815493  1
  Si  Si25  1  0.549297  0.793163  0.312222  1
  Si  Si26  1  0.296421  0.953575  0.063892  1
  Si  Si27  1  0.795787  0.863248  0.179048  1
  Si  Si28  1  0.297414  0.630874  0.573306  1
  Si  Si29  1  0.704368  0.363012  0.069555  1
  Si  Si30  1  0.641544  0.299612  0.430857  1
  Si  Si31  1  0.363043  0.704499  0.929817  1
  Si  Si32  1  0.131266  0.208753  0.316021  1
  Si  Si33  1  0.203381  0.137547  0.683164  1
  Si  Si34  1  0.863126  0.795135  0.821015  1
  Ge  Ge35  1  0.040514  0.699954  0.433714  1
