# generated using pymatgen
data_DyHo3(CdPd2)2
_symmetry_space_group_name_H-M   'P 1'
_cell_length_a   7.77468920
_cell_length_b   7.77468920
_cell_length_c   3.64498600
_cell_angle_alpha   90.00000000
_cell_angle_beta   90.00000000
_cell_angle_gamma   90.10389560
_symmetry_Int_Tables_number   1
_chemical_formula_structural   DyHo3(CdPd2)2
_chemical_formula_sum   'Dy1 Ho3 Cd2 Pd4'
_cell_volume   220.32370369
_cell_formula_units_Z   1
loop_
 _symmetry_equiv_pos_site_id
 _symmetry_equiv_pos_as_xyz
  1  'x, y, z'
loop_
 _atom_site_type_symbol
 _atom_site_label
 _atom_site_symmetry_multiplicity
 _atom_site_fract_x
 _atom_site_fract_y
 _atom_site_fract_z
 _atom_site_occupancy
  Dy  Dy0  1  0.671246  0.171246  0.500000  1
  Ho  Ho1  1  0.328682  0.828682  0.500000  1
  Ho  Ho2  1  0.829223  0.671006  0.500000  1
  Ho  Ho3  1  0.171006  0.329223  0.500000  1
  Cd  Cd4  1  0.000166  0.999810  0.000000  1
  Cd  Cd5  1  0.499810  0.500166  0.000000  1
  Pd  Pd6  1  0.370397  0.128648  0.000000  1
  Pd  Pd7  1  0.871548  0.371548  0.000000  1
  Pd  Pd8  1  0.129273  0.629273  0.000000  1
  Pd  Pd9  1  0.628648  0.870397  0.000000  1
