# generated using pymatgen
data_Li2MgPb3O8
_symmetry_space_group_name_H-M   'P 1'
_cell_length_a   6.36348818
_cell_length_b   6.36344776
_cell_length_c   6.36348324
_cell_angle_alpha   62.41006526
_cell_angle_beta   62.40980813
_cell_angle_gamma   62.40993365
_symmetry_Int_Tables_number   1
_chemical_formula_structural   Li2MgPb3O8
_chemical_formula_sum   'Li2 Mg1 Pb3 O8'
_cell_volume   192.00034632
_cell_formula_units_Z   1
loop_
 _symmetry_equiv_pos_site_id
 _symmetry_equiv_pos_as_xyz
  1  'x, y, z'
loop_
 _atom_site_type_symbol
 _atom_site_label
 _atom_site_symmetry_multiplicity
 _atom_site_fract_x
 _atom_site_fract_y
 _atom_site_fract_z
 _atom_site_occupancy
  Li  Li0  1  0.118479  0.118481  0.118477  1
  Li  Li1  1  0.881487  0.881488  0.881488  1
  Mg  Mg2  1  0.500068  0.500068  0.500071  1
  Pb  Pb3  1  0.500002  0.499982  0.000013  1
  Pb  Pb4  1  0.499990  0.000024  0.499994  1
  Pb  Pb5  1  0.000015  0.499989  0.500006  1
  O  O6  1  0.253096  0.253099  0.253096  1
  O  O7  1  0.716304  0.264137  0.264135  1
  O  O8  1  0.264136  0.716305  0.264136  1
  O  O9  1  0.264135  0.264140  0.716306  1
  O  O10  1  0.735850  0.735851  0.283677  1
  O  O11  1  0.735852  0.283677  0.735847  1
  O  O12  1  0.283680  0.735853  0.735851  1
  O  O13  1  0.746904  0.746907  0.746904  1
