# generated using pymatgen
data_Hf16Nb4Si15Sn
_symmetry_space_group_name_H-M   'P 1'
_cell_length_a   6.80339414
_cell_length_b   6.97703747
_cell_length_c   13.44197471
_cell_angle_alpha   90.08383486
_cell_angle_beta   89.65756480
_cell_angle_gamma   90.00417656
_symmetry_Int_Tables_number   1
_chemical_formula_structural   Hf16Nb4Si15Sn
_chemical_formula_sum   'Hf16 Nb4 Si15 Sn1'
_cell_volume   638.04533617
_cell_formula_units_Z   1
loop_
 _symmetry_equiv_pos_site_id
 _symmetry_equiv_pos_as_xyz
  1  'x, y, z'
loop_
 _atom_site_type_symbol
 _atom_site_label
 _atom_site_symmetry_multiplicity
 _atom_site_fract_x
 _atom_site_fract_y
 _atom_site_fract_z
 _atom_site_occupancy
  Hf  Hf0  1  0.338221  0.676188  0.876826  1
  Hf  Hf1  1  0.836603  0.824575  0.876306  1
  Hf  Hf2  1  0.653792  0.340655  0.370362  1
  Hf  Hf3  1  0.999879  0.675736  0.093633  1
  Hf  Hf4  1  0.481613  0.812873  0.399865  1
  Hf  Hf5  1  0.500751  0.176655  0.904179  1
  Hf  Hf6  1  0.495617  0.183174  0.600631  1
  Hf  Hf7  1  0.001516  0.324100  0.905800  1
  Hf  Hf8  1  0.164787  0.175498  0.123258  1
  Hf  Hf9  1  0.169207  0.175736  0.373843  1
  Hf  Hf10  1  0.000700  0.664973  0.403803  1
  Hf  Hf11  1  0.663860  0.326034  0.123074  1
  Hf  Hf12  1  0.499433  0.824108  0.094692  1
  Hf  Hf13  1  0.008604  0.330723  0.598870  1
  Hf  Hf14  1  0.337533  0.673030  0.626313  1
  Hf  Hf15  1  0.845258  0.815460  0.630628  1
  Nb  Nb16  1  0.665418  0.500752  0.751116  1
  Nb  Nb17  1  0.165835  0.998684  0.751430  1
  Nb  Nb18  1  0.334519  0.499579  0.248472  1
  Nb  Nb19  1  0.835696  0.003408  0.243839  1
  Si  Si20  1  0.675659  0.531309  0.538410  1
  Si  Si21  1  0.171332  0.970815  0.960390  1
  Si  Si22  1  0.297817  0.360750  0.752841  1
  Si  Si23  1  0.829098  0.030123  0.038527  1
  Si  Si24  1  0.328071  0.469892  0.038627  1
  Si  Si25  1  0.463194  0.103277  0.248190  1
  Si  Si26  1  0.704411  0.644069  0.247003  1
  Si  Si27  1  0.961121  0.392977  0.248842  1
  Si  Si28  1  0.799010  0.140347  0.750719  1
  Si  Si29  1  0.672901  0.530113  0.960789  1
  Si  Si30  1  0.182076  0.969462  0.540047  1
  Si  Si31  1  0.041593  0.602487  0.753846  1
  Si  Si32  1  0.323085  0.466587  0.464115  1
  Si  Si33  1  0.539277  0.894908  0.750475  1
  Si  Si34  1  0.198649  0.859706  0.248460  1
  Sn  Sn35  1  0.813869  0.031239  0.461780  1
