# generated using pymatgen
data_Nd4B16Os3Ru11
_symmetry_space_group_name_H-M   'P 1'
_cell_length_a   6.48281423
_cell_length_b   6.47954523
_cell_length_c   10.13731700
_cell_angle_alpha   90.00000000
_cell_angle_beta   90.00000000
_cell_angle_gamma   89.96937709
_symmetry_Int_Tables_number   1
_chemical_formula_structural   Nd4B16Os3Ru11
_chemical_formula_sum   'Nd4 B16 Os3 Ru11'
_cell_volume   425.82491464
_cell_formula_units_Z   1
loop_
 _symmetry_equiv_pos_site_id
 _symmetry_equiv_pos_as_xyz
  1  'x, y, z'
loop_
 _atom_site_type_symbol
 _atom_site_label
 _atom_site_symmetry_multiplicity
 _atom_site_fract_x
 _atom_site_fract_y
 _atom_site_fract_z
 _atom_site_occupancy
  Nd  Nd0  1  0.733576  0.875228  0.000000  1
  Nd  Nd1  1  0.124345  0.734742  0.500000  1
  Nd  Nd2  1  0.880208  0.265368  0.500000  1
  Nd  Nd3  1  0.265508  0.124392  0.000000  1
  B  B4  1  0.500575  0.000074  0.589266  1
  B  B5  1  0.500575  0.000074  0.410734  1
  B  B6  1  0.898166  0.273489  0.167025  1
  B  B7  1  0.101886  0.726452  0.832956  1
  B  B8  1  0.499269  0.500643  0.340453  1
  B  B9  1  0.500187  0.500119  0.840875  1
  B  B10  1  0.271124  0.101693  0.665994  1
  B  B11  1  0.101886  0.726452  0.167044  1
  B  B12  1  0.271124  0.101693  0.334006  1
  B  B13  1  0.898166  0.273489  0.832975  1
  B  B14  1  0.499269  0.500643  0.659547  1
  B  B15  1  0.500187  0.500119  0.159125  1
  B  B16  1  0.999982  0.499918  0.911016  1
  B  B17  1  0.726899  0.897995  0.667352  1
  B  B18  1  0.726899  0.897995  0.332648  1
  B  B19  1  0.999982  0.499918  0.088984  1
  Os  Os20  1  0.399582  0.286995  0.500000  1
  Os  Os21  1  0.999629  0.999822  0.249550  1
  Os  Os22  1  0.999629  0.999822  0.750450  1
  Ru  Ru23  1  0.204703  0.400289  0.751929  1
  Ru  Ru24  1  0.399745  0.796019  0.251807  1
  Ru  Ru25  1  0.204703  0.400289  0.248071  1
  Ru  Ru26  1  0.599761  0.712279  0.500000  1
  Ru  Ru27  1  0.600711  0.204157  0.748342  1
  Ru  Ru28  1  0.286947  0.599566  0.000000  1
  Ru  Ru29  1  0.712970  0.399721  0.000000  1
  Ru  Ru30  1  0.795677  0.600185  0.247762  1
  Ru  Ru31  1  0.795677  0.600185  0.752238  1
  Ru  Ru32  1  0.399745  0.796019  0.748193  1
  Ru  Ru33  1  0.600711  0.204157  0.251658  1
