# generated using pymatgen
data_NdNi4Sn
_symmetry_space_group_name_H-M   'P 1'
_cell_length_a   5.18956212
_cell_length_b   5.18956278
_cell_length_c   4.12928300
_cell_angle_alpha   90.00000000
_cell_angle_beta   90.00000000
_cell_angle_gamma   120.50365719
_symmetry_Int_Tables_number   1
_chemical_formula_structural   NdNi4Sn
_chemical_formula_sum   'Nd1 Ni4 Sn1'
_cell_volume   95.81647554
_cell_formula_units_Z   1
loop_
 _symmetry_equiv_pos_site_id
 _symmetry_equiv_pos_as_xyz
  1  'x, y, z'
loop_
 _atom_site_type_symbol
 _atom_site_label
 _atom_site_symmetry_multiplicity
 _atom_site_fract_x
 _atom_site_fract_y
 _atom_site_fract_z
 _atom_site_occupancy
  Nd  Nd0  1  0.000000  0.000000  0.000000  1
  Ni  Ni1  1  0.684896  0.315104  0.000000  1
  Ni  Ni2  1  0.315104  0.684896  0.000000  1
  Ni  Ni3  1  0.500000  0.000000  0.500000  1
  Ni  Ni4  1  0.000000  0.500000  0.500000  1
  Sn  Sn5  1  0.500000  0.500000  0.500000  1
