# generated using pymatgen
data_Nd3Th(CdSi2)2
_symmetry_space_group_name_H-M   'P 1'
_cell_length_a   7.41327562
_cell_length_b   7.41327562
_cell_length_c   4.31085400
_cell_angle_alpha   90.00000000
_cell_angle_beta   90.00000000
_cell_angle_gamma   89.81535871
_symmetry_Int_Tables_number   1
_chemical_formula_structural   Nd3Th(CdSi2)2
_chemical_formula_sum   'Nd3 Th1 Cd2 Si4'
_cell_volume   236.90888789
_cell_formula_units_Z   1
loop_
 _symmetry_equiv_pos_site_id
 _symmetry_equiv_pos_as_xyz
  1  'x, y, z'
loop_
 _atom_site_type_symbol
 _atom_site_label
 _atom_site_symmetry_multiplicity
 _atom_site_fract_x
 _atom_site_fract_y
 _atom_site_fract_z
 _atom_site_occupancy
  Nd  Nd0  1  0.819341  0.319772  0.500001  1
  Nd  Nd1  1  0.180228  0.680660  0.500001  1
  Nd  Nd2  1  0.681458  0.818543  0.500001  1
  Th  Th3  1  0.320924  0.179076  0.500001  1
  Cd  Cd4  1  0.998158  0.998441  0.000000  1
  Cd  Cd5  1  0.501559  0.501842  0.000000  1
  Si  Si6  1  0.612608  0.114980  0.000000  1
  Si  Si7  1  0.114978  0.385022  0.000000  1
  Si  Si8  1  0.885727  0.614274  0.000000  1
  Si  Si9  1  0.385020  0.887393  0.000000  1
