# generated using pymatgen
data_Ti12CrRe5Ir6
_symmetry_space_group_name_H-M   'P 1'
_cell_length_a   4.37918100
_cell_length_b   6.20124500
_cell_length_c   13.16967500
_cell_angle_alpha   89.99855278
_cell_angle_beta   90.00062754
_cell_angle_gamma   90.00073592
_symmetry_Int_Tables_number   1
_chemical_formula_structural   Ti12CrRe5Ir6
_chemical_formula_sum   'Ti12 Cr1 Re5 Ir6'
_cell_volume   357.64062337
_cell_formula_units_Z   1
loop_
 _symmetry_equiv_pos_site_id
 _symmetry_equiv_pos_as_xyz
  1  'x, y, z'
loop_
 _atom_site_type_symbol
 _atom_site_label
 _atom_site_symmetry_multiplicity
 _atom_site_fract_x
 _atom_site_fract_y
 _atom_site_fract_z
 _atom_site_occupancy
  Ti  Ti0  1  0.500005  0.252290  0.997780  1
  Ti  Ti1  1  0.499991  0.747702  0.997780  1
  Ti  Ti2  1  0.999985  0.249610  0.166186  1
  Ti  Ti3  1  0.999992  0.750383  0.166185  1
  Ti  Ti4  1  0.499992  0.250219  0.333339  1
  Ti  Ti5  1  0.499988  0.749778  0.333339  1
  Ti  Ti6  1  0.000008  0.249599  0.500491  1
  Ti  Ti7  1  0.999996  0.750405  0.500496  1
  Ti  Ti8  1  0.500018  0.252306  0.668874  1
  Ti  Ti9  1  0.500004  0.747699  0.668872  1
  Ti  Ti10  1  0.000015  0.254005  0.833330  1
  Ti  Ti11  1  0.000007  0.745987  0.833326  1
  Cr  Cr12  1  0.500007  0.500038  0.833328  1
  Re  Re13  1  0.999998  0.999993  0.000112  1
  Re  Re14  1  0.500004  0.499981  0.166868  1
  Re  Re15  1  0.999976  0.999995  0.333342  1
  Re  Re16  1  0.500000  0.499993  0.499809  1
  Re  Re17  1  0.000005  0.000004  0.666549  1
  Ir  Ir18  1  0.000020  0.500012  0.999726  1
  Ir  Ir19  1  0.499984  0.000000  0.166490  1
  Ir  Ir20  1  0.999998  0.500006  0.333328  1
  Ir  Ir21  1  0.500004  0.000011  0.500171  1
  Ir  Ir22  1  0.999999  0.499985  0.666941  1
  Ir  Ir23  1  0.500021  0.999998  0.833338  1
