# generated using pymatgen
data_NiSb12Pt2Rh
_symmetry_space_group_name_H-M   'P 1'
_cell_length_a   8.16928960
_cell_length_b   8.15338404
_cell_length_c   9.44210471
_cell_angle_alpha   54.80836769
_cell_angle_beta   54.90035412
_cell_angle_gamma   70.63946104
_symmetry_Int_Tables_number   1
_chemical_formula_structural   NiSb12Pt2Rh
_chemical_formula_sum   'Ni1 Sb12 Pt2 Rh1'
_cell_volume   420.50336397
_cell_formula_units_Z   1
loop_
 _symmetry_equiv_pos_site_id
 _symmetry_equiv_pos_as_xyz
  1  'x, y, z'
loop_
 _atom_site_type_symbol
 _atom_site_label
 _atom_site_symmetry_multiplicity
 _atom_site_fract_x
 _atom_site_fract_y
 _atom_site_fract_z
 _atom_site_occupancy
  Ni  Ni0  1  0.500000  0.000000  0.500000  1
  Sb  Sb1  1  0.151907  0.151599  0.192802  1
  Sb  Sb2  1  0.848093  0.848401  0.807198  1
  Sb  Sb3  1  0.838191  0.844169  0.497743  1
  Sb  Sb4  1  0.161809  0.155831  0.502257  1
  Sb  Sb5  1  0.811157  0.503331  0.346418  1
  Sb  Sb6  1  0.188843  0.496669  0.653582  1
  Sb  Sb7  1  0.502443  0.816052  0.347804  1
  Sb  Sb8  1  0.497557  0.183948  0.652196  1
  Sb  Sb9  1  0.661066  0.346541  0.842592  1
  Sb  Sb10  1  0.338934  0.653459  0.157408  1
  Sb  Sb11  1  0.652362  0.333718  0.163853  1
  Sb  Sb12  1  0.347638  0.666282  0.836147  1
  Pt  Pt13  1  0.000000  0.500000  0.000000  1
  Pt  Pt14  1  0.500000  0.000000  0.000000  1
  Rh  Rh15  1  0.000000  0.500000  0.500000  1
