# generated using pymatgen
data_Tm16Hf3ScIr12
_symmetry_space_group_name_H-M   'P 1'
_cell_length_a   10.70135600
_cell_length_b   10.70135600
_cell_length_c   6.19724100
_cell_angle_alpha   90.00000000
_cell_angle_beta   90.00000000
_cell_angle_gamma   90.00000000
_symmetry_Int_Tables_number   1
_chemical_formula_structural   Tm16Hf3ScIr12
_chemical_formula_sum   'Tm16 Hf3 Sc1 Ir12'
_cell_volume   709.70196750
_cell_formula_units_Z   1
loop_
 _symmetry_equiv_pos_site_id
 _symmetry_equiv_pos_as_xyz
  1  'x, y, z'
loop_
 _atom_site_type_symbol
 _atom_site_label
 _atom_site_symmetry_multiplicity
 _atom_site_fract_x
 _atom_site_fract_y
 _atom_site_fract_z
 _atom_site_occupancy
  Tm  Tm0  1  0.288911  0.085660  0.374008  1
  Tm  Tm1  1  0.289512  0.913822  0.874787  1
  Tm  Tm2  1  0.710488  0.086178  0.874787  1
  Tm  Tm3  1  0.711089  0.914340  0.374008  1
  Tm  Tm4  1  0.586323  0.789713  0.874097  1
  Tm  Tm5  1  0.586012  0.210089  0.373748  1
  Tm  Tm6  1  0.413988  0.789911  0.373748  1
  Tm  Tm7  1  0.413677  0.210287  0.874097  1
  Tm  Tm8  1  0.210089  0.413988  0.626252  1
  Tm  Tm9  1  0.210287  0.586323  0.125903  1
  Tm  Tm10  1  0.789713  0.413677  0.125903  1
  Tm  Tm11  1  0.789911  0.586012  0.626252  1
  Tm  Tm12  1  0.913822  0.710488  0.125213  1
  Tm  Tm13  1  0.914340  0.288911  0.625992  1
  Tm  Tm14  1  0.085660  0.711089  0.625992  1
  Tm  Tm15  1  0.086178  0.289512  0.125213  1
  Hf  Hf16  1  0.000000  0.000000  0.000000  1
  Hf  Hf17  1  0.500000  0.500000  0.000000  1
  Hf  Hf18  1  0.500000  0.500000  0.500000  1
  Sc  Sc19  1  0.000000  0.000000  0.500000  1
  Ir  Ir20  1  0.853529  0.146840  0.245853  1
  Ir  Ir21  1  0.853160  0.853529  0.754147  1
  Ir  Ir22  1  0.146840  0.146471  0.754147  1
  Ir  Ir23  1  0.146471  0.853160  0.245853  1
  Ir  Ir24  1  0.644975  0.355052  0.749495  1
  Ir  Ir25  1  0.644948  0.644975  0.250505  1
  Ir  Ir26  1  0.355052  0.355025  0.250505  1
  Ir  Ir27  1  0.355025  0.644948  0.749495  1
  Ir  Ir28  1  0.500000  0.000000  0.122675  1
  Ir  Ir29  1  0.500000  0.000000  0.622345  1
  Ir  Ir30  1  0.000000  0.500000  0.877325  1
  Ir  Ir31  1  0.000000  0.500000  0.377655  1
