# generated using pymatgen
data_Sc4Al6IrRu
_symmetry_space_group_name_H-M   'P 1'
_cell_length_a   5.30774300
_cell_length_b   5.30774215
_cell_length_c   8.51533700
_cell_angle_alpha   90.00000000
_cell_angle_beta   90.00000000
_cell_angle_gamma   120.00001155
_symmetry_Int_Tables_number   1
_chemical_formula_structural   Sc4Al6IrRu
_chemical_formula_sum   'Sc4 Al6 Ir1 Ru1'
_cell_volume   207.75530577
_cell_formula_units_Z   1
loop_
 _symmetry_equiv_pos_site_id
 _symmetry_equiv_pos_as_xyz
  1  'x, y, z'
loop_
 _atom_site_type_symbol
 _atom_site_label
 _atom_site_symmetry_multiplicity
 _atom_site_fract_x
 _atom_site_fract_y
 _atom_site_fract_z
 _atom_site_occupancy
  Sc  Sc0  1  0.333333  0.666667  0.057430  1
  Sc  Sc1  1  0.666667  0.333333  0.554374  1
  Sc  Sc2  1  0.333333  0.666667  0.445626  1
  Sc  Sc3  1  0.666667  0.333333  0.942570  1
  Al  Al4  1  0.834306  0.668612  0.250120  1
  Al  Al5  1  0.165694  0.834306  0.749880  1
  Al  Al6  1  0.668612  0.834306  0.749880  1
  Al  Al7  1  0.331388  0.165694  0.250120  1
  Al  Al8  1  0.834306  0.165694  0.250120  1
  Al  Al9  1  0.165694  0.331388  0.749880  1
  Ir  Ir10  1  0.000000  0.000000  0.500000  1
  Ru  Ru11  1  0.000000  0.000000  0.000000  1
