# generated using pymatgen
data_Zr2Sc2MnTc7
_symmetry_space_group_name_H-M   'P 1'
_cell_length_a   5.22489800
_cell_length_b   5.22489815
_cell_length_c   8.61575100
_cell_angle_alpha   90.00000000
_cell_angle_beta   90.00000000
_cell_angle_gamma   120.00001169
_symmetry_Int_Tables_number   1
_chemical_formula_structural   Zr2Sc2MnTc7
_chemical_formula_sum   'Zr2 Sc2 Mn1 Tc7'
_cell_volume   203.69452952
_cell_formula_units_Z   1
loop_
 _symmetry_equiv_pos_site_id
 _symmetry_equiv_pos_as_xyz
  1  'x, y, z'
loop_
 _atom_site_type_symbol
 _atom_site_label
 _atom_site_symmetry_multiplicity
 _atom_site_fract_x
 _atom_site_fract_y
 _atom_site_fract_z
 _atom_site_occupancy
  Zr  Zr0  1  0.666667  0.333333  0.936510  1
  Zr  Zr1  1  0.333333  0.666667  0.435916  1
  Sc  Sc2  1  0.333333  0.666667  0.063148  1
  Sc  Sc3  1  0.666667  0.333333  0.563242  1
  Mn  Mn4  1  0.000000  0.000000  0.000683  1
  Tc  Tc5  1  0.000000  0.000000  0.500673  1
  Tc  Tc6  1  0.170757  0.341513  0.754016  1
  Tc  Tc7  1  0.829158  0.170842  0.245926  1
  Tc  Tc8  1  0.829158  0.658317  0.245926  1
  Tc  Tc9  1  0.170757  0.829243  0.754016  1
  Tc  Tc10  1  0.658487  0.829243  0.754016  1
  Tc  Tc11  1  0.341683  0.170842  0.245926  1
