# generated using pymatgen
data_Hf9Nb(ZnSn3)2
_symmetry_space_group_name_H-M   'P 1'
_cell_length_a   8.58833500
_cell_length_b   8.58833623
_cell_length_c   5.80981200
_cell_angle_alpha   90.00000000
_cell_angle_beta   90.00000000
_cell_angle_gamma   119.99999139
_symmetry_Int_Tables_number   1
_chemical_formula_structural   Hf9Nb(ZnSn3)2
_chemical_formula_sum   'Hf9 Nb1 Zn2 Sn6'
_cell_volume   371.11692730
_cell_formula_units_Z   1
loop_
 _symmetry_equiv_pos_site_id
 _symmetry_equiv_pos_as_xyz
  1  'x, y, z'
loop_
 _atom_site_type_symbol
 _atom_site_label
 _atom_site_symmetry_multiplicity
 _atom_site_fract_x
 _atom_site_fract_y
 _atom_site_fract_z
 _atom_site_occupancy
  Hf  Hf0  1  0.666667  0.333333  0.500000  1
  Hf  Hf1  1  0.666667  0.333333  0.000000  1
  Hf  Hf2  1  0.333333  0.666667  0.500000  1
  Hf  Hf3  1  0.267948  0.999762  0.248262  1
  Hf  Hf4  1  0.267948  0.268186  0.751738  1
  Hf  Hf5  1  0.000238  0.732052  0.751738  1
  Hf  Hf6  1  0.000238  0.268186  0.248262  1
  Hf  Hf7  1  0.731814  0.732052  0.248262  1
  Hf  Hf8  1  0.731814  0.999762  0.751738  1
  Nb  Nb9  1  0.333333  0.666667  0.000000  1
  Zn  Zn10  1  0.000000  0.000000  0.000000  1
  Zn  Zn11  1  0.000000  0.000000  0.500000  1
  Sn  Sn12  1  0.612488  0.998144  0.247378  1
  Sn  Sn13  1  0.612488  0.614345  0.752622  1
  Sn  Sn14  1  0.001856  0.387512  0.752622  1
  Sn  Sn15  1  0.001856  0.614345  0.247378  1
  Sn  Sn16  1  0.385655  0.387512  0.247378  1
  Sn  Sn17  1  0.385655  0.998144  0.752622  1
