# generated using pymatgen
data_Dy5Sc3P12Ir13Rh3
_symmetry_space_group_name_H-M   'P 1'
_cell_length_a   12.86729300
_cell_length_b   12.86729358
_cell_length_c   3.95453700
_cell_angle_alpha   90.00000000
_cell_angle_beta   90.00000000
_cell_angle_gamma   120.00000107
_symmetry_Int_Tables_number   1
_chemical_formula_structural   Dy5Sc3P12Ir13Rh3
_chemical_formula_sum   'Dy5 Sc3 P12 Ir13 Rh3'
_cell_volume   567.02299380
_cell_formula_units_Z   1
loop_
 _symmetry_equiv_pos_site_id
 _symmetry_equiv_pos_as_xyz
  1  'x, y, z'
loop_
 _atom_site_type_symbol
 _atom_site_label
 _atom_site_symmetry_multiplicity
 _atom_site_fract_x
 _atom_site_fract_y
 _atom_site_fract_z
 _atom_site_occupancy
  Dy  Dy0  1  0.333333  0.666667  0.500000  1
  Dy  Dy1  1  0.666667  0.333333  0.500000  1
  Dy  Dy2  1  0.999986  0.811447  0.000000  1
  Dy  Dy3  1  0.188553  0.188539  0.000000  1
  Dy  Dy4  1  0.811461  0.000014  0.000000  1
  Sc  Sc5  1  0.000011  0.444454  0.500000  1
  Sc  Sc6  1  0.555546  0.555557  0.500000  1
  Sc  Sc7  1  0.444443  0.999989  0.500000  1
  P  P8  1  0.999537  0.645199  0.500000  1
  P  P9  1  0.354801  0.354338  0.500000  1
  P  P10  1  0.645662  0.000463  0.500000  1
  P  P11  1  0.517248  0.688171  0.000000  1
  P  P12  1  0.311829  0.829077  0.000000  1
  P  P13  1  0.170923  0.482752  0.000000  1
  P  P14  1  0.483265  0.169711  0.000000  1
  P  P15  1  0.686446  0.516735  0.000000  1
  P  P16  1  0.830289  0.313554  0.000000  1
  P  P17  1  0.000272  0.177095  0.500000  1
  P  P18  1  0.822905  0.823177  0.500000  1
  P  P19  1  0.176823  0.999728  0.500000  1
  Ir  Ir20  1  0.489624  0.357688  0.000000  1
  Ir  Ir21  1  0.868065  0.510376  0.000000  1
  Ir  Ir22  1  0.642312  0.131935  0.000000  1
  Ir  Ir23  1  0.000190  0.277673  0.000000  1
  Ir  Ir24  1  0.722327  0.722517  0.000000  1
  Ir  Ir25  1  0.277483  0.999810  0.000000  1
  Ir  Ir26  1  0.626672  0.806025  0.500000  1
  Ir  Ir27  1  0.193975  0.820648  0.500000  1
  Ir  Ir28  1  0.179352  0.373328  0.500000  1
  Ir  Ir29  1  0.372366  0.178671  0.500000  1
  Ir  Ir30  1  0.806305  0.627634  0.500000  1
  Ir  Ir31  1  0.821329  0.193695  0.500000  1
  Ir  Ir32  1  0.000000  0.000000  0.500000  1
  Rh  Rh33  1  0.511146  0.869297  0.000000  1
  Rh  Rh34  1  0.130703  0.641850  0.000000  1
  Rh  Rh35  1  0.358150  0.488854  0.000000  1
