# generated using pymatgen
data_Th3Ga3NiIrPt
_symmetry_space_group_name_H-M   'P 1'
_cell_length_a   7.29002400
_cell_length_b   7.29002365
_cell_length_c   4.04277000
_cell_angle_alpha   90.00000000
_cell_angle_beta   90.00000000
_cell_angle_gamma   120.00001065
_symmetry_Int_Tables_number   1
_chemical_formula_structural   Th3Ga3NiIrPt
_chemical_formula_sum   'Th3 Ga3 Ni1 Ir1 Pt1'
_cell_volume   186.06621143
_cell_formula_units_Z   1
loop_
 _symmetry_equiv_pos_site_id
 _symmetry_equiv_pos_as_xyz
  1  'x, y, z'
loop_
 _atom_site_type_symbol
 _atom_site_label
 _atom_site_symmetry_multiplicity
 _atom_site_fract_x
 _atom_site_fract_y
 _atom_site_fract_z
 _atom_site_occupancy
  Th  Th0  1  0.409463  0.414338  0.500000  1
  Th  Th1  1  0.585662  0.995125  0.500000  1
  Th  Th2  1  0.004875  0.590537  0.500000  1
  Ga  Ga3  1  0.768005  0.769635  0.000000  1
  Ga  Ga4  1  0.230365  0.998370  0.000000  1
  Ga  Ga5  1  0.001630  0.231995  0.000000  1
  Ni  Ni6  1  0.000000  0.000000  0.500000  1
  Ir  Ir7  1  0.333333  0.666667  0.000000  1
  Pt  Pt8  1  0.666667  0.333333  0.000000  1
