# generated using pymatgen
data_Tb5ScSi24Os3Ru5
_symmetry_space_group_name_H-M   'P 1'
_cell_length_a   10.10142934
_cell_length_b   10.10143008
_cell_length_c   8.14681266
_cell_angle_alpha   90.01527672
_cell_angle_beta   90.01527756
_cell_angle_gamma   132.43461331
_symmetry_Int_Tables_number   1
_chemical_formula_structural   Tb5ScSi24Os3Ru5
_chemical_formula_sum   'Tb5 Sc1 Si24 Os3 Ru5'
_cell_volume   613.53288526
_cell_formula_units_Z   1
loop_
 _symmetry_equiv_pos_site_id
 _symmetry_equiv_pos_as_xyz
  1  'x, y, z'
loop_
 _atom_site_type_symbol
 _atom_site_label
 _atom_site_symmetry_multiplicity
 _atom_site_fract_x
 _atom_site_fract_y
 _atom_site_fract_z
 _atom_site_occupancy
  Tb  Tb0  1  0.999932  0.000068  0.000000  1
  Tb  Tb1  1  0.502054  0.001959  0.749958  1
  Tb  Tb2  1  0.998041  0.497946  0.250042  1
  Tb  Tb3  1  0.498104  0.997949  0.249840  1
  Tb  Tb4  1  0.002051  0.501896  0.750160  1
  Sc  Sc5  1  0.500031  0.499969  0.500000  1
  Si  Si6  1  0.795572  0.204428  0.500000  1
  Si  Si7  1  0.296091  0.703909  0.000000  1
  Si  Si8  1  0.204508  0.795492  0.500000  1
  Si  Si9  1  0.704506  0.295494  0.000000  1
  Si  Si10  1  0.333229  0.332958  0.831705  1
  Si  Si11  1  0.667042  0.666771  0.168295  1
  Si  Si12  1  0.168389  0.168607  0.333397  1
  Si  Si13  1  0.831393  0.831611  0.666603  1
  Si  Si14  1  0.120715  0.887628  0.727681  1
  Si  Si15  1  0.112372  0.879285  0.272319  1
  Si  Si16  1  0.611653  0.379978  0.228816  1
  Si  Si17  1  0.620022  0.388347  0.771184  1
  Si  Si18  1  0.878628  0.112194  0.271326  1
  Si  Si19  1  0.887806  0.121372  0.728674  1
  Si  Si20  1  0.389305  0.620859  0.770753  1
  Si  Si21  1  0.379141  0.610695  0.229247  1
  Si  Si22  1  0.345184  0.114089  0.505001  1
  Si  Si23  1  0.885911  0.654816  0.494999  1
  Si  Si24  1  0.388684  0.156139  0.003669  1
  Si  Si25  1  0.843861  0.611316  0.996331  1
  Si  Si26  1  0.654986  0.886078  0.494679  1
  Si  Si27  1  0.113922  0.345014  0.505321  1
  Si  Si28  1  0.612631  0.845577  0.995299  1
  Si  Si29  1  0.154423  0.387369  0.004701  1
  Os  Os30  1  0.668331  0.331669  0.500000  1
  Os  Os31  1  0.169716  0.830284  0.000000  1
  Os  Os32  1  0.331650  0.668350  0.500000  1
  Ru  Ru33  1  0.830220  0.169780  0.000000  1
  Ru  Ru34  1  0.128694  0.128585  0.625733  1
  Ru  Ru35  1  0.871415  0.871306  0.374267  1
  Ru  Ru36  1  0.374574  0.374788  0.129255  1
  Ru  Ru37  1  0.625212  0.625426  0.870745  1
