# generated using pymatgen
data_LiDy3Mg2Si2Hg
_symmetry_space_group_name_H-M   'P 1'
_cell_length_a   7.22070772
_cell_length_b   7.22070832
_cell_length_c   4.35636600
_cell_angle_alpha   90.00000000
_cell_angle_beta   90.00000000
_cell_angle_gamma   120.51875858
_symmetry_Int_Tables_number   1
_chemical_formula_structural   LiDy3Mg2Si2Hg
_chemical_formula_sum   'Li1 Dy3 Mg2 Si2 Hg1'
_cell_volume   195.66832631
_cell_formula_units_Z   1
loop_
 _symmetry_equiv_pos_site_id
 _symmetry_equiv_pos_as_xyz
  1  'x, y, z'
loop_
 _atom_site_type_symbol
 _atom_site_label
 _atom_site_symmetry_multiplicity
 _atom_site_fract_x
 _atom_site_fract_y
 _atom_site_fract_z
 _atom_site_occupancy
  Li  Li0  1  0.745991  0.745991  0.000000  1
  Dy  Dy1  1  0.435650  0.435650  0.500000  1
  Dy  Dy2  1  0.573867  0.999565  0.500000  1
  Dy  Dy3  1  0.999565  0.573867  0.500000  1
  Mg  Mg4  1  0.247119  0.999798  0.000000  1
  Mg  Mg5  1  0.999798  0.247119  0.000000  1
  Si  Si6  1  0.669513  0.337330  0.000000  1
  Si  Si7  1  0.337330  0.669513  0.000000  1
  Hg  Hg8  1  0.991167  0.991167  0.500000  1
