# generated using pymatgen
data_TiNb2Re(PO4)6
_symmetry_space_group_name_H-M   'P 1'
_cell_length_a   8.71490194
_cell_length_b   8.71225089
_cell_length_c   9.03073751
_cell_angle_alpha   90.10448537
_cell_angle_beta   118.69467510
_cell_angle_gamma   119.99698686
_symmetry_Int_Tables_number   1
_chemical_formula_structural   TiNb2Re(PO4)6
_chemical_formula_sum   'Ti1 Nb2 Re1 P6 O24'
_cell_volume   493.79316739
_cell_formula_units_Z   1
loop_
 _symmetry_equiv_pos_site_id
 _symmetry_equiv_pos_as_xyz
  1  'x, y, z'
loop_
 _atom_site_type_symbol
 _atom_site_label
 _atom_site_symmetry_multiplicity
 _atom_site_fract_x
 _atom_site_fract_y
 _atom_site_fract_z
 _atom_site_occupancy
  Ti  Ti0  1  0.217624  0.860311  0.077222  1
  Nb  Nb1  1  0.213420  0.357782  0.570417  1
  Nb  Nb2  1  0.785686  0.141651  0.927780  1
  Re  Re3  1  0.789132  0.642870  0.432714  1
  P  P4  1  0.998136  0.960570  0.247667  1
  P  P5  1  0.286964  0.538351  0.250540  1
  P  P6  1  0.278409  0.751956  0.750183  1
  P  P7  1  0.711152  0.248175  0.251853  1
  P  P8  1  0.726006  0.474470  0.751596  1
  P  P9  1  0.003613  0.028731  0.754472  1
  O  O10  1  0.290822  0.712263  0.217553  1
  O  O11  1  0.862833  0.991775  0.077585  1
  O  O12  1  0.847145  0.852916  0.591576  1
  O  O13  1  0.842711  0.795531  0.274973  1
  O  O14  1  0.143262  0.926429  0.225302  1
  O  O15  1  0.480861  0.550615  0.279329  1
  O  O16  1  0.098461  0.740129  0.580135  1
  O  O17  1  0.914250  0.644345  0.916158  1
  O  O18  1  0.275014  0.779428  0.914633  1
  O  O19  1  0.488888  0.918178  0.778499  1
  O  O20  1  0.734632  0.483865  0.585820  1
  O  O21  1  0.720546  0.427872  0.270431  1
  O  O22  1  0.274295  0.573305  0.720050  1
  O  O23  1  0.269938  0.509735  0.413264  1
  O  O24  1  0.507978  0.078346  0.224992  1
  O  O25  1  0.718636  0.213394  0.087596  1
  O  O26  1  0.086471  0.364406  0.085940  1
  O  O27  1  0.906582  0.269886  0.418250  1
  O  O28  1  0.516150  0.444725  0.711238  1
  O  O29  1  0.864209  0.074547  0.778576  1
  O  O30  1  0.146701  0.197989  0.715872  1
  O  O31  1  0.140880  0.141649  0.407029  1
  O  O32  1  0.146463  0.009250  0.924725  1
  O  O33  1  0.712129  0.294556  0.786031  1
