# generated using pymatgen
data_PuMg4ScN6
_symmetry_space_group_name_H-M   'P 1'
_cell_length_a   5.52630252
_cell_length_b   5.52630110
_cell_length_c   5.43436881
_cell_angle_alpha   99.61817665
_cell_angle_beta   99.61817525
_cell_angle_gamma   120.19671445
_symmetry_Int_Tables_number   1
_chemical_formula_structural   PuMg4ScN6
_chemical_formula_sum   'Pu1 Mg4 Sc1 N6'
_cell_volume   135.14807505
_cell_formula_units_Z   1
loop_
 _symmetry_equiv_pos_site_id
 _symmetry_equiv_pos_as_xyz
  1  'x, y, z'
loop_
 _atom_site_type_symbol
 _atom_site_label
 _atom_site_symmetry_multiplicity
 _atom_site_fract_x
 _atom_site_fract_y
 _atom_site_fract_z
 _atom_site_occupancy
  Pu  Pu0  1  0.667016  0.332984  0.000000  1
  Mg  Mg1  1  0.837236  0.162764  0.500000  1
  Mg  Mg2  1  0.164145  0.835855  0.500000  1
  Mg  Mg3  1  0.499013  0.500987  0.500000  1
  Mg  Mg4  1  0.999499  0.000501  0.000000  1
  Sc  Sc5  1  0.333682  0.666318  0.000000  1
  N  N6  1  0.433327  0.094074  0.229406  1
  N  N7  1  0.905926  0.566673  0.770594  1
  N  N8  1  0.581497  0.933740  0.760770  1
  N  N9  1  0.066260  0.418503  0.239230  1
  N  N10  1  0.741267  0.728868  0.241737  1
  N  N11  1  0.271132  0.258733  0.758263  1
