# generated using pymatgen
data_Nd2Ga5Pd2Pt
_symmetry_space_group_name_H-M   'P 1'
_cell_length_a   8.69464759
_cell_length_b   8.69464760
_cell_length_c   5.81749100
_cell_angle_alpha   70.41258496
_cell_angle_beta   70.41258495
_cell_angle_gamma   95.08281342
_symmetry_Int_Tables_number   1
_chemical_formula_structural   Nd2Ga5Pd2Pt
_chemical_formula_sum   'Nd4 Ga10 Pd4 Pt2'
_cell_volume   380.21850851
_cell_formula_units_Z   2
loop_
 _symmetry_equiv_pos_site_id
 _symmetry_equiv_pos_as_xyz
  1  'x, y, z'
loop_
 _atom_site_type_symbol
 _atom_site_label
 _atom_site_symmetry_multiplicity
 _atom_site_fract_x
 _atom_site_fract_y
 _atom_site_fract_z
 _atom_site_occupancy
  Nd  Nd0  1  0.865058  0.588236  0.773243  1
  Nd  Nd1  1  0.411764  0.134942  0.726757  1
  Nd  Nd2  1  0.136598  0.412780  0.225199  1
  Nd  Nd3  1  0.587220  0.863402  0.274801  1
  Ga  Ga4  1  0.068002  0.261592  0.835237  1
  Ga  Ga5  1  0.738408  0.931998  0.664763  1
  Ga  Ga6  1  0.929100  0.735477  0.167782  1
  Ga  Ga7  1  0.264523  0.070900  0.332218  1
  Ga  Ga8  1  0.208538  0.791462  0.750000  1
  Ga  Ga9  1  0.791650  0.208350  0.250000  1
  Ga  Ga10  1  0.499610  0.500390  0.750000  1
  Ga  Ga11  1  0.498873  0.501127  0.250000  1
  Ga  Ga12  1  0.791196  0.208804  0.750000  1
  Ga  Ga13  1  0.209129  0.790871  0.250000  1
  Pd  Pd14  1  0.737029  0.449213  0.405871  1
  Pd  Pd15  1  0.550787  0.262971  0.094129  1
  Pd  Pd16  1  0.000991  0.999009  0.750000  1
  Pd  Pd17  1  0.001156  0.998844  0.250000  1
  Pt  Pt18  1  0.257510  0.547141  0.599074  1
  Pt  Pt19  1  0.452859  0.742490  0.900926  1
