# generated using pymatgen
data_Ir2SeF18
_symmetry_space_group_name_H-M   'P 1'
_cell_length_a   9.25267500
_cell_length_b   9.25267386
_cell_length_c   5.35067200
_cell_angle_alpha   90.00000000
_cell_angle_beta   90.00000000
_cell_angle_gamma   120.00000764
_symmetry_Int_Tables_number   1
_chemical_formula_structural   Ir2SeF18
_chemical_formula_sum   'Ir2 Se1 F18'
_cell_volume   396.71031216
_cell_formula_units_Z   1
loop_
 _symmetry_equiv_pos_site_id
 _symmetry_equiv_pos_as_xyz
  1  'x, y, z'
loop_
 _atom_site_type_symbol
 _atom_site_label
 _atom_site_symmetry_multiplicity
 _atom_site_fract_x
 _atom_site_fract_y
 _atom_site_fract_z
 _atom_site_occupancy
  Ir  Ir0  1  0.666667  0.333333  0.446500  1
  Ir  Ir1  1  0.333333  0.666667  0.553500  1
  Se  Se2  1  0.000000  0.000000  0.000000  1
  F  F3  1  0.237790  0.762210  0.350928  1
  F  F4  1  0.237790  0.475582  0.350928  1
  F  F5  1  0.524418  0.762210  0.350928  1
  F  F6  1  0.088533  0.911467  0.812419  1
  F  F7  1  0.088533  0.177065  0.812419  1
  F  F8  1  0.822935  0.911467  0.812419  1
  F  F9  1  0.177065  0.088533  0.187581  1
  F  F10  1  0.911467  0.822935  0.187581  1
  F  F11  1  0.911467  0.088533  0.187581  1
  F  F12  1  0.428928  0.571072  0.755868  1
  F  F13  1  0.428928  0.857857  0.755868  1
  F  F14  1  0.142143  0.571072  0.755868  1
  F  F15  1  0.857857  0.428928  0.244132  1
  F  F16  1  0.571072  0.142143  0.244132  1
  F  F17  1  0.571072  0.428928  0.244132  1
  F  F18  1  0.762210  0.237790  0.649072  1
  F  F19  1  0.762210  0.524418  0.649072  1
  F  F20  1  0.475582  0.237790  0.649072  1
