# generated using pymatgen
data_Th14Os5Pt
_symmetry_space_group_name_H-M   'P 1'
_cell_length_a   10.04234900
_cell_length_b   10.08763398
_cell_length_c   6.32982726
_cell_angle_alpha   90.08426554
_cell_angle_beta   90.00000000
_cell_angle_gamma   119.85160736
_symmetry_Int_Tables_number   1
_chemical_formula_structural   Th14Os5Pt
_chemical_formula_sum   'Th14 Os5 Pt1'
_cell_volume   556.15257659
_cell_formula_units_Z   1
loop_
 _symmetry_equiv_pos_site_id
 _symmetry_equiv_pos_as_xyz
  1  'x, y, z'
loop_
 _atom_site_type_symbol
 _atom_site_label
 _atom_site_symmetry_multiplicity
 _atom_site_fract_x
 _atom_site_fract_y
 _atom_site_fract_z
 _atom_site_occupancy
  Th  Th0  1  0.458509  0.538156  0.297410  1
  Th  Th1  1  0.079646  0.538156  0.297410  1
  Th  Th2  1  0.923470  0.456571  0.792501  1
  Th  Th3  1  0.252138  0.126051  0.500865  1
  Th  Th4  1  0.539626  0.079252  0.800457  1
  Th  Th5  1  0.743905  0.877346  0.000824  1
  Th  Th6  1  0.665136  0.330271  0.296148  1
  Th  Th7  1  0.133441  0.877346  0.000824  1
  Th  Th8  1  0.459737  0.919473  0.301700  1
  Th  Th9  1  0.533100  0.456571  0.792501  1
  Th  Th10  1  0.873913  0.126051  0.500865  1
  Th  Th11  1  0.125095  0.250189  0.003368  1
  Th  Th12  1  0.876035  0.752070  0.511437  1
  Th  Th13  1  0.333017  0.666034  0.785357  1
  Os  Os14  1  0.815372  0.191021  0.049004  1
  Os  Os15  1  0.627925  0.812596  0.549655  1
  Os  Os16  1  0.375649  0.191021  0.049004  1
  Os  Os17  1  0.186462  0.372924  0.549570  1
  Os  Os18  1  0.184671  0.812596  0.549655  1
  Pt  Pt19  1  0.813153  0.626306  0.055442  1
