# generated using pymatgen
data_Y4Ga5Ni4Ir5
_symmetry_space_group_name_H-M   'P 1'
_cell_length_a   5.56483071
_cell_length_b   5.36608442
_cell_length_c   23.79282019
_cell_angle_alpha   90.10127055
_cell_angle_beta   89.75010399
_cell_angle_gamma   121.87576376
_symmetry_Int_Tables_number   1
_chemical_formula_structural   Y4Ga5Ni4Ir5
_chemical_formula_sum   'Y8 Ga10 Ni8 Ir10'
_cell_volume   603.33520046
_cell_formula_units_Z   2
loop_
 _symmetry_equiv_pos_site_id
 _symmetry_equiv_pos_as_xyz
  1  'x, y, z'
loop_
 _atom_site_type_symbol
 _atom_site_label
 _atom_site_symmetry_multiplicity
 _atom_site_fract_x
 _atom_site_fract_y
 _atom_site_fract_z
 _atom_site_occupancy
  Y  Y0  1  0.335110  0.669734  0.529464  1
  Y  Y1  1  0.664890  0.330266  0.470536  1
  Y  Y2  1  0.670421  0.333024  0.030802  1
  Y  Y3  1  0.329579  0.666976  0.969198  1
  Y  Y4  1  0.333825  0.667785  0.675797  1
  Y  Y5  1  0.666175  0.332215  0.324203  1
  Y  Y6  1  0.666823  0.331801  0.179946  1
  Y  Y7  1  0.333177  0.668199  0.820054  1
  Ga  Ga8  1  0.000000  0.000000  0.000000  1
  Ga  Ga9  1  0.000000  0.000000  0.500000  1
  Ga  Ga10  1  0.330514  0.650164  0.165123  1
  Ga  Ga11  1  0.669486  0.349836  0.834877  1
  Ga  Ga12  1  0.675421  0.353143  0.668097  1
  Ga  Ga13  1  0.324579  0.646857  0.331903  1
  Ga  Ga14  1  0.004589  0.014357  0.163958  1
  Ga  Ga15  1  0.995411  0.985643  0.836042  1
  Ga  Ga16  1  0.992718  0.983588  0.666940  1
  Ga  Ga17  1  0.007282  0.016412  0.333060  1
  Ni  Ni18  1  0.173132  0.337236  0.081840  1
  Ni  Ni19  1  0.826868  0.662764  0.918160  1
  Ni  Ni20  1  0.662948  0.829352  0.084100  1
  Ni  Ni21  1  0.833419  0.665737  0.582998  1
  Ni  Ni22  1  0.337052  0.170648  0.915900  1
  Ni  Ni23  1  0.166581  0.334263  0.417002  1
  Ni  Ni24  1  0.167093  0.332231  0.248853  1
  Ni  Ni25  1  0.832907  0.667769  0.751147  1
  Ir  Ir26  1  0.173710  0.829629  0.083289  1
  Ir  Ir27  1  0.341265  0.173874  0.584549  1
  Ir  Ir28  1  0.826290  0.170371  0.916711  1
  Ir  Ir29  1  0.658735  0.826126  0.415451  1
  Ir  Ir30  1  0.833738  0.173200  0.585584  1
  Ir  Ir31  1  0.166262  0.826800  0.414416  1
  Ir  Ir32  1  0.668100  0.833434  0.248758  1
  Ir  Ir33  1  0.331900  0.166566  0.751242  1
  Ir  Ir34  1  0.165625  0.833019  0.248990  1
  Ir  Ir35  1  0.834375  0.166981  0.751010  1
