# generated using pymatgen
data_Cs14Nb2Tl3In3P10
_symmetry_space_group_name_H-M   'P 1'
_cell_length_a   8.87889013
_cell_length_b   9.72650952
_cell_length_c   14.84411557
_cell_angle_alpha   85.71528566
_cell_angle_beta   85.18841787
_cell_angle_gamma   85.19169009
_symmetry_Int_Tables_number   1
_chemical_formula_structural   Cs14Nb2Tl3In3P10
_chemical_formula_sum   'Cs14 Nb2 Tl3 In3 P10'
_cell_volume   1269.97313266
_cell_formula_units_Z   1
loop_
 _symmetry_equiv_pos_site_id
 _symmetry_equiv_pos_as_xyz
  1  'x, y, z'
loop_
 _atom_site_type_symbol
 _atom_site_label
 _atom_site_symmetry_multiplicity
 _atom_site_fract_x
 _atom_site_fract_y
 _atom_site_fract_z
 _atom_site_occupancy
  Cs  Cs0  1  0.836567  0.367314  0.648627  1
  Cs  Cs1  1  0.815010  0.807340  0.136973  1
  Cs  Cs2  1  0.235247  0.003875  0.468006  1
  Cs  Cs3  1  0.270363  0.252368  0.253190  1
  Cs  Cs4  1  0.738721  0.499500  0.974203  1
  Cs  Cs5  1  0.260452  0.500430  0.025958  1
  Cs  Cs6  1  0.680923  0.083005  0.890082  1
  Cs  Cs7  1  0.764630  0.995216  0.530739  1
  Cs  Cs8  1  0.730254  0.746440  0.746946  1
  Cs  Cs9  1  0.327967  0.344612  0.596103  1
  Cs  Cs10  1  0.163871  0.632863  0.351324  1
  Cs  Cs11  1  0.182922  0.192771  0.863749  1
  Cs  Cs12  1  0.320826  0.916461  0.110825  1
  Cs  Cs13  1  0.670922  0.656967  0.403327  1
  Nb  Nb14  1  0.355309  0.603930  0.773385  1
  Nb  Nb15  1  0.645766  0.395807  0.226564  1
  Tl  Tl16  1  0.060771  0.814254  0.871317  1
  Tl  Tl17  1  0.939633  0.185907  0.128377  1
  Tl  Tl18  1  0.365673  0.951492  0.703607  1
  In  In19  1  0.098676  0.722189  0.628133  1
  In  In20  1  0.901535  0.278867  0.372459  1
  In  In21  1  0.640432  0.057005  0.294360  1
  P  P22  1  0.909573  0.449012  0.214764  1
  P  P23  1  0.619598  0.206970  0.128460  1
  P  P24  1  0.091292  0.551095  0.785209  1
  P  P25  1  0.591404  0.299157  0.382519  1
  P  P26  1  0.408754  0.696526  0.616523  1
  P  P27  1  0.035592  0.986925  0.701022  1
  P  P28  1  0.510543  0.402318  0.807598  1
  P  P29  1  0.488805  0.595733  0.192242  1
  P  P30  1  0.381036  0.789513  0.874005  1
  P  P31  1  0.956932  0.014137  0.299402  1
