# generated using pymatgen
data_Yb4Zn4IrPd3
_symmetry_space_group_name_H-M   'P 1'
_cell_length_a   4.33025600
_cell_length_b   7.00777405
_cell_length_c   7.74582851
_cell_angle_alpha   89.89194561
_cell_angle_beta   90.00000000
_cell_angle_gamma   90.00000000
_symmetry_Int_Tables_number   1
_chemical_formula_structural   Yb4Zn4IrPd3
_chemical_formula_sum   'Yb4 Zn4 Ir1 Pd3'
_cell_volume   235.05027755
_cell_formula_units_Z   1
loop_
 _symmetry_equiv_pos_site_id
 _symmetry_equiv_pos_as_xyz
  1  'x, y, z'
loop_
 _atom_site_type_symbol
 _atom_site_label
 _atom_site_symmetry_multiplicity
 _atom_site_fract_x
 _atom_site_fract_y
 _atom_site_fract_z
 _atom_site_occupancy
  Yb  Yb0  1  0.250000  0.519611  0.196812  1
  Yb  Yb1  1  0.750000  0.485775  0.804896  1
  Yb  Yb2  1  0.250000  0.009385  0.311066  1
  Yb  Yb3  1  0.750000  0.981020  0.688025  1
  Zn  Zn4  1  0.250000  0.666287  0.569950  1
  Zn  Zn5  1  0.750000  0.344561  0.423947  1
  Zn  Zn6  1  0.250000  0.161202  0.926185  1
  Zn  Zn7  1  0.750000  0.837116  0.080117  1
  Ir  Ir8  1  0.750000  0.714587  0.392223  1
  Pd  Pd9  1  0.250000  0.282124  0.608057  1
  Pd  Pd10  1  0.750000  0.217151  0.106644  1
  Pd  Pd11  1  0.250000  0.781182  0.892077  1
