# generated using pymatgen
data_DyY3Al18(OsRh2)2
_symmetry_space_group_name_H-M   'P 1'
_cell_length_a   7.54062861
_cell_length_b   7.53699898
_cell_length_c   9.52463300
_cell_angle_alpha   90.00000000
_cell_angle_beta   90.00000000
_cell_angle_gamma   118.82625701
_symmetry_Int_Tables_number   1
_chemical_formula_structural   DyY3Al18(OsRh2)2
_chemical_formula_sum   'Dy1 Y3 Al18 Os2 Rh4'
_cell_volume   474.24297519
_cell_formula_units_Z   1
loop_
 _symmetry_equiv_pos_site_id
 _symmetry_equiv_pos_as_xyz
  1  'x, y, z'
loop_
 _atom_site_type_symbol
 _atom_site_label
 _atom_site_symmetry_multiplicity
 _atom_site_fract_x
 _atom_site_fract_y
 _atom_site_fract_z
 _atom_site_occupancy
  Dy  Dy0  1  0.993931  0.678654  0.250000  1
  Y  Y1  1  0.006164  0.321673  0.750000  1
  Y  Y2  1  0.678440  0.993990  0.250000  1
  Y  Y3  1  0.321600  0.006091  0.750000  1
  Al  Al4  1  0.132832  0.132681  0.250000  1
  Al  Al5  1  0.867218  0.867227  0.750000  1
  Al  Al6  1  0.002433  0.337137  0.074617  1
  Al  Al7  1  0.997491  0.662938  0.925749  1
  Al  Al8  1  0.997491  0.662938  0.574251  1
  Al  Al9  1  0.336934  0.002379  0.425336  1
  Al  Al10  1  0.002433  0.337137  0.425383  1
  Al  Al11  1  0.663030  0.997469  0.574363  1
  Al  Al12  1  0.663030  0.997469  0.925637  1
  Al  Al13  1  0.336934  0.002379  0.074664  1
  Al  Al14  1  0.331930  0.331917  0.545945  1
  Al  Al15  1  0.668081  0.667962  0.453741  1
  Al  Al16  1  0.668081  0.667962  0.046259  1
  Al  Al17  1  0.331930  0.331917  0.954055  1
  Al  Al18  1  0.340127  0.552828  0.250000  1
  Al  Al19  1  0.659796  0.447313  0.750000  1
  Al  Al20  1  0.553017  0.340632  0.250000  1
  Al  Al21  1  0.447377  0.659763  0.750000  1
  Os  Os22  1  0.999952  0.999844  0.000112  1
  Os  Os23  1  0.999952  0.999844  0.499888  1
  Rh  Rh24  1  0.671522  0.328374  0.000001  1
  Rh  Rh25  1  0.328376  0.671553  0.000002  1
  Rh  Rh26  1  0.328376  0.671553  0.499998  1
  Rh  Rh27  1  0.671522  0.328374  0.499999  1
