# generated using pymatgen
data_YbPaPbO2
_symmetry_space_group_name_H-M   'P 1'
_cell_length_a   7.10748668
_cell_length_b   7.10748671
_cell_length_c   7.10748576
_cell_angle_alpha   148.08452912
_cell_angle_beta   148.08454158
_cell_angle_gamma   45.76058814
_symmetry_Int_Tables_number   1
_chemical_formula_structural   YbPaPbO2
_chemical_formula_sum   'Yb1 Pa1 Pb1 O2'
_cell_volume   100.01304011
_cell_formula_units_Z   1
loop_
 _symmetry_equiv_pos_site_id
 _symmetry_equiv_pos_as_xyz
  1  'x, y, z'
loop_
 _atom_site_type_symbol
 _atom_site_label
 _atom_site_symmetry_multiplicity
 _atom_site_fract_x
 _atom_site_fract_y
 _atom_site_fract_z
 _atom_site_occupancy
  Yb  Yb0  1  0.659184  0.659184  0.000000  1
  Pa  Pa1  1  0.333058  0.333058  0.000000  1
  Pb  Pb2  1  0.995994  0.995994  0.000000  1
  O  O3  1  0.755883  0.255883  0.500000  1
  O  O4  1  0.255883  0.755883  0.500000  1
