# generated using pymatgen
data_LaBi(SeO3)3
_symmetry_space_group_name_H-M   'P 1'
_cell_length_a   7.22576326
_cell_length_b   8.21004870
_cell_length_c   9.44515592
_cell_angle_alpha   69.44358105
_cell_angle_beta   76.00712664
_cell_angle_gamma   63.97937519
_symmetry_Int_Tables_number   1
_chemical_formula_structural   LaBi(SeO3)3
_chemical_formula_sum   'La2 Bi2 Se6 O18'
_cell_volume   468.89398911
_cell_formula_units_Z   2
loop_
 _symmetry_equiv_pos_site_id
 _symmetry_equiv_pos_as_xyz
  1  'x, y, z'
loop_
 _atom_site_type_symbol
 _atom_site_label
 _atom_site_symmetry_multiplicity
 _atom_site_fract_x
 _atom_site_fract_y
 _atom_site_fract_z
 _atom_site_occupancy
  La  La0  1  0.632580  0.346873  0.321484  1
  La  La1  1  0.367420  0.653127  0.678516  1
  Bi  Bi2  1  0.239189  0.298451  0.126367  1
  Bi  Bi3  1  0.760811  0.701549  0.873633  1
  Se  Se4  1  0.450813  0.174565  0.746752  1
  Se  Se5  1  0.192137  0.761136  0.032599  1
  Se  Se6  1  0.862009  0.781234  0.497141  1
  Se  Se7  1  0.807863  0.238864  0.967401  1
  Se  Se8  1  0.549187  0.825435  0.253248  1
  Se  Se9  1  0.137991  0.218766  0.502859  1
  O  O10  1  0.673012  0.018526  0.835533  1
  O  O11  1  0.326988  0.981474  0.164467  1
  O  O12  1  0.636435  0.793719  0.623280  1
  O  O13  1  0.363565  0.206281  0.376720  1
  O  O14  1  0.393487  0.780675  0.892062  1
  O  O15  1  0.328072  0.330788  0.856875  1
  O  O16  1  0.899481  0.338615  0.059096  1
  O  O17  1  0.532911  0.329177  0.594729  1
  O  O18  1  0.702301  0.436192  0.823411  1
  O  O19  1  0.100519  0.661385  0.940904  1
  O  O20  1  0.171012  0.990999  0.582195  1
  O  O21  1  0.023822  0.689047  0.641851  1
  O  O22  1  0.606513  0.219325  0.107938  1
  O  O23  1  0.671928  0.669212  0.143125  1
  O  O24  1  0.467089  0.670823  0.405271  1
  O  O25  1  0.297699  0.563808  0.176589  1
  O  O26  1  0.828988  0.009001  0.417805  1
  O  O27  1  0.976178  0.310953  0.358149  1
