# generated using pymatgen
data_La4TlHgPt4
_symmetry_space_group_name_H-M   'P 1'
_cell_length_a   7.95751900
_cell_length_b   7.95751900
_cell_length_c   3.94499100
_cell_angle_alpha   90.00000000
_cell_angle_beta   90.00000000
_cell_angle_gamma   90.00000000
_symmetry_Int_Tables_number   1
_chemical_formula_structural   La4TlHgPt4
_chemical_formula_sum   'La4 Tl1 Hg1 Pt4'
_cell_volume   249.80514867
_cell_formula_units_Z   1
loop_
 _symmetry_equiv_pos_site_id
 _symmetry_equiv_pos_as_xyz
  1  'x, y, z'
loop_
 _atom_site_type_symbol
 _atom_site_label
 _atom_site_symmetry_multiplicity
 _atom_site_fract_x
 _atom_site_fract_y
 _atom_site_fract_z
 _atom_site_occupancy
  La  La0  1  0.676015  0.170610  0.500000  1
  La  La1  1  0.323985  0.829390  0.500000  1
  La  La2  1  0.170610  0.323985  0.500000  1
  La  La3  1  0.829390  0.676015  0.500000  1
  Tl  Tl4  1  0.500000  0.500000  0.000000  1
  Hg  Hg5  1  0.000000  0.000000  0.000000  1
  Pt  Pt6  1  0.130626  0.625080  0.000000  1
  Pt  Pt7  1  0.869374  0.374920  0.000000  1
  Pt  Pt8  1  0.625080  0.869374  0.000000  1
  Pt  Pt9  1  0.374920  0.130626  0.000000  1
