# generated using pymatgen
data_CaPr18CdIr12
_symmetry_space_group_name_H-M   'P 1'
_cell_length_a   11.33977700
_cell_length_b   11.33977700
_cell_length_c   6.50948000
_cell_angle_alpha   90.00000000
_cell_angle_beta   90.00000000
_cell_angle_gamma   90.00000000
_symmetry_Int_Tables_number   1
_chemical_formula_structural   CaPr18CdIr12
_chemical_formula_sum   'Ca1 Pr18 Cd1 Ir12'
_cell_volume   837.05756401
_cell_formula_units_Z   1
loop_
 _symmetry_equiv_pos_site_id
 _symmetry_equiv_pos_as_xyz
  1  'x, y, z'
loop_
 _atom_site_type_symbol
 _atom_site_label
 _atom_site_symmetry_multiplicity
 _atom_site_fract_x
 _atom_site_fract_y
 _atom_site_fract_z
 _atom_site_occupancy
  Ca  Ca0  1  0.500000  0.500000  0.000000  1
  Pr  Pr1  1  0.280267  0.086012  0.385447  1
  Pr  Pr2  1  0.291560  0.910988  0.883172  1
  Pr  Pr3  1  0.708440  0.089012  0.883172  1
  Pr  Pr4  1  0.719733  0.913988  0.385447  1
  Pr  Pr5  1  0.589672  0.789656  0.885709  1
  Pr  Pr6  1  0.587239  0.207663  0.381954  1
  Pr  Pr7  1  0.412761  0.792337  0.381954  1
  Pr  Pr8  1  0.410328  0.210344  0.885709  1
  Pr  Pr9  1  0.207663  0.412761  0.618046  1
  Pr  Pr10  1  0.210344  0.589672  0.114291  1
  Pr  Pr11  1  0.789656  0.410328  0.114291  1
  Pr  Pr12  1  0.792337  0.587239  0.618046  1
  Pr  Pr13  1  0.910988  0.708440  0.116828  1
  Pr  Pr14  1  0.913988  0.280267  0.614553  1
  Pr  Pr15  1  0.086012  0.719733  0.614553  1
  Pr  Pr16  1  0.089012  0.291560  0.116828  1
  Pr  Pr17  1  0.000000  0.000000  0.000000  1
  Pr  Pr18  1  0.500000  0.500000  0.500000  1
  Cd  Cd19  1  0.000000  0.000000  0.500000  1
  Ir  Ir20  1  0.846122  0.156287  0.242113  1
  Ir  Ir21  1  0.843713  0.846122  0.757887  1
  Ir  Ir22  1  0.156287  0.153878  0.757887  1
  Ir  Ir23  1  0.153878  0.843713  0.242113  1
  Ir  Ir24  1  0.657811  0.345657  0.741599  1
  Ir  Ir25  1  0.654343  0.657811  0.258401  1
  Ir  Ir26  1  0.345657  0.342189  0.258401  1
  Ir  Ir27  1  0.342189  0.654343  0.741599  1
  Ir  Ir28  1  0.500000  0.000000  0.119230  1
  Ir  Ir29  1  0.500000  0.000000  0.612451  1
  Ir  Ir30  1  0.000000  0.500000  0.880770  1
  Ir  Ir31  1  0.000000  0.500000  0.387549  1
