# generated using pymatgen
data_Nd10Be3Si15Hg2
_symmetry_space_group_name_H-M   'P 1'
_cell_length_a   4.20340114
_cell_length_b   4.17446210
_cell_length_c   35.31826576
_cell_angle_alpha   86.60431230
_cell_angle_beta   86.53753596
_cell_angle_gamma   90.01385262
_symmetry_Int_Tables_number   1
_chemical_formula_structural   Nd10Be3Si15Hg2
_chemical_formula_sum   'Nd10 Be3 Si15 Hg2'
_cell_volume   617.50557154
_cell_formula_units_Z   1
loop_
 _symmetry_equiv_pos_site_id
 _symmetry_equiv_pos_as_xyz
  1  'x, y, z'
loop_
 _atom_site_type_symbol
 _atom_site_label
 _atom_site_symmetry_multiplicity
 _atom_site_fract_x
 _atom_site_fract_y
 _atom_site_fract_z
 _atom_site_occupancy
  Nd  Nd0  1  0.948167  0.447663  0.103952  1
  Nd  Nd1  1  0.351153  0.850904  0.298217  1
  Nd  Nd2  1  0.754110  0.253753  0.492167  1
  Nd  Nd3  1  0.149535  0.649301  0.701050  1
  Nd  Nd4  1  0.544975  0.044705  0.910144  1
  Nd  Nd5  1  0.996760  0.996740  0.006363  1
  Nd  Nd6  1  0.399714  0.400208  0.200437  1
  Nd  Nd7  1  0.802438  0.802738  0.394995  1
  Nd  Nd8  1  0.205471  0.205899  0.588890  1
  Nd  Nd9  1  0.601245  0.601396  0.797442  1
  Be  Be10  1  0.464595  0.964731  0.070111  1
  Be  Be11  1  0.867452  0.367945  0.264554  1
  Be  Be12  1  0.270419  0.770509  0.458698  1
  Si  Si13  1  0.667669  0.166551  0.667011  1
  Si  Si14  1  0.062474  0.561749  0.876072  1
  Si  Si15  1  0.915653  0.916803  0.167922  1
  Si  Si16  1  0.318893  0.320118  0.362352  1
  Si  Si17  1  0.722057  0.722623  0.555942  1
  Si  Si18  1  0.117051  0.117133  0.765478  1
  Si  Si19  1  0.512347  0.512773  0.974488  1
  Si  Si20  1  0.433236  0.932681  0.133339  1
  Si  Si21  1  0.836337  0.335338  0.327801  1
  Si  Si22  1  0.239127  0.738095  0.521997  1
  Si  Si23  1  0.633546  0.133310  0.733032  1
  Si  Si24  1  0.029225  0.528863  0.941767  1
  Si  Si25  1  0.479361  0.479282  0.041302  1
  Si  Si26  1  0.882646  0.882849  0.235106  1
  Si  Si27  1  0.285695  0.285302  0.429528  1
  Hg  Hg28  1  0.685131  0.686010  0.628156  1
  Hg  Hg29  1  0.080719  0.081230  0.837290  1
