# generated using pymatgen
data_Tb2Mg3PaPt3
_symmetry_space_group_name_H-M   'P 1'
_cell_length_a   7.59088600
_cell_length_b   7.45807855
_cell_length_c   3.96977400
_cell_angle_alpha   90.00000000
_cell_angle_beta   90.00000000
_cell_angle_gamma   120.59081754
_symmetry_Int_Tables_number   1
_chemical_formula_structural   Tb2Mg3PaPt3
_chemical_formula_sum   'Tb2 Mg3 Pa1 Pt3'
_cell_volume   193.46364614
_cell_formula_units_Z   1
loop_
 _symmetry_equiv_pos_site_id
 _symmetry_equiv_pos_as_xyz
  1  'x, y, z'
loop_
 _atom_site_type_symbol
 _atom_site_label
 _atom_site_symmetry_multiplicity
 _atom_site_fract_x
 _atom_site_fract_y
 _atom_site_fract_z
 _atom_site_occupancy
  Tb  Tb0  1  0.995296  0.408432  0.000000  1
  Tb  Tb1  1  0.586865  0.591568  0.000000  1
  Mg  Mg2  1  0.247067  0.254935  0.500000  1
  Mg  Mg3  1  0.992133  0.745065  0.500000  1
  Mg  Mg4  1  0.765722  0.000000  0.500000  1
  Pa  Pa5  1  0.415968  0.000000  0.000000  1
  Pt  Pt6  1  0.013554  0.000000  0.000000  1
  Pt  Pt7  1  0.646946  0.310500  0.500000  1
  Pt  Pt8  1  0.336446  0.689500  0.500000  1
