# generated using pymatgen
data_Sc6Co15Si7Tc
_symmetry_space_group_name_H-M   'P 1'
_cell_length_a   8.09492862
_cell_length_b   8.09492785
_cell_length_c   8.12850961
_cell_angle_alpha   60.13656483
_cell_angle_beta   60.13656959
_cell_angle_gamma   60.00000326
_symmetry_Int_Tables_number   1
_chemical_formula_structural   Sc6Co15Si7Tc
_chemical_formula_sum   'Sc6 Co15 Si7 Tc1'
_cell_volume   377.41168365
_cell_formula_units_Z   1
loop_
 _symmetry_equiv_pos_site_id
 _symmetry_equiv_pos_as_xyz
  1  'x, y, z'
loop_
 _atom_site_type_symbol
 _atom_site_label
 _atom_site_symmetry_multiplicity
 _atom_site_fract_x
 _atom_site_fract_y
 _atom_site_fract_z
 _atom_site_occupancy
  Sc  Sc0  1  0.709770  0.709770  0.286408  1
  Sc  Sc1  1  0.294052  0.709770  0.286408  1
  Sc  Sc2  1  0.709770  0.294052  0.286408  1
  Sc  Sc3  1  0.286782  0.286782  0.714324  1
  Sc  Sc4  1  0.712111  0.286782  0.714324  1
  Sc  Sc5  1  0.286782  0.712111  0.714324  1
  Co  Co6  1  0.878933  0.362820  0.879313  1
  Co  Co7  1  0.362820  0.878933  0.879313  1
  Co  Co8  1  0.878933  0.878933  0.879313  1
  Co  Co9  1  0.120395  0.120395  0.638815  1
  Co  Co10  1  0.121803  0.638838  0.117558  1
  Co  Co11  1  0.638838  0.121803  0.117558  1
  Co  Co12  1  0.121803  0.121803  0.117558  1
  Co  Co13  1  0.673915  0.673915  0.978255  1
  Co  Co14  1  0.670954  0.978792  0.679300  1
  Co  Co15  1  0.978792  0.670954  0.679300  1
  Co  Co16  1  0.670954  0.670954  0.679300  1
  Co  Co17  1  0.326593  0.326593  0.020220  1
  Co  Co18  1  0.327030  0.020794  0.325146  1
  Co  Co19  1  0.020794  0.327030  0.325146  1
  Co  Co20  1  0.327030  0.327030  0.325146  1
  Si  Si21  1  0.003805  0.003805  0.988584  1
  Si  Si22  1  0.001730  0.001730  0.500681  1
  Si  Si23  1  0.495859  0.001730  0.500681  1
  Si  Si24  1  0.001730  0.495859  0.500681  1
  Si  Si25  1  0.498508  0.498508  0.001784  1
  Si  Si26  1  0.001201  0.498508  0.001784  1
  Si  Si27  1  0.498508  0.001201  0.001784  1
  Tc  Tc28  1  0.879805  0.879805  0.360584  1
