# generated using pymatgen
data_Lu5TcAgTe2
_symmetry_space_group_name_H-M   'P 1'
_cell_length_a   8.68133589
_cell_length_b   8.68133696
_cell_length_c   7.67945172
_cell_angle_alpha   88.21233121
_cell_angle_beta   88.21233096
_cell_angle_gamma   127.05937106
_symmetry_Int_Tables_number   1
_chemical_formula_structural   Lu5TcAgTe2
_chemical_formula_sum   'Lu10 Tc2 Ag2 Te4'
_cell_volume   460.72977111
_cell_formula_units_Z   2
loop_
 _symmetry_equiv_pos_site_id
 _symmetry_equiv_pos_as_xyz
  1  'x, y, z'
loop_
 _atom_site_type_symbol
 _atom_site_label
 _atom_site_symmetry_multiplicity
 _atom_site_fract_x
 _atom_site_fract_y
 _atom_site_fract_z
 _atom_site_occupancy
  Lu  Lu0  1  0.000000  0.000000  0.000000  1
  Lu  Lu1  1  0.500000  0.500000  0.500000  1
  Lu  Lu2  1  0.778337  0.533198  0.154515  1
  Lu  Lu3  1  0.466802  0.221663  0.845485  1
  Lu  Lu4  1  0.939737  0.692395  0.681793  1
  Lu  Lu5  1  0.307605  0.060263  0.318207  1
  Lu  Lu6  1  0.221663  0.466802  0.845485  1
  Lu  Lu7  1  0.533198  0.778337  0.154515  1
  Lu  Lu8  1  0.060263  0.307605  0.318207  1
  Lu  Lu9  1  0.692395  0.939737  0.681793  1
  Tc  Tc10  1  0.622666  0.622666  0.881242  1
  Tc  Tc11  1  0.377334  0.377334  0.118758  1
  Ag  Ag12  1  0.868308  0.868308  0.370675  1
  Ag  Ag13  1  0.131692  0.131692  0.629325  1
  Te  Te14  1  0.209776  0.790224  0.000000  1
  Te  Te15  1  0.712716  0.287284  0.500000  1
  Te  Te16  1  0.790224  0.209776  0.000000  1
  Te  Te17  1  0.287284  0.712716  0.500000  1
