# generated using pymatgen
data_Ho4Al24Pd7Pt2
_symmetry_space_group_name_H-M   'P 1'
_cell_length_a   7.53308119
_cell_length_b   7.56117246
_cell_length_c   13.17757245
_cell_angle_alpha   84.61226121
_cell_angle_beta   79.12037756
_cell_angle_gamma   60.01104337
_symmetry_Int_Tables_number   1
_chemical_formula_structural   Ho4Al24Pd7Pt2
_chemical_formula_sum   'Ho4 Al24 Pd7 Pt2'
_cell_volume   638.40905394
_cell_formula_units_Z   1
loop_
 _symmetry_equiv_pos_site_id
 _symmetry_equiv_pos_as_xyz
  1  'x, y, z'
loop_
 _atom_site_type_symbol
 _atom_site_label
 _atom_site_symmetry_multiplicity
 _atom_site_fract_x
 _atom_site_fract_y
 _atom_site_fract_z
 _atom_site_occupancy
  Ho  Ho0  1  0.393678  0.168549  0.808109  1
  Ho  Ho1  1  0.606322  0.831451  0.191891  1
  Ho  Ho2  1  0.733537  0.498187  0.807959  1
  Ho  Ho3  1  0.266463  0.501813  0.192041  1
  Al  Al4  1  0.684461  0.833668  0.944448  1
  Al  Al5  1  0.315539  0.166332  0.055552  1
  Al  Al6  1  0.145605  0.833621  0.561712  1
  Al  Al7  1  0.854395  0.166379  0.438288  1
  Al  Al8  1  0.479796  0.166750  0.558896  1
  Al  Al9  1  0.520204  0.833250  0.441104  1
  Al  Al10  1  0.216958  0.165969  0.329876  1
  Al  Al11  1  0.783042  0.834031  0.670124  1
  Al  Al12  1  0.436529  0.507110  0.669864  1
  Al  Al13  1  0.563471  0.492890  0.330136  1
  Al  Al14  1  0.110052  0.159592  0.669415  1
  Al  Al15  1  0.889948  0.840408  0.330585  1
  Al  Al16  1  0.352801  0.499446  0.944770  1
  Al  Al17  1  0.647199  0.500554  0.055230  1
  Al  Al18  1  0.015712  0.167528  0.953510  1
  Al  Al19  1  0.984288  0.832472  0.046490  1
  Al  Al20  1  0.186874  0.500149  0.441106  1
  Al  Al21  1  0.813126  0.499851  0.558894  1
  Al  Al22  1  0.732758  0.164713  0.183775  1
  Al  Al23  1  0.267242  0.835287  0.816225  1
  Al  Al24  1  0.062120  0.629641  0.815071  1
  Al  Al25  1  0.937880  0.370359  0.184929  1
  Al  Al26  1  0.856384  0.040573  0.816230  1
  Al  Al27  1  0.143616  0.959427  0.183770  1
  Pd  Pd28  1  0.119432  0.492117  0.638531  1
  Pd  Pd29  1  0.880568  0.507883  0.361469  1
  Pd  Pd30  1  0.657205  0.171510  0.999586  1
  Pd  Pd31  1  0.342795  0.828490  0.000414  1
  Pd  Pd32  1  0.537819  0.166952  0.361460  1
  Pd  Pd33  1  0.462181  0.833048  0.638540  1
  Pd  Pd34  1  0.000000  0.500000  0.000000  1
  Pt  Pt35  1  0.778119  0.175025  0.637552  1
  Pt  Pt36  1  0.221881  0.824975  0.362448  1
