# generated using pymatgen
data_Tc2Te4W
_symmetry_space_group_name_H-M   'P 1'
_cell_length_a   7.12510673
_cell_length_b   7.17544632
_cell_length_c   7.12202474
_cell_angle_alpha   93.43052970
_cell_angle_beta   93.79854975
_cell_angle_gamma   94.01887120
_symmetry_Int_Tables_number   1
_chemical_formula_structural   Tc2Te4W
_chemical_formula_sum   'Tc4 Te8 W2'
_cell_volume   361.66473756
_cell_formula_units_Z   2
loop_
 _symmetry_equiv_pos_site_id
 _symmetry_equiv_pos_as_xyz
  1  'x, y, z'
loop_
 _atom_site_type_symbol
 _atom_site_label
 _atom_site_symmetry_multiplicity
 _atom_site_fract_x
 _atom_site_fract_y
 _atom_site_fract_z
 _atom_site_occupancy
  Tc  Tc0  1  0.045618  0.748074  0.912383  1
  Tc  Tc1  1  0.085698  0.952832  0.254832  1
  Tc  Tc2  1  0.253384  0.086719  0.954766  1
  Tc  Tc3  1  0.952986  0.253344  0.087972  1
  Te  Te4  1  0.709433  0.705534  0.705706  1
  Te  Te5  1  0.287029  0.285766  0.287694  1
  Te  Te6  1  0.772814  0.120675  0.380592  1
  Te  Te7  1  0.375758  0.774543  0.121944  1
  Te  Te8  1  0.123352  0.383597  0.774873  1
  Te  Te9  1  0.235177  0.876769  0.619982  1
  Te  Te10  1  0.616422  0.235960  0.877288  1
  Te  Te11  1  0.879546  0.616639  0.227441  1
  W  W12  1  0.913836  0.046154  0.751702  1
  W  W13  1  0.748947  0.913394  0.042825  1
