# generated using pymatgen
data_Sc2Pa(CoSn)3
_symmetry_space_group_name_H-M   'P 1'
_cell_length_a   7.40372500
_cell_length_b   7.15825674
_cell_length_c   3.65338500
_cell_angle_alpha   90.00000000
_cell_angle_beta   90.00000000
_cell_angle_gamma   121.14098759
_symmetry_Int_Tables_number   1
_chemical_formula_structural   Sc2Pa(CoSn)3
_chemical_formula_sum   'Sc2 Pa1 Co3 Sn3'
_cell_volume   165.71990471
_cell_formula_units_Z   1
loop_
 _symmetry_equiv_pos_site_id
 _symmetry_equiv_pos_as_xyz
  1  'x, y, z'
loop_
 _atom_site_type_symbol
 _atom_site_label
 _atom_site_symmetry_multiplicity
 _atom_site_fract_x
 _atom_site_fract_y
 _atom_site_fract_z
 _atom_site_occupancy
  Sc  Sc0  1  0.397013  0.401453  0.500000  1
  Sc  Sc1  1  0.995561  0.598547  0.500000  1
  Pa  Pa2  1  0.586693  0.000000  0.500000  1
  Co  Co3  1  0.988081  0.000000  0.500000  1
  Co  Co4  1  0.365259  0.697800  0.000000  1
  Co  Co5  1  0.667459  0.302200  0.000000  1
  Sn  Sn6  1  0.020086  0.282526  0.000000  1
  Sn  Sn7  1  0.242287  0.000000  0.000000  1
  Sn  Sn8  1  0.737560  0.717474  0.000000  1
