# generated using pymatgen
data_Sr6Ce(CoO4)3
_symmetry_space_group_name_H-M   'P 1'
_cell_length_a   6.75648496
_cell_length_b   6.71236140
_cell_length_c   6.75704580
_cell_angle_alpha   92.33153919
_cell_angle_beta   92.75316069
_cell_angle_gamma   92.32882310
_symmetry_Int_Tables_number   1
_chemical_formula_structural   Sr6Ce(CoO4)3
_chemical_formula_sum   'Sr6 Ce1 Co3 O12'
_cell_volume   305.55962437
_cell_formula_units_Z   1
loop_
 _symmetry_equiv_pos_site_id
 _symmetry_equiv_pos_as_xyz
  1  'x, y, z'
loop_
 _atom_site_type_symbol
 _atom_site_label
 _atom_site_symmetry_multiplicity
 _atom_site_fract_x
 _atom_site_fract_y
 _atom_site_fract_z
 _atom_site_occupancy
  Sr  Sr0  1  0.899650  0.250024  0.600407  1
  Sr  Sr1  1  0.249422  0.613358  0.893436  1
  Sr  Sr2  1  0.606511  0.886672  0.250639  1
  Sr  Sr3  1  0.757577  0.371134  0.124463  1
  Sr  Sr4  1  0.375618  0.128874  0.742365  1
  Sr  Sr5  1  0.120899  0.749999  0.379122  1
  Ce  Ce6  1  0.752428  0.749977  0.747540  1
  Co  Co7  1  0.000489  0.003158  0.011385  1
  Co  Co8  1  0.488704  0.496901  0.499553  1
  Co  Co9  1  0.297802  0.250057  0.202237  1
  O  O10  1  0.218810  0.429251  0.565788  1
  O  O11  1  0.402442  0.531302  0.224931  1
  O  O12  1  0.523908  0.224082  0.407039  1
  O  O13  1  0.914174  0.712439  0.042600  1
  O  O14  1  0.715357  0.043144  0.910356  1
  O  O15  1  0.047995  0.915684  0.720710  1
  O  O16  1  0.779326  0.584261  0.451912  1
  O  O17  1  0.589607  0.456873  0.784692  1
  O  O18  1  0.457303  0.787597  0.585853  1
  O  O19  1  0.092907  0.275866  0.976193  1
  O  O20  1  0.274986  0.968725  0.097544  1
  O  O21  1  0.934086  0.070622  0.281234  1
