# generated using pymatgen
data_Ta12Al8IrRu3C4
_symmetry_space_group_name_H-M   'P 1'
_cell_length_a   8.30294404
_cell_length_b   8.30766945
_cell_length_c   8.30766900
_cell_angle_alpha   60.00000576
_cell_angle_beta   59.98117750
_cell_angle_gamma   59.98117645
_symmetry_Int_Tables_number   1
_chemical_formula_structural   Ta12Al8IrRu3C4
_chemical_formula_sum   'Ta12 Al8 Ir1 Ru3 C4'
_cell_volume   405.09035709
_cell_formula_units_Z   1
loop_
 _symmetry_equiv_pos_site_id
 _symmetry_equiv_pos_as_xyz
  1  'x, y, z'
loop_
 _atom_site_type_symbol
 _atom_site_label
 _atom_site_symmetry_multiplicity
 _atom_site_fract_x
 _atom_site_fract_y
 _atom_site_fract_z
 _atom_site_occupancy
  Ta  Ta0  1  0.559308  0.938919  0.562855  1
  Ta  Ta1  1  0.310390  0.689652  0.689652  1
  Ta  Ta2  1  0.690692  0.311081  0.311081  1
  Ta  Ta3  1  0.310390  0.689652  0.310306  1
  Ta  Ta4  1  0.690692  0.687145  0.311081  1
  Ta  Ta5  1  0.310390  0.310306  0.689652  1
  Ta  Ta6  1  0.559308  0.562855  0.938919  1
  Ta  Ta7  1  0.939610  0.560348  0.560348  1
  Ta  Ta8  1  0.559308  0.938919  0.938919  1
  Ta  Ta9  1  0.939610  0.939694  0.560348  1
  Ta  Ta10  1  0.690692  0.311081  0.687145  1
  Ta  Ta11  1  0.939610  0.560348  0.939694  1
  Al  Al12  1  0.917985  0.916132  0.916132  1
  Al  Al13  1  0.000639  0.333120  0.333120  1
  Al  Al14  1  0.332015  0.000248  0.333868  1
  Al  Al15  1  0.332015  0.333868  0.000248  1
  Al  Al16  1  0.917985  0.249752  0.916132  1
  Al  Al17  1  0.917985  0.916132  0.249752  1
  Al  Al18  1  0.249361  0.916880  0.916880  1
  Al  Al19  1  0.332015  0.333868  0.333868  1
  Ir  Ir20  1  0.625000  0.125000  0.125000  1
  Ru  Ru21  1  0.125000  0.125000  0.125000  1
  Ru  Ru22  1  0.125000  0.625000  0.125000  1
  Ru  Ru23  1  0.125000  0.125000  0.625000  1
  C  C24  1  0.625000  0.625000  0.625000  1
  C  C25  1  0.125000  0.625000  0.625000  1
  C  C26  1  0.625000  0.125000  0.625000  1
  C  C27  1  0.625000  0.625000  0.125000  1
