# generated using pymatgen
data_YTm3ReB12Rh
_symmetry_space_group_name_H-M   'P 1'
_cell_length_a   3.65103200
_cell_length_b   9.09780808
_cell_length_c   11.49271124
_cell_angle_alpha   90.39140229
_cell_angle_beta   90.00000000
_cell_angle_gamma   90.00000000
_symmetry_Int_Tables_number   1
_chemical_formula_structural   YTm3ReB12Rh
_chemical_formula_sum   'Y2 Tm6 Re2 B24 Rh2'
_cell_volume   381.73745314
_cell_formula_units_Z   2
loop_
 _symmetry_equiv_pos_site_id
 _symmetry_equiv_pos_as_xyz
  1  'x, y, z'
loop_
 _atom_site_type_symbol
 _atom_site_label
 _atom_site_symmetry_multiplicity
 _atom_site_fract_x
 _atom_site_fract_y
 _atom_site_fract_z
 _atom_site_occupancy
  Y  Y0  1  0.500000  0.318285  0.410991  1
  Y  Y1  1  0.500000  0.681715  0.589009  1
  Tm  Tm2  1  0.500000  0.173878  0.917601  1
  Tm  Tm3  1  0.500000  0.826122  0.082399  1
  Tm  Tm4  1  0.500000  0.442361  0.126110  1
  Tm  Tm5  1  0.500000  0.557639  0.873890  1
  Tm  Tm6  1  0.500000  0.054504  0.628517  1
  Tm  Tm7  1  0.500000  0.945496  0.371483  1
  Re  Re8  1  0.500000  0.138366  0.179128  1
  Re  Re9  1  0.500000  0.861634  0.820872  1
  B  B10  1  0.000000  0.105174  0.471644  1
  B  B11  1  0.000000  0.894826  0.528356  1
  B  B12  1  0.000000  0.394346  0.970732  1
  B  B13  1  0.000000  0.605654  0.029268  1
  B  B14  1  0.000000  0.131188  0.314671  1
  B  B15  1  0.000000  0.868812  0.685329  1
  B  B16  1  0.000000  0.367364  0.817436  1
  B  B17  1  0.000000  0.632636  0.182564  1
  B  B18  1  0.000000  0.052664  0.066880  1
  B  B19  1  0.000000  0.947336  0.933120  1
  B  B20  1  0.000000  0.445226  0.566245  1
  B  B21  1  0.000000  0.554774  0.433755  1
  B  B22  1  0.000000  0.483587  0.286867  1
  B  B23  1  0.000000  0.516413  0.713133  1
  B  B24  1  0.000000  0.017949  0.787207  1
  B  B25  1  0.000000  0.982051  0.212793  1
  B  B26  1  0.000000  0.248904  0.080608  1
  B  B27  1  0.000000  0.751096  0.919392  1
  B  B28  1  0.000000  0.250060  0.579308  1
  B  B29  1  0.000000  0.749940  0.420692  1
  B  B30  1  0.000000  0.293080  0.234176  1
  B  B31  1  0.000000  0.706920  0.765824  1
  B  B32  1  0.000000  0.207865  0.735611  1
  B  B33  1  0.000000  0.792135  0.264389  1
  Rh  Rh34  1  0.500000  0.361184  0.679953  1
  Rh  Rh35  1  0.500000  0.638816  0.320047  1
