# generated using pymatgen
data_Nd5SnAuO12
_symmetry_space_group_name_H-M   'P 1'
_cell_length_a   7.13106355
_cell_length_b   7.13106309
_cell_length_c   7.62507900
_cell_angle_alpha   74.49452792
_cell_angle_beta   74.49452894
_cell_angle_gamma   51.24751943
_symmetry_Int_Tables_number   1
_chemical_formula_structural   Nd5SnAuO12
_chemical_formula_sum   'Nd5 Sn1 Au1 O12'
_cell_volume   288.79386748
_cell_formula_units_Z   1
loop_
 _symmetry_equiv_pos_site_id
 _symmetry_equiv_pos_as_xyz
  1  'x, y, z'
loop_
 _atom_site_type_symbol
 _atom_site_label
 _atom_site_symmetry_multiplicity
 _atom_site_fract_x
 _atom_site_fract_y
 _atom_site_fract_z
 _atom_site_occupancy
  Nd  Nd0  1  0.297845  0.302950  0.361573  1
  Nd  Nd1  1  0.697050  0.702155  0.638427  1
  Nd  Nd2  1  0.689148  0.703665  0.166704  1
  Nd  Nd3  1  0.296335  0.310852  0.833296  1
  Nd  Nd4  1  0.007746  0.992254  0.500000  1
  Sn  Sn5  1  0.761955  0.238045  0.000000  1
  Au  Au6  1  0.252112  0.747888  0.000000  1
  O  O7  1  0.095019  0.597756  0.574323  1
  O  O8  1  0.011703  0.987140  0.183896  1
  O  O9  1  0.402244  0.904981  0.425677  1
  O  O10  1  0.494679  0.505776  0.183668  1
  O  O11  1  0.097306  0.572725  0.083855  1
  O  O12  1  0.902597  0.402982  0.423905  1
  O  O13  1  0.012860  0.988297  0.816104  1
  O  O14  1  0.597018  0.097402  0.576095  1
  O  O15  1  0.494224  0.505321  0.816332  1
  O  O16  1  0.566643  0.103758  0.081950  1
  O  O17  1  0.427275  0.902694  0.916145  1
  O  O18  1  0.896242  0.433357  0.918050  1
