# generated using pymatgen
data_Er2PaMn8CoP6
_symmetry_space_group_name_H-M   'P 1'
_cell_length_a   3.66382900
_cell_length_b   10.78266200
_cell_length_c   12.52234800
_cell_angle_alpha   90.00000000
_cell_angle_beta   90.00000000
_cell_angle_gamma   90.00000000
_symmetry_Int_Tables_number   1
_chemical_formula_structural   Er2PaMn8CoP6
_chemical_formula_sum   'Er4 Pa2 Mn16 Co2 P12'
_cell_volume   494.70574794
_cell_formula_units_Z   2
loop_
 _symmetry_equiv_pos_site_id
 _symmetry_equiv_pos_as_xyz
  1  'x, y, z'
loop_
 _atom_site_type_symbol
 _atom_site_label
 _atom_site_symmetry_multiplicity
 _atom_site_fract_x
 _atom_site_fract_y
 _atom_site_fract_z
 _atom_site_occupancy
  Er  Er0  1  0.250000  0.929961  0.793347  1
  Er  Er1  1  0.250000  0.570039  0.793347  1
  Er  Er2  1  0.750000  0.070039  0.206653  1
  Er  Er3  1  0.750000  0.429961  0.206653  1
  Pa  Pa4  1  0.750000  0.250000  0.464276  1
  Pa  Pa5  1  0.250000  0.750000  0.535724  1
  Mn  Mn6  1  0.250000  0.250000  0.837009  1
  Mn  Mn7  1  0.750000  0.750000  0.162991  1
  Mn  Mn8  1  0.750000  0.250000  0.011638  1
  Mn  Mn9  1  0.250000  0.750000  0.988362  1
  Mn  Mn10  1  0.250000  0.416483  0.003983  1
  Mn  Mn11  1  0.250000  0.083517  0.003983  1
  Mn  Mn12  1  0.750000  0.583517  0.996017  1
  Mn  Mn13  1  0.750000  0.916483  0.996017  1
  Mn  Mn14  1  0.250000  0.448408  0.567903  1
  Mn  Mn15  1  0.250000  0.051592  0.567903  1
  Mn  Mn16  1  0.750000  0.551592  0.432097  1
  Mn  Mn17  1  0.750000  0.948408  0.432097  1
  Mn  Mn18  1  0.250000  0.865752  0.295444  1
  Mn  Mn19  1  0.250000  0.634248  0.295444  1
  Mn  Mn20  1  0.750000  0.134248  0.704556  1
  Mn  Mn21  1  0.750000  0.365752  0.704556  1
  Co  Co22  1  0.250000  0.250000  0.303247  1
  Co  Co23  1  0.750000  0.750000  0.696753  1
  P  P24  1  0.250000  0.250000  0.123942  1
  P  P25  1  0.750000  0.750000  0.876058  1
  P  P26  1  0.250000  0.250000  0.643745  1
  P  P27  1  0.750000  0.750000  0.356255  1
  P  P28  1  0.250000  0.439270  0.380643  1
  P  P29  1  0.250000  0.060730  0.380643  1
  P  P30  1  0.750000  0.560730  0.619357  1
  P  P31  1  0.750000  0.939270  0.619357  1
  P  P32  1  0.250000  0.904250  0.113292  1
  P  P33  1  0.250000  0.595750  0.113292  1
  P  P34  1  0.750000  0.095750  0.886708  1
  P  P35  1  0.750000  0.404250  0.886708  1
