# generated using pymatgen
data_Sm2Cr2Fe10P7
_symmetry_space_group_name_H-M   'P 1'
_cell_length_a   9.09172269
_cell_length_b   9.08437833
_cell_length_c   3.65386500
_cell_angle_alpha   90.00000000
_cell_angle_beta   90.00000000
_cell_angle_gamma   120.33053408
_symmetry_Int_Tables_number   1
_chemical_formula_structural   Sm2Cr2Fe10P7
_chemical_formula_sum   'Sm2 Cr2 Fe10 P7'
_cell_volume   260.47639293
_cell_formula_units_Z   1
loop_
 _symmetry_equiv_pos_site_id
 _symmetry_equiv_pos_as_xyz
  1  'x, y, z'
loop_
 _atom_site_type_symbol
 _atom_site_label
 _atom_site_symmetry_multiplicity
 _atom_site_fract_x
 _atom_site_fract_y
 _atom_site_fract_z
 _atom_site_occupancy
  Sm  Sm0  1  0.666667  0.331931  0.000000  1
  Sm  Sm1  1  0.334582  0.669823  0.500000  1
  Cr  Cr2  1  0.900808  0.114611  0.000000  1
  Cr  Cr3  1  0.886634  0.783338  0.000000  1
  Fe  Fe4  1  0.423953  0.055432  0.500000  1
  Fe  Fe5  1  0.947196  0.374063  0.500000  1
  Fe  Fe6  1  0.625575  0.572101  0.500000  1
  Fe  Fe7  1  0.155545  0.274484  0.500000  1
  Fe  Fe8  1  0.728660  0.880316  0.500000  1
  Fe  Fe9  1  0.120092  0.847536  0.500000  1
  Fe  Fe10  1  0.384735  0.432137  0.000000  1
  Fe  Fe11  1  0.567004  0.951749  0.000000  1
  Fe  Fe12  1  0.047141  0.615158  0.000000  1
  Fe  Fe13  1  0.212039  0.094682  0.000000  1
  P  P14  1  0.113588  0.403312  0.000000  1
  P  P15  1  0.599098  0.713408  0.000000  1
  P  P16  1  0.290259  0.893225  0.000000  1
  P  P17  1  0.002501  0.000492  0.500000  1
  P  P18  1  0.406198  0.293785  0.500000  1
  P  P19  1  0.698358  0.106410  0.500000  1
  P  P20  1  0.889363  0.592008  0.500000  1
