# generated using pymatgen
data_Yb7HfSi16(Mo3W)3
_symmetry_space_group_name_H-M   'P 1'
_cell_length_a   6.70483180
_cell_length_b   6.89452229
_cell_length_c   12.99531809
_cell_angle_alpha   89.76197317
_cell_angle_beta   89.96886680
_cell_angle_gamma   90.19470520
_symmetry_Int_Tables_number   1
_chemical_formula_structural   Yb7HfSi16(Mo3W)3
_chemical_formula_sum   'Yb7 Hf1 Si16 Mo9 W3'
_cell_volume   600.72078531
_cell_formula_units_Z   1
loop_
 _symmetry_equiv_pos_site_id
 _symmetry_equiv_pos_as_xyz
  1  'x, y, z'
loop_
 _atom_site_type_symbol
 _atom_site_label
 _atom_site_symmetry_multiplicity
 _atom_site_fract_x
 _atom_site_fract_y
 _atom_site_fract_z
 _atom_site_occupancy
  Yb  Yb0  1  0.998156  0.166152  0.090835  1
  Yb  Yb1  1  0.002404  0.834495  0.909168  1
  Yb  Yb2  1  0.502616  0.665497  0.909988  1
  Yb  Yb3  1  0.002332  0.834632  0.589500  1
  Yb  Yb4  1  0.497781  0.332611  0.090751  1
  Yb  Yb5  1  0.999441  0.167704  0.410079  1
  Yb  Yb6  1  0.498417  0.330796  0.408648  1
  Hf  Hf7  1  0.500477  0.674043  0.598646  1
  Si  Si8  1  0.034658  0.130458  0.748012  1
  Si  Si9  1  0.964144  0.875299  0.251010  1
  Si  Si10  1  0.464454  0.622061  0.249440  1
  Si  Si11  1  0.535800  0.373623  0.748054  1
  Si  Si12  1  0.301386  0.865227  0.749905  1
  Si  Si13  1  0.699477  0.133366  0.250480  1
  Si  Si14  1  0.198768  0.364273  0.250259  1
  Si  Si15  1  0.802277  0.636168  0.749783  1
  Si  Si16  1  0.167546  0.462014  0.545577  1
  Si  Si17  1  0.836201  0.541593  0.456711  1
  Si  Si18  1  0.340943  0.954071  0.457239  1
  Si  Si19  1  0.841304  0.542222  0.045541  1
  Si  Si20  1  0.658181  0.039114  0.545358  1
  Si  Si21  1  0.158286  0.457020  0.953228  1
  Si  Si22  1  0.658816  0.043612  0.953778  1
  Si  Si23  1  0.341087  0.957956  0.045438  1
  Mo  Mo24  1  0.662767  0.002808  0.746875  1
  Mo  Mo25  1  0.333248  0.165553  0.625104  1
  Mo  Mo26  1  0.662148  0.827956  0.375196  1
  Mo  Mo27  1  0.165854  0.666806  0.373427  1
  Mo  Mo28  1  0.665089  0.831847  0.128243  1
  Mo  Mo29  1  0.830478  0.338409  0.625281  1
  Mo  Mo30  1  0.334478  0.167729  0.870067  1
  Mo  Mo31  1  0.833296  0.333613  0.871035  1
  Mo  Mo32  1  0.164599  0.667143  0.127830  1
  W  W33  1  0.165470  0.496977  0.747334  1
  W  W34  1  0.838671  0.508498  0.251219  1
  W  W35  1  0.338950  0.988658  0.250963  1
