# generated using pymatgen
data_Ce3Th(B10Os)2
_symmetry_space_group_name_H-M   'P 1'
_cell_length_a   4.19629300
_cell_length_b   5.72790659
_cell_length_c   11.43364246
_cell_angle_alpha   89.99701820
_cell_angle_beta   90.00000000
_cell_angle_gamma   90.00000000
_symmetry_Int_Tables_number   1
_chemical_formula_structural   Ce3Th(B10Os)2
_chemical_formula_sum   'Ce3 Th1 B20 Os2'
_cell_volume   274.81873600
_cell_formula_units_Z   1
loop_
 _symmetry_equiv_pos_site_id
 _symmetry_equiv_pos_as_xyz
  1  'x, y, z'
loop_
 _atom_site_type_symbol
 _atom_site_label
 _atom_site_symmetry_multiplicity
 _atom_site_fract_x
 _atom_site_fract_y
 _atom_site_fract_z
 _atom_site_occupancy
  Ce  Ce0  1  0.500000  0.281382  0.869275  1
  Ce  Ce1  1  0.500000  0.718496  0.128764  1
  Ce  Ce2  1  0.500000  0.780991  0.632522  1
  Th  Th3  1  0.500000  0.217840  0.368613  1
  B  B4  1  0.000000  0.118872  0.542920  1
  B  B5  1  0.000000  0.881597  0.457637  1
  B  B6  1  0.000000  0.618169  0.957352  1
  B  B7  1  0.000000  0.381691  0.042511  1
  B  B8  1  0.000000  0.132706  0.697368  1
  B  B9  1  0.000000  0.866996  0.302595  1
  B  B10  1  0.300965  0.221303  0.118333  1
  B  B11  1  0.300914  0.778306  0.881445  1
  B  B12  1  0.699481  0.721800  0.381130  1
  B  B13  1  0.699224  0.278218  0.619173  1
  B  B14  1  0.699086  0.778306  0.881445  1
  B  B15  1  0.699035  0.221303  0.118333  1
  B  B16  1  0.300776  0.278218  0.619173  1
  B  B17  1  0.300519  0.721800  0.381130  1
  B  B18  1  0.000000  0.058316  0.193015  1
  B  B19  1  0.000000  0.941471  0.806879  1
  B  B20  1  0.000000  0.558925  0.306546  1
  B  B21  1  0.000000  0.441746  0.693433  1
  B  B22  1  0.000000  0.367668  0.196723  1
  B  B23  1  0.000000  0.632779  0.803003  1
  Os  Os24  1  0.000000  0.501436  0.500707  1
  Os  Os25  1  0.000000  0.999668  0.999976  1
