# generated using pymatgen
data_EuDy(Cu2P)4
_symmetry_space_group_name_H-M   'P 1'
_cell_length_a   7.29688872
_cell_length_b   7.29688738
_cell_length_c   3.81606300
_cell_angle_alpha   90.00000000
_cell_angle_beta   90.00000000
_cell_angle_gamma   89.62591496
_symmetry_Int_Tables_number   1
_chemical_formula_structural   EuDy(Cu2P)4
_chemical_formula_sum   'Eu1 Dy1 Cu8 P4'
_cell_volume   203.18032268
_cell_formula_units_Z   1
loop_
 _symmetry_equiv_pos_site_id
 _symmetry_equiv_pos_as_xyz
  1  'x, y, z'
loop_
 _atom_site_type_symbol
 _atom_site_label
 _atom_site_symmetry_multiplicity
 _atom_site_fract_x
 _atom_site_fract_y
 _atom_site_fract_z
 _atom_site_occupancy
  Eu  Eu0  1  0.500000  0.500000  0.500000  1
  Dy  Dy1  1  0.000000  0.000000  0.000000  1
  Cu  Cu2  1  0.665069  0.916686  0.500000  1
  Cu  Cu3  1  0.159584  0.585683  0.000000  1
  Cu  Cu4  1  0.414317  0.840416  0.000000  1
  Cu  Cu5  1  0.916686  0.665069  0.500000  1
  Cu  Cu6  1  0.840416  0.414317  0.000000  1
  Cu  Cu7  1  0.585683  0.159584  0.000000  1
  Cu  Cu8  1  0.083314  0.334931  0.500000  1
  Cu  Cu9  1  0.334931  0.083314  0.500000  1
  P  P10  1  0.280788  0.280788  0.000000  1
  P  P11  1  0.719212  0.719212  0.000000  1
  P  P12  1  0.787627  0.212373  0.500000  1
  P  P13  1  0.212373  0.787627  0.500000  1
