# generated using pymatgen
data_Li2Pr7Sm(Zn3Rh4)2
_symmetry_space_group_name_H-M   'P 1'
_cell_length_a   4.11000300
_cell_length_b   7.28532704
_cell_length_c   16.51828309
_cell_angle_alpha   90.01209619
_cell_angle_beta   90.00000000
_cell_angle_gamma   90.00000000
_symmetry_Int_Tables_number   1
_chemical_formula_structural   Li2Pr7Sm(Zn3Rh4)2
_chemical_formula_sum   'Li2 Pr7 Sm1 Zn6 Rh8'
_cell_volume   494.60224829
_cell_formula_units_Z   1
loop_
 _symmetry_equiv_pos_site_id
 _symmetry_equiv_pos_as_xyz
  1  'x, y, z'
loop_
 _atom_site_type_symbol
 _atom_site_label
 _atom_site_symmetry_multiplicity
 _atom_site_fract_x
 _atom_site_fract_y
 _atom_site_fract_z
 _atom_site_occupancy
  Li  Li0  1  0.250000  0.993187  0.439400  1
  Li  Li1  1  0.750000  0.506742  0.939494  1
  Pr  Pr2  1  0.750000  0.954521  0.281937  1
  Pr  Pr3  1  0.750000  0.832079  0.060672  1
  Pr  Pr4  1  0.250000  0.045135  0.717415  1
  Pr  Pr5  1  0.250000  0.164321  0.940389  1
  Pr  Pr6  1  0.250000  0.545339  0.782218  1
  Pr  Pr7  1  0.750000  0.335829  0.439936  1
  Pr  Pr8  1  0.250000  0.667634  0.560381  1
  Sm  Sm9  1  0.750000  0.454234  0.217100  1
  Zn  Zn10  1  0.750000  0.002803  0.559432  1
  Zn  Zn11  1  0.250000  0.628244  0.350395  1
  Zn  Zn12  1  0.750000  0.373516  0.649274  1
  Zn  Zn13  1  0.750000  0.870824  0.851213  1
  Zn  Zn14  1  0.250000  0.497070  0.060129  1
  Zn  Zn15  1  0.250000  0.127779  0.149663  1
  Rh  Rh16  1  0.250000  0.244339  0.565703  1
  Rh  Rh17  1  0.750000  0.256987  0.066732  1
  Rh  Rh18  1  0.250000  0.252845  0.310948  1
  Rh  Rh19  1  0.750000  0.249648  0.812066  1
  Rh  Rh20  1  0.250000  0.749885  0.935998  1
  Rh  Rh21  1  0.750000  0.751274  0.686595  1
  Rh  Rh22  1  0.750000  0.750007  0.435854  1
  Rh  Rh23  1  0.250000  0.745758  0.187052  1
