# generated using pymatgen
data_Ho2ErIn3Ag2Rh
_symmetry_space_group_name_H-M   'P 1'
_cell_length_a   7.80927326
_cell_length_b   7.81067410
_cell_length_c   3.87858100
_cell_angle_alpha   90.00000000
_cell_angle_beta   90.00000000
_cell_angle_gamma   120.02330217
_symmetry_Int_Tables_number   1
_chemical_formula_structural   Ho2ErIn3Ag2Rh
_chemical_formula_sum   'Ho2 Er1 In3 Ag2 Rh1'
_cell_volume   204.83332308
_cell_formula_units_Z   1
loop_
 _symmetry_equiv_pos_site_id
 _symmetry_equiv_pos_as_xyz
  1  'x, y, z'
loop_
 _atom_site_type_symbol
 _atom_site_label
 _atom_site_symmetry_multiplicity
 _atom_site_fract_x
 _atom_site_fract_y
 _atom_site_fract_z
 _atom_site_occupancy
  Ho  Ho0  1  0.030092  0.607989  0.500000  1
  Ho  Ho1  1  0.392566  0.422512  0.500000  1
  Er  Er2  1  0.576876  0.968695  0.500000  1
  In  In3  1  0.269220  0.003544  0.000000  1
  In  In4  1  0.734604  0.731045  0.000000  1
  In  In5  1  0.996345  0.265669  0.000000  1
  Ag  Ag6  1  0.666379  0.332423  0.000000  1
  Ag  Ag7  1  0.999856  0.000495  0.500000  1
  Rh  Rh8  1  0.334061  0.667629  0.000000  1
