# generated using pymatgen
data_Tm4Mg3GaPt4
_symmetry_space_group_name_H-M   'P 1'
_cell_length_a   4.21924700
_cell_length_b   6.94595118
_cell_length_c   8.36567602
_cell_angle_alpha   89.53361685
_cell_angle_beta   90.00000000
_cell_angle_gamma   90.00000000
_symmetry_Int_Tables_number   1
_chemical_formula_structural   Tm4Mg3GaPt4
_chemical_formula_sum   'Tm4 Mg3 Ga1 Pt4'
_cell_volume   245.16209875
_cell_formula_units_Z   1
loop_
 _symmetry_equiv_pos_site_id
 _symmetry_equiv_pos_as_xyz
  1  'x, y, z'
loop_
 _atom_site_type_symbol
 _atom_site_label
 _atom_site_symmetry_multiplicity
 _atom_site_fract_x
 _atom_site_fract_y
 _atom_site_fract_z
 _atom_site_occupancy
  Tm  Tm0  1  0.250000  0.964762  0.319219  1
  Tm  Tm1  1  0.250000  0.451755  0.173991  1
  Tm  Tm2  1  0.750000  0.041446  0.679519  1
  Tm  Tm3  1  0.750000  0.534089  0.829116  1
  Mg  Mg4  1  0.250000  0.364237  0.561647  1
  Mg  Mg5  1  0.250000  0.866119  0.941649  1
  Mg  Mg6  1  0.750000  0.636335  0.439973  1
  Ga  Ga7  1  0.750000  0.133302  0.058109  1
  Pt  Pt8  1  0.250000  0.251783  0.877865  1
  Pt  Pt9  1  0.250000  0.758220  0.626026  1
  Pt  Pt10  1  0.750000  0.752184  0.124582  1
  Pt  Pt11  1  0.750000  0.245768  0.368306  1
