# generated using pymatgen
data_TbPa3(CoP)4
_symmetry_space_group_name_H-M   'P 1'
_cell_length_a   3.89383900
_cell_length_b   3.89383882
_cell_length_c   15.30131800
_cell_angle_alpha   90.00000000
_cell_angle_beta   90.00000000
_cell_angle_gamma   120.00000999
_symmetry_Int_Tables_number   1
_chemical_formula_structural   TbPa3(CoP)4
_chemical_formula_sum   'Tb1 Pa3 Co4 P4'
_cell_volume   200.91640121
_cell_formula_units_Z   1
loop_
 _symmetry_equiv_pos_site_id
 _symmetry_equiv_pos_as_xyz
  1  'x, y, z'
loop_
 _atom_site_type_symbol
 _atom_site_label
 _atom_site_symmetry_multiplicity
 _atom_site_fract_x
 _atom_site_fract_y
 _atom_site_fract_z
 _atom_site_occupancy
  Tb  Tb0  1  0.000000  0.000000  0.750000  1
  Pa  Pa1  1  0.000000  0.000000  0.250000  1
  Pa  Pa2  1  0.000000  0.000000  0.000356  1
  Pa  Pa3  1  0.000000  0.000000  0.499644  1
  Co  Co4  1  0.333333  0.666667  0.119639  1
  Co  Co5  1  0.666667  0.333333  0.894111  1
  Co  Co6  1  0.666667  0.333333  0.605889  1
  Co  Co7  1  0.333333  0.666667  0.380361  1
  P  P8  1  0.333333  0.666667  0.629178  1
  P  P9  1  0.666667  0.333333  0.369097  1
  P  P10  1  0.666667  0.333333  0.130903  1
  P  P11  1  0.333333  0.666667  0.870822  1
