# generated using pymatgen
data_ScZn3Ni
_symmetry_space_group_name_H-M   'P 1'
_cell_length_a   8.67870028
_cell_length_b   8.67870013
_cell_length_c   8.67870000
_cell_angle_alpha   60.00000050
_cell_angle_beta   60.00000108
_cell_angle_gamma   60.00000014
_symmetry_Int_Tables_number   1
_chemical_formula_structural   ScZn3Ni
_chemical_formula_sum   'Sc6 Zn18 Ni6'
_cell_volume   462.22034489
_cell_formula_units_Z   6
loop_
 _symmetry_equiv_pos_site_id
 _symmetry_equiv_pos_as_xyz
  1  'x, y, z'
loop_
 _atom_site_type_symbol
 _atom_site_label
 _atom_site_symmetry_multiplicity
 _atom_site_fract_x
 _atom_site_fract_y
 _atom_site_fract_z
 _atom_site_occupancy
  Sc  Sc0  1  0.726830  0.273170  0.273170  1
  Sc  Sc1  1  0.273170  0.726830  0.726830  1
  Sc  Sc2  1  0.273170  0.726830  0.273170  1
  Sc  Sc3  1  0.726830  0.273170  0.726830  1
  Sc  Sc4  1  0.273170  0.273170  0.726830  1
  Sc  Sc5  1  0.726830  0.726830  0.273170  1
  Zn  Zn6  1  0.126921  0.126921  0.126921  1
  Zn  Zn7  1  0.873079  0.873079  0.873079  1
  Zn  Zn8  1  0.126921  0.126921  0.619240  1
  Zn  Zn9  1  0.126921  0.619240  0.126921  1
  Zn  Zn10  1  0.873079  0.873079  0.380760  1
  Zn  Zn11  1  0.873079  0.380760  0.873079  1
  Zn  Zn12  1  0.619240  0.126921  0.126921  1
  Zn  Zn13  1  0.380760  0.873079  0.873079  1
  Zn  Zn14  1  0.339669  0.339669  0.339669  1
  Zn  Zn15  1  0.660331  0.660331  0.660331  1
  Zn  Zn16  1  0.339669  0.339669  0.980992  1
  Zn  Zn17  1  0.339669  0.980992  0.339669  1
  Zn  Zn18  1  0.660331  0.660331  0.019008  1
  Zn  Zn19  1  0.660331  0.019008  0.660331  1
  Zn  Zn20  1  0.980992  0.339669  0.339669  1
  Zn  Zn21  1  0.019008  0.660331  0.660331  1
  Zn  Zn22  1  0.000000  0.000000  0.000000  1
  Zn  Zn23  1  0.500000  0.500000  0.500000  1
  Ni  Ni24  1  0.500000  0.000000  0.000000  1
  Ni  Ni25  1  0.000000  0.500000  0.500000  1
  Ni  Ni26  1  0.000000  0.500000  0.000000  1
  Ni  Ni27  1  0.500000  0.000000  0.500000  1
  Ni  Ni28  1  0.000000  0.000000  0.500000  1
  Ni  Ni29  1  0.500000  0.500000  0.000000  1
