# generated using pymatgen
data_Ho19Lu(Cd3Ru)2
_symmetry_space_group_name_H-M   'P 1'
_cell_length_a   9.53607100
_cell_length_b   9.53607098
_cell_length_c   9.80987400
_cell_angle_alpha   90.00000000
_cell_angle_beta   90.00000000
_cell_angle_gamma   119.99999661
_symmetry_Int_Tables_number   1
_chemical_formula_structural   Ho19Lu(Cd3Ru)2
_chemical_formula_sum   'Ho19 Lu1 Cd6 Ru2'
_cell_volume   772.56143758
_cell_formula_units_Z   1
loop_
 _symmetry_equiv_pos_site_id
 _symmetry_equiv_pos_as_xyz
  1  'x, y, z'
loop_
 _atom_site_type_symbol
 _atom_site_label
 _atom_site_symmetry_multiplicity
 _atom_site_fract_x
 _atom_site_fract_y
 _atom_site_fract_z
 _atom_site_occupancy
  Ho  Ho0  1  0.000000  0.000000  0.000000  1
  Ho  Ho1  1  0.209302  0.790698  0.440272  1
  Ho  Ho2  1  0.209302  0.418606  0.440272  1
  Ho  Ho3  1  0.581394  0.790698  0.440272  1
  Ho  Ho4  1  0.790698  0.209302  0.559728  1
  Ho  Ho5  1  0.790698  0.581394  0.559728  1
  Ho  Ho6  1  0.418606  0.209302  0.559728  1
  Ho  Ho7  1  0.790036  0.209964  0.940364  1
  Ho  Ho8  1  0.790036  0.580070  0.940364  1
  Ho  Ho9  1  0.419930  0.209964  0.940364  1
  Ho  Ho10  1  0.209964  0.790036  0.059636  1
  Ho  Ho11  1  0.209964  0.419930  0.059636  1
  Ho  Ho12  1  0.580070  0.790036  0.059636  1
  Ho  Ho13  1  0.541118  0.458882  0.250163  1
  Ho  Ho14  1  0.541118  0.082236  0.250163  1
  Ho  Ho15  1  0.917764  0.458882  0.250163  1
  Ho  Ho16  1  0.458882  0.541118  0.749837  1
  Ho  Ho17  1  0.458882  0.917764  0.749837  1
  Ho  Ho18  1  0.082236  0.541118  0.749837  1
  Lu  Lu19  1  0.000000  0.000000  0.500000  1
  Cd  Cd20  1  0.885858  0.114142  0.251394  1
  Cd  Cd21  1  0.885858  0.771717  0.251394  1
  Cd  Cd22  1  0.228283  0.114142  0.251394  1
  Cd  Cd23  1  0.114142  0.885858  0.748606  1
  Cd  Cd24  1  0.114142  0.228283  0.748606  1
  Cd  Cd25  1  0.771717  0.885858  0.748606  1
  Ru  Ru26  1  0.333333  0.666667  0.250398  1
  Ru  Ru27  1  0.666667  0.333333  0.749602  1
