# generated using pymatgen
data_Li5Hf12Os6Pd
_symmetry_space_group_name_H-M   'P 1'
_cell_length_a   4.63388300
_cell_length_b   6.55760100
_cell_length_c   13.84263600
_cell_angle_alpha   90.00000000
_cell_angle_beta   90.00041715
_cell_angle_gamma   90.00000000
_symmetry_Int_Tables_number   1
_chemical_formula_structural   Li5Hf12Os6Pd
_chemical_formula_sum   'Li5 Hf12 Os6 Pd1'
_cell_volume   420.63833674
_cell_formula_units_Z   1
loop_
 _symmetry_equiv_pos_site_id
 _symmetry_equiv_pos_as_xyz
  1  'x, y, z'
loop_
 _atom_site_type_symbol
 _atom_site_label
 _atom_site_symmetry_multiplicity
 _atom_site_fract_x
 _atom_site_fract_y
 _atom_site_fract_z
 _atom_site_occupancy
  Li  Li0  1  0.499340  0.500000  0.166858  1
  Li  Li1  1  0.999324  0.000000  0.333622  1
  Li  Li2  1  0.500000  0.500000  0.500000  1
  Li  Li3  1  0.000674  0.000000  0.666378  1
  Li  Li4  1  0.500661  0.500000  0.833142  1
  Hf  Hf5  1  0.500000  0.253039  0.000000  1
  Hf  Hf6  1  0.500000  0.746961  0.000000  1
  Hf  Hf7  1  0.999529  0.253022  0.167348  1
  Hf  Hf8  1  0.999529  0.746977  0.167348  1
  Hf  Hf9  1  0.499527  0.249869  0.333112  1
  Hf  Hf10  1  0.499527  0.750130  0.333112  1
  Hf  Hf11  1  0.000000  0.251044  0.500000  1
  Hf  Hf12  1  0.000000  0.748956  0.500000  1
  Hf  Hf13  1  0.500474  0.249869  0.666888  1
  Hf  Hf14  1  0.500474  0.750130  0.666888  1
  Hf  Hf15  1  0.000469  0.253022  0.832652  1
  Hf  Hf16  1  0.000469  0.746977  0.832652  1
  Os  Os17  1  0.000000  0.500000  0.000000  1
  Os  Os18  1  0.499516  0.000000  0.168048  1
  Os  Os19  1  0.999508  0.500000  0.333706  1
  Os  Os20  1  0.500000  0.000000  0.500000  1
  Os  Os21  1  0.000492  0.500000  0.666295  1
  Os  Os22  1  0.500482  0.000000  0.831951  1
  Pd  Pd23  1  0.000000  0.000000  0.000000  1
