# generated using pymatgen
data_SnIrRhSe5
_symmetry_space_group_name_H-M   'P 1'
_cell_length_a   3.81610300
_cell_length_b   7.74913673
_cell_length_c   12.93714293
_cell_angle_alpha   78.26562727
_cell_angle_beta   90.00000000
_cell_angle_gamma   90.00000000
_symmetry_Int_Tables_number   1
_chemical_formula_structural   SnIrRhSe5
_chemical_formula_sum   'Sn2 Ir2 Rh2 Se10'
_cell_volume   374.57541837
_cell_formula_units_Z   2
loop_
 _symmetry_equiv_pos_site_id
 _symmetry_equiv_pos_as_xyz
  1  'x, y, z'
loop_
 _atom_site_type_symbol
 _atom_site_label
 _atom_site_symmetry_multiplicity
 _atom_site_fract_x
 _atom_site_fract_y
 _atom_site_fract_z
 _atom_site_occupancy
  Sn  Sn0  1  0.500000  0.165502  0.665223  1
  Sn  Sn1  1  0.500000  0.834498  0.334777  1
  Ir  Ir2  1  0.000000  0.256220  0.150055  1
  Ir  Ir3  1  0.000000  0.743780  0.849945  1
  Rh  Rh4  1  0.500000  0.751179  0.146278  1
  Rh  Rh5  1  0.500000  0.248821  0.853722  1
  Se  Se6  1  0.000000  0.957997  0.104068  1
  Se  Se7  1  0.000000  0.042003  0.895932  1
  Se  Se8  1  0.000000  0.459872  0.781641  1
  Se  Se9  1  0.000000  0.540128  0.218359  1
  Se  Se10  1  0.500000  0.665423  0.972328  1
  Se  Se11  1  0.500000  0.334577  0.027672  1
  Se  Se12  1  0.500000  0.189992  0.281862  1
  Se  Se13  1  0.500000  0.810008  0.718138  1
  Se  Se14  1  0.000000  0.245876  0.532042  1
  Se  Se15  1  0.000000  0.754124  0.467958  1
