# generated using pymatgen
data_Tb5Tm11In3AgRh4
_symmetry_space_group_name_H-M   'P 1'
_cell_length_a   9.56510514
_cell_length_b   9.56030857
_cell_length_c   9.56030852
_cell_angle_alpha   59.83214112
_cell_angle_beta   59.64546118
_cell_angle_gamma   59.64546150
_symmetry_Int_Tables_number   1
_chemical_formula_structural   Tb5Tm11In3AgRh4
_chemical_formula_sum   'Tb5 Tm11 In3 Ag1 Rh4'
_cell_volume   614.07630393
_cell_formula_units_Z   1
loop_
 _symmetry_equiv_pos_site_id
 _symmetry_equiv_pos_as_xyz
  1  'x, y, z'
loop_
 _atom_site_type_symbol
 _atom_site_label
 _atom_site_symmetry_multiplicity
 _atom_site_fract_x
 _atom_site_fract_y
 _atom_site_fract_z
 _atom_site_occupancy
  Tb  Tb0  1  0.063236  0.062614  0.437707  1
  Tb  Tb1  1  0.438427  0.066213  0.436973  1
  Tb  Tb2  1  0.063236  0.437707  0.062614  1
  Tb  Tb3  1  0.052495  0.648971  0.648971  1
  Tb  Tb4  1  0.438427  0.436973  0.066213  1
  Tm  Tm5  1  0.649518  0.051489  0.647295  1
  Tm  Tm6  1  0.187806  0.814299  0.187331  1
  Tm  Tm7  1  0.187806  0.187331  0.814299  1
  Tm  Tm8  1  0.809435  0.809366  0.191394  1
  Tm  Tm9  1  0.441929  0.058668  0.058668  1
  Tm  Tm10  1  0.814545  0.187790  0.187790  1
  Tm  Tm11  1  0.063738  0.440029  0.440029  1
  Tm  Tm12  1  0.809435  0.191394  0.809366  1
  Tm  Tm13  1  0.190539  0.810273  0.810273  1
  Tm  Tm14  1  0.649518  0.647295  0.051489  1
  Tm  Tm15  1  0.649021  0.650661  0.650661  1
  In  In16  1  0.745272  0.417826  0.417826  1
  In  In17  1  0.418908  0.746215  0.415532  1
  In  In18  1  0.418908  0.415532  0.746215  1
  Ag  Ag19  1  0.415835  0.417492  0.417492  1
  Rh  Rh20  1  0.855455  0.857552  0.426291  1
  Rh  Rh21  1  0.853107  0.859715  0.859715  1
  Rh  Rh22  1  0.427947  0.858305  0.858305  1
  Rh  Rh23  1  0.855455  0.426291  0.857552  1
