# generated using pymatgen
data_PrHg3Ru3PtO14
_symmetry_space_group_name_H-M   'P 1'
_cell_length_a   7.33892519
_cell_length_b   7.40661912
_cell_length_c   7.28619821
_cell_angle_alpha   60.44826974
_cell_angle_beta   59.76032868
_cell_angle_gamma   60.30188044
_symmetry_Int_Tables_number   1
_chemical_formula_structural   PrHg3Ru3PtO14
_chemical_formula_sum   'Pr1 Hg3 Ru3 Pt1 O14'
_cell_volume   281.10881489
_cell_formula_units_Z   1
loop_
 _symmetry_equiv_pos_site_id
 _symmetry_equiv_pos_as_xyz
  1  'x, y, z'
loop_
 _atom_site_type_symbol
 _atom_site_label
 _atom_site_symmetry_multiplicity
 _atom_site_fract_x
 _atom_site_fract_y
 _atom_site_fract_z
 _atom_site_occupancy
  Pr  Pr0  1  0.625000  0.125000  0.625000  1
  Hg  Hg1  1  0.625000  0.625000  0.125000  1
  Hg  Hg2  1  0.125000  0.625000  0.625000  1
  Hg  Hg3  1  0.625000  0.625000  0.625000  1
  Ru  Ru4  1  0.125000  0.625000  0.125000  1
  Ru  Ru5  1  0.625000  0.125000  0.125000  1
  Ru  Ru6  1  0.125000  0.125000  0.125000  1
  Pt  Pt7  1  0.125000  0.125000  0.625000  1
  O  O8  1  0.752866  0.728438  0.765831  1
  O  O9  1  0.497134  0.521562  0.484169  1
  O  O10  1  0.062621  0.427836  0.077151  1
  O  O11  1  0.792410  0.202261  0.796382  1
  O  O12  1  0.041054  0.047739  0.453618  1
  O  O13  1  0.445622  0.052556  0.056201  1
  O  O14  1  0.046268  0.454843  0.452620  1
  O  O15  1  0.432392  0.427836  0.077151  1
  O  O16  1  0.457590  0.047739  0.453618  1
  O  O17  1  0.203732  0.795157  0.797380  1
  O  O18  1  0.804378  0.197444  0.193799  1
  O  O19  1  0.187379  0.822164  0.172849  1
  O  O20  1  0.817608  0.822164  0.172849  1
  O  O21  1  0.208946  0.202261  0.796382  1
