# generated using pymatgen
data_Dy10Y2GaCo4Sn
_symmetry_space_group_name_H-M   'P 1'
_cell_length_a   8.33664055
_cell_length_b   8.33664155
_cell_length_c   8.34486732
_cell_angle_alpha   107.07652871
_cell_angle_beta   109.18777440
_cell_angle_gamma   112.15243024
_symmetry_Int_Tables_number   1
_chemical_formula_structural   Dy10Y2GaCo4Sn
_chemical_formula_sum   'Dy10 Y2 Ga1 Co4 Sn1'
_cell_volume   445.77468459
_cell_formula_units_Z   1
loop_
 _symmetry_equiv_pos_site_id
 _symmetry_equiv_pos_as_xyz
  1  'x, y, z'
loop_
 _atom_site_type_symbol
 _atom_site_label
 _atom_site_symmetry_multiplicity
 _atom_site_fract_x
 _atom_site_fract_y
 _atom_site_fract_z
 _atom_site_occupancy
  Dy  Dy0  1  0.299233  0.732029  0.031261  1
  Dy  Dy1  1  0.700767  0.267971  0.968739  1
  Dy  Dy2  1  0.186002  0.510637  0.324806  1
  Dy  Dy3  1  0.185832  0.861197  0.675194  1
  Dy  Dy4  1  0.813998  0.489363  0.675194  1
  Dy  Dy5  1  0.814168  0.138803  0.324806  1
  Dy  Dy6  1  0.398743  0.217714  0.179587  1
  Dy  Dy7  1  0.038127  0.219156  0.820413  1
  Dy  Dy8  1  0.961873  0.780844  0.179587  1
  Dy  Dy9  1  0.601257  0.782286  0.820413  1
  Y  Y10  1  0.299576  0.266784  0.566360  1
  Y  Y11  1  0.700424  0.733216  0.433640  1
  Ga  Ga12  1  0.500000  0.500000  0.000000  1
  Co  Co13  1  0.157193  0.500373  0.657568  1
  Co  Co14  1  0.842807  0.499627  0.342432  1
  Co  Co15  1  0.999691  0.113821  0.113511  1
  Co  Co16  1  0.000309  0.886179  0.886489  1
  Sn  Sn17  1  0.500000  0.000000  0.500000  1
