# generated using pymatgen
data_Eu6Mn(SiO7)2
_symmetry_space_group_name_H-M   'P 1'
_cell_length_a   8.56285342
_cell_length_b   8.56225149
_cell_length_c   4.85335882
_cell_angle_alpha   89.92128599
_cell_angle_beta   89.93511817
_cell_angle_gamma   120.01543779
_symmetry_Int_Tables_number   1
_chemical_formula_structural   Eu6Mn(SiO7)2
_chemical_formula_sum   'Eu6 Mn1 Si2 O14'
_cell_volume   308.11339013
_cell_formula_units_Z   1
loop_
 _symmetry_equiv_pos_site_id
 _symmetry_equiv_pos_as_xyz
  1  'x, y, z'
loop_
 _atom_site_type_symbol
 _atom_site_label
 _atom_site_symmetry_multiplicity
 _atom_site_fract_x
 _atom_site_fract_y
 _atom_site_fract_z
 _atom_site_occupancy
  Eu  Eu0  1  0.889340  0.258718  0.263670  1
  Eu  Eu1  1  0.741322  0.630659  0.263690  1
  Eu  Eu2  1  0.369374  0.110536  0.263505  1
  Eu  Eu3  1  0.112568  0.751913  0.773444  1
  Eu  Eu4  1  0.248259  0.360792  0.773567  1
  Eu  Eu5  1  0.639235  0.887537  0.773295  1
  Mn  Mn6  1  0.999992  0.000003  0.480161  1
  Si  Si7  1  0.666742  0.333454  0.824398  1
  Si  Si8  1  0.333386  0.666702  0.338108  1
  O  O9  1  0.666712  0.333291  0.487969  1
  O  O10  1  0.333352  0.666673  0.000949  1
  O  O11  1  0.930005  0.148520  0.701055  1
  O  O12  1  0.851585  0.781793  0.701214  1
  O  O13  1  0.218415  0.069882  0.701064  1
  O  O14  1  0.065452  0.846955  0.266805  1
  O  O15  1  0.152899  0.218203  0.266637  1
  O  O16  1  0.781559  0.934620  0.266981  1
  O  O17  1  0.607266  0.132939  0.955500  1
  O  O18  1  0.867022  0.474221  0.955436  1
  O  O19  1  0.525654  0.392715  0.955559  1
  O  O20  1  0.400949  0.869332  0.467460  1
  O  O21  1  0.130591  0.531679  0.467620  1
  O  O22  1  0.468319  0.598864  0.467572  1
