# generated using pymatgen
data_DyPa3(BRu)16
_symmetry_space_group_name_H-M   'P 1'
_cell_length_a   9.26196784
_cell_length_b   7.51111398
_cell_length_c   7.51111500
_cell_angle_alpha   89.83753580
_cell_angle_beta   113.99339309
_cell_angle_gamma   113.99339229
_symmetry_Int_Tables_number   1
_chemical_formula_structural   DyPa3(BRu)16
_chemical_formula_sum   'Dy1 Pa3 B16 Ru16'
_cell_volume   427.78396293
_cell_formula_units_Z   1
loop_
 _symmetry_equiv_pos_site_id
 _symmetry_equiv_pos_as_xyz
  1  'x, y, z'
loop_
 _atom_site_type_symbol
 _atom_site_label
 _atom_site_symmetry_multiplicity
 _atom_site_fract_x
 _atom_site_fract_y
 _atom_site_fract_z
 _atom_site_occupancy
  Dy  Dy0  1  0.249999  0.125000  0.875000  1
  Pa  Pa1  1  0.750000  0.875000  0.125000  1
  Pa  Pa2  1  0.249999  0.625000  0.375000  1
  Pa  Pa3  1  0.750000  0.375000  0.625000  1
  B  B4  1  0.915525  0.288420  0.064847  1
  B  B5  1  0.415050  0.565560  0.125607  1
  B  B6  1  0.084950  0.210557  0.150509  1
  B  B7  1  0.582388  0.147324  0.208824  1
  B  B8  1  0.413299  0.063048  0.287539  1
  B  B9  1  0.915525  0.627106  0.350679  1
  B  B10  1  0.584475  0.649322  0.372895  1
  B  B11  1  0.084950  0.874394  0.434441  1
  B  B12  1  0.917612  0.126435  0.564937  1
  B  B13  1  0.413299  0.350251  0.625760  1
  B  B14  1  0.086701  0.374241  0.649750  1
  B  B15  1  0.584475  0.935152  0.711581  1
  B  B16  1  0.415050  0.849490  0.789444  1
  B  B17  1  0.917612  0.791177  0.852676  1
  B  B18  1  0.582388  0.435064  0.873565  1
  B  B19  1  0.086701  0.712461  0.936951  1
  Ru  Ru20  1  0.872133  0.549642  0.034579  1
  Ru  Ru21  1  0.373559  0.832609  0.051254  1
  Ru  Ru22  1  0.126441  0.948747  0.167391  1
  Ru  Ru23  1  0.628538  0.465097  0.177941  1
  Ru  Ru24  1  0.374681  0.337041  0.323947  1
  Ru  Ru25  1  0.872133  0.322491  0.337555  1
  Ru  Ru26  1  0.627868  0.965421  0.450358  1
  Ru  Ru27  1  0.126441  0.177694  0.459049  1
  Ru  Ru28  1  0.871463  0.822060  0.534902  1
  Ru  Ru29  1  0.374681  0.037640  0.550733  1
  Ru  Ru30  1  0.125319  0.676052  0.662958  1
  Ru  Ru31  1  0.627868  0.662445  0.677508  1
  Ru  Ru32  1  0.373559  0.540950  0.822307  1
  Ru  Ru33  1  0.871463  0.049403  0.836561  1
  Ru  Ru34  1  0.628538  0.163440  0.950598  1
  Ru  Ru35  1  0.125319  0.449266  0.962361  1
