# generated using pymatgen
data_DyHo5VFeB14
_symmetry_space_group_name_H-M   'P 1'
_cell_length_a   8.06152305
_cell_length_b   8.06152359
_cell_length_c   9.31916700
_cell_angle_alpha   90.00000000
_cell_angle_beta   90.00000000
_cell_angle_gamma   155.49719006
_symmetry_Int_Tables_number   1
_chemical_formula_structural   DyHo5VFeB14
_chemical_formula_sum   'Dy1 Ho5 V1 Fe1 B14'
_cell_volume   251.17997667
_cell_formula_units_Z   1
loop_
 _symmetry_equiv_pos_site_id
 _symmetry_equiv_pos_as_xyz
  1  'x, y, z'
loop_
 _atom_site_type_symbol
 _atom_site_label
 _atom_site_symmetry_multiplicity
 _atom_site_fract_x
 _atom_site_fract_y
 _atom_site_fract_z
 _atom_site_occupancy
  Dy  Dy0  1  0.243949  0.756051  0.250000  1
  Ho  Ho1  1  0.893902  0.106098  0.442145  1
  Ho  Ho2  1  0.105083  0.894917  0.563102  1
  Ho  Ho3  1  0.893902  0.106098  0.057855  1
  Ho  Ho4  1  0.105083  0.894917  0.936898  1
  Ho  Ho5  1  0.758695  0.241305  0.750000  1
  V  V6  1  0.052351  0.947649  0.250000  1
  Fe  Fe7  1  0.945532  0.054468  0.750000  1
  B  B8  1  0.727955  0.272045  0.469475  1
  B  B9  1  0.273197  0.726803  0.535263  1
  B  B10  1  0.727955  0.272045  0.030525  1
  B  B11  1  0.273197  0.726803  0.964737  1
  B  B12  1  0.632808  0.367192  0.148618  1
  B  B13  1  0.370669  0.629331  0.846895  1
  B  B14  1  0.632808  0.367192  0.351382  1
  B  B15  1  0.370669  0.629331  0.653105  1
  B  B16  1  0.520312  0.479688  0.093208  1
  B  B17  1  0.478202  0.521798  0.902510  1
  B  B18  1  0.520312  0.479688  0.406792  1
  B  B19  1  0.478202  0.521798  0.597490  1
  B  B20  1  0.456863  0.543137  0.250000  1
  B  B21  1  0.538354  0.461646  0.750000  1
