# generated using pymatgen
data_Th8MnS17
_symmetry_space_group_name_H-M   'P 1'
_cell_length_a   8.12410996
_cell_length_b   8.12411001
_cell_length_c   10.78659524
_cell_angle_alpha   80.39496245
_cell_angle_beta   80.39496229
_cell_angle_gamma   64.55464993
_symmetry_Int_Tables_number   1
_chemical_formula_structural   Th8MnS17
_chemical_formula_sum   'Th8 Mn1 S17'
_cell_volume   630.22421711
_cell_formula_units_Z   1
loop_
 _symmetry_equiv_pos_site_id
 _symmetry_equiv_pos_as_xyz
  1  'x, y, z'
loop_
 _atom_site_type_symbol
 _atom_site_label
 _atom_site_symmetry_multiplicity
 _atom_site_fract_x
 _atom_site_fract_y
 _atom_site_fract_z
 _atom_site_occupancy
  Th  Th0  1  0.813786  0.301735  0.295152  1
  Th  Th1  1  0.301735  0.813786  0.295152  1
  Th  Th2  1  0.186214  0.698265  0.704848  1
  Th  Th3  1  0.698265  0.186214  0.704848  1
  Th  Th4  1  0.795213  0.795213  0.454641  1
  Th  Th5  1  0.204787  0.204787  0.545359  1
  Th  Th6  1  0.315563  0.315563  0.022719  1
  Th  Th7  1  0.684437  0.684437  0.977281  1
  Mn  Mn8  1  0.000000  0.000000  0.000000  1
  S  S9  1  0.175997  0.570140  0.469244  1
  S  S10  1  0.570140  0.175997  0.469244  1
  S  S11  1  0.824003  0.429860  0.530756  1
  S  S12  1  0.429860  0.824003  0.530756  1
  S  S13  1  0.942221  0.326956  0.035195  1
  S  S14  1  0.326956  0.942221  0.035195  1
  S  S15  1  0.057779  0.673044  0.964805  1
  S  S16  1  0.673044  0.057779  0.964805  1
  S  S17  1  0.941651  0.941651  0.228451  1
  S  S18  1  0.058349  0.058349  0.771549  1
  S  S19  1  0.791836  0.791836  0.719361  1
  S  S20  1  0.208164  0.208164  0.280639  1
  S  S21  1  0.696361  0.696361  0.245487  1
  S  S22  1  0.303639  0.303639  0.754513  1
  S  S23  1  0.480169  0.480169  0.168474  1
  S  S24  1  0.519831  0.519831  0.831526  1
  S  S25  1  0.000000  0.000000  0.500000  1
