# generated using pymatgen
data_Li3Nd3CdPb4
_symmetry_space_group_name_H-M   'P 1'
_cell_length_a   4.82212052
_cell_length_b   7.50956865
_cell_length_c   9.01617700
_cell_angle_alpha   113.79116859
_cell_angle_beta   105.51049759
_cell_angle_gamma   90.00000360
_symmetry_Int_Tables_number   1
_chemical_formula_structural   Li3Nd3CdPb4
_chemical_formula_sum   'Li3 Nd3 Cd1 Pb4'
_cell_volume   285.70654389
_cell_formula_units_Z   1
loop_
 _symmetry_equiv_pos_site_id
 _symmetry_equiv_pos_as_xyz
  1  'x, y, z'
loop_
 _atom_site_type_symbol
 _atom_site_label
 _atom_site_symmetry_multiplicity
 _atom_site_fract_x
 _atom_site_fract_y
 _atom_site_fract_z
 _atom_site_occupancy
  Li  Li0  1  0.326393  0.014953  0.652788  1
  Li  Li1  1  0.326207  0.643080  0.652415  1
  Li  Li2  1  0.671850  0.364455  0.343700  1
  Nd  Nd3  1  0.002809  0.003141  0.005617  1
  Nd  Nd4  1  0.126366  0.619203  0.252732  1
  Nd  Nd5  1  0.874713  0.371182  0.749427  1
  Cd  Cd6  1  0.672710  0.978891  0.345419  1
  Pb  Pb7  1  0.492580  0.693246  0.985162  1
  Pb  Pb8  1  0.499693  0.294203  0.999386  1
  Pb  Pb9  1  0.788952  0.775370  0.577903  1
  Pb  Pb10  1  0.217725  0.242276  0.435452  1
