# generated using pymatgen
data_LaPr5(HfBi5)2
_symmetry_space_group_name_H-M   'P 1'
_cell_length_a   9.78598477
_cell_length_b   9.78598555
_cell_length_c   6.58435500
_cell_angle_alpha   90.00000000
_cell_angle_beta   90.00000000
_cell_angle_gamma   120.02558439
_symmetry_Int_Tables_number   1
_chemical_formula_structural   LaPr5(HfBi5)2
_chemical_formula_sum   'La1 Pr5 Hf2 Bi10'
_cell_volume   545.93502028
_cell_formula_units_Z   1
loop_
 _symmetry_equiv_pos_site_id
 _symmetry_equiv_pos_as_xyz
  1  'x, y, z'
loop_
 _atom_site_type_symbol
 _atom_site_label
 _atom_site_symmetry_multiplicity
 _atom_site_fract_x
 _atom_site_fract_y
 _atom_site_fract_z
 _atom_site_occupancy
  La  La0  1  0.618068  0.618068  0.750000  1
  Pr  Pr1  1  0.618866  0.000167  0.250000  1
  Pr  Pr2  1  0.380667  0.000084  0.750000  1
  Pr  Pr3  1  0.000167  0.618866  0.250000  1
  Pr  Pr4  1  0.000084  0.380667  0.750000  1
  Pr  Pr5  1  0.380278  0.380278  0.250000  1
  Hf  Hf6  1  0.000569  0.000569  0.000190  1
  Hf  Hf7  1  0.000569  0.000569  0.499810  1
  Bi  Bi8  1  0.262131  0.999956  0.250000  1
  Bi  Bi9  1  0.739099  0.001081  0.750000  1
  Bi  Bi10  1  0.999956  0.262131  0.250000  1
  Bi  Bi11  1  0.001081  0.739099  0.750000  1
  Bi  Bi12  1  0.738492  0.738492  0.250000  1
  Bi  Bi13  1  0.262062  0.262062  0.750000  1
  Bi  Bi14  1  0.332447  0.666507  0.000727  1
  Bi  Bi15  1  0.666507  0.332447  0.000727  1
  Bi  Bi16  1  0.666507  0.332447  0.499273  1
  Bi  Bi17  1  0.332447  0.666507  0.499273  1
