# generated using pymatgen
data_Yb3GaGePt2
_symmetry_space_group_name_H-M   'P 1'
_cell_length_a   5.62278100
_cell_length_b   7.96256700
_cell_length_c   13.49368300
_cell_angle_alpha   90.00000000
_cell_angle_beta   90.00000000
_cell_angle_gamma   90.00000000
_symmetry_Int_Tables_number   1
_chemical_formula_structural   Yb3GaGePt2
_chemical_formula_sum   'Yb12 Ga4 Ge4 Pt8'
_cell_volume   604.13607765
_cell_formula_units_Z   4
loop_
 _symmetry_equiv_pos_site_id
 _symmetry_equiv_pos_as_xyz
  1  'x, y, z'
loop_
 _atom_site_type_symbol
 _atom_site_label
 _atom_site_symmetry_multiplicity
 _atom_site_fract_x
 _atom_site_fract_y
 _atom_site_fract_z
 _atom_site_occupancy
  Yb  Yb0  1  0.145413  0.607907  0.100199  1
  Yb  Yb1  1  0.145413  0.892093  0.899801  1
  Yb  Yb2  1  0.854587  0.107907  0.399801  1
  Yb  Yb3  1  0.854587  0.392093  0.600199  1
  Yb  Yb4  1  0.854587  0.392093  0.899801  1
  Yb  Yb5  1  0.854587  0.107907  0.100199  1
  Yb  Yb6  1  0.145413  0.892093  0.600199  1
  Yb  Yb7  1  0.145413  0.607907  0.399801  1
  Yb  Yb8  1  0.363401  0.249831  0.250000  1
  Yb  Yb9  1  0.363401  0.250169  0.750000  1
  Yb  Yb10  1  0.636599  0.749831  0.250000  1
  Yb  Yb11  1  0.636599  0.750169  0.750000  1
  Ga  Ga12  1  0.357152  0.250000  0.000000  1
  Ga  Ga13  1  0.642848  0.750000  0.500000  1
  Ga  Ga14  1  0.642848  0.750000  0.000000  1
  Ga  Ga15  1  0.357152  0.250000  0.500000  1
  Ge  Ge16  1  0.865927  0.398565  0.250000  1
  Ge  Ge17  1  0.865927  0.101435  0.750000  1
  Ge  Ge18  1  0.134073  0.898565  0.250000  1
  Ge  Ge19  1  0.134073  0.601435  0.750000  1
  Pt  Pt20  1  0.630646  0.465005  0.093058  1
  Pt  Pt21  1  0.630646  0.034995  0.906942  1
  Pt  Pt22  1  0.369354  0.965005  0.406942  1
  Pt  Pt23  1  0.369354  0.534995  0.593058  1
  Pt  Pt24  1  0.369354  0.534995  0.906942  1
  Pt  Pt25  1  0.369354  0.965005  0.093058  1
  Pt  Pt26  1  0.630646  0.034995  0.593058  1
  Pt  Pt27  1  0.630646  0.465005  0.406942  1
