# generated using pymatgen
data_Yb5Cd(BiN)2
_symmetry_space_group_name_H-M   'P 1'
_cell_length_a   6.95676000
_cell_length_b   6.95040800
_cell_length_c   9.31145700
_cell_angle_alpha   90.00000000
_cell_angle_beta   90.00000000
_cell_angle_gamma   90.00000000
_symmetry_Int_Tables_number   1
_chemical_formula_structural   Yb5Cd(BiN)2
_chemical_formula_sum   'Yb10 Cd2 Bi4 N4'
_cell_volume   450.23055186
_cell_formula_units_Z   2
loop_
 _symmetry_equiv_pos_site_id
 _symmetry_equiv_pos_as_xyz
  1  'x, y, z'
loop_
 _atom_site_type_symbol
 _atom_site_label
 _atom_site_symmetry_multiplicity
 _atom_site_fract_x
 _atom_site_fract_y
 _atom_site_fract_z
 _atom_site_occupancy
  Yb  Yb0  1  0.750338  0.750287  0.991177  1
  Yb  Yb1  1  0.749662  0.250287  0.508823  1
  Yb  Yb2  1  0.249398  0.249736  0.518089  1
  Yb  Yb3  1  0.250602  0.749736  0.981911  1
  Yb  Yb4  1  0.249398  0.249736  0.981911  1
  Yb  Yb5  1  0.250602  0.749736  0.518089  1
  Yb  Yb6  1  0.750338  0.750287  0.508823  1
  Yb  Yb7  1  0.749662  0.250287  0.991177  1
  Yb  Yb8  1  0.491113  0.000377  0.250000  1
  Yb  Yb9  1  0.008887  0.500377  0.250000  1
  Cd  Cd10  1  0.512809  0.000439  0.750000  1
  Cd  Cd11  1  0.987191  0.500439  0.750000  1
  Bi  Bi12  1  0.499665  0.499366  0.250000  1
  Bi  Bi13  1  0.000335  0.999366  0.250000  1
  Bi  Bi14  1  0.505785  0.499512  0.750000  1
  Bi  Bi15  1  0.994215  0.999512  0.750000  1
  N  N16  1  0.000982  0.500129  0.996737  1
  N  N17  1  0.499018  0.000129  0.503263  1
  N  N18  1  0.000982  0.500129  0.503263  1
  N  N19  1  0.499018  0.000129  0.996737  1
