# generated using pymatgen
data_Ca12Ag3Ir
_symmetry_space_group_name_H-M   'P 1'
_cell_length_a   6.76121957
_cell_length_b   7.98842636
_cell_length_c   9.80329800
_cell_angle_alpha   90.00000000
_cell_angle_beta   90.00000000
_cell_angle_gamma   90.41690240
_symmetry_Int_Tables_number   1
_chemical_formula_structural   Ca12Ag3Ir
_chemical_formula_sum   'Ca12 Ag3 Ir1'
_cell_volume   529.47685848
_cell_formula_units_Z   1
loop_
 _symmetry_equiv_pos_site_id
 _symmetry_equiv_pos_as_xyz
  1  'x, y, z'
loop_
 _atom_site_type_symbol
 _atom_site_label
 _atom_site_symmetry_multiplicity
 _atom_site_fract_x
 _atom_site_fract_y
 _atom_site_fract_z
 _atom_site_occupancy
  Ca  Ca0  1  0.346983  0.676336  0.050530  1
  Ca  Ca1  1  0.152397  0.173482  0.443198  1
  Ca  Ca2  1  0.655372  0.343687  0.570577  1
  Ca  Ca3  1  0.829895  0.809027  0.931383  1
  Ca  Ca4  1  0.655372  0.343687  0.929423  1
  Ca  Ca5  1  0.829895  0.809027  0.568617  1
  Ca  Ca6  1  0.346983  0.676336  0.449470  1
  Ca  Ca7  1  0.152397  0.173482  0.056802  1
  Ca  Ca8  1  0.871097  0.530775  0.250000  1
  Ca  Ca9  1  0.635267  0.036835  0.250000  1
  Ca  Ca10  1  0.156278  0.470011  0.750000  1
  Ca  Ca11  1  0.374533  0.950728  0.750000  1
  Ag  Ag12  1  0.058234  0.877489  0.250000  1
  Ag  Ag13  1  0.440548  0.382351  0.250000  1
  Ag  Ag14  1  0.953266  0.119853  0.750000  1
  Ir  Ir15  1  0.541481  0.626894  0.750000  1
