# generated using pymatgen
data_Cs(Te2Rh)2
_symmetry_space_group_name_H-M   'P 1'
_cell_length_a   6.84469800
_cell_length_b   7.91083500
_cell_length_c   18.31781900
_cell_angle_alpha   90.00000000
_cell_angle_beta   90.00000000
_cell_angle_gamma   90.00000000
_symmetry_Int_Tables_number   1
_chemical_formula_structural   Cs(Te2Rh)2
_chemical_formula_sum   'Cs4 Te16 Rh8'
_cell_volume   991.86001032
_cell_formula_units_Z   4
loop_
 _symmetry_equiv_pos_site_id
 _symmetry_equiv_pos_as_xyz
  1  'x, y, z'
loop_
 _atom_site_type_symbol
 _atom_site_label
 _atom_site_symmetry_multiplicity
 _atom_site_fract_x
 _atom_site_fract_y
 _atom_site_fract_z
 _atom_site_occupancy
  Cs  Cs0  1  0.354448  0.000000  0.000000  1
  Cs  Cs1  1  0.645552  0.500000  0.500000  1
  Cs  Cs2  1  0.033990  0.000000  0.500000  1
  Cs  Cs3  1  0.966010  0.500000  0.000000  1
  Te  Te4  1  0.833072  0.249632  0.326739  1
  Te  Te5  1  0.833072  0.750368  0.673261  1
  Te  Te6  1  0.166928  0.749632  0.173261  1
  Te  Te7  1  0.166928  0.250368  0.826739  1
  Te  Te8  1  0.166928  0.250368  0.173261  1
  Te  Te9  1  0.166928  0.749632  0.826739  1
  Te  Te10  1  0.833072  0.750368  0.326739  1
  Te  Te11  1  0.833072  0.249632  0.673261  1
  Te  Te12  1  0.672019  0.000000  0.173301  1
  Te  Te13  1  0.672019  0.000000  0.826699  1
  Te  Te14  1  0.327981  0.500000  0.326699  1
  Te  Te15  1  0.327981  0.500000  0.673301  1
  Te  Te16  1  0.338133  0.000000  0.327273  1
  Te  Te17  1  0.338133  0.000000  0.672727  1
  Te  Te18  1  0.661867  0.500000  0.172727  1
  Te  Te19  1  0.661867  0.500000  0.827273  1
  Rh  Rh20  1  0.003417  0.000000  0.251044  1
  Rh  Rh21  1  0.003417  0.000000  0.748956  1
  Rh  Rh22  1  0.996583  0.500000  0.248956  1
  Rh  Rh23  1  0.996583  0.500000  0.751044  1
  Rh  Rh24  1  0.500000  0.250000  0.250000  1
  Rh  Rh25  1  0.500000  0.750000  0.750000  1
  Rh  Rh26  1  0.500000  0.750000  0.250000  1
  Rh  Rh27  1  0.500000  0.250000  0.750000  1
