# generated using pymatgen
data_Dy7YTi12Si15P
_symmetry_space_group_name_H-M   'P 1'
_cell_length_a   7.04463336
_cell_length_b   7.05112794
_cell_length_c   12.95384903
_cell_angle_alpha   90.00293563
_cell_angle_beta   89.90997344
_cell_angle_gamma   90.03205028
_symmetry_Int_Tables_number   1
_chemical_formula_structural   Dy7YTi12Si15P
_chemical_formula_sum   'Dy7 Y1 Ti12 Si15 P1'
_cell_volume   643.45060992
_cell_formula_units_Z   1
loop_
 _symmetry_equiv_pos_site_id
 _symmetry_equiv_pos_as_xyz
  1  'x, y, z'
loop_
 _atom_site_type_symbol
 _atom_site_label
 _atom_site_symmetry_multiplicity
 _atom_site_fract_x
 _atom_site_fract_y
 _atom_site_fract_z
 _atom_site_occupancy
  Dy  Dy0  1  0.003381  0.344620  0.532179  1
  Dy  Dy1  1  0.659755  0.997175  0.966619  1
  Dy  Dy2  1  0.159701  0.503180  0.782685  1
  Dy  Dy3  1  0.842221  0.498645  0.284719  1
  Dy  Dy4  1  0.502829  0.160032  0.217083  1
  Dy  Dy5  1  0.497155  0.840978  0.716501  1
  Dy  Dy6  1  0.338477  0.000199  0.466995  1
  Y  Y7  1  0.997032  0.659720  0.033562  1
  Ti  Ti8  1  0.343496  0.510843  0.374878  1
  Ti  Ti9  1  0.850153  0.987947  0.377334  1
  Ti  Ti10  1  0.008177  0.152268  0.124015  1
  Ti  Ti11  1  0.992942  0.845652  0.620689  1
  Ti  Ti12  1  0.508741  0.346566  0.625742  1
  Ti  Ti13  1  0.151901  0.008077  0.876275  1
  Ti  Ti14  1  0.674568  0.673679  0.499461  1
  Ti  Ti15  1  0.826909  0.173285  0.749650  1
  Ti  Ti16  1  0.172216  0.825734  0.251805  1
  Ti  Ti17  1  0.326888  0.326675  0.000040  1
  Ti  Ti18  1  0.491628  0.652267  0.126592  1
  Ti  Ti19  1  0.652402  0.491650  0.873688  1
  Si  Si20  1  0.952919  0.291006  0.935108  1
  Si  Si21  1  0.709550  0.047593  0.564724  1
  Si  Si22  1  0.209149  0.452571  0.185300  1
  Si  Si23  1  0.791028  0.547095  0.685219  1
  Si  Si24  1  0.452725  0.209170  0.814683  1
  Si  Si25  1  0.546786  0.790991  0.314698  1
  Si  Si26  1  0.291052  0.952791  0.065174  1
  Si  Si27  1  0.796961  0.870644  0.184652  1
  Si  Si28  1  0.301658  0.628921  0.567312  1
  Si  Si29  1  0.702510  0.369873  0.065636  1
  Si  Si30  1  0.629107  0.297521  0.434135  1
  Si  Si31  1  0.370138  0.702638  0.934501  1
  Si  Si32  1  0.130196  0.202259  0.315566  1
  Si  Si33  1  0.201119  0.130259  0.683965  1
  Si  Si34  1  0.870241  0.797588  0.814678  1
  P  P35  1  0.044286  0.709888  0.434132  1
