# generated using pymatgen
data_Zr4BeAl23Pt9
_symmetry_space_group_name_H-M   'P 1'
_cell_length_a   7.45890526
_cell_length_b   7.47051172
_cell_length_c   12.93309400
_cell_angle_alpha   84.45859783
_cell_angle_beta   78.71789657
_cell_angle_gamma   59.95257161
_symmetry_Int_Tables_number   1
_chemical_formula_structural   Zr4BeAl23Pt9
_chemical_formula_sum   'Zr4 Be1 Al23 Pt9'
_cell_volume   611.75232749
_cell_formula_units_Z   1
loop_
 _symmetry_equiv_pos_site_id
 _symmetry_equiv_pos_as_xyz
  1  'x, y, z'
loop_
 _atom_site_type_symbol
 _atom_site_label
 _atom_site_symmetry_multiplicity
 _atom_site_fract_x
 _atom_site_fract_y
 _atom_site_fract_z
 _atom_site_occupancy
  Zr  Zr0  1  0.396120  0.161165  0.813677  1
  Zr  Zr1  1  0.611116  0.831046  0.185177  1
  Zr  Zr2  1  0.729627  0.506251  0.813343  1
  Zr  Zr3  1  0.266934  0.501460  0.187734  1
  Be  Be4  1  0.683192  0.834004  0.946097  1
  Al  Al5  1  0.321828  0.163292  0.056295  1
  Al  Al6  1  0.146214  0.832596  0.564530  1
  Al  Al7  1  0.854275  0.167294  0.436540  1
  Al  Al8  1  0.478955  0.167895  0.562111  1
  Al  Al9  1  0.519526  0.833083  0.438666  1
  Al  Al10  1  0.222826  0.164375  0.321715  1
  Al  Al11  1  0.778195  0.834975  0.676203  1
  Al  Al12  1  0.436011  0.503742  0.680182  1
  Al  Al13  1  0.563045  0.495576  0.321874  1
  Al  Al14  1  0.105430  0.163333  0.678291  1
  Al  Al15  1  0.892352  0.837867  0.324252  1
  Al  Al16  1  0.357605  0.496046  0.940657  1
  Al  Al17  1  0.645025  0.506746  0.056386  1
  Al  Al18  1  0.017206  0.171157  0.948786  1
  Al  Al19  1  0.982970  0.831235  0.044140  1
  Al  Al20  1  0.187143  0.499789  0.439113  1
  Al  Al21  1  0.812360  0.499408  0.561995  1
  Al  Al22  1  0.730113  0.163440  0.182471  1
  Al  Al23  1  0.267970  0.835997  0.816936  1
  Al  Al24  1  0.050579  0.631260  0.818620  1
  Al  Al25  1  0.940229  0.372204  0.184189  1
  Al  Al26  1  0.843492  0.043064  0.818970  1
  Al  Al27  1  0.153344  0.949084  0.181513  1
  Pt  Pt28  1  0.120310  0.490761  0.640408  1
  Pt  Pt29  1  0.879769  0.509747  0.360864  1
  Pt  Pt30  1  0.656427  0.170333  0.999980  1
  Pt  Pt31  1  0.353077  0.829367  0.996887  1
  Pt  Pt32  1  0.536307  0.166282  0.361005  1
  Pt  Pt33  1  0.462736  0.833697  0.639319  1
  Pt  Pt34  1  0.778109  0.176344  0.638916  1
  Pt  Pt35  1  0.222451  0.823557  0.361857  1
  Pt  Pt36  1  0.997130  0.502529  0.000307  1
