# generated using pymatgen
data_BaSnSb11(OsPd)2
_symmetry_space_group_name_H-M   'P 1'
_cell_length_a   8.23048455
_cell_length_b   8.27197447
_cell_length_c   8.28501289
_cell_angle_alpha   109.93003620
_cell_angle_beta   109.52198985
_cell_angle_gamma   109.17064321
_symmetry_Int_Tables_number   1
_chemical_formula_structural   BaSnSb11(OsPd)2
_chemical_formula_sum   'Ba1 Sn1 Sb11 Os2 Pd2'
_cell_volume   433.07813165
_cell_formula_units_Z   1
loop_
 _symmetry_equiv_pos_site_id
 _symmetry_equiv_pos_as_xyz
  1  'x, y, z'
loop_
 _atom_site_type_symbol
 _atom_site_label
 _atom_site_symmetry_multiplicity
 _atom_site_fract_x
 _atom_site_fract_y
 _atom_site_fract_z
 _atom_site_occupancy
  Ba  Ba0  1  0.999816  0.001550  0.001259  1
  Sn  Sn1  1  0.844646  0.659686  0.496914  1
  Sb  Sb2  1  0.151625  0.341784  0.501479  1
  Sb  Sb3  1  0.149263  0.652574  0.812180  1
  Sb  Sb4  1  0.846360  0.348449  0.187755  1
  Sb  Sb5  1  0.661618  0.498338  0.846525  1
  Sb  Sb6  1  0.342502  0.501108  0.154115  1
  Sb  Sb7  1  0.661351  0.811840  0.161780  1
  Sb  Sb8  1  0.339674  0.185752  0.837922  1
  Sb  Sb9  1  0.498639  0.844942  0.652342  1
  Sb  Sb10  1  0.503496  0.156178  0.347877  1
  Sb  Sb11  1  0.180424  0.840979  0.340389  1
  Sb  Sb12  1  0.819153  0.158262  0.660079  1
  Os  Os13  1  0.002025  0.498750  0.000790  1
  Os  Os14  1  0.001577  0.003825  0.499326  1
  Pd  Pd15  1  0.497485  0.498372  0.499837  1
  Pd  Pd16  1  0.500345  0.997611  0.999431  1
