# generated using pymatgen
data_Ca2Yb(Si3Os)4
_symmetry_space_group_name_H-M   'P 1'
_cell_length_a   10.18255530
_cell_length_b   10.18255498
_cell_length_c   8.18630300
_cell_angle_alpha   90.00000000
_cell_angle_beta   90.00000000
_cell_angle_gamma   132.56196386
_symmetry_Int_Tables_number   1
_chemical_formula_structural   Ca2Yb(Si3Os)4
_chemical_formula_sum   'Ca4 Yb2 Si24 Os8'
_cell_volume   625.17469729
_cell_formula_units_Z   2
loop_
 _symmetry_equiv_pos_site_id
 _symmetry_equiv_pos_as_xyz
  1  'x, y, z'
loop_
 _atom_site_type_symbol
 _atom_site_label
 _atom_site_symmetry_multiplicity
 _atom_site_fract_x
 _atom_site_fract_y
 _atom_site_fract_z
 _atom_site_occupancy
  Ca  Ca0  1  0.500669  0.000669  0.750000  1
  Ca  Ca1  1  0.999331  0.499331  0.250000  1
  Ca  Ca2  1  0.499331  0.999331  0.250000  1
  Ca  Ca3  1  0.000669  0.500669  0.750000  1
  Yb  Yb4  1  0.000000  0.000000  0.000000  1
  Yb  Yb5  1  0.500000  0.500000  0.500000  1
  Si  Si6  1  0.794567  0.205433  0.500000  1
  Si  Si7  1  0.705433  0.294567  0.000000  1
  Si  Si8  1  0.205433  0.794567  0.500000  1
  Si  Si9  1  0.294567  0.705433  0.000000  1
  Si  Si10  1  0.667844  0.667844  0.167614  1
  Si  Si11  1  0.167844  0.167844  0.332386  1
  Si  Si12  1  0.832156  0.832156  0.667614  1
  Si  Si13  1  0.332156  0.332156  0.832386  1
  Si  Si14  1  0.847488  0.613784  0.991808  1
  Si  Si15  1  0.113784  0.347488  0.508192  1
  Si  Si16  1  0.652512  0.886216  0.491808  1
  Si  Si17  1  0.386216  0.152512  0.008192  1
  Si  Si18  1  0.152512  0.386216  0.008192  1
  Si  Si19  1  0.886216  0.652512  0.491808  1
  Si  Si20  1  0.125650  0.892467  0.731170  1
  Si  Si21  1  0.392467  0.625650  0.768830  1
  Si  Si22  1  0.374350  0.607533  0.231170  1
  Si  Si23  1  0.107533  0.874350  0.268830  1
  Si  Si24  1  0.874350  0.107533  0.268830  1
  Si  Si25  1  0.607533  0.374350  0.231170  1
  Si  Si26  1  0.625650  0.392467  0.768830  1
  Si  Si27  1  0.892467  0.125650  0.731170  1
  Si  Si28  1  0.613784  0.847488  0.991808  1
  Si  Si29  1  0.347488  0.113784  0.508192  1
  Os  Os30  1  0.625848  0.625848  0.874777  1
  Os  Os31  1  0.125848  0.125848  0.625223  1
  Os  Os32  1  0.374152  0.374152  0.125223  1
  Os  Os33  1  0.874152  0.874152  0.374777  1
  Os  Os34  1  0.169517  0.830483  0.000000  1
  Os  Os35  1  0.330483  0.669517  0.500000  1
  Os  Os36  1  0.830483  0.169517  0.000000  1
  Os  Os37  1  0.669517  0.330483  0.500000  1
