# generated using pymatgen
data_LiDy16Cd(HgIr2)2
_symmetry_space_group_name_H-M   'P 1'
_cell_length_a   9.65460305
_cell_length_b   9.64802252
_cell_length_c   9.64802217
_cell_angle_alpha   59.77158860
_cell_angle_beta   59.74036659
_cell_angle_gamma   59.74036709
_symmetry_Int_Tables_number   1
_chemical_formula_structural   LiDy16Cd(HgIr2)2
_chemical_formula_sum   'Li1 Dy16 Cd1 Hg2 Ir4'
_cell_volume   631.87493235
_cell_formula_units_Z   1
loop_
 _symmetry_equiv_pos_site_id
 _symmetry_equiv_pos_as_xyz
  1  'x, y, z'
loop_
 _atom_site_type_symbol
 _atom_site_label
 _atom_site_symmetry_multiplicity
 _atom_site_fract_x
 _atom_site_fract_y
 _atom_site_fract_z
 _atom_site_occupancy
  Li  Li0  1  0.820907  0.817712  0.817712  1
  Dy  Dy1  1  0.601444  0.601102  0.601102  1
  Dy  Dy2  1  0.598408  0.598413  0.206061  1
  Dy  Dy3  1  0.598408  0.206061  0.598413  1
  Dy  Dy4  1  0.204090  0.598852  0.598852  1
  Dy  Dy5  1  0.059567  0.441147  0.441147  1
  Dy  Dy6  1  0.434698  0.062441  0.062441  1
  Dy  Dy7  1  0.440133  0.060579  0.440527  1
  Dy  Dy8  1  0.061616  0.435784  0.062078  1
  Dy  Dy9  1  0.440133  0.440527  0.060579  1
  Dy  Dy10  1  0.061616  0.062078  0.435784  1
  Dy  Dy11  1  0.189732  0.811105  0.811105  1
  Dy  Dy12  1  0.812107  0.186801  0.186801  1
  Dy  Dy13  1  0.810943  0.190720  0.811210  1
  Dy  Dy14  1  0.185543  0.812354  0.187702  1
  Dy  Dy15  1  0.810943  0.811210  0.190720  1
  Dy  Dy16  1  0.185543  0.187702  0.812354  1
  Cd  Cd17  1  0.505995  0.832835  0.832835  1
  Hg  Hg18  1  0.836345  0.838427  0.496064  1
  Hg  Hg19  1  0.836345  0.496064  0.838427  1
  Ir  Ir20  1  0.391854  0.392538  0.392538  1
  Ir  Ir21  1  0.393938  0.395035  0.825782  1
  Ir  Ir22  1  0.393938  0.825782  0.395035  1
  Ir  Ir23  1  0.825754  0.394732  0.394732  1
