# generated using pymatgen
data_Tm3Zr5(V3Si4)4
_symmetry_space_group_name_H-M   'P 1'
_cell_length_a   6.68469051
_cell_length_b   6.68512157
_cell_length_c   12.39643113
_cell_angle_alpha   90.05733257
_cell_angle_beta   89.96692778
_cell_angle_gamma   89.82903325
_symmetry_Int_Tables_number   1
_chemical_formula_structural   Tm3Zr5(V3Si4)4
_chemical_formula_sum   'Tm3 Zr5 V12 Si16'
_cell_volume   553.96848918
_cell_formula_units_Z   1
loop_
 _symmetry_equiv_pos_site_id
 _symmetry_equiv_pos_as_xyz
  1  'x, y, z'
loop_
 _atom_site_type_symbol
 _atom_site_label
 _atom_site_symmetry_multiplicity
 _atom_site_fract_x
 _atom_site_fract_y
 _atom_site_fract_z
 _atom_site_occupancy
  Tm  Tm0  1  0.999883  0.337174  0.529960  1
  Tm  Tm1  1  0.663680  0.999285  0.970585  1
  Tm  Tm2  1  0.337395  0.000079  0.469811  1
  Zr  Zr3  1  0.004453  0.659412  0.030942  1
  Zr  Zr4  1  0.837730  0.503530  0.280284  1
  Zr  Zr5  1  0.161683  0.496417  0.780591  1
  Zr  Zr6  1  0.503644  0.837750  0.719819  1
  Zr  Zr7  1  0.496750  0.161881  0.218184  1
  V  V8  1  0.330756  0.334246  0.000119  1
  V  V9  1  0.167253  0.831903  0.249149  1
  V  V10  1  0.833052  0.167374  0.750877  1
  V  V11  1  0.667473  0.667425  0.499922  1
  V  V12  1  0.004093  0.161428  0.125791  1
  V  V13  1  0.341323  0.506941  0.374351  1
  V  V14  1  0.658927  0.495364  0.876299  1
  V  V15  1  0.506987  0.341684  0.625166  1
  V  V16  1  0.492503  0.659464  0.123939  1
  V  V17  1  0.994843  0.839004  0.627685  1
  V  V18  1  0.158562  0.005542  0.874461  1
  V  V19  1  0.839255  0.994003  0.372272  1
  Si  Si20  1  0.287397  0.959938  0.064173  1
  Si  Si21  1  0.540099  0.790501  0.313539  1
  Si  Si22  1  0.460655  0.209971  0.814654  1
  Si  Si23  1  0.790398  0.539900  0.686089  1
  Si  Si24  1  0.209490  0.460416  0.185615  1
  Si  Si25  1  0.710856  0.038349  0.564504  1
  Si  Si26  1  0.960169  0.291606  0.935766  1
  Si  Si27  1  0.038655  0.710519  0.435459  1
  Si  Si28  1  0.703949  0.376180  0.071030  1
  Si  Si29  1  0.124799  0.204416  0.316225  1
  Si  Si30  1  0.875538  0.793391  0.819303  1
  Si  Si31  1  0.204710  0.124862  0.683471  1
  Si  Si32  1  0.796985  0.872707  0.180986  1
  Si  Si33  1  0.298271  0.626660  0.570806  1
  Si  Si34  1  0.371263  0.702614  0.929248  1
  Si  Si35  1  0.626518  0.298062  0.428926  1
