# generated using pymatgen
data_LaTb3(CuP)6
_symmetry_space_group_name_H-M   'P 1'
_cell_length_a   3.92199200
_cell_length_b   10.79952100
_cell_length_c   12.98995800
_cell_angle_alpha   90.00000000
_cell_angle_beta   90.00000000
_cell_angle_gamma   90.00000000
_symmetry_Int_Tables_number   1
_chemical_formula_structural   LaTb3(CuP)6
_chemical_formula_sum   'La2 Tb6 Cu12 P12'
_cell_volume   550.19791927
_cell_formula_units_Z   2
loop_
 _symmetry_equiv_pos_site_id
 _symmetry_equiv_pos_as_xyz
  1  'x, y, z'
loop_
 _atom_site_type_symbol
 _atom_site_label
 _atom_site_symmetry_multiplicity
 _atom_site_fract_x
 _atom_site_fract_y
 _atom_site_fract_z
 _atom_site_occupancy
  La  La0  1  0.250000  0.932292  0.792541  1
  La  La1  1  0.750000  0.432292  0.707459  1
  Tb  Tb2  1  0.250000  0.569045  0.293739  1
  Tb  Tb3  1  0.750000  0.069045  0.206261  1
  Tb  Tb4  1  0.250000  0.841363  0.498763  1
  Tb  Tb5  1  0.750000  0.341363  0.001237  1
  Tb  Tb6  1  0.250000  0.655860  0.004594  1
  Tb  Tb7  1  0.750000  0.155860  0.495406  1
  Cu  Cu8  1  0.250000  0.399134  0.510109  1
  Cu  Cu9  1  0.750000  0.899134  0.989891  1
  Cu  Cu10  1  0.250000  0.100285  0.014896  1
  Cu  Cu11  1  0.750000  0.600285  0.485104  1
  Cu  Cu12  1  0.250000  0.272132  0.332002  1
  Cu  Cu13  1  0.750000  0.772132  0.167998  1
  Cu  Cu14  1  0.250000  0.229493  0.834908  1
  Cu  Cu15  1  0.750000  0.729493  0.665092  1
  Cu  Cu16  1  0.250000  0.859955  0.276445  1
  Cu  Cu17  1  0.750000  0.359955  0.223555  1
  Cu  Cu18  1  0.250000  0.641310  0.781067  1
  Cu  Cu19  1  0.750000  0.141310  0.718933  1
  P  P20  1  0.250000  0.234992  0.643328  1
  P  P21  1  0.750000  0.734992  0.856672  1
  P  P22  1  0.250000  0.260414  0.146087  1
  P  P23  1  0.750000  0.760414  0.353913  1
  P  P24  1  0.250000  0.606997  0.598221  1
  P  P25  1  0.750000  0.106997  0.901779  1
  P  P26  1  0.250000  0.896932  0.098147  1
  P  P27  1  0.750000  0.396932  0.401853  1
  P  P28  1  0.250000  0.057281  0.366345  1
  P  P29  1  0.750000  0.557281  0.133655  1
  P  P30  1  0.250000  0.442514  0.875370  1
  P  P31  1  0.750000  0.942514  0.624630  1
