# generated using pymatgen
data_YLuNbB2Ru5
_symmetry_space_group_name_H-M   'P 1'
_cell_length_a   9.65976143
_cell_length_b   9.65976143
_cell_length_c   3.12374600
_cell_angle_alpha   90.00000000
_cell_angle_beta   90.00000000
_cell_angle_gamma   90.48476181
_symmetry_Int_Tables_number   1
_chemical_formula_structural   YLuNbB2Ru5
_chemical_formula_sum   'Y2 Lu2 Nb2 B4 Ru10'
_cell_volume   291.46940233
_cell_formula_units_Z   2
loop_
 _symmetry_equiv_pos_site_id
 _symmetry_equiv_pos_as_xyz
  1  'x, y, z'
loop_
 _atom_site_type_symbol
 _atom_site_label
 _atom_site_symmetry_multiplicity
 _atom_site_fract_x
 _atom_site_fract_y
 _atom_site_fract_z
 _atom_site_occupancy
  Y  Y0  1  0.824666  0.675334  0.000000  1
  Y  Y1  1  0.175334  0.324666  0.000000  1
  Lu  Lu2  1  0.325476  0.825476  0.000000  1
  Lu  Lu3  1  0.674524  0.174524  0.000000  1
  Nb  Nb4  1  0.500000  0.500000  0.000000  1
  Nb  Nb5  1  0.000000  0.000000  0.000000  1
  B  B6  1  0.619480  0.880520  0.000000  1
  B  B7  1  0.380520  0.119480  0.000000  1
  B  B8  1  0.121019  0.621019  0.000000  1
  B  B9  1  0.878981  0.378981  0.000000  1
  Ru  Ru10  1  0.567741  0.719515  0.500000  1
  Ru  Ru11  1  0.432259  0.280485  0.500000  1
  Ru  Ru12  1  0.074133  0.782729  0.500000  1
  Ru  Ru13  1  0.925867  0.217271  0.500000  1
  Ru  Ru14  1  0.282729  0.574133  0.500000  1
  Ru  Ru15  1  0.717271  0.425867  0.500000  1
  Ru  Ru16  1  0.219515  0.067741  0.500000  1
  Ru  Ru17  1  0.780485  0.932259  0.500000  1
  Ru  Ru18  1  0.500000  0.000000  0.500000  1
  Ru  Ru19  1  0.000000  0.500000  0.500000  1
