# generated using pymatgen
data_SmAg3(Ir2O7)2
_symmetry_space_group_name_H-M   'P 1'
_cell_length_a   7.24343636
_cell_length_b   7.26123506
_cell_length_c   7.24343600
_cell_angle_alpha   60.08105344
_cell_angle_beta   60.00000163
_cell_angle_gamma   60.08106078
_symmetry_Int_Tables_number   1
_chemical_formula_structural   SmAg3(Ir2O7)2
_chemical_formula_sum   'Sm1 Ag3 Ir4 O14'
_cell_volume   269.72163426
_cell_formula_units_Z   1
loop_
 _symmetry_equiv_pos_site_id
 _symmetry_equiv_pos_as_xyz
  1  'x, y, z'
loop_
 _atom_site_type_symbol
 _atom_site_label
 _atom_site_symmetry_multiplicity
 _atom_site_fract_x
 _atom_site_fract_y
 _atom_site_fract_z
 _atom_site_occupancy
  Sm  Sm0  1  0.125000  0.625000  0.125000  1
  Ag  Ag1  1  0.625000  0.125000  0.125000  1
  Ag  Ag2  1  0.125000  0.125000  0.625000  1
  Ag  Ag3  1  0.125000  0.125000  0.125000  1
  Ir  Ir4  1  0.125000  0.625000  0.625000  1
  Ir  Ir5  1  0.625000  0.125000  0.625000  1
  Ir  Ir6  1  0.625000  0.625000  0.125000  1
  Ir  Ir7  1  0.625000  0.625000  0.625000  1
  O  O8  1  0.709483  0.699244  0.295636  1
  O  O9  1  0.303998  0.306827  0.694588  1
  O  O10  1  0.694588  0.306827  0.694588  1
  O  O11  1  0.295636  0.699244  0.295636  1
  O  O12  1  0.295636  0.699244  0.709483  1
  O  O13  1  0.694588  0.306827  0.303998  1
  O  O14  1  0.540517  0.550756  0.954364  1
  O  O15  1  0.946002  0.943173  0.555412  1
  O  O16  1  0.555412  0.943173  0.555412  1
  O  O17  1  0.954364  0.550756  0.954364  1
  O  O18  1  0.954364  0.550756  0.540517  1
  O  O19  1  0.555412  0.943173  0.946002  1
  O  O20  1  0.257931  0.226208  0.257931  1
  O  O21  1  0.992069  0.023792  0.992069  1
