# generated using pymatgen
data_Dy11Y(CuRu)6
_symmetry_space_group_name_H-M   'P 1'
_cell_length_a   4.82891000
_cell_length_b   6.87592800
_cell_length_c   14.58303300
_cell_angle_alpha   90.00190074
_cell_angle_beta   90.00011826
_cell_angle_gamma   89.99986215
_symmetry_Int_Tables_number   1
_chemical_formula_structural   Dy11Y(CuRu)6
_chemical_formula_sum   'Dy11 Y1 Cu6 Ru6'
_cell_volume   484.20390772
_cell_formula_units_Z   1
loop_
 _symmetry_equiv_pos_site_id
 _symmetry_equiv_pos_as_xyz
  1  'x, y, z'
loop_
 _atom_site_type_symbol
 _atom_site_label
 _atom_site_symmetry_multiplicity
 _atom_site_fract_x
 _atom_site_fract_y
 _atom_site_fract_z
 _atom_site_occupancy
  Dy  Dy0  1  0.499996  0.250247  0.999996  1
  Dy  Dy1  1  0.499998  0.749684  0.000096  1
  Dy  Dy2  1  0.999710  0.249740  0.166714  1
  Dy  Dy3  1  0.999709  0.750334  0.166709  1
  Dy  Dy4  1  0.499711  0.250220  0.333337  1
  Dy  Dy5  1  0.499708  0.749816  0.333336  1
  Dy  Dy6  1  0.999996  0.249720  0.499961  1
  Dy  Dy7  1  0.999998  0.750358  0.499967  1
  Dy  Dy8  1  0.500286  0.250229  0.666667  1
  Dy  Dy9  1  0.500285  0.749708  0.666572  1
  Dy  Dy10  1  0.000284  0.249782  0.833325  1
  Y  Y11  1  0.000285  0.750258  0.833336  1
  Cu  Cu12  1  0.999998  0.499692  0.000185  1
  Cu  Cu13  1  0.499661  0.000032  0.166621  1
  Cu  Cu14  1  0.999660  0.499986  0.333371  1
  Cu  Cu15  1  0.499996  0.000031  0.500000  1
  Cu  Cu16  1  0.000333  0.499692  0.666450  1
  Cu  Cu17  1  0.500336  0.000594  0.833384  1
  Ru  Ru18  1  0.999994  0.000519  0.000396  1
  Ru  Ru19  1  0.499573  0.500026  0.166705  1
  Ru  Ru20  1  0.999572  0.999956  0.333307  1
  Ru  Ru21  1  0.499996  0.500029  0.499975  1
  Ru  Ru22  1  0.000465  0.000546  0.666286  1
  Ru  Ru23  1  0.500446  0.498803  0.833305  1
