# generated using pymatgen
data_Cs6Er(ScI6)3
_symmetry_space_group_name_H-M   'P 1'
_cell_length_a   8.55424106
_cell_length_b   8.55227629
_cell_length_c   21.45327552
_cell_angle_alpha   89.23658285
_cell_angle_beta   89.23788912
_cell_angle_gamma   119.94523559
_symmetry_Int_Tables_number   1
_chemical_formula_structural   Cs6Er(ScI6)3
_chemical_formula_sum   'Cs6 Er1 Sc3 I18'
_cell_volume   1359.48092059
_cell_formula_units_Z   1
loop_
 _symmetry_equiv_pos_site_id
 _symmetry_equiv_pos_as_xyz
  1  'x, y, z'
loop_
 _atom_site_type_symbol
 _atom_site_label
 _atom_site_symmetry_multiplicity
 _atom_site_fract_x
 _atom_site_fract_y
 _atom_site_fract_z
 _atom_site_occupancy
  Cs  Cs0  1  0.995795  0.002898  0.750289  1
  Cs  Cs1  1  0.665707  0.329041  0.071612  1
  Cs  Cs2  1  0.003626  0.996448  0.249429  1
  Cs  Cs3  1  0.328375  0.665240  0.566390  1
  Cs  Cs4  1  0.333796  0.670592  0.931154  1
  Cs  Cs5  1  0.671664  0.334321  0.428671  1
  Er  Er6  1  0.655448  0.324922  0.658187  1
  Sc  Sc7  1  0.344454  0.675207  0.340566  1
  Sc  Sc8  1  0.324893  0.655626  0.157917  1
  Sc  Sc9  1  0.675653  0.344871  0.844796  1
  I  I10  1  0.642094  0.811691  0.083484  1
  I  I11  1  0.358438  0.188859  0.918761  1
  I  I12  1  0.508932  0.020966  0.760650  1
  I  I13  1  0.189908  0.845578  0.408442  1
  I  I14  1  0.845694  0.189846  0.912219  1
  I  I15  1  0.816245  0.651666  0.579375  1
  I  I16  1  0.814716  0.148079  0.586778  1
  I  I17  1  0.313261  0.149859  0.593046  1
  I  I18  1  0.489477  0.974791  0.242633  1
  I  I19  1  0.980371  0.492948  0.747351  1
  I  I20  1  0.154890  0.810421  0.089857  1
  I  I21  1  0.025495  0.510706  0.255612  1
  I  I22  1  0.508571  0.492696  0.754043  1
  I  I23  1  0.844190  0.674872  0.906561  1
  I  I24  1  0.156304  0.325893  0.095465  1
  I  I25  1  0.674252  0.843870  0.402753  1
  I  I26  1  0.489578  0.510447  0.249138  1
  I  I27  1  0.188175  0.357647  0.414822  1
