# generated using pymatgen
data_Rb2HfZn3P4
_symmetry_space_group_name_H-M   'P 1'
_cell_length_a   7.78459739
_cell_length_b   7.78459639
_cell_length_c   5.86136200
_cell_angle_alpha   90.00000000
_cell_angle_beta   90.00000000
_cell_angle_gamma   135.73977068
_symmetry_Int_Tables_number   1
_chemical_formula_structural   Rb2HfZn3P4
_chemical_formula_sum   'Rb2 Hf1 Zn3 P4'
_cell_volume   247.89936157
_cell_formula_units_Z   1
loop_
 _symmetry_equiv_pos_site_id
 _symmetry_equiv_pos_as_xyz
  1  'x, y, z'
loop_
 _atom_site_type_symbol
 _atom_site_label
 _atom_site_symmetry_multiplicity
 _atom_site_fract_x
 _atom_site_fract_y
 _atom_site_fract_z
 _atom_site_occupancy
  Rb  Rb0  1  0.500000  0.000000  0.255000  1
  Rb  Rb1  1  0.000000  0.500000  0.745000  1
  Hf  Hf2  1  0.000000  0.000000  0.000000  1
  Zn  Zn3  1  0.500000  0.500000  0.500000  1
  Zn  Zn4  1  0.500000  0.500000  0.000000  1
  Zn  Zn5  1  0.000000  0.000000  0.500000  1
  P  P6  1  0.652595  0.847690  0.750373  1
  P  P7  1  0.152310  0.347405  0.249627  1
  P  P8  1  0.847690  0.652595  0.249627  1
  P  P9  1  0.347405  0.152310  0.750373  1
