# generated using pymatgen
data_Dy2Fe3P7IrRu8
_symmetry_space_group_name_H-M   'P 1'
_cell_length_a   9.30863385
_cell_length_b   9.27825909
_cell_length_c   3.85603900
_cell_angle_alpha   90.00000000
_cell_angle_beta   90.00000000
_cell_angle_gamma   119.79362367
_symmetry_Int_Tables_number   1
_chemical_formula_structural   Dy2Fe3P7IrRu8
_chemical_formula_sum   'Dy2 Fe3 P7 Ir1 Ru8'
_cell_volume   289.01733621
_cell_formula_units_Z   1
loop_
 _symmetry_equiv_pos_site_id
 _symmetry_equiv_pos_as_xyz
  1  'x, y, z'
loop_
 _atom_site_type_symbol
 _atom_site_label
 _atom_site_symmetry_multiplicity
 _atom_site_fract_x
 _atom_site_fract_y
 _atom_site_fract_z
 _atom_site_occupancy
  Dy  Dy0  1  0.333161  0.666587  0.000000  1
  Dy  Dy1  1  0.000409  0.000606  0.500000  1
  Fe  Fe2  1  0.932873  0.490615  0.000000  1
  Fe  Fe3  1  0.508439  0.444283  0.000000  1
  Fe  Fe4  1  0.556613  0.064337  0.000000  1
  P  P5  1  0.976174  0.747184  0.000000  1
  P  P6  1  0.253859  0.225159  0.000000  1
  P  P7  1  0.775890  0.032580  0.000000  1
  P  P8  1  0.062221  0.448633  0.500000  1
  P  P9  1  0.545018  0.609564  0.500000  1
  P  P10  1  0.386079  0.936211  0.500000  1
  P  P11  1  0.665806  0.332464  0.000000  1
  Ir  Ir12  1  0.732375  0.758092  0.000000  1
  Ru  Ru13  1  0.246159  0.973386  0.000000  1
  Ru  Ru14  1  0.026993  0.272210  0.000000  1
  Ru  Ru15  1  0.104738  0.718969  0.500000  1
  Ru  Ru16  1  0.279063  0.384268  0.500000  1
  Ru  Ru17  1  0.614120  0.892510  0.500000  1
  Ru  Ru18  1  0.753593  0.540360  0.500000  1
  Ru  Ru19  1  0.462981  0.216510  0.500000  1
  Ru  Ru20  1  0.783434  0.245473  0.500000  1
