# generated using pymatgen
data_Eu20Cd6NiOs
_symmetry_space_group_name_H-M   'P 1'
_cell_length_a   10.18589700
_cell_length_b   10.18589800
_cell_length_c   10.39241100
_cell_angle_alpha   90.00000000
_cell_angle_beta   90.00000000
_cell_angle_gamma   119.99999352
_symmetry_Int_Tables_number   1
_chemical_formula_structural   Eu20Cd6NiOs
_chemical_formula_sum   'Eu20 Cd6 Ni1 Os1'
_cell_volume   933.78216967
_cell_formula_units_Z   1
loop_
 _symmetry_equiv_pos_site_id
 _symmetry_equiv_pos_as_xyz
  1  'x, y, z'
loop_
 _atom_site_type_symbol
 _atom_site_label
 _atom_site_symmetry_multiplicity
 _atom_site_fract_x
 _atom_site_fract_y
 _atom_site_fract_z
 _atom_site_occupancy
  Eu  Eu0  1  0.000000  0.000000  0.499450  1
  Eu  Eu1  1  0.000000  0.000000  0.000550  1
  Eu  Eu2  1  0.537511  0.462489  0.250000  1
  Eu  Eu3  1  0.537511  0.075023  0.250000  1
  Eu  Eu4  1  0.924977  0.462489  0.250000  1
  Eu  Eu5  1  0.458789  0.541211  0.750000  1
  Eu  Eu6  1  0.458789  0.917578  0.750000  1
  Eu  Eu7  1  0.082422  0.541211  0.750000  1
  Eu  Eu8  1  0.209243  0.790757  0.436038  1
  Eu  Eu9  1  0.209243  0.418486  0.436038  1
  Eu  Eu10  1  0.581514  0.790757  0.436038  1
  Eu  Eu11  1  0.791385  0.208615  0.564099  1
  Eu  Eu12  1  0.791385  0.582768  0.564099  1
  Eu  Eu13  1  0.417232  0.208615  0.564099  1
  Eu  Eu14  1  0.791385  0.208615  0.935901  1
  Eu  Eu15  1  0.791385  0.582768  0.935901  1
  Eu  Eu16  1  0.417232  0.208615  0.935901  1
  Eu  Eu17  1  0.209243  0.790757  0.063962  1
  Eu  Eu18  1  0.209243  0.418486  0.063962  1
  Eu  Eu19  1  0.581514  0.790757  0.063962  1
  Cd  Cd20  1  0.885240  0.114760  0.250000  1
  Cd  Cd21  1  0.885240  0.770480  0.250000  1
  Cd  Cd22  1  0.229520  0.114760  0.250000  1
  Cd  Cd23  1  0.115208  0.884792  0.750000  1
  Cd  Cd24  1  0.115208  0.230415  0.750000  1
  Cd  Cd25  1  0.769585  0.884792  0.750000  1
  Ni  Ni26  1  0.666667  0.333333  0.750000  1
  Os  Os27  1  0.333333  0.666667  0.250000  1
