# generated using pymatgen
data_DyY2(Al3Os)4
_symmetry_space_group_name_H-M   'P 1'
_cell_length_a   8.83006509
_cell_length_b   8.83006575
_cell_length_c   9.56462200
_cell_angle_alpha   90.00000000
_cell_angle_beta   90.00000000
_cell_angle_gamma   119.98394924
_symmetry_Int_Tables_number   1
_chemical_formula_structural   DyY2(Al3Os)4
_chemical_formula_sum   'Dy2 Y4 Al24 Os8'
_cell_volume   645.94643262
_cell_formula_units_Z   2
loop_
 _symmetry_equiv_pos_site_id
 _symmetry_equiv_pos_as_xyz
  1  'x, y, z'
loop_
 _atom_site_type_symbol
 _atom_site_label
 _atom_site_symmetry_multiplicity
 _atom_site_fract_x
 _atom_site_fract_y
 _atom_site_fract_z
 _atom_site_occupancy
  Dy  Dy0  1  0.193269  0.806731  0.250000  1
  Dy  Dy1  1  0.806731  0.193269  0.750000  1
  Y  Y2  1  0.193242  0.386516  0.250000  1
  Y  Y3  1  0.806758  0.613484  0.750000  1
  Y  Y4  1  0.613484  0.806758  0.250000  1
  Y  Y5  1  0.386516  0.193242  0.750000  1
  Al  Al6  1  0.333327  0.666673  0.014759  1
  Al  Al7  1  0.666673  0.333327  0.985241  1
  Al  Al8  1  0.666673  0.333327  0.514759  1
  Al  Al9  1  0.333327  0.666673  0.485241  1
  Al  Al10  1  0.162693  0.325386  0.575805  1
  Al  Al11  1  0.837307  0.674614  0.424195  1
  Al  Al12  1  0.674614  0.837307  0.575805  1
  Al  Al13  1  0.837307  0.674614  0.075805  1
  Al  Al14  1  0.325386  0.162693  0.424195  1
  Al  Al15  1  0.162693  0.325386  0.924195  1
  Al  Al16  1  0.162705  0.837295  0.575687  1
  Al  Al17  1  0.325386  0.162693  0.075805  1
  Al  Al18  1  0.837295  0.162705  0.424313  1
  Al  Al19  1  0.674614  0.837307  0.924195  1
  Al  Al20  1  0.837295  0.162705  0.075687  1
  Al  Al21  1  0.162705  0.837295  0.924313  1
  Al  Al22  1  0.560120  0.120381  0.250000  1
  Al  Al23  1  0.439880  0.879619  0.750000  1
  Al  Al24  1  0.879619  0.439880  0.250000  1
  Al  Al25  1  0.120381  0.560120  0.750000  1
  Al  Al26  1  0.560194  0.439806  0.250000  1
  Al  Al27  1  0.439806  0.560194  0.750000  1
  Al  Al28  1  0.000109  0.999891  0.250000  1
  Al  Al29  1  0.999891  0.000109  0.750000  1
  Os  Os30  1  0.500000  0.000000  0.000000  1
  Os  Os31  1  0.000000  0.500000  0.000000  1
  Os  Os32  1  0.500000  0.000000  0.500000  1
  Os  Os33  1  0.500000  0.500000  0.000000  1
  Os  Os34  1  0.000000  0.500000  0.500000  1
  Os  Os35  1  0.500000  0.500000  0.500000  1
  Os  Os36  1  0.000000  0.000000  0.000000  1
  Os  Os37  1  0.000000  0.000000  0.500000  1
