# generated using pymatgen
data_Th4(Zn3Ag)3
_symmetry_space_group_name_H-M   'P 1'
_cell_length_a   4.50248400
_cell_length_b   7.04636502
_cell_length_c   10.23935605
_cell_angle_alpha   89.87873394
_cell_angle_beta   90.00000000
_cell_angle_gamma   90.00000000
_symmetry_Int_Tables_number   1
_chemical_formula_structural   Th4(Zn3Ag)3
_chemical_formula_sum   'Th4 Zn9 Ag3'
_cell_volume   324.85457514
_cell_formula_units_Z   1
loop_
 _symmetry_equiv_pos_site_id
 _symmetry_equiv_pos_as_xyz
  1  'x, y, z'
loop_
 _atom_site_type_symbol
 _atom_site_label
 _atom_site_symmetry_multiplicity
 _atom_site_fract_x
 _atom_site_fract_y
 _atom_site_fract_z
 _atom_site_occupancy
  Th  Th0  1  0.250000  0.292922  0.667646  1
  Th  Th1  1  0.250000  0.789144  0.830564  1
  Th  Th2  1  0.750000  0.709936  0.333819  1
  Th  Th3  1  0.750000  0.211874  0.167739  1
  Zn  Zn4  1  0.750000  0.965836  0.602395  1
  Zn  Zn5  1  0.250000  0.911741  0.146511  1
  Zn  Zn6  1  0.250000  0.411782  0.355612  1
  Zn  Zn7  1  0.750000  0.085386  0.850147  1
  Zn  Zn8  1  0.750000  0.592407  0.645149  1
  Zn  Zn9  1  0.250000  0.197233  0.960265  1
  Zn  Zn10  1  0.250000  0.701799  0.538213  1
  Zn  Zn11  1  0.750000  0.801798  0.038380  1
  Zn  Zn12  1  0.750000  0.294412  0.463153  1
  Ag  Ag13  1  0.250000  0.534811  0.099535  1
  Ag  Ag14  1  0.250000  0.035424  0.401916  1
  Ag  Ag15  1  0.750000  0.463494  0.898954  1
