# generated using pymatgen
data_Dy3Y9(InSi2)2
_symmetry_space_group_name_H-M   'P 1'
_cell_length_a   8.54903718
_cell_length_b   8.54921538
_cell_length_c   8.54903715
_cell_angle_alpha   112.42513560
_cell_angle_beta   110.91547560
_cell_angle_gamma   105.16029254
_symmetry_Int_Tables_number   1
_chemical_formula_structural   Dy3Y9(InSi2)2
_chemical_formula_sum   'Dy3 Y9 In2 Si4'
_cell_volume   478.88583810
_cell_formula_units_Z   1
loop_
 _symmetry_equiv_pos_site_id
 _symmetry_equiv_pos_as_xyz
  1  'x, y, z'
loop_
 _atom_site_type_symbol
 _atom_site_label
 _atom_site_symmetry_multiplicity
 _atom_site_fract_x
 _atom_site_fract_y
 _atom_site_fract_z
 _atom_site_occupancy
  Dy  Dy0  1  0.680077  0.382675  0.702598  1
  Dy  Dy1  1  0.319942  0.022499  0.702555  1
  Dy  Dy2  1  0.680091  0.977509  0.297419  1
  Y  Y3  1  0.442898  0.238397  0.204294  1
  Y  Y4  1  0.557241  0.761586  0.795854  1
  Y  Y5  1  0.034102  0.238397  0.795498  1
  Y  Y6  1  0.965734  0.761586  0.204347  1
  Y  Y7  1  0.185697  0.277886  0.463651  1
  Y  Y8  1  0.814400  0.722121  0.536399  1
  Y  Y9  1  0.185722  0.722121  0.907721  1
  Y  Y10  1  0.814235  0.277886  0.092189  1
  Y  Y11  1  0.319881  0.617333  0.297452  1
  In  In12  1  0.499979  0.499935  0.999956  1
  In  In13  1  0.999999  0.999986  0.999987  1
  Si  Si14  1  0.369343  0.000079  0.369344  1
  Si  Si15  1  0.630735  0.000079  0.630736  1
  Si  Si16  1  0.115564  0.615595  0.500031  1
  Si  Si17  1  0.884361  0.384329  0.499968  1
