# generated using pymatgen
data_Tb3Er5Tl3Os
_symmetry_space_group_name_H-M   'P 1'
_cell_length_a   10.34997800
_cell_length_b   10.35039564
_cell_length_c   7.09378500
_cell_angle_alpha   90.00000000
_cell_angle_beta   90.00000000
_cell_angle_gamma   120.00111336
_symmetry_Int_Tables_number   1
_chemical_formula_structural   Tb3Er5Tl3Os
_chemical_formula_sum   'Tb6 Er10 Tl6 Os2'
_cell_volume   658.11252840
_cell_formula_units_Z   2
loop_
 _symmetry_equiv_pos_site_id
 _symmetry_equiv_pos_as_xyz
  1  'x, y, z'
loop_
 _atom_site_type_symbol
 _atom_site_label
 _atom_site_symmetry_multiplicity
 _atom_site_fract_x
 _atom_site_fract_y
 _atom_site_fract_z
 _atom_site_occupancy
  Tb  Tb0  1  0.533501  0.066983  0.794183  1
  Tb  Tb1  1  0.933013  0.466506  0.794187  1
  Tb  Tb2  1  0.533509  0.466504  0.794157  1
  Tb  Tb3  1  0.466499  0.933017  0.294183  1
  Tb  Tb4  1  0.066987  0.533494  0.294187  1
  Tb  Tb5  1  0.466491  0.533496  0.294157  1
  Er  Er6  1  0.822992  0.645961  0.497472  1
  Er  Er7  1  0.354055  0.177019  0.497485  1
  Er  Er8  1  0.822964  0.177036  0.497461  1
  Er  Er9  1  0.177008  0.354039  0.997472  1
  Er  Er10  1  0.645945  0.822981  0.997485  1
  Er  Er11  1  0.177036  0.822964  0.997461  1
  Er  Er12  1  0.666670  0.333331  0.171788  1
  Er  Er13  1  0.333330  0.666669  0.671788  1
  Er  Er14  1  0.999995  0.000001  0.777221  1
  Er  Er15  1  0.000005  0.999999  0.277221  1
  Tl  Tl16  1  0.837173  0.674367  0.042777  1
  Tl  Tl17  1  0.325634  0.162825  0.042783  1
  Tl  Tl18  1  0.837176  0.162809  0.042813  1
  Tl  Tl19  1  0.162827  0.325633  0.542777  1
  Tl  Tl20  1  0.674366  0.837175  0.542783  1
  Tl  Tl21  1  0.162824  0.837191  0.542813  1
  Os  Os22  1  0.666668  0.333343  0.565626  1
  Os  Os23  1  0.333332  0.666657  0.065626  1
