# generated using pymatgen
data_LiNd6Zn22P
_symmetry_space_group_name_H-M   'P 1'
_cell_length_a   9.22747167
_cell_length_b   9.22712755
_cell_length_c   9.22704000
_cell_angle_alpha   60.00008442
_cell_angle_beta   59.99904524
_cell_angle_gamma   60.00165065
_symmetry_Int_Tables_number   1
_chemical_formula_structural   LiNd6Zn22P
_chemical_formula_sum   'Li1 Nd6 Zn22 P1'
_cell_volume   555.51937536
_cell_formula_units_Z   1
loop_
 _symmetry_equiv_pos_site_id
 _symmetry_equiv_pos_as_xyz
  1  'x, y, z'
loop_
 _atom_site_type_symbol
 _atom_site_label
 _atom_site_symmetry_multiplicity
 _atom_site_fract_x
 _atom_site_fract_y
 _atom_site_fract_z
 _atom_site_occupancy
  Li  Li0  1  0.000000  0.000000  0.000000  1
  Nd  Nd1  1  0.715382  0.284618  0.284616  1
  Nd  Nd2  1  0.715400  0.284597  0.715403  1
  Nd  Nd3  1  0.715405  0.715409  0.284593  1
  Nd  Nd4  1  0.284618  0.715382  0.715384  1
  Nd  Nd5  1  0.284600  0.715403  0.284597  1
  Nd  Nd6  1  0.284595  0.284591  0.715407  1
  Zn  Zn7  1  0.621869  0.126040  0.126051  1
  Zn  Zn8  1  0.126032  0.621875  0.126045  1
  Zn  Zn9  1  0.126037  0.126038  0.621882  1
  Zn  Zn10  1  0.126028  0.126046  0.126047  1
  Zn  Zn11  1  0.378131  0.873960  0.873949  1
  Zn  Zn12  1  0.873968  0.378125  0.873955  1
  Zn  Zn13  1  0.873963  0.873962  0.378118  1
  Zn  Zn14  1  0.873972  0.873954  0.873953  1
  Zn  Zn15  1  0.500000  0.000000  0.000000  1
  Zn  Zn16  1  0.500000  0.000000  0.500000  1
  Zn  Zn17  1  0.500000  0.500000  0.000000  1
  Zn  Zn18  1  0.000000  0.500000  0.500000  1
  Zn  Zn19  1  0.000000  0.500000  0.000000  1
  Zn  Zn20  1  0.000000  0.000000  0.500000  1
  Zn  Zn21  1  0.017991  0.327337  0.327334  1
  Zn  Zn22  1  0.327335  0.017996  0.327334  1
  Zn  Zn23  1  0.327338  0.327335  0.017998  1
  Zn  Zn24  1  0.327336  0.327337  0.327327  1
  Zn  Zn25  1  0.982009  0.672663  0.672666  1
  Zn  Zn26  1  0.672665  0.982004  0.672666  1
  Zn  Zn27  1  0.672662  0.672665  0.982002  1
  Zn  Zn28  1  0.672664  0.672663  0.672673  1
  P  P29  1  0.500000  0.500000  0.500000  1
