# generated using pymatgen
data_Dy2Ho6Os3RuC8
_symmetry_space_group_name_H-M   'P 1'
_cell_length_a   5.11243200
_cell_length_b   6.44209822
_cell_length_c   9.75173081
_cell_angle_alpha   89.90862908
_cell_angle_beta   90.00000000
_cell_angle_gamma   90.00000000
_symmetry_Int_Tables_number   1
_chemical_formula_structural   Dy2Ho6Os3RuC8
_chemical_formula_sum   'Dy2 Ho6 Os3 Ru1 C8'
_cell_volume   321.17078901
_cell_formula_units_Z   1
loop_
 _symmetry_equiv_pos_site_id
 _symmetry_equiv_pos_as_xyz
  1  'x, y, z'
loop_
 _atom_site_type_symbol
 _atom_site_label
 _atom_site_symmetry_multiplicity
 _atom_site_fract_x
 _atom_site_fract_y
 _atom_site_fract_z
 _atom_site_occupancy
  Dy  Dy0  1  0.750000  0.473102  0.782522  1
  Dy  Dy1  1  0.750000  0.973544  0.717717  1
  Ho  Ho2  1  0.250000  0.681457  0.552839  1
  Ho  Ho3  1  0.750000  0.319230  0.447081  1
  Ho  Ho4  1  0.750000  0.819466  0.053653  1
  Ho  Ho5  1  0.250000  0.177849  0.947906  1
  Ho  Ho6  1  0.250000  0.527621  0.217338  1
  Ho  Ho7  1  0.250000  0.026767  0.281525  1
  Os  Os8  1  0.750000  0.277365  0.134404  1
  Os  Os9  1  0.750000  0.776564  0.365565  1
  Os  Os10  1  0.250000  0.223009  0.634339  1
  Ru  Ru11  1  0.250000  0.722400  0.866349  1
  C  C12  1  0.250000  0.457416  0.756538  1
  C  C13  1  0.750000  0.541438  0.241733  1
  C  C14  1  0.750000  0.041934  0.258734  1
  C  C15  1  0.250000  0.958970  0.740869  1
  C  C16  1  0.250000  0.827659  0.054830  1
  C  C17  1  0.750000  0.173631  0.946891  1
  C  C18  1  0.750000  0.674237  0.553292  1
  C  C19  1  0.250000  0.326342  0.445870  1
