# generated using pymatgen
data_NdEr3TmSb3
_symmetry_space_group_name_H-M   'P 1'
_cell_length_a   8.09779300
_cell_length_b   9.23581100
_cell_length_c   11.80758900
_cell_angle_alpha   90.00000000
_cell_angle_beta   90.00000000
_cell_angle_gamma   90.00000000
_symmetry_Int_Tables_number   1
_chemical_formula_structural   NdEr3TmSb3
_chemical_formula_sum   'Nd4 Er12 Tm4 Sb12'
_cell_volume   883.08586977
_cell_formula_units_Z   4
loop_
 _symmetry_equiv_pos_site_id
 _symmetry_equiv_pos_as_xyz
  1  'x, y, z'
loop_
 _atom_site_type_symbol
 _atom_site_label
 _atom_site_symmetry_multiplicity
 _atom_site_fract_x
 _atom_site_fract_y
 _atom_site_fract_z
 _atom_site_occupancy
  Nd  Nd0  1  0.171473  0.750000  0.222992  1
  Nd  Nd1  1  0.328527  0.750000  0.722992  1
  Nd  Nd2  1  0.828527  0.250000  0.777008  1
  Nd  Nd3  1  0.671473  0.250000  0.277008  1
  Er  Er4  1  0.811470  0.560919  0.063780  1
  Er  Er5  1  0.688530  0.939081  0.563780  1
  Er  Er6  1  0.188530  0.060919  0.936220  1
  Er  Er7  1  0.311470  0.439081  0.436220  1
  Er  Er8  1  0.188530  0.439081  0.936220  1
  Er  Er9  1  0.311470  0.060919  0.436220  1
  Er  Er10  1  0.811470  0.939081  0.063780  1
  Er  Er11  1  0.688530  0.560919  0.563780  1
  Er  Er12  1  0.665482  0.750000  0.288435  1
  Er  Er13  1  0.834518  0.750000  0.788435  1
  Er  Er14  1  0.334518  0.250000  0.711565  1
  Er  Er15  1  0.165482  0.250000  0.211565  1
  Tm  Tm16  1  0.474795  0.750000  0.002579  1
  Tm  Tm17  1  0.025205  0.750000  0.502579  1
  Tm  Tm18  1  0.525205  0.250000  0.997421  1
  Tm  Tm19  1  0.974795  0.250000  0.497421  1
  Sb  Sb20  1  0.404094  0.750000  0.464283  1
  Sb  Sb21  1  0.095906  0.750000  0.964283  1
  Sb  Sb22  1  0.595906  0.250000  0.535717  1
  Sb  Sb23  1  0.904094  0.250000  0.035717  1
  Sb  Sb24  1  0.936521  0.506969  0.329319  1
  Sb  Sb25  1  0.563479  0.993031  0.829319  1
  Sb  Sb26  1  0.063479  0.006969  0.670681  1
  Sb  Sb27  1  0.436521  0.493031  0.170681  1
  Sb  Sb28  1  0.063479  0.493031  0.670681  1
  Sb  Sb29  1  0.436521  0.006969  0.170681  1
  Sb  Sb30  1  0.936521  0.993031  0.329319  1
  Sb  Sb31  1  0.563479  0.506969  0.829319  1
