# generated using pymatgen
data_LiLa8Ir5Pd
_symmetry_space_group_name_H-M   'P 1'
_cell_length_a   7.77876284
_cell_length_b   7.80303988
_cell_length_c   7.79099092
_cell_angle_alpha   69.72875793
_cell_angle_beta   69.83754854
_cell_angle_gamma   69.31254016
_symmetry_Int_Tables_number   1
_chemical_formula_structural   LiLa8Ir5Pd
_chemical_formula_sum   'Li1 La8 Ir5 Pd1'
_cell_volume   401.47061249
_cell_formula_units_Z   1
loop_
 _symmetry_equiv_pos_site_id
 _symmetry_equiv_pos_as_xyz
  1  'x, y, z'
loop_
 _atom_site_type_symbol
 _atom_site_label
 _atom_site_symmetry_multiplicity
 _atom_site_fract_x
 _atom_site_fract_y
 _atom_site_fract_z
 _atom_site_occupancy
  Li  Li0  1  0.999875  0.999583  0.001545  1
  La  La1  1  0.809327  0.809074  0.814476  1
  La  La2  1  0.187229  0.186072  0.180673  1
  La  La3  1  0.143913  0.388491  0.688008  1
  La  La4  1  0.680557  0.137804  0.378629  1
  La  La5  1  0.380896  0.686201  0.140314  1
  La  La6  1  0.862196  0.624140  0.310157  1
  La  La7  1  0.322161  0.854523  0.618069  1
  La  La8  1  0.609480  0.316517  0.869128  1
  Ir  Ir9  1  0.573291  0.949451  0.185340  1
  Ir  Ir10  1  0.189438  0.573396  0.947742  1
  Ir  Ir11  1  0.051918  0.815706  0.427677  1
  Ir  Ir12  1  0.426851  0.054326  0.809918  1
  Ir  Ir13  1  0.813712  0.422797  0.053253  1
  Pd  Pd14  1  0.949155  0.181920  0.575070  1
