# generated using pymatgen
data_Y4ErLu(RuI3)2
_symmetry_space_group_name_H-M   'P 1'
_cell_length_a   4.22448100
_cell_length_b   8.86381759
_cell_length_c   12.30402098
_cell_angle_alpha   86.09798393
_cell_angle_beta   90.00000000
_cell_angle_gamma   90.00000000
_symmetry_Int_Tables_number   1
_chemical_formula_structural   Y4ErLu(RuI3)2
_chemical_formula_sum   'Y4 Er1 Lu1 Ru2 I6'
_cell_volume   459.65641019
_cell_formula_units_Z   1
loop_
 _symmetry_equiv_pos_site_id
 _symmetry_equiv_pos_as_xyz
  1  'x, y, z'
loop_
 _atom_site_type_symbol
 _atom_site_label
 _atom_site_symmetry_multiplicity
 _atom_site_fract_x
 _atom_site_fract_y
 _atom_site_fract_z
 _atom_site_occupancy
  Y  Y0  1  0.750000  0.097061  0.685183  1
  Y  Y1  1  0.250000  0.901763  0.315306  1
  Y  Y2  1  0.250000  0.262164  0.897579  1
  Y  Y3  1  0.750000  0.737498  0.101232  1
  Er  Er4  1  0.750000  0.128546  0.124405  1
  Lu  Lu5  1  0.250000  0.874536  0.876139  1
  Ru  Ru6  1  0.750000  0.051053  0.908276  1
  Ru  Ru7  1  0.250000  0.946921  0.091169  1
  I  I8  1  0.250000  0.352521  0.637133  1
  I  I9  1  0.750000  0.647202  0.362999  1
  I  I10  1  0.750000  0.143878  0.391413  1
  I  I11  1  0.250000  0.855788  0.609342  1
  I  I12  1  0.250000  0.424924  0.133389  1
  I  I13  1  0.750000  0.576146  0.866434  1
