# generated using pymatgen
data_CeNd(CoC2)2
_symmetry_space_group_name_H-M   'P 1'
_cell_length_a   3.76570332
_cell_length_b   3.77351635
_cell_length_c   7.40626855
_cell_angle_alpha   82.18286008
_cell_angle_beta   81.93641806
_cell_angle_gamma   90.06139401
_symmetry_Int_Tables_number   1
_chemical_formula_structural   CeNd(CoC2)2
_chemical_formula_sum   'Ce1 Nd1 Co2 C4'
_cell_volume   103.21200796
_cell_formula_units_Z   1
loop_
 _symmetry_equiv_pos_site_id
 _symmetry_equiv_pos_as_xyz
  1  'x, y, z'
loop_
 _atom_site_type_symbol
 _atom_site_label
 _atom_site_symmetry_multiplicity
 _atom_site_fract_x
 _atom_site_fract_y
 _atom_site_fract_z
 _atom_site_occupancy
  Ce  Ce0  1  0.066726  0.929425  0.452682  1
  Nd  Nd1  1  0.924014  0.069161  0.951471  1
  Co  Co2  1  0.628256  0.484849  0.260514  1
  Co  Co3  1  0.483383  0.624418  0.755516  1
  C  C4  1  0.403645  0.554559  0.025206  1
  C  C5  1  0.554253  0.402209  0.524895  1
  C  C6  1  0.506052  0.140586  0.677597  1
  C  C7  1  0.145672  0.506794  0.178120  1
