# generated using pymatgen
data_Ba2PrNdMn4O11
_symmetry_space_group_name_H-M   'P 1'
_cell_length_a   3.89170200
_cell_length_b   8.24919759
_cell_length_c   8.86256018
_cell_angle_alpha   117.73949608
_cell_angle_beta   90.00007650
_cell_angle_gamma   90.00000635
_symmetry_Int_Tables_number   1
_chemical_formula_structural   Ba2PrNdMn4O11
_chemical_formula_sum   'Ba2 Pr1 Nd1 Mn4 O11'
_cell_volume   251.81962029
_cell_formula_units_Z   1
loop_
 _symmetry_equiv_pos_site_id
 _symmetry_equiv_pos_as_xyz
  1  'x, y, z'
loop_
 _atom_site_type_symbol
 _atom_site_label
 _atom_site_symmetry_multiplicity
 _atom_site_fract_x
 _atom_site_fract_y
 _atom_site_fract_z
 _atom_site_occupancy
  Ba  Ba0  1  0.499998  0.500075  0.500121  1
  Ba  Ba1  1  0.499998  0.999956  0.499883  1
  Pr  Pr2  1  0.500000  0.228715  0.999989  1
  Nd  Nd3  1  0.499996  0.771529  0.000017  1
  Mn  Mn4  1  0.999987  0.382664  0.764765  1
  Mn  Mn5  1  0.000031  0.617903  0.235225  1
  Mn  Mn6  1  0.000009  0.124694  0.250199  1
  Mn  Mn7  1  0.000009  0.874510  0.749785  1
  O  O8  1  0.499991  0.410202  0.819016  1
  O  O9  1  0.500018  0.591082  0.180991  1
  O  O10  1  0.500002  0.114687  0.230619  1
  O  O11  1  0.499975  0.884063  0.769383  1
  O  O12  1  0.999999  0.248077  0.496168  1
  O  O13  1  0.999992  0.751995  0.503839  1
  O  O14  1  0.000014  0.372026  0.208516  1
  O  O15  1  0.999991  0.628849  0.792871  1
  O  O16  1  0.000015  0.835930  0.207100  1
  O  O17  1  0.999988  0.163556  0.791511  1
  O  O18  1  0.999986  0.999487  0.000002  1
