# generated using pymatgen
data_Ti11Nb8Si16Tc
_symmetry_space_group_name_H-M   'P 1'
_cell_length_a   6.68594885
_cell_length_b   6.67957546
_cell_length_c   12.25361648
_cell_angle_alpha   90.34722492
_cell_angle_beta   90.13263025
_cell_angle_gamma   89.98551466
_symmetry_Int_Tables_number   1
_chemical_formula_structural   Ti11Nb8Si16Tc
_chemical_formula_sum   'Ti11 Nb8 Si16 Tc1'
_cell_volume   547.22640197
_cell_formula_units_Z   1
loop_
 _symmetry_equiv_pos_site_id
 _symmetry_equiv_pos_as_xyz
  1  'x, y, z'
loop_
 _atom_site_type_symbol
 _atom_site_label
 _atom_site_symmetry_multiplicity
 _atom_site_fract_x
 _atom_site_fract_y
 _atom_site_fract_z
 _atom_site_occupancy
  Ti  Ti0  1  0.849205  0.996506  0.371957  1
  Ti  Ti1  1  0.006105  0.153602  0.130307  1
  Ti  Ti2  1  0.996768  0.844778  0.626988  1
  Ti  Ti3  1  0.502479  0.346918  0.622804  1
  Ti  Ti4  1  0.152815  0.003591  0.872347  1
  Ti  Ti5  1  0.670401  0.668416  0.499707  1
  Ti  Ti6  1  0.830979  0.168986  0.749845  1
  Ti  Ti7  1  0.168894  0.834799  0.249876  1
  Ti  Ti8  1  0.331892  0.331200  0.000398  1
  Ti  Ti9  1  0.497879  0.651157  0.121293  1
  Ti  Ti10  1  0.653628  0.496742  0.878734  1
  Nb  Nb11  1  0.007038  0.659719  0.029817  1
  Nb  Nb12  1  0.989258  0.341568  0.529841  1
  Nb  Nb13  1  0.658993  0.004093  0.971740  1
  Nb  Nb14  1  0.158252  0.496278  0.779180  1
  Nb  Nb15  1  0.835768  0.503314  0.276841  1
  Nb  Nb16  1  0.494929  0.153793  0.220406  1
  Nb  Nb17  1  0.506195  0.840557  0.719150  1
  Nb  Nb18  1  0.338588  0.992320  0.472223  1
  Si  Si19  1  0.044079  0.699385  0.434964  1
  Si  Si20  1  0.957463  0.298085  0.936892  1
  Si  Si21  1  0.701778  0.043902  0.563049  1
  Si  Si22  1  0.202708  0.457866  0.187621  1
  Si  Si23  1  0.797397  0.542716  0.687074  1
  Si  Si24  1  0.456619  0.200498  0.813778  1
  Si  Si25  1  0.545003  0.798426  0.313118  1
  Si  Si26  1  0.298458  0.955638  0.062882  1
  Si  Si27  1  0.792068  0.865202  0.172339  1
  Si  Si28  1  0.290888  0.633274  0.576500  1
  Si  Si29  1  0.709105  0.362235  0.077201  1
  Si  Si30  1  0.630533  0.292874  0.422829  1
  Si  Si31  1  0.364107  0.708016  0.922502  1
  Si  Si32  1  0.139121  0.212782  0.328938  1
  Si  Si33  1  0.206763  0.135716  0.673078  1
  Si  Si34  1  0.863970  0.792665  0.826751  1
  Tc  Tc35  1  0.349878  0.512385  0.377032  1
