# generated using pymatgen
data_Zr4Sc4CuOs7
_symmetry_space_group_name_H-M   'P 1'
_cell_length_a   6.49082001
_cell_length_b   4.61176400
_cell_length_c   9.23183301
_cell_angle_alpha   90.00000000
_cell_angle_beta   90.00455418
_cell_angle_gamma   90.00000000
_symmetry_Int_Tables_number   1
_chemical_formula_structural   Zr4Sc4CuOs7
_chemical_formula_sum   'Zr4 Sc4 Cu1 Os7'
_cell_volume   276.34688878
_cell_formula_units_Z   1
loop_
 _symmetry_equiv_pos_site_id
 _symmetry_equiv_pos_as_xyz
  1  'x, y, z'
loop_
 _atom_site_type_symbol
 _atom_site_label
 _atom_site_symmetry_multiplicity
 _atom_site_fract_x
 _atom_site_fract_y
 _atom_site_fract_z
 _atom_site_occupancy
  Zr  Zr0  1  0.743820  0.250000  0.125041  1
  Zr  Zr1  1  0.252541  0.750000  0.377245  1
  Zr  Zr2  1  0.749883  0.250000  0.625037  1
  Zr  Zr3  1  0.252686  0.750000  0.872723  1
  Sc  Sc4  1  0.250527  0.250000  0.125050  1
  Sc  Sc5  1  0.749650  0.750000  0.376149  1
  Sc  Sc6  1  0.249660  0.250000  0.625063  1
  Sc  Sc7  1  0.749679  0.750000  0.873905  1
  Cu  Cu8  1  0.000193  0.750000  0.124586  1
  Os  Os9  1  0.500146  0.750000  0.125057  1
  Os  Os10  1  0.999846  0.250000  0.372692  1
  Os  Os11  1  0.500529  0.250000  0.374116  1
  Os  Os12  1  0.500695  0.750000  0.625074  1
  Os  Os13  1  0.999660  0.750000  0.625051  1
  Os  Os14  1  0.500574  0.250000  0.875938  1
  Os  Os15  1  0.999913  0.250000  0.877273  1
