# generated using pymatgen
data_Ta3Ti(AlC)2
_symmetry_space_group_name_H-M   'P 1'
_cell_length_a   3.09465900
_cell_length_b   3.09466035
_cell_length_c   13.89170200
_cell_angle_alpha   90.00000000
_cell_angle_beta   90.00000000
_cell_angle_gamma   120.00001766
_symmetry_Int_Tables_number   1
_chemical_formula_structural   Ta3Ti(AlC)2
_chemical_formula_sum   'Ta3 Ti1 Al2 C2'
_cell_volume   115.21573752
_cell_formula_units_Z   1
loop_
 _symmetry_equiv_pos_site_id
 _symmetry_equiv_pos_as_xyz
  1  'x, y, z'
loop_
 _atom_site_type_symbol
 _atom_site_label
 _atom_site_symmetry_multiplicity
 _atom_site_fract_x
 _atom_site_fract_y
 _atom_site_fract_z
 _atom_site_occupancy
  Ta  Ta0  1  0.666667  0.333333  0.587500  1
  Ta  Ta1  1  0.666667  0.333333  0.910725  1
  Ta  Ta2  1  0.333333  0.666667  0.089404  1
  Ti  Ti3  1  0.333333  0.666667  0.414051  1
  Al  Al4  1  0.333333  0.666667  0.749200  1
  Al  Al5  1  0.666667  0.333333  0.252442  1
  C  C6  1  0.000000  0.000000  0.496531  1
  C  C7  1  0.000000  0.000000  0.000148  1
