# generated using pymatgen
data_Tb3Ce(Sc3Sn4)2
_symmetry_space_group_name_H-M   'P 1'
_cell_length_a   7.75290800
_cell_length_b   7.92278814
_cell_length_c   14.91375700
_cell_angle_alpha   90.01087658
_cell_angle_beta   90.00000000
_cell_angle_gamma   90.00000000
_symmetry_Int_Tables_number   1
_chemical_formula_structural   Tb3Ce(Sc3Sn4)2
_chemical_formula_sum   'Tb6 Ce2 Sc12 Sn16'
_cell_volume   916.07225123
_cell_formula_units_Z   2
loop_
 _symmetry_equiv_pos_site_id
 _symmetry_equiv_pos_as_xyz
  1  'x, y, z'
loop_
 _atom_site_type_symbol
 _atom_site_label
 _atom_site_symmetry_multiplicity
 _atom_site_fract_x
 _atom_site_fract_y
 _atom_site_fract_z
 _atom_site_occupancy
  Tb  Tb0  1  0.515869  0.324091  0.904709  1
  Tb  Tb1  1  0.015869  0.175909  0.595291  1
  Tb  Tb2  1  0.486541  0.676285  0.404096  1
  Tb  Tb3  1  0.986541  0.823715  0.095904  1
  Tb  Tb4  1  0.485291  0.676539  0.096006  1
  Tb  Tb5  1  0.985291  0.823461  0.403994  1
  Ce  Ce6  1  0.511566  0.325081  0.592804  1
  Ce  Ce7  1  0.011566  0.174919  0.907196  1
  Sc  Sc8  1  0.352537  0.836723  0.874541  1
  Sc  Sc9  1  0.852537  0.663277  0.625459  1
  Sc  Sc10  1  0.646592  0.162178  0.373475  1
  Sc  Sc11  1  0.146592  0.337822  0.126525  1
  Sc  Sc12  1  0.648089  0.162342  0.127059  1
  Sc  Sc13  1  0.148089  0.337658  0.372941  1
  Sc  Sc14  1  0.351957  0.838282  0.625367  1
  Sc  Sc15  1  0.851957  0.661718  0.874633  1
  Sc  Sc16  1  0.182907  0.505590  0.750255  1
  Sc  Sc17  1  0.682907  0.994410  0.749745  1
  Sc  Sc18  1  0.817753  0.495385  0.250031  1
  Sc  Sc19  1  0.317753  0.004615  0.249969  1
  Sn  Sn20  1  0.313231  0.043370  0.043367  1
  Sn  Sn21  1  0.813231  0.456630  0.456633  1
  Sn  Sn22  1  0.691129  0.957138  0.542024  1
  Sn  Sn23  1  0.191129  0.542862  0.957976  1
  Sn  Sn24  1  0.687443  0.954063  0.958705  1
  Sn  Sn25  1  0.187443  0.545937  0.541295  1
  Sn  Sn26  1  0.309546  0.042267  0.457108  1
  Sn  Sn27  1  0.809546  0.457733  0.042892  1
  Sn  Sn28  1  0.545908  0.627209  0.749244  1
  Sn  Sn29  1  0.045908  0.872791  0.750756  1
  Sn  Sn30  1  0.453102  0.373250  0.249781  1
  Sn  Sn31  1  0.953102  0.126750  0.250219  1
  Sn  Sn32  1  0.321483  0.146187  0.750577  1
  Sn  Sn33  1  0.821483  0.353813  0.749423  1
  Sn  Sn34  1  0.679055  0.852979  0.250279  1
  Sn  Sn35  1  0.179055  0.647021  0.249721  1
