# generated using pymatgen
data_LuCd4Ir3O14
_symmetry_space_group_name_H-M   'P 1'
_cell_length_a   7.44241156
_cell_length_b   7.27582402
_cell_length_c   7.27582400
_cell_angle_alpha   120.00000900
_cell_angle_beta   119.26228867
_cell_angle_gamma   60.73771875
_symmetry_Int_Tables_number   1
_chemical_formula_structural   LuCd4Ir3O14
_chemical_formula_sum   'Lu1 Cd4 Ir3 O14'
_cell_volume   281.65450754
_cell_formula_units_Z   1
loop_
 _symmetry_equiv_pos_site_id
 _symmetry_equiv_pos_as_xyz
  1  'x, y, z'
loop_
 _atom_site_type_symbol
 _atom_site_label
 _atom_site_symmetry_multiplicity
 _atom_site_fract_x
 _atom_site_fract_y
 _atom_site_fract_z
 _atom_site_occupancy
  Lu  Lu0  1  0.000000  0.499999  0.499999  1
  Cd  Cd1  1  0.000000  0.000000  0.000000  1
  Cd  Cd2  1  0.500000  0.000000  0.000000  1
  Cd  Cd3  1  0.000000  0.500000  0.000000  1
  Cd  Cd4  1  0.000000  0.000000  0.500001  1
  Ir  Ir5  1  0.500000  0.500000  0.000000  1
  Ir  Ir6  1  0.500000  0.500000  0.499999  1
  Ir  Ir7  1  0.499999  0.000000  0.499999  1
  O  O8  1  0.860201  0.879934  0.120068  1
  O  O9  1  0.816574  0.411041  0.138656  1
  O  O10  1  0.471171  0.810432  0.189565  1
  O  O11  1  0.471172  0.407961  0.189567  1
  O  O12  1  0.528828  0.189567  0.407959  1
  O  O13  1  0.183425  0.588958  0.411040  1
  O  O14  1  0.183424  0.138657  0.411042  1
  O  O15  1  0.816575  0.411042  0.588959  1
  O  O16  1  0.471172  0.810433  0.592040  1
  O  O17  1  0.816575  0.861342  0.588959  1
  O  O18  1  0.528828  0.189567  0.810433  1
  O  O19  1  0.183425  0.588958  0.861342  1
  O  O20  1  0.528829  0.592040  0.810433  1
  O  O21  1  0.139799  0.120066  0.879933  1
