# generated using pymatgen
data_Y3ErSc6(Si5Ir2)4
_symmetry_space_group_name_H-M   'P 1'
_cell_length_a   12.48261122
_cell_length_b   12.48261182
_cell_length_c   4.15408500
_cell_angle_alpha   90.00000000
_cell_angle_beta   90.00000000
_cell_angle_gamma   90.05006367
_symmetry_Int_Tables_number   1
_chemical_formula_structural   Y3ErSc6(Si5Ir2)4
_chemical_formula_sum   'Y3 Er1 Sc6 Si20 Ir8'
_cell_volume   647.27095995
_cell_formula_units_Z   1
loop_
 _symmetry_equiv_pos_site_id
 _symmetry_equiv_pos_as_xyz
  1  'x, y, z'
loop_
 _atom_site_type_symbol
 _atom_site_label
 _atom_site_symmetry_multiplicity
 _atom_site_fract_x
 _atom_site_fract_y
 _atom_site_fract_z
 _atom_site_occupancy
  Y  Y0  1  0.115729  0.615681  0.500000  1
  Y  Y1  1  0.884319  0.384271  0.500000  1
  Y  Y2  1  0.615456  0.884544  0.500000  1
  Er  Er3  1  0.384426  0.115574  0.500000  1
  Sc  Sc4  1  0.673721  0.174035  0.500000  1
  Sc  Sc5  1  0.325965  0.826279  0.500000  1
  Sc  Sc6  1  0.174384  0.325616  0.500000  1
  Sc  Sc7  1  0.825913  0.674087  0.500000  1
  Sc  Sc8  1  0.000289  0.999999  0.000000  1
  Sc  Sc9  1  0.500001  0.499711  0.000000  1
  Si  Si10  1  0.567544  0.067553  0.000000  1
  Si  Si11  1  0.432447  0.932456  0.000000  1
  Si  Si12  1  0.067906  0.432094  0.000000  1
  Si  Si13  1  0.932241  0.567759  0.000000  1
  Si  Si14  1  0.199794  0.165735  0.000000  1
  Si  Si15  1  0.800528  0.834436  0.000000  1
  Si  Si16  1  0.165804  0.800951  0.000000  1
  Si  Si17  1  0.699049  0.334196  0.000000  1
  Si  Si18  1  0.834246  0.199535  0.000000  1
  Si  Si19  1  0.300465  0.665754  0.000000  1
  Si  Si20  1  0.665564  0.699472  0.000000  1
  Si  Si21  1  0.334265  0.300206  0.000000  1
  Si  Si22  1  0.007945  0.150732  0.500000  1
  Si  Si23  1  0.992557  0.849369  0.500000  1
  Si  Si24  1  0.151499  0.993253  0.500000  1
  Si  Si25  1  0.506747  0.348501  0.500000  1
  Si  Si26  1  0.849249  0.008107  0.500000  1
  Si  Si27  1  0.491893  0.650751  0.500000  1
  Si  Si28  1  0.650631  0.507443  0.500000  1
  Si  Si29  1  0.349268  0.492055  0.500000  1
  Ir  Ir30  1  0.020467  0.243957  0.000000  1
  Ir  Ir31  1  0.979722  0.756108  0.000000  1
  Ir  Ir32  1  0.244905  0.980301  0.000000  1
  Ir  Ir33  1  0.519699  0.255095  0.000000  1
  Ir  Ir34  1  0.755817  0.020395  0.000000  1
  Ir  Ir35  1  0.479605  0.744183  0.000000  1
  Ir  Ir36  1  0.743892  0.520278  0.000000  1
  Ir  Ir37  1  0.256043  0.479533  0.000000  1
