# generated using pymatgen
data_Al11(CrPd)2
_symmetry_space_group_name_H-M   'P 1'
_cell_length_a   5.14306892
_cell_length_b   5.15169524
_cell_length_c   9.01397553
_cell_angle_alpha   74.66987914
_cell_angle_beta   87.80541623
_cell_angle_gamma   79.48663160
_symmetry_Int_Tables_number   1
_chemical_formula_structural   Al11(CrPd)2
_chemical_formula_sum   'Al11 Cr2 Pd2'
_cell_volume   226.45289576
_cell_formula_units_Z   1
loop_
 _symmetry_equiv_pos_site_id
 _symmetry_equiv_pos_as_xyz
  1  'x, y, z'
loop_
 _atom_site_type_symbol
 _atom_site_label
 _atom_site_symmetry_multiplicity
 _atom_site_fract_x
 _atom_site_fract_y
 _atom_site_fract_z
 _atom_site_occupancy
  Al  Al0  1  0.156738  0.297094  0.378086  1
  Al  Al1  1  0.843262  0.702906  0.621914  1
  Al  Al2  1  0.841692  0.471173  0.119967  1
  Al  Al3  1  0.158308  0.528827  0.880033  1
  Al  Al4  1  0.000000  0.000000  0.000000  1
  Al  Al5  1  0.464309  0.111471  0.118588  1
  Al  Al6  1  0.535691  0.888529  0.881412  1
  Al  Al7  1  0.428477  0.330646  0.635300  1
  Al  Al8  1  0.571523  0.669354  0.364700  1
  Al  Al9  1  0.054475  0.836087  0.315196  1
  Al  Al10  1  0.945525  0.163913  0.684804  1
  Cr  Cr11  1  0.329070  0.614490  0.133975  1
  Cr  Cr12  1  0.670930  0.385510  0.866025  1
  Pd  Pd13  1  0.673474  0.153605  0.392022  1
  Pd  Pd14  1  0.326526  0.846395  0.607978  1
