# generated using pymatgen
data_Ta5TiAl4(CoN)2
_symmetry_space_group_name_H-M   'P 1'
_cell_length_a   8.13922186
_cell_length_b   8.13922296
_cell_length_c   8.14897141
_cell_angle_alpha   59.99005695
_cell_angle_beta   59.99005404
_cell_angle_gamma   60.09372385
_symmetry_Int_Tables_number   1
_chemical_formula_structural   Ta5TiAl4(CoN)2
_chemical_formula_sum   'Ta10 Ti2 Al8 Co4 N4'
_cell_volume   381.93979830
_cell_formula_units_Z   2
loop_
 _symmetry_equiv_pos_site_id
 _symmetry_equiv_pos_as_xyz
  1  'x, y, z'
loop_
 _atom_site_type_symbol
 _atom_site_label
 _atom_site_symmetry_multiplicity
 _atom_site_fract_x
 _atom_site_fract_y
 _atom_site_fract_z
 _atom_site_occupancy
  Ta  Ta0  1  0.687865  0.310733  0.312796  1
  Ta  Ta1  1  0.309660  0.688249  0.311696  1
  Ta  Ta2  1  0.689759  0.688128  0.313292  1
  Ta  Ta3  1  0.311472  0.311281  0.687537  1
  Ta  Ta4  1  0.561872  0.560241  0.936708  1
  Ta  Ta5  1  0.937554  0.560830  0.562024  1
  Ta  Ta6  1  0.561751  0.940340  0.938304  1
  Ta  Ta7  1  0.938719  0.938528  0.562463  1
  Ta  Ta8  1  0.689170  0.312446  0.687976  1
  Ta  Ta9  1  0.939267  0.562135  0.937204  1
  Ti  Ti10  1  0.563318  0.936122  0.562222  1
  Ti  Ti11  1  0.313878  0.686682  0.687778  1
  Al  Al12  1  0.919458  0.918009  0.918094  1
  Al  Al13  1  0.004632  0.331854  0.331606  1
  Al  Al14  1  0.331829  0.002963  0.334576  1
  Al  Al15  1  0.331591  0.334358  0.002272  1
  Al  Al16  1  0.918146  0.245368  0.918394  1
  Al  Al17  1  0.915642  0.918409  0.247728  1
  Al  Al18  1  0.247037  0.918171  0.915424  1
  Al  Al19  1  0.331991  0.330542  0.331906  1
  Co  Co20  1  0.125491  0.124509  0.125000  1
  Co  Co21  1  0.624255  0.124966  0.124964  1
  Co  Co22  1  0.125034  0.625745  0.125036  1
  Co  Co23  1  0.123928  0.126072  0.625000  1
  N  N24  1  0.620357  0.629643  0.625000  1
  N  N25  1  0.128350  0.625932  0.624578  1
  N  N26  1  0.624068  0.121650  0.625422  1
  N  N27  1  0.623907  0.626093  0.125000  1
