# generated using pymatgen
data_Na4(Ga8Pt3)3
_symmetry_space_group_name_H-M   'P 1'
_cell_length_a   7.49339270
_cell_length_b   7.50406065
_cell_length_c   13.68463170
_cell_angle_alpha   84.35551310
_cell_angle_beta   100.75288391
_cell_angle_gamma   119.43496262
_symmetry_Int_Tables_number   1
_chemical_formula_structural   Na4(Ga8Pt3)3
_chemical_formula_sum   'Na4 Ga24 Pt9'
_cell_volume   658.37989245
_cell_formula_units_Z   1
loop_
 _symmetry_equiv_pos_site_id
 _symmetry_equiv_pos_as_xyz
  1  'x, y, z'
loop_
 _atom_site_type_symbol
 _atom_site_label
 _atom_site_symmetry_multiplicity
 _atom_site_fract_x
 _atom_site_fract_y
 _atom_site_fract_z
 _atom_site_occupancy
  Na  Na0  1  0.435309  0.830508  0.805945  1
  Na  Na1  1  0.564691  0.169492  0.194055  1
  Na  Na2  1  0.765809  0.499845  0.805940  1
  Na  Na3  1  0.234191  0.500155  0.194060  1
  Ga  Ga4  1  0.477925  0.165792  0.942735  1
  Ga  Ga5  1  0.522075  0.834208  0.057265  1
  Ga  Ga6  1  0.021816  0.171861  0.556612  1
  Ga  Ga7  1  0.978184  0.828139  0.443388  1
  Ga  Ga8  1  0.355768  0.834018  0.556370  1
  Ga  Ga9  1  0.644232  0.165982  0.443630  1
  Ga  Ga10  1  0.615677  0.834519  0.326993  1
  Ga  Ga11  1  0.384323  0.165481  0.673007  1
  Ga  Ga12  1  0.056551  0.492291  0.675646  1
  Ga  Ga13  1  0.943449  0.507709  0.324354  1
  Ga  Ga14  1  0.731732  0.838538  0.674156  1
  Ga  Ga15  1  0.268268  0.161462  0.325844  1
  Ga  Ga16  1  0.146514  0.498360  0.941716  1
  Ga  Ga17  1  0.853486  0.501640  0.058284  1
  Ga  Ga18  1  0.816170  0.833814  0.943300  1
  Ga  Ga19  1  0.183830  0.166186  0.056700  1
  Ga  Ga20  1  0.315172  0.500266  0.443615  1
  Ga  Ga21  1  0.684828  0.499734  0.556385  1
  Ga  Ga22  1  0.108282  0.835187  0.182749  1
  Ga  Ga23  1  0.891718  0.164813  0.817251  1
  Ga  Ga24  1  0.312107  0.375517  0.815426  1
  Ga  Ga25  1  0.687893  0.624483  0.184574  1
  Ga  Ga26  1  0.103013  0.952476  0.815577  1
  Ga  Ga27  1  0.896987  0.047524  0.184423  1
  Pt  Pt28  1  0.387530  0.509451  0.636656  1
  Pt  Pt29  1  0.612470  0.490549  0.363344  1
  Pt  Pt30  1  0.172469  0.828561  0.999655  1
  Pt  Pt31  1  0.827531  0.171439  0.000345  1
  Pt  Pt32  1  0.294630  0.833260  0.364042  1
  Pt  Pt33  1  0.705370  0.166740  0.635958  1
  Pt  Pt34  1  0.048276  0.826905  0.635813  1
  Pt  Pt35  1  0.951724  0.173095  0.364187  1
  Pt  Pt36  1  0.500000  0.500000  0.000000  1
