# generated using pymatgen
data_P2Rh(O3F)2
_symmetry_space_group_name_H-M   'P 1'
_cell_length_a   4.94709737
_cell_length_b   4.95244441
_cell_length_c   7.09402877
_cell_angle_alpha   89.94702337
_cell_angle_beta   90.03703270
_cell_angle_gamma   119.98777320
_symmetry_Int_Tables_number   1
_chemical_formula_structural   P2Rh(O3F)2
_chemical_formula_sum   'P2 Rh1 O6 F2'
_cell_volume   150.53827814
_cell_formula_units_Z   1
loop_
 _symmetry_equiv_pos_site_id
 _symmetry_equiv_pos_as_xyz
  1  'x, y, z'
loop_
 _atom_site_type_symbol
 _atom_site_label
 _atom_site_symmetry_multiplicity
 _atom_site_fract_x
 _atom_site_fract_y
 _atom_site_fract_z
 _atom_site_occupancy
  P  P0  1  0.333325  0.666494  0.218535  1
  P  P1  1  0.666675  0.333506  0.781465  1
  Rh  Rh2  1  0.000000  0.000000  0.000000  1
  O  O3  1  0.298844  0.350557  0.164637  1
  O  O4  1  0.051497  0.701275  0.164669  1
  O  O5  1  0.649593  0.948364  0.164528  1
  O  O6  1  0.350408  0.051636  0.835472  1
  O  O7  1  0.948503  0.298725  0.835331  1
  O  O8  1  0.701156  0.649443  0.835363  1
  F  F9  1  0.666613  0.333408  0.561308  1
  F  F10  1  0.333387  0.666592  0.438692  1
