# generated using pymatgen
data_Er8Lu4Zn(InFe)2
_symmetry_space_group_name_H-M   'P 1'
_cell_length_a   8.30591337
_cell_length_b   8.30591261
_cell_length_c   8.30591283
_cell_angle_alpha   109.63100116
_cell_angle_beta   109.63101114
_cell_angle_gamma   109.15212295
_symmetry_Int_Tables_number   1
_chemical_formula_structural   Er8Lu4Zn(InFe)2
_chemical_formula_sum   'Er8 Lu4 Zn1 In2 Fe2'
_cell_volume   441.09295437
_cell_formula_units_Z   1
loop_
 _symmetry_equiv_pos_site_id
 _symmetry_equiv_pos_as_xyz
  1  'x, y, z'
loop_
 _atom_site_type_symbol
 _atom_site_label
 _atom_site_symmetry_multiplicity
 _atom_site_fract_x
 _atom_site_fract_y
 _atom_site_fract_z
 _atom_site_occupancy
  Er  Er0  1  0.446716  0.203389  0.243327  1
  Er  Er1  1  0.553284  0.796611  0.756673  1
  Er  Er2  1  0.960062  0.203389  0.756673  1
  Er  Er3  1  0.203389  0.960062  0.756673  1
  Er  Er4  1  0.039938  0.796611  0.243327  1
  Er  Er5  1  0.796611  0.039938  0.243327  1
  Er  Er6  1  0.203389  0.446716  0.243327  1
  Er  Er7  1  0.796611  0.553284  0.756673  1
  Lu  Lu8  1  0.307029  0.307029  0.614058  1
  Lu  Lu9  1  0.692971  0.692971  0.385942  1
  Lu  Lu10  1  0.307029  0.692971  0.000000  1
  Lu  Lu11  1  0.692971  0.307029  0.000000  1
  Zn  Zn12  1  0.000000  0.000000  0.000000  1
  In  In13  1  0.500000  0.000000  0.500000  1
  In  In14  1  0.000000  0.500000  0.500000  1
  Fe  Fe15  1  0.387624  0.387624  0.000000  1
  Fe  Fe16  1  0.612376  0.612376  0.000000  1
