# generated using pymatgen
data_NiBr35
_symmetry_space_group_name_H-M   'P 1'
_cell_length_a   15.98197694
_cell_length_b   11.40028128
_cell_length_c   10.79188300
_cell_angle_alpha   88.81408278
_cell_angle_beta   66.02770512
_cell_angle_gamma   92.31545406
_symmetry_Int_Tables_number   1
_chemical_formula_structural   NiBr35
_chemical_formula_sum   'Ni1 Br35'
_cell_volume   1793.71352310
_cell_formula_units_Z   1
loop_
 _symmetry_equiv_pos_site_id
 _symmetry_equiv_pos_as_xyz
  1  'x, y, z'
loop_
 _atom_site_type_symbol
 _atom_site_label
 _atom_site_symmetry_multiplicity
 _atom_site_fract_x
 _atom_site_fract_y
 _atom_site_fract_z
 _atom_site_occupancy
  Ni  Ni0  1  0.233169  0.443338  0.442934  1
  Br  Br1  1  0.509995  0.270100  0.527163  1
  Br  Br2  1  0.763383  0.580038  0.562786  1
  Br  Br3  1  0.485765  0.688212  0.744518  1
  Br  Br4  1  0.056707  0.887233  0.855725  1
  Br  Br5  1  0.893039  0.159690  0.013609  1
  Br  Br6  1  0.643512  0.325354  0.294543  1
  Br  Br7  1  0.621670  0.338883  0.835113  1
  Br  Br8  1  0.346938  0.765404  0.714778  1
  Br  Br9  1  0.326791  0.569664  0.239930  1
  Br  Br10  1  0.655440  0.137282  0.808028  1
  Br  Br11  1  0.908893  0.544857  0.363876  1
  Br  Br12  1  0.064688  0.952935  0.625871  1
  Br  Br13  1  0.895542  0.113324  0.251946  1
  Br  Br14  1  0.892917  0.211635  0.789714  1
  Br  Br15  1  0.646336  0.054272  0.225861  1
  Br  Br16  1  0.026951  0.818256  0.101117  1
  Br  Br17  1  0.365255  0.985608  0.733601  1
  Br  Br18  1  0.900617  0.323279  0.314156  1
  Br  Br19  1  0.882040  0.925963  0.705114  1
  Br  Br20  1  0.905237  0.657202  0.789014  1
  Br  Br21  1  0.316319  0.017593  0.272015  1
  Br  Br22  1  0.319289  0.306728  0.285552  1
  Br  Br23  1  0.620119  0.611491  0.787023  1
  Br  Br24  1  0.105284  0.445637  0.386735  1
  Br  Br25  1  0.714645  0.903829  0.790771  1
  Br  Br26  1  0.878965  0.448376  0.799337  1
  Br  Br27  1  0.487586  0.036629  0.248628  1
  Br  Br28  1  0.162218  0.282057  0.596097  1
  Br  Br29  1  0.677561  0.776622  0.269554  1
  Br  Br30  1  0.851893  0.799659  0.187208  1
  Br  Br31  1  0.380643  0.208892  0.751833  1
  Br  Br32  1  0.336084  0.484855  0.546220  1
  Br  Br33  1  0.654711  0.548541  0.274925  1
  Br  Br34  1  0.155949  0.588778  0.589167  1
  Br  Br35  1  0.313846  0.787784  0.275542  1
