# generated using pymatgen
data_Ta12Al7Re4SiC4
_symmetry_space_group_name_H-M   'P 1'
_cell_length_a   8.31619552
_cell_length_b   8.31619554
_cell_length_c   8.31619472
_cell_angle_alpha   60.12745022
_cell_angle_beta   60.12744653
_cell_angle_gamma   60.12745207
_symmetry_Int_Tables_number   1
_chemical_formula_structural   Ta12Al7Re4SiC4
_chemical_formula_sum   'Ta12 Al7 Re4 Si1 C4'
_cell_volume   407.86003760
_cell_formula_units_Z   1
loop_
 _symmetry_equiv_pos_site_id
 _symmetry_equiv_pos_as_xyz
  1  'x, y, z'
loop_
 _atom_site_type_symbol
 _atom_site_label
 _atom_site_symmetry_multiplicity
 _atom_site_fract_x
 _atom_site_fract_y
 _atom_site_fract_z
 _atom_site_occupancy
  Ta  Ta0  1  0.557041  0.942786  0.557041  1
  Ta  Ta1  1  0.308813  0.691677  0.691677  1
  Ta  Ta2  1  0.693929  0.306012  0.306012  1
  Ta  Ta3  1  0.306012  0.693929  0.306012  1
  Ta  Ta4  1  0.691677  0.691677  0.308813  1
  Ta  Ta5  1  0.306012  0.306012  0.693929  1
  Ta  Ta6  1  0.557041  0.557041  0.942786  1
  Ta  Ta7  1  0.942786  0.557041  0.557041  1
  Ta  Ta8  1  0.560987  0.942164  0.942164  1
  Ta  Ta9  1  0.942164  0.942164  0.560987  1
  Ta  Ta10  1  0.691677  0.308813  0.691677  1
  Ta  Ta11  1  0.942164  0.560987  0.942164  1
  Al  Al12  1  0.996806  0.335268  0.335268  1
  Al  Al13  1  0.335268  0.996806  0.335268  1
  Al  Al14  1  0.335268  0.335268  0.996806  1
  Al  Al15  1  0.915585  0.255410  0.915585  1
  Al  Al16  1  0.915585  0.915585  0.255410  1
  Al  Al17  1  0.255410  0.915585  0.915585  1
  Al  Al18  1  0.333897  0.333897  0.333897  1
  Re  Re19  1  0.125491  0.125491  0.125491  1
  Re  Re20  1  0.629542  0.120970  0.120970  1
  Re  Re21  1  0.120970  0.629542  0.120970  1
  Re  Re22  1  0.120970  0.120970  0.629542  1
  Si  Si23  1  0.914635  0.914635  0.914635  1
  C  C24  1  0.625008  0.625008  0.625008  1
  C  C25  1  0.125610  0.624824  0.624824  1
  C  C26  1  0.624824  0.125610  0.624824  1
  C  C27  1  0.624824  0.624824  0.125610  1
