# generated using pymatgen
data_Cs2Pd(WO4)3
_symmetry_space_group_name_H-M   'P 1'
_cell_length_a   7.41998677
_cell_length_b   7.41970730
_cell_length_c   7.35544604
_cell_angle_alpha   89.99999877
_cell_angle_beta   59.70723190
_cell_angle_gamma   119.99875009
_symmetry_Int_Tables_number   1
_chemical_formula_structural   Cs2Pd(WO4)3
_chemical_formula_sum   'Cs2 Pd1 W3 O12'
_cell_volume   285.07302022
_cell_formula_units_Z   1
loop_
 _symmetry_equiv_pos_site_id
 _symmetry_equiv_pos_as_xyz
  1  'x, y, z'
loop_
 _atom_site_type_symbol
 _atom_site_label
 _atom_site_symmetry_multiplicity
 _atom_site_fract_x
 _atom_site_fract_y
 _atom_site_fract_z
 _atom_site_occupancy
  Cs  Cs0  1  0.255221  0.131550  0.117072  1
  Cs  Cs1  1  0.744779  0.876330  0.882928  1
  Pd  Pd2  1  0.000000  0.503725  0.000000  1
  W  W3  1  0.500038  0.003838  0.500043  1
  W  W4  1  0.499962  0.503801  0.499957  1
  W  W5  1  0.000000  0.503866  0.500000  1
  O  O6  1  0.621691  0.814605  0.436975  1
  O  O7  1  0.869000  0.438223  0.808815  1
  O  O8  1  0.256688  0.825886  0.808812  1
  O  O9  1  0.252166  0.445096  0.436972  1
  O  O10  1  0.256689  0.438204  0.808806  1
  O  O11  1  0.252160  0.814629  0.437016  1
  O  O12  1  0.378309  0.192914  0.563025  1
  O  O13  1  0.131000  0.569223  0.191185  1
  O  O14  1  0.743311  0.181514  0.191194  1
  O  O15  1  0.747840  0.562468  0.562984  1
  O  O16  1  0.743312  0.569197  0.191188  1
  O  O17  1  0.747834  0.192929  0.563028  1
