# generated using pymatgen
data_Ho3Er5TcB24IrRu2
_symmetry_space_group_name_H-M   'P 1'
_cell_length_a   3.64552600
_cell_length_b   9.11146059
_cell_length_c   11.48933162
_cell_angle_alpha   89.94984558
_cell_angle_beta   90.00000000
_cell_angle_gamma   90.00000000
_symmetry_Int_Tables_number   1
_chemical_formula_structural   Ho3Er5TcB24IrRu2
_chemical_formula_sum   'Ho3 Er5 Tc1 B24 Ir1 Ru2'
_cell_volume   381.63025662
_cell_formula_units_Z   1
loop_
 _symmetry_equiv_pos_site_id
 _symmetry_equiv_pos_as_xyz
  1  'x, y, z'
loop_
 _atom_site_type_symbol
 _atom_site_label
 _atom_site_symmetry_multiplicity
 _atom_site_fract_x
 _atom_site_fract_y
 _atom_site_fract_z
 _atom_site_occupancy
  Ho  Ho0  1  0.000000  0.323185  0.410648  1
  Ho  Ho1  1  0.000000  0.680194  0.582314  1
  Ho  Ho2  1  0.000000  0.819647  0.088904  1
  Er  Er3  1  0.000000  0.175891  0.917423  1
  Er  Er4  1  0.000000  0.943162  0.372421  1
  Er  Er5  1  0.000000  0.055199  0.627926  1
  Er  Er6  1  0.000000  0.444238  0.127597  1
  Er  Er7  1  0.000000  0.558586  0.873169  1
  Tc  Tc8  1  0.000000  0.637384  0.321270  1
  B  B9  1  0.500000  0.553314  0.433422  1
  B  B10  1  0.500000  0.446184  0.566164  1
  B  B11  1  0.500000  0.053403  0.066898  1
  B  B12  1  0.500000  0.945930  0.933547  1
  B  B13  1  0.500000  0.748525  0.419554  1
  B  B14  1  0.500000  0.250887  0.579170  1
  B  B15  1  0.500000  0.247881  0.079908  1
  B  B16  1  0.500000  0.751616  0.919831  1
  B  B17  1  0.500000  0.791393  0.265850  1
  B  B18  1  0.500000  0.208403  0.734893  1
  B  B19  1  0.500000  0.291019  0.233290  1
  B  B20  1  0.500000  0.709465  0.765506  1
  B  B21  1  0.500000  0.630690  0.185333  1
  B  B22  1  0.500000  0.368397  0.816903  1
  B  B23  1  0.500000  0.131476  0.314552  1
  B  B24  1  0.500000  0.869384  0.684741  1
  B  B25  1  0.500000  0.982452  0.212881  1
  B  B26  1  0.500000  0.017574  0.787638  1
  B  B27  1  0.500000  0.481906  0.286907  1
  B  B28  1  0.500000  0.518053  0.713293  1
  B  B29  1  0.500000  0.606358  0.028658  1
  B  B30  1  0.500000  0.392727  0.969702  1
  B  B31  1  0.500000  0.107454  0.471135  1
  B  B32  1  0.500000  0.894680  0.529966  1
  Ir  Ir33  1  0.000000  0.362652  0.679117  1
  Ru  Ru34  1  0.000000  0.137707  0.178604  1
  Ru  Ru35  1  0.000000  0.862984  0.820864  1
