# generated using pymatgen
data_Sm3SiBr3
_symmetry_space_group_name_H-M   'P 1'
_cell_length_a   10.29352680
_cell_length_b   10.29352736
_cell_length_c   10.29352700
_cell_angle_alpha   109.47122189
_cell_angle_beta   109.47122299
_cell_angle_gamma   109.47121719
_symmetry_Int_Tables_number   1
_chemical_formula_structural   Sm3SiBr3
_chemical_formula_sum   'Sm12 Si4 Br12'
_cell_volume   839.59673172
_cell_formula_units_Z   4
loop_
 _symmetry_equiv_pos_site_id
 _symmetry_equiv_pos_as_xyz
  1  'x, y, z'
loop_
 _atom_site_type_symbol
 _atom_site_label
 _atom_site_symmetry_multiplicity
 _atom_site_fract_x
 _atom_site_fract_y
 _atom_site_fract_z
 _atom_site_occupancy
  Sm  Sm0  1  0.475264  0.487631  0.237631  1
  Sm  Sm1  1  0.750000  0.237631  0.262369  1
  Sm  Sm2  1  0.750000  0.012369  0.487631  1
  Sm  Sm3  1  0.237631  0.475264  0.487631  1
  Sm  Sm4  1  0.262369  0.750000  0.237631  1
  Sm  Sm5  1  0.024736  0.262369  0.012369  1
  Sm  Sm6  1  0.012369  0.024736  0.262369  1
  Sm  Sm7  1  0.487631  0.750000  0.012369  1
  Sm  Sm8  1  0.487631  0.237631  0.475264  1
  Sm  Sm9  1  0.012369  0.487631  0.750000  1
  Sm  Sm10  1  0.262369  0.012369  0.024736  1
  Sm  Sm11  1  0.237631  0.262369  0.750000  1
  Si  Si12  1  0.250000  0.250000  0.250000  1
  Si  Si13  1  0.500000  0.000000  0.250000  1
  Si  Si14  1  0.000000  0.250000  0.500000  1
  Si  Si15  1  0.250000  0.500000  0.000000  1
  Br  Br16  1  0.250000  0.754737  0.745263  1
  Br  Br17  1  0.509473  0.504737  0.754737  1
  Br  Br18  1  0.990526  0.745263  0.995263  1
  Br  Br19  1  0.745263  0.250000  0.754737  1
  Br  Br20  1  0.995263  0.990526  0.745263  1
  Br  Br21  1  0.250000  0.995263  0.504737  1
  Br  Br22  1  0.754737  0.509473  0.504737  1
  Br  Br23  1  0.504737  0.250000  0.995263  1
  Br  Br24  1  0.754737  0.745263  0.250000  1
  Br  Br25  1  0.745263  0.995263  0.990527  1
  Br  Br26  1  0.995263  0.504737  0.250000  1
  Br  Br27  1  0.504737  0.754737  0.509473  1
