# generated using pymatgen
data_LiTi7Tl3O16
_symmetry_space_group_name_H-M   'P 1'
_cell_length_a   7.11290632
_cell_length_b   7.14151916
_cell_length_c   8.51293600
_cell_angle_alpha   97.41115487
_cell_angle_beta   96.55128248
_cell_angle_gamma   114.72529419
_symmetry_Int_Tables_number   1
_chemical_formula_structural   LiTi7Tl3O16
_chemical_formula_sum   'Li1 Ti7 Tl3 O16'
_cell_volume   382.66759689
_cell_formula_units_Z   1
loop_
 _symmetry_equiv_pos_site_id
 _symmetry_equiv_pos_as_xyz
  1  'x, y, z'
loop_
 _atom_site_type_symbol
 _atom_site_label
 _atom_site_symmetry_multiplicity
 _atom_site_fract_x
 _atom_site_fract_y
 _atom_site_fract_z
 _atom_site_occupancy
  Li  Li0  1  0.529993  0.152603  0.368569  1
  Ti  Ti1  1  0.772705  0.912440  0.368509  1
  Ti  Ti2  1  0.716635  0.588900  0.623089  1
  Ti  Ti3  1  0.961910  0.341668  0.623247  1
  Ti  Ti4  1  0.469787  0.848023  0.623393  1
  Ti  Ti5  1  0.035092  0.659205  0.386078  1
  Ti  Ti6  1  0.288266  0.395295  0.368566  1
  Ti  Ti7  1  0.223863  0.095890  0.622895  1
  Tl  Tl8  1  0.757501  0.236074  0.026017  1
  Tl  Tl9  1  0.440091  0.564597  0.013414  1
  Tl  Tl10  1  0.123651  0.903841  0.018306  1
  O  O11  1  0.877234  0.743977  0.245304  1
  O  O12  1  0.957139  0.830320  0.574930  1
  O  O13  1  0.629542  0.972030  0.218244  1
  O  O14  1  0.807816  0.431794  0.448260  1
  O  O15  1  0.547151  0.671145  0.436245  1
  O  O16  1  0.292751  0.917614  0.449080  1
  O  O17  1  0.864784  0.492469  0.762511  1
  O  O18  1  0.628487  0.756199  0.759442  1
  O  O19  1  0.444842  0.338325  0.565430  1
  O  O20  1  0.125840  0.502455  0.246120  1
  O  O21  1  0.711350  0.070397  0.563786  1
  O  O22  1  0.357147  0.257184  0.218462  1
  O  O23  1  0.205791  0.582764  0.575978  1
  O  O24  1  0.388614  0.016340  0.763884  1
  O  O25  1  0.046814  0.170882  0.434793  1
  O  O26  1  0.123478  0.250841  0.758539  1
