# generated using pymatgen
data_Rb4ZrS4
_symmetry_space_group_name_H-M   'P 1'
_cell_length_a   7.95414318
_cell_length_b   8.11464299
_cell_length_c   12.02763885
_cell_angle_alpha   72.25036953
_cell_angle_beta   79.71155511
_cell_angle_gamma   67.19208349
_symmetry_Int_Tables_number   1
_chemical_formula_structural   Rb4ZrS4
_chemical_formula_sum   'Rb8 Zr2 S8'
_cell_volume   679.94159352
_cell_formula_units_Z   2
loop_
 _symmetry_equiv_pos_site_id
 _symmetry_equiv_pos_as_xyz
  1  'x, y, z'
loop_
 _atom_site_type_symbol
 _atom_site_label
 _atom_site_symmetry_multiplicity
 _atom_site_fract_x
 _atom_site_fract_y
 _atom_site_fract_z
 _atom_site_occupancy
  Rb  Rb0  1  0.761110  0.573826  0.163135  1
  Rb  Rb1  1  0.238890  0.426174  0.836865  1
  Rb  Rb2  1  0.747776  0.232822  0.965514  1
  Rb  Rb3  1  0.252224  0.767178  0.034486  1
  Rb  Rb4  1  0.713844  0.494938  0.567349  1
  Rb  Rb5  1  0.286156  0.505062  0.432651  1
  Rb  Rb6  1  0.220957  0.963958  0.616496  1
  Rb  Rb7  1  0.779043  0.036042  0.383504  1
  Zr  Zr8  1  0.726395  0.841651  0.750038  1
  Zr  Zr9  1  0.273605  0.158349  0.249962  1
  S  S10  1  0.968258  0.701124  0.616735  1
  S  S11  1  0.031742  0.298876  0.383265  1
  S  S12  1  0.881424  0.829568  0.910207  1
  S  S13  1  0.118576  0.170432  0.089793  1
  S  S14  1  0.531331  0.655665  0.808736  1
  S  S15  1  0.468669  0.344335  0.191264  1
  S  S16  1  0.457290  0.845781  0.350698  1
  S  S17  1  0.542710  0.154219  0.649302  1
