# generated using pymatgen
data_KCo2Pt4O11
_symmetry_space_group_name_H-M   'P 1'
_cell_length_a   5.97628040
_cell_length_b   5.97627899
_cell_length_c   13.65542832
_cell_angle_alpha   89.83336666
_cell_angle_beta   89.83336538
_cell_angle_gamma   120.25176642
_symmetry_Int_Tables_number   1
_chemical_formula_structural   KCo2Pt4O11
_chemical_formula_sum   'K2 Co4 Pt8 O22'
_cell_volume   421.29178868
_cell_formula_units_Z   2
loop_
 _symmetry_equiv_pos_site_id
 _symmetry_equiv_pos_as_xyz
  1  'x, y, z'
loop_
 _atom_site_type_symbol
 _atom_site_label
 _atom_site_symmetry_multiplicity
 _atom_site_fract_x
 _atom_site_fract_y
 _atom_site_fract_z
 _atom_site_occupancy
  K  K0  1  0.668026  0.331974  0.250000  1
  K  K1  1  0.331974  0.668026  0.750000  1
  Co  Co2  1  0.331718  0.668282  0.250000  1
  Co  Co3  1  0.668282  0.331718  0.750000  1
  Co  Co4  1  0.500000  0.000000  0.000000  1
  Co  Co5  1  0.000000  0.500000  0.500000  1
  Pt  Pt6  1  0.000560  0.002051  0.147081  1
  Pt  Pt7  1  0.999440  0.997949  0.852919  1
  Pt  Pt8  1  0.002051  0.000560  0.647081  1
  Pt  Pt9  1  0.997949  0.999440  0.352919  1
  Pt  Pt10  1  0.000000  0.500000  0.000000  1
  Pt  Pt11  1  0.500000  0.500000  0.000000  1
  Pt  Pt12  1  0.500000  0.000000  0.500000  1
  Pt  Pt13  1  0.500000  0.500000  0.500000  1
  O  O14  1  0.822805  0.645841  0.083311  1
  O  O15  1  0.355804  0.167072  0.079613  1
  O  O16  1  0.811344  0.166613  0.079573  1
  O  O17  1  0.177195  0.354159  0.916689  1
  O  O18  1  0.644196  0.832928  0.920387  1
  O  O19  1  0.188656  0.833387  0.920427  1
  O  O20  1  0.167072  0.355804  0.579613  1
  O  O21  1  0.645841  0.822805  0.583311  1
  O  O22  1  0.166613  0.811344  0.579573  1
  O  O23  1  0.832928  0.644196  0.420387  1
  O  O24  1  0.354159  0.177195  0.416689  1
  O  O25  1  0.833387  0.188656  0.420427  1
  O  O26  1  0.145735  0.854265  0.250000  1
  O  O27  1  0.145913  0.294817  0.249128  1
  O  O28  1  0.705183  0.854087  0.250872  1
  O  O29  1  0.854265  0.145735  0.750000  1
  O  O30  1  0.854087  0.705183  0.750872  1
  O  O31  1  0.294817  0.145913  0.749128  1
  O  O32  1  0.340005  0.679973  0.076074  1
  O  O33  1  0.659995  0.320027  0.923926  1
  O  O34  1  0.679973  0.340005  0.576074  1
  O  O35  1  0.320027  0.659995  0.423926  1
