# generated using pymatgen
data_TbHo2Al3Ge2Pd
_symmetry_space_group_name_H-M   'P 1'
_cell_length_a   6.99138500
_cell_length_b   7.00377688
_cell_length_c   4.24118000
_cell_angle_alpha   90.00000000
_cell_angle_beta   90.00000000
_cell_angle_gamma   119.94148408
_symmetry_Int_Tables_number   1
_chemical_formula_structural   TbHo2Al3Ge2Pd
_chemical_formula_sum   'Tb1 Ho2 Al3 Ge2 Pd1'
_cell_volume   179.95695458
_cell_formula_units_Z   1
loop_
 _symmetry_equiv_pos_site_id
 _symmetry_equiv_pos_as_xyz
  1  'x, y, z'
loop_
 _atom_site_type_symbol
 _atom_site_label
 _atom_site_symmetry_multiplicity
 _atom_site_fract_x
 _atom_site_fract_y
 _atom_site_fract_z
 _atom_site_occupancy
  Tb  Tb0  1  0.414155  0.000000  0.000000  1
  Ho  Ho1  1  0.000651  0.413617  0.000000  1
  Ho  Ho2  1  0.587035  0.586384  0.000000  1
  Al  Al3  1  0.766710  0.000000  0.499999  1
  Al  Al4  1  0.233444  0.233575  0.499999  1
  Al  Al5  1  0.999869  0.766425  0.499999  1
  Ge  Ge6  1  0.667650  0.335130  0.499999  1
  Ge  Ge7  1  0.332519  0.664869  0.499999  1
  Pd  Pd8  1  0.997966  0.000000  0.000000  1
