# generated using pymatgen
data_YbHo6CoI12
_symmetry_space_group_name_H-M   'P 1'
_cell_length_a   9.74752088
_cell_length_b   9.74752093
_cell_length_c   9.74752033
_cell_angle_alpha   107.03232569
_cell_angle_beta   107.03232506
_cell_angle_gamma   107.03233740
_symmetry_Int_Tables_number   1
_chemical_formula_structural   YbHo6CoI12
_chemical_formula_sum   'Yb1 Ho6 Co1 I12'
_cell_volume   770.62742517
_cell_formula_units_Z   1
loop_
 _symmetry_equiv_pos_site_id
 _symmetry_equiv_pos_as_xyz
  1  'x, y, z'
loop_
 _atom_site_type_symbol
 _atom_site_label
 _atom_site_symmetry_multiplicity
 _atom_site_fract_x
 _atom_site_fract_y
 _atom_site_fract_z
 _atom_site_occupancy
  Yb  Yb0  1  0.997618  0.997618  0.997618  1
  Ho  Ho1  1  0.519204  0.590331  0.788233  1
  Ho  Ho2  1  0.788233  0.519204  0.590331  1
  Ho  Ho3  1  0.590331  0.788233  0.519204  1
  Ho  Ho4  1  0.478802  0.407640  0.210148  1
  Ho  Ho5  1  0.210148  0.478802  0.407640  1
  Ho  Ho6  1  0.407640  0.210148  0.478802  1
  Co  Co7  1  0.499319  0.499319  0.499319  1
  I  I8  1  0.274619  0.820636  0.425221  1
  I  I9  1  0.425221  0.274619  0.820636  1
  I  I10  1  0.820636  0.425221  0.274619  1
  I  I11  1  0.723284  0.177205  0.572302  1
  I  I12  1  0.572302  0.723284  0.177205  1
  I  I13  1  0.177205  0.572302  0.723284  1
  I  I14  1  0.044355  0.122475  0.348938  1
  I  I15  1  0.348938  0.044355  0.122475  1
  I  I16  1  0.122475  0.348938  0.044355  1
  I  I17  1  0.953146  0.874913  0.646978  1
  I  I18  1  0.646978  0.953146  0.874913  1
  I  I19  1  0.874913  0.646978  0.953146  1
