# generated using pymatgen
data_HfZrInNi2Sb
_symmetry_space_group_name_H-M   'P 1'
_cell_length_a   6.13742954
_cell_length_b   6.12806075
_cell_length_c   7.51879529
_cell_angle_alpha   65.94510931
_cell_angle_beta   65.90582182
_cell_angle_gamma   90.00008918
_symmetry_Int_Tables_number   1
_chemical_formula_structural   HfZrInNi2Sb
_chemical_formula_sum   'Hf2 Zr2 In2 Ni4 Sb2'
_cell_volume   230.98510303
_cell_formula_units_Z   2
loop_
 _symmetry_equiv_pos_site_id
 _symmetry_equiv_pos_as_xyz
  1  'x, y, z'
loop_
 _atom_site_type_symbol
 _atom_site_label
 _atom_site_symmetry_multiplicity
 _atom_site_fract_x
 _atom_site_fract_y
 _atom_site_fract_z
 _atom_site_occupancy
  Hf  Hf0  1  0.245827  0.245824  0.508354  1
  Hf  Hf1  1  0.004180  0.504175  0.991658  1
  Zr  Zr2  1  0.495805  0.995812  0.008389  1
  Zr  Zr3  1  0.754192  0.754196  0.491621  1
  In  In4  1  0.000495  0.000501  0.998959  1
  In  In5  1  0.249484  0.749470  0.501014  1
  Ni  Ni6  1  0.625001  0.137549  0.250001  1
  Ni  Ni7  1  0.125005  0.612454  0.250000  1
  Ni  Ni8  1  0.382052  0.375019  0.750008  1
  Ni  Ni9  1  0.867957  0.874990  0.749994  1
  Sb  Sb10  1  0.499614  0.499608  0.000794  1
  Sb  Sb11  1  0.750395  0.250405  0.499209  1
