# generated using pymatgen
data_Pr7Nd4Er5(CdIr)4
_symmetry_space_group_name_H-M   'P 1'
_cell_length_a   9.86437381
_cell_length_b   9.86437260
_cell_length_c   9.82461700
_cell_angle_alpha   60.13322599
_cell_angle_beta   60.13323000
_cell_angle_gamma   60.32235011
_symmetry_Int_Tables_number   1
_chemical_formula_structural   Pr7Nd4Er5(CdIr)4
_chemical_formula_sum   'Pr7 Nd4 Er5 Cd4 Ir4'
_cell_volume   678.98841929
_cell_formula_units_Z   1
loop_
 _symmetry_equiv_pos_site_id
 _symmetry_equiv_pos_as_xyz
  1  'x, y, z'
loop_
 _atom_site_type_symbol
 _atom_site_label
 _atom_site_symmetry_multiplicity
 _atom_site_fract_x
 _atom_site_fract_y
 _atom_site_fract_z
 _atom_site_occupancy
  Pr  Pr0  1  0.814289  0.814289  0.185711  1
  Pr  Pr1  1  0.942304  0.557577  0.561456  1
  Pr  Pr2  1  0.557577  0.942304  0.938664  1
  Pr  Pr3  1  0.557577  0.942304  0.561456  1
  Pr  Pr4  1  0.942304  0.557577  0.938664  1
  Pr  Pr5  1  0.559779  0.559779  0.940221  1
  Pr  Pr6  1  0.939838  0.939838  0.560162  1
  Nd  Nd7  1  0.349473  0.349473  0.350526  1
  Nd  Nd8  1  0.349473  0.349473  0.950528  1
  Nd  Nd9  1  0.346213  0.951623  0.351081  1
  Nd  Nd10  1  0.951623  0.346213  0.351081  1
  Er  Er11  1  0.813525  0.188760  0.185369  1
  Er  Er12  1  0.188760  0.813525  0.812346  1
  Er  Er13  1  0.188760  0.813525  0.185369  1
  Er  Er14  1  0.813525  0.188760  0.812346  1
  Er  Er15  1  0.184946  0.184946  0.815054  1
  Cd  Cd16  1  0.579017  0.579017  0.580501  1
  Cd  Cd17  1  0.579017  0.579017  0.261465  1
  Cd  Cd18  1  0.580082  0.260952  0.579482  1
  Cd  Cd19  1  0.260952  0.580082  0.579482  1
  Ir  Ir20  1  0.138094  0.138094  0.139847  1
  Ir  Ir21  1  0.138094  0.138094  0.583964  1
  Ir  Ir22  1  0.145779  0.578999  0.137610  1
  Ir  Ir23  1  0.578999  0.145779  0.137610  1
