# generated using pymatgen
data_Tm3Lu5Cd2RuPt
_symmetry_space_group_name_H-M   'P 1'
_cell_length_a   9.47755707
_cell_length_b   9.47755741
_cell_length_c   9.52223100
_cell_angle_alpha   59.84395535
_cell_angle_beta   59.84395419
_cell_angle_gamma   59.61721458
_symmetry_Int_Tables_number   1
_chemical_formula_structural   Tm3Lu5Cd2RuPt
_chemical_formula_sum   'Tm6 Lu10 Cd4 Ru2 Pt2'
_cell_volume   601.61956664
_cell_formula_units_Z   2
loop_
 _symmetry_equiv_pos_site_id
 _symmetry_equiv_pos_as_xyz
  1  'x, y, z'
loop_
 _atom_site_type_symbol
 _atom_site_label
 _atom_site_symmetry_multiplicity
 _atom_site_fract_x
 _atom_site_fract_y
 _atom_site_fract_z
 _atom_site_occupancy
  Tm  Tm0  1  0.937068  0.559718  0.566513  1
  Tm  Tm1  1  0.559718  0.937068  0.936701  1
  Tm  Tm2  1  0.559718  0.937068  0.566513  1
  Tm  Tm3  1  0.937068  0.559718  0.936701  1
  Tm  Tm4  1  0.564118  0.564118  0.935882  1
  Tm  Tm5  1  0.938866  0.938866  0.561134  1
  Lu  Lu6  1  0.349426  0.349426  0.352692  1
  Lu  Lu7  1  0.349426  0.349426  0.948457  1
  Lu  Lu8  1  0.347378  0.952951  0.349836  1
  Lu  Lu9  1  0.952951  0.347378  0.349836  1
  Lu  Lu10  1  0.815758  0.187941  0.188919  1
  Lu  Lu11  1  0.187941  0.815758  0.807382  1
  Lu  Lu12  1  0.187941  0.815758  0.188919  1
  Lu  Lu13  1  0.815758  0.187941  0.807382  1
  Lu  Lu14  1  0.187172  0.187172  0.812828  1
  Lu  Lu15  1  0.809576  0.809576  0.190424  1
  Cd  Cd16  1  0.579823  0.579823  0.581897  1
  Cd  Cd17  1  0.579823  0.579823  0.258456  1
  Cd  Cd18  1  0.580884  0.254761  0.582178  1
  Cd  Cd19  1  0.254761  0.580884  0.582178  1
  Ru  Ru20  1  0.143742  0.143742  0.139974  1
  Ru  Ru21  1  0.143742  0.143742  0.572545  1
  Pt  Pt22  1  0.144201  0.573144  0.141328  1
  Pt  Pt23  1  0.573144  0.144201  0.141328  1
