# generated using pymatgen
data_YHo3Al10(Ga4Ir3)2
_symmetry_space_group_name_H-M   'P 1'
_cell_length_a   7.53451099
_cell_length_b   7.53304018
_cell_length_c   9.55258101
_cell_angle_alpha   90.10686605
_cell_angle_beta   89.84893968
_cell_angle_gamma   119.68129085
_symmetry_Int_Tables_number   1
_chemical_formula_structural   YHo3Al10(Ga4Ir3)2
_chemical_formula_sum   'Y1 Ho3 Al10 Ga8 Ir6'
_cell_volume   471.04340111
_cell_formula_units_Z   1
loop_
 _symmetry_equiv_pos_site_id
 _symmetry_equiv_pos_as_xyz
  1  'x, y, z'
loop_
 _atom_site_type_symbol
 _atom_site_label
 _atom_site_symmetry_multiplicity
 _atom_site_fract_x
 _atom_site_fract_y
 _atom_site_fract_z
 _atom_site_occupancy
  Y  Y0  1  0.996458  0.666860  0.245745  1
  Ho  Ho1  1  0.003550  0.333180  0.754329  1
  Ho  Ho2  1  0.672469  0.998716  0.249137  1
  Ho  Ho3  1  0.327514  0.001287  0.750862  1
  Al  Al4  1  0.997649  0.665304  0.570933  1
  Al  Al5  1  0.334510  0.000740  0.427668  1
  Al  Al6  1  0.002353  0.334581  0.429268  1
  Al  Al7  1  0.665609  0.999378  0.572414  1
  Al  Al8  1  0.664140  0.997133  0.926693  1
  Al  Al9  1  0.335983  0.002989  0.073223  1
  Al  Al10  1  0.333518  0.333477  0.556454  1
  Al  Al11  1  0.666373  0.666524  0.443643  1
  Al  Al12  1  0.666732  0.666270  0.054732  1
  Al  Al13  1  0.333155  0.333733  0.945169  1
  Ga  Ga14  1  0.129775  0.126420  0.250607  1
  Ga  Ga15  1  0.870260  0.873754  0.749394  1
  Ga  Ga16  1  0.999672  0.333332  0.079711  1
  Ga  Ga17  1  0.000331  0.666497  0.920047  1
  Ga  Ga18  1  0.341113  0.548839  0.250859  1
  Ga  Ga19  1  0.659009  0.451133  0.749142  1
  Ga  Ga20  1  0.546269  0.339163  0.249989  1
  Ga  Ga21  1  0.453514  0.660647  0.750010  1
  Ir  Ir22  1  0.667268  0.325776  0.999126  1
  Ir  Ir23  1  0.332745  0.674167  0.000761  1
  Ir  Ir24  1  0.328027  0.671847  0.500907  1
  Ir  Ir25  1  0.671968  0.328097  0.499196  1
  Ir  Ir26  1  0.000020  0.000086  0.999930  1
  Ir  Ir27  1  0.000017  0.000069  0.500050  1
