# generated using pymatgen
data_Co2ReMo3C
_symmetry_space_group_name_H-M   'P 1'
_cell_length_a   7.96541188
_cell_length_b   7.96541245
_cell_length_c   7.96541200
_cell_angle_alpha   60.00000188
_cell_angle_beta   59.99999948
_cell_angle_gamma   59.99999726
_symmetry_Int_Tables_number   1
_chemical_formula_structural   Co2ReMo3C
_chemical_formula_sum   'Co8 Re4 Mo12 C4'
_cell_volume   357.36313354
_cell_formula_units_Z   4
loop_
 _symmetry_equiv_pos_site_id
 _symmetry_equiv_pos_as_xyz
  1  'x, y, z'
loop_
 _atom_site_type_symbol
 _atom_site_label
 _atom_site_symmetry_multiplicity
 _atom_site_fract_x
 _atom_site_fract_y
 _atom_site_fract_z
 _atom_site_occupancy
  Co  Co0  1  0.743091  0.418970  0.418970  1
  Co  Co1  1  0.418970  0.743091  0.418970  1
  Co  Co2  1  0.418970  0.418970  0.743091  1
  Co  Co3  1  0.418970  0.418970  0.418970  1
  Co  Co4  1  0.506909  0.831030  0.831030  1
  Co  Co5  1  0.831030  0.506909  0.831030  1
  Co  Co6  1  0.831030  0.831030  0.506909  1
  Co  Co7  1  0.831030  0.831030  0.831030  1
  Re  Re8  1  0.125000  0.625000  0.625000  1
  Re  Re9  1  0.625000  0.125000  0.625000  1
  Re  Re10  1  0.625000  0.625000  0.125000  1
  Re  Re11  1  0.625000  0.625000  0.625000  1
  Mo  Mo12  1  0.810094  0.810094  0.189906  1
  Mo  Mo13  1  0.189906  0.189906  0.810094  1
  Mo  Mo14  1  0.810094  0.189906  0.810094  1
  Mo  Mo15  1  0.189906  0.810094  0.189906  1
  Mo  Mo16  1  0.189906  0.810094  0.810094  1
  Mo  Mo17  1  0.810094  0.189906  0.189906  1
  Mo  Mo18  1  0.439906  0.439906  0.060094  1
  Mo  Mo19  1  0.060094  0.060094  0.439906  1
  Mo  Mo20  1  0.439906  0.060094  0.439906  1
  Mo  Mo21  1  0.060094  0.439906  0.060094  1
  Mo  Mo22  1  0.060094  0.439906  0.439906  1
  Mo  Mo23  1  0.439906  0.060094  0.060094  1
  C  C24  1  0.625000  0.125000  0.125000  1
  C  C25  1  0.125000  0.625000  0.125000  1
  C  C26  1  0.125000  0.125000  0.625000  1
  C  C27  1  0.125000  0.125000  0.125000  1
