# generated using pymatgen
data_DyY18InIr12
_symmetry_space_group_name_H-M   'P 1'
_cell_length_a   10.91996000
_cell_length_b   10.91996000
_cell_length_c   6.34385400
_cell_angle_alpha   90.00000000
_cell_angle_beta   90.00000000
_cell_angle_gamma   90.00000000
_symmetry_Int_Tables_number   1
_chemical_formula_structural   DyY18InIr12
_chemical_formula_sum   'Dy1 Y18 In1 Ir12'
_cell_volume   756.47620964
_cell_formula_units_Z   1
loop_
 _symmetry_equiv_pos_site_id
 _symmetry_equiv_pos_as_xyz
  1  'x, y, z'
loop_
 _atom_site_type_symbol
 _atom_site_label
 _atom_site_symmetry_multiplicity
 _atom_site_fract_x
 _atom_site_fract_y
 _atom_site_fract_z
 _atom_site_occupancy
  Dy  Dy0  1  0.500000  0.500000  0.500000  1
  Y  Y1  1  0.284052  0.085017  0.380501  1
  Y  Y2  1  0.291034  0.911366  0.880745  1
  Y  Y3  1  0.708966  0.088634  0.880745  1
  Y  Y4  1  0.715948  0.914983  0.380501  1
  Y  Y5  1  0.588552  0.791830  0.881638  1
  Y  Y6  1  0.587979  0.208077  0.378157  1
  Y  Y7  1  0.412021  0.791923  0.378157  1
  Y  Y8  1  0.411448  0.208170  0.881638  1
  Y  Y9  1  0.208077  0.412021  0.621843  1
  Y  Y10  1  0.208170  0.588552  0.118362  1
  Y  Y11  1  0.791830  0.411448  0.118362  1
  Y  Y12  1  0.791923  0.587979  0.621843  1
  Y  Y13  1  0.911366  0.708966  0.119255  1
  Y  Y14  1  0.914983  0.284052  0.619499  1
  Y  Y15  1  0.085017  0.715948  0.619499  1
  Y  Y16  1  0.088634  0.291034  0.119255  1
  Y  Y17  1  0.000000  0.000000  0.000000  1
  Y  Y18  1  0.500000  0.500000  0.000000  1
  In  In19  1  0.000000  0.000000  0.500000  1
  Ir  Ir20  1  0.846030  0.155517  0.246187  1
  Ir  Ir21  1  0.844483  0.846030  0.753813  1
  Ir  Ir22  1  0.155517  0.153970  0.753813  1
  Ir  Ir23  1  0.153970  0.844483  0.246187  1
  Ir  Ir24  1  0.654362  0.346521  0.746763  1
  Ir  Ir25  1  0.653479  0.654362  0.253237  1
  Ir  Ir26  1  0.346521  0.345638  0.253237  1
  Ir  Ir27  1  0.345638  0.653479  0.746763  1
  Ir  Ir28  1  0.500000  0.000000  0.126581  1
  Ir  Ir29  1  0.500000  0.000000  0.621916  1
  Ir  Ir30  1  0.000000  0.500000  0.873419  1
  Ir  Ir31  1  0.000000  0.500000  0.378084  1
