# generated using pymatgen
data_Er3Tm(Si2Os)2
_symmetry_space_group_name_H-M   'P 1'
_cell_length_a   5.67984367
_cell_length_b   5.67984334
_cell_length_c   9.92090391
_cell_angle_alpha   116.52343755
_cell_angle_beta   116.52343527
_cell_angle_gamma   43.44623514
_symmetry_Int_Tables_number   1
_chemical_formula_structural   Er3Tm(Si2Os)2
_chemical_formula_sum   'Er3 Tm1 Si4 Os2'
_cell_volume   192.99611989
_cell_formula_units_Z   1
loop_
 _symmetry_equiv_pos_site_id
 _symmetry_equiv_pos_as_xyz
  1  'x, y, z'
loop_
 _atom_site_type_symbol
 _atom_site_label
 _atom_site_symmetry_multiplicity
 _atom_site_fract_x
 _atom_site_fract_y
 _atom_site_fract_z
 _atom_site_occupancy
  Er  Er0  1  0.007128  0.007128  0.178438  1
  Er  Er1  1  0.814664  0.814664  0.389038  1
  Er  Er2  1  0.185513  0.185513  0.611172  1
  Tm  Tm3  1  0.993318  0.993318  0.821973  1
  Si  Si4  1  0.642042  0.642042  0.059880  1
  Si  Si5  1  0.504482  0.504482  0.376223  1
  Si  Si6  1  0.495095  0.495095  0.624185  1
  Si  Si7  1  0.357939  0.357939  0.939687  1
  Os  Os8  1  0.269756  0.269756  0.127462  1
  Os  Os9  1  0.730064  0.730064  0.871943  1
