# generated using pymatgen
data_Lu4Al13Si5(Ir2Os)2
_symmetry_space_group_name_H-M   'P 1'
_cell_length_a   7.50147540
_cell_length_b   7.44987468
_cell_length_c   9.22878585
_cell_angle_alpha   89.98106911
_cell_angle_beta   89.90873630
_cell_angle_gamma   119.81387845
_symmetry_Int_Tables_number   1
_chemical_formula_structural   Lu4Al13Si5(Ir2Os)2
_chemical_formula_sum   'Lu4 Al13 Si5 Ir4 Os2'
_cell_volume   447.48801025
_cell_formula_units_Z   1
loop_
 _symmetry_equiv_pos_site_id
 _symmetry_equiv_pos_as_xyz
  1  'x, y, z'
loop_
 _atom_site_type_symbol
 _atom_site_label
 _atom_site_symmetry_multiplicity
 _atom_site_fract_x
 _atom_site_fract_y
 _atom_site_fract_z
 _atom_site_occupancy
  Lu  Lu0  1  0.993653  0.670304  0.247069  1
  Lu  Lu1  1  0.007407  0.337917  0.754147  1
  Lu  Lu2  1  0.681769  0.000863  0.247813  1
  Lu  Lu3  1  0.309969  0.990280  0.749058  1
  Al  Al4  1  0.340242  0.003985  0.421335  1
  Al  Al5  1  0.002960  0.330013  0.425978  1
  Al  Al6  1  0.666087  0.001792  0.576428  1
  Al  Al7  1  0.660954  0.997460  0.921743  1
  Al  Al8  1  0.339674  0.003912  0.078131  1
  Al  Al9  1  0.333578  0.331006  0.562404  1
  Al  Al10  1  0.662514  0.667003  0.439383  1
  Al  Al11  1  0.662026  0.667065  0.061166  1
  Al  Al12  1  0.336670  0.331564  0.938061  1
  Al  Al13  1  0.334481  0.549651  0.250063  1
  Al  Al14  1  0.667259  0.453368  0.750672  1
  Al  Al15  1  0.548994  0.339628  0.250091  1
  Al  Al16  1  0.454704  0.661731  0.749841  1
  Si  Si17  1  0.131059  0.122401  0.251154  1
  Si  Si18  1  0.865803  0.877538  0.750417  1
  Si  Si19  1  0.002508  0.328968  0.077661  1
  Si  Si20  1  0.997080  0.670756  0.928972  1
  Si  Si21  1  0.998449  0.665021  0.565891  1
  Ir  Ir22  1  0.689487  0.336690  0.001773  1
  Ir  Ir23  1  0.310899  0.663238  0.997393  1
  Ir  Ir24  1  0.319187  0.670844  0.502465  1
  Ir  Ir25  1  0.681793  0.336311  0.499697  1
  Os  Os26  1  0.000305  0.999832  0.999929  1
  Os  Os27  1  0.000488  0.990860  0.501263  1
