# generated using pymatgen
data_Tb2Ho2ErPb4
_symmetry_space_group_name_H-M   'P 1'
_cell_length_a   8.19308600
_cell_length_b   8.27668100
_cell_length_c   15.62278000
_cell_angle_alpha   90.00000000
_cell_angle_beta   90.00000000
_cell_angle_gamma   90.00000000
_symmetry_Int_Tables_number   1
_chemical_formula_structural   Tb2Ho2ErPb4
_chemical_formula_sum   'Tb8 Ho8 Er4 Pb16'
_cell_volume   1059.40507127
_cell_formula_units_Z   4
loop_
 _symmetry_equiv_pos_site_id
 _symmetry_equiv_pos_as_xyz
  1  'x, y, z'
loop_
 _atom_site_type_symbol
 _atom_site_label
 _atom_site_symmetry_multiplicity
 _atom_site_fract_x
 _atom_site_fract_y
 _atom_site_fract_z
 _atom_site_occupancy
  Tb  Tb0  1  0.534275  0.322957  0.900001  1
  Tb  Tb1  1  0.034275  0.177043  0.599999  1
  Tb  Tb2  1  0.465725  0.677043  0.400001  1
  Tb  Tb3  1  0.965725  0.822957  0.099999  1
  Tb  Tb4  1  0.465725  0.677043  0.099999  1
  Tb  Tb5  1  0.965725  0.822957  0.400001  1
  Tb  Tb6  1  0.534275  0.322957  0.599999  1
  Tb  Tb7  1  0.034275  0.177043  0.900001  1
  Ho  Ho8  1  0.376578  0.840811  0.879295  1
  Ho  Ho9  1  0.876578  0.659189  0.620705  1
  Ho  Ho10  1  0.623422  0.159189  0.379295  1
  Ho  Ho11  1  0.123422  0.340811  0.120705  1
  Ho  Ho12  1  0.623422  0.159189  0.120705  1
  Ho  Ho13  1  0.123422  0.340811  0.379295  1
  Ho  Ho14  1  0.376578  0.840811  0.620705  1
  Ho  Ho15  1  0.876578  0.659189  0.879295  1
  Er  Er16  1  0.208159  0.504359  0.750000  1
  Er  Er17  1  0.708159  0.995641  0.750000  1
  Er  Er18  1  0.791841  0.495641  0.250000  1
  Er  Er19  1  0.291841  0.004359  0.250000  1
  Pb  Pb20  1  0.282232  0.033858  0.042797  1
  Pb  Pb21  1  0.782232  0.466142  0.457203  1
  Pb  Pb22  1  0.717768  0.966142  0.542797  1
  Pb  Pb23  1  0.217768  0.533858  0.957203  1
  Pb  Pb24  1  0.717768  0.966142  0.957203  1
  Pb  Pb25  1  0.217768  0.533858  0.542797  1
  Pb  Pb26  1  0.282232  0.033858  0.457203  1
  Pb  Pb27  1  0.782232  0.466142  0.042797  1
  Pb  Pb28  1  0.571455  0.627405  0.750000  1
  Pb  Pb29  1  0.071455  0.872595  0.750000  1
  Pb  Pb30  1  0.428545  0.372595  0.250000  1
  Pb  Pb31  1  0.928545  0.127405  0.250000  1
  Pb  Pb32  1  0.345325  0.152081  0.750000  1
  Pb  Pb33  1  0.845325  0.347919  0.750000  1
  Pb  Pb34  1  0.654675  0.847919  0.250000  1
  Pb  Pb35  1  0.154675  0.652081  0.250000  1
