# generated using pymatgen
data_Sc4MnAl3Tc3Ru
_symmetry_space_group_name_H-M   'P 1'
_cell_length_a   5.24496800
_cell_length_b   5.27902734
_cell_length_c   8.41982914
_cell_angle_alpha   90.19411684
_cell_angle_beta   90.00000000
_cell_angle_gamma   119.78680397
_symmetry_Int_Tables_number   1
_chemical_formula_structural   Sc4MnAl3Tc3Ru
_chemical_formula_sum   'Sc4 Mn1 Al3 Tc3 Ru1'
_cell_volume   202.32816807
_cell_formula_units_Z   1
loop_
 _symmetry_equiv_pos_site_id
 _symmetry_equiv_pos_as_xyz
  1  'x, y, z'
loop_
 _atom_site_type_symbol
 _atom_site_label
 _atom_site_symmetry_multiplicity
 _atom_site_fract_x
 _atom_site_fract_y
 _atom_site_fract_z
 _atom_site_occupancy
  Sc  Sc0  1  0.335898  0.671796  0.056536  1
  Sc  Sc1  1  0.664315  0.328630  0.564611  1
  Sc  Sc2  1  0.333164  0.666328  0.441268  1
  Sc  Sc3  1  0.667060  0.334120  0.934309  1
  Mn  Mn4  1  0.978725  0.957450  0.498476  1
  Al  Al5  1  0.345440  0.189767  0.252471  1
  Al  Al6  1  0.844328  0.189767  0.252471  1
  Al  Al7  1  0.165578  0.331156  0.747605  1
  Tc  Tc8  1  0.842668  0.685336  0.262715  1
  Tc  Tc9  1  0.173282  0.829258  0.743435  1
  Tc  Tc10  1  0.655975  0.829258  0.743435  1
  Ru  Ru11  1  0.993568  0.987135  0.002667  1
