# generated using pymatgen
data_SrSi2Ir2Pt
_symmetry_space_group_name_H-M   'P 1'
_cell_length_a   5.74941854
_cell_length_b   6.78678240
_cell_length_c   6.78678149
_cell_angle_alpha   64.31764365
_cell_angle_beta   64.93952385
_cell_angle_gamma   64.93951303
_symmetry_Int_Tables_number   1
_chemical_formula_structural   SrSi2Ir2Pt
_chemical_formula_sum   'Sr2 Si4 Ir4 Pt2'
_cell_volume   206.63813403
_cell_formula_units_Z   2
loop_
 _symmetry_equiv_pos_site_id
 _symmetry_equiv_pos_as_xyz
  1  'x, y, z'
loop_
 _atom_site_type_symbol
 _atom_site_label
 _atom_site_symmetry_multiplicity
 _atom_site_fract_x
 _atom_site_fract_y
 _atom_site_fract_z
 _atom_site_occupancy
  Sr  Sr0  1  0.520381  0.750000  0.750000  1
  Sr  Sr1  1  0.479619  0.250000  0.250000  1
  Si  Si2  1  0.229682  0.572153  0.572153  1
  Si  Si3  1  0.770318  0.427847  0.427847  1
  Si  Si4  1  0.126011  0.072153  0.072153  1
  Si  Si5  1  0.873989  0.927847  0.927847  1
  Ir  Ir6  1  0.500000  0.216697  0.783303  1
  Ir  Ir7  1  0.000000  0.716697  0.283303  1
  Ir  Ir8  1  0.500000  0.783303  0.216697  1
  Ir  Ir9  1  0.000000  0.283303  0.716697  1
  Pt  Pt10  1  0.000000  0.500000  0.000000  1
  Pt  Pt11  1  0.000000  0.000000  0.500000  1
