# generated using pymatgen
data_Tb10GaSi3Bi4
_symmetry_space_group_name_H-M   'P 1'
_cell_length_a   8.71637470
_cell_length_b   8.71637538
_cell_length_c   7.99652603
_cell_angle_alpha   89.89496439
_cell_angle_beta   89.89497170
_cell_angle_gamma   125.48231982
_symmetry_Int_Tables_number   1
_chemical_formula_structural   Tb10GaSi3Bi4
_chemical_formula_sum   'Tb10 Ga1 Si3 Bi4'
_cell_volume   494.71068055
_cell_formula_units_Z   1
loop_
 _symmetry_equiv_pos_site_id
 _symmetry_equiv_pos_as_xyz
  1  'x, y, z'
loop_
 _atom_site_type_symbol
 _atom_site_label
 _atom_site_symmetry_multiplicity
 _atom_site_fract_x
 _atom_site_fract_y
 _atom_site_fract_z
 _atom_site_occupancy
  Tb  Tb0  1  0.043038  0.289629  0.333359  1
  Tb  Tb1  1  0.954510  0.710439  0.667994  1
  Tb  Tb2  1  0.454266  0.207626  0.830278  1
  Tb  Tb3  1  0.792625  0.546900  0.167838  1
  Tb  Tb4  1  0.546900  0.792625  0.167838  1
  Tb  Tb5  1  0.207626  0.454266  0.830278  1
  Tb  Tb6  1  0.710439  0.954510  0.667994  1
  Tb  Tb7  1  0.289629  0.043038  0.333359  1
  Tb  Tb8  1  0.999457  0.999457  0.999167  1
  Tb  Tb9  1  0.501215  0.501215  0.501699  1
  Ga  Ga10  1  0.370272  0.370272  0.129209  1
  Si  Si11  1  0.627759  0.627759  0.872404  1
  Si  Si12  1  0.131162  0.131162  0.629374  1
  Si  Si13  1  0.870252  0.870252  0.369133  1
  Bi  Bi14  1  0.790866  0.207945  0.999782  1
  Bi  Bi15  1  0.207945  0.790866  0.999782  1
  Bi  Bi16  1  0.709349  0.292689  0.500257  1
  Bi  Bi17  1  0.292689  0.709349  0.500257  1
