# generated using pymatgen
data_Mn(TlCl2)2
_symmetry_space_group_name_H-M   'P 1'
_cell_length_a   9.95021200
_cell_length_b   7.05476828
_cell_length_c   13.18440200
_cell_angle_alpha   72.99218343
_cell_angle_beta   90.00000000
_cell_angle_gamma   90.00000000
_symmetry_Int_Tables_number   1
_chemical_formula_structural   Mn(TlCl2)2
_chemical_formula_sum   'Mn4 Tl8 Cl16'
_cell_volume   885.02129541
_cell_formula_units_Z   4
loop_
 _symmetry_equiv_pos_site_id
 _symmetry_equiv_pos_as_xyz
  1  'x, y, z'
loop_
 _atom_site_type_symbol
 _atom_site_label
 _atom_site_symmetry_multiplicity
 _atom_site_fract_x
 _atom_site_fract_y
 _atom_site_fract_z
 _atom_site_occupancy
  Mn  Mn0  1  0.147041  0.118584  0.179357  1
  Mn  Mn1  1  0.852959  0.881416  0.820643  1
  Mn  Mn2  1  0.352959  0.118584  0.679357  1
  Mn  Mn3  1  0.647041  0.881416  0.320643  1
  Tl  Tl4  1  0.355306  0.774300  0.993651  1
  Tl  Tl5  1  0.644694  0.225700  0.006349  1
  Tl  Tl6  1  0.406549  0.405688  0.334142  1
  Tl  Tl7  1  0.906549  0.594312  0.165858  1
  Tl  Tl8  1  0.855306  0.225700  0.506349  1
  Tl  Tl9  1  0.093451  0.405688  0.834142  1
  Tl  Tl10  1  0.593451  0.594312  0.665858  1
  Tl  Tl11  1  0.144694  0.774300  0.493651  1
  Cl  Cl12  1  0.038864  0.789017  0.933627  1
  Cl  Cl13  1  0.961136  0.210983  0.066373  1
  Cl  Cl14  1  0.100071  0.213443  0.333552  1
  Cl  Cl15  1  0.313288  0.776852  0.720129  1
  Cl  Cl16  1  0.186712  0.776852  0.220129  1
  Cl  Cl17  1  0.838024  0.697363  0.398660  1
  Cl  Cl18  1  0.338024  0.302637  0.101340  1
  Cl  Cl19  1  0.813288  0.223148  0.779871  1
  Cl  Cl20  1  0.899929  0.786557  0.666448  1
  Cl  Cl21  1  0.161976  0.302637  0.601340  1
  Cl  Cl22  1  0.661976  0.697363  0.898660  1
  Cl  Cl23  1  0.686712  0.223148  0.279871  1
  Cl  Cl24  1  0.399929  0.213443  0.833552  1
  Cl  Cl25  1  0.538864  0.210983  0.566373  1
  Cl  Cl26  1  0.600071  0.786557  0.166448  1
  Cl  Cl27  1  0.461136  0.789017  0.433627  1
