# generated using pymatgen
data_LaTb2ZnRh8
_symmetry_space_group_name_H-M   'P 1'
_cell_length_a   5.37583200
_cell_length_b   5.37583143
_cell_length_c   17.20225600
_cell_angle_alpha   90.00000000
_cell_angle_beta   90.00000000
_cell_angle_gamma   119.99999119
_symmetry_Int_Tables_number   1
_chemical_formula_structural   LaTb2ZnRh8
_chemical_formula_sum   'La2 Tb4 Zn2 Rh16'
_cell_volume   430.53395338
_cell_formula_units_Z   2
loop_
 _symmetry_equiv_pos_site_id
 _symmetry_equiv_pos_as_xyz
  1  'x, y, z'
loop_
 _atom_site_type_symbol
 _atom_site_label
 _atom_site_symmetry_multiplicity
 _atom_site_fract_x
 _atom_site_fract_y
 _atom_site_fract_z
 _atom_site_occupancy
  La  La0  1  0.333333  0.666667  0.750000  1
  La  La1  1  0.666667  0.333333  0.250000  1
  Tb  Tb2  1  0.333333  0.666667  0.539903  1
  Tb  Tb3  1  0.666667  0.333333  0.039903  1
  Tb  Tb4  1  0.666667  0.333333  0.460097  1
  Tb  Tb5  1  0.333333  0.666667  0.960097  1
  Zn  Zn6  1  0.000000  0.000000  0.250000  1
  Zn  Zn7  1  0.000000  0.000000  0.750000  1
  Rh  Rh8  1  0.168255  0.336509  0.124383  1
  Rh  Rh9  1  0.831745  0.663491  0.624383  1
  Rh  Rh10  1  0.663491  0.831745  0.124383  1
  Rh  Rh11  1  0.168255  0.831745  0.124383  1
  Rh  Rh12  1  0.831745  0.168255  0.624383  1
  Rh  Rh13  1  0.336509  0.168255  0.624383  1
  Rh  Rh14  1  0.831745  0.663491  0.875617  1
  Rh  Rh15  1  0.831745  0.168255  0.875617  1
  Rh  Rh16  1  0.336509  0.168255  0.875617  1
  Rh  Rh17  1  0.663491  0.831745  0.375617  1
  Rh  Rh18  1  0.168255  0.831745  0.375617  1
  Rh  Rh19  1  0.168255  0.336509  0.375617  1
  Rh  Rh20  1  0.333333  0.666667  0.250000  1
  Rh  Rh21  1  0.666667  0.333333  0.750000  1
  Rh  Rh22  1  0.000000  0.000000  0.000000  1
  Rh  Rh23  1  0.000000  0.000000  0.500000  1
