# generated using pymatgen
data_Sb3P6PdO24
_symmetry_space_group_name_H-M   'P 1'
_cell_length_a   8.40121916
_cell_length_b   8.40121949
_cell_length_c   8.95868892
_cell_angle_alpha   62.03794252
_cell_angle_beta   62.03794017
_cell_angle_gamma   59.99999389
_symmetry_Int_Tables_number   1
_chemical_formula_structural   Sb3P6PdO24
_chemical_formula_sum   'Sb3 P6 Pd1 O24'
_cell_volume   460.39065073
_cell_formula_units_Z   1
loop_
 _symmetry_equiv_pos_site_id
 _symmetry_equiv_pos_as_xyz
  1  'x, y, z'
loop_
 _atom_site_type_symbol
 _atom_site_label
 _atom_site_symmetry_multiplicity
 _atom_site_fract_x
 _atom_site_fract_y
 _atom_site_fract_z
 _atom_site_occupancy
  Sb  Sb0  1  0.148972  0.148972  0.553084  1
  Sb  Sb1  1  0.356455  0.356455  0.930634  1
  Sb  Sb2  1  0.642846  0.642846  0.071463  1
  P  P3  1  0.749325  0.038536  0.745955  1
  P  P4  1  0.038536  0.466185  0.745955  1
  P  P5  1  0.466185  0.749325  0.745955  1
  P  P6  1  0.535143  0.251668  0.252104  1
  P  P7  1  0.961085  0.535143  0.252104  1
  P  P8  1  0.251668  0.961085  0.252104  1
  Pd  Pd9  1  0.852059  0.852059  0.443824  1
  O  O10  1  0.329766  0.102771  0.072837  1
  O  O11  1  0.494626  0.329766  0.072837  1
  O  O12  1  0.960621  0.015076  0.707123  1
  O  O13  1  0.102771  0.494626  0.072837  1
  O  O14  1  0.614998  0.239596  0.776627  1
  O  O15  1  0.708680  0.035024  0.599632  1
  O  O16  1  0.015076  0.317180  0.707123  1
  O  O17  1  0.239596  0.368778  0.776627  1
  O  O18  1  0.368778  0.614998  0.776627  1
  O  O19  1  0.337097  0.284758  0.404486  1
  O  O20  1  0.673250  0.044933  0.279135  1
  O  O21  1  0.973659  0.337097  0.404486  1
  O  O22  1  0.035024  0.656664  0.599632  1
  O  O23  1  0.317180  0.960621  0.707123  1
  O  O24  1  0.656664  0.708680  0.599632  1
  O  O25  1  0.617311  0.390618  0.236630  1
  O  O26  1  0.755441  0.617311  0.236630  1
  O  O27  1  0.002681  0.673250  0.279135  1
  O  O28  1  0.284758  0.973659  0.404486  1
  O  O29  1  0.390618  0.755441  0.236630  1
  O  O30  1  0.877084  0.483697  0.925802  1
  O  O31  1  0.044933  0.002681  0.279135  1
  O  O32  1  0.483697  0.713417  0.925802  1
  O  O33  1  0.713417  0.877084  0.925802  1
