# generated using pymatgen
data_U2ZnSi13Ir6
_symmetry_space_group_name_H-M   'P 1'
_cell_length_a   8.12146701
_cell_length_b   8.02174550
_cell_length_c   7.99985900
_cell_angle_alpha   56.51528813
_cell_angle_beta   57.05318077
_cell_angle_gamma   56.70295863
_symmetry_Int_Tables_number   1
_chemical_formula_structural   U2ZnSi13Ir6
_chemical_formula_sum   'U2 Zn1 Si13 Ir6'
_cell_volume   340.92233286
_cell_formula_units_Z   1
loop_
 _symmetry_equiv_pos_site_id
 _symmetry_equiv_pos_as_xyz
  1  'x, y, z'
loop_
 _atom_site_type_symbol
 _atom_site_label
 _atom_site_symmetry_multiplicity
 _atom_site_fract_x
 _atom_site_fract_y
 _atom_site_fract_z
 _atom_site_occupancy
  U  U0  1  0.497462  0.496858  0.500070  1
  U  U1  1  0.999116  0.000635  0.000506  1
  Zn  Zn2  1  0.356891  0.158841  0.580925  1
  Si  Si3  1  0.556618  0.350939  0.179444  1
  Si  Si4  1  0.172052  0.565276  0.353227  1
  Si  Si5  1  0.062498  0.672449  0.854106  1
  Si  Si6  1  0.852318  0.063597  0.671514  1
  Si  Si7  1  0.669054  0.853064  0.066856  1
  Si  Si8  1  0.643565  0.832280  0.436854  1
  Si  Si9  1  0.437260  0.650075  0.824638  1
  Si  Si10  1  0.832715  0.429800  0.648252  1
  Si  Si11  1  0.937344  0.330742  0.146178  1
  Si  Si12  1  0.153729  0.934308  0.320534  1
  Si  Si13  1  0.326774  0.154696  0.928811  1
  Si  Si14  1  0.251101  0.249225  0.254758  1
  Si  Si15  1  0.747991  0.754978  0.746209  1
  Ir  Ir16  1  0.928502  0.571524  0.250706  1
  Ir  Ir17  1  0.249189  0.918723  0.570605  1
  Ir  Ir18  1  0.568478  0.251090  0.929215  1
  Ir  Ir19  1  0.764802  0.069414  0.417705  1
  Ir  Ir20  1  0.433250  0.752506  0.063725  1
  Ir  Ir21  1  0.059286  0.438981  0.755163  1
