# generated using pymatgen
data_TbDyAlCdPt2
_symmetry_space_group_name_H-M   'P 1'
_cell_length_a   4.37084800
_cell_length_b   6.97496010
_cell_length_c   8.23579100
_cell_angle_alpha   92.40348398
_cell_angle_beta   90.00000000
_cell_angle_gamma   90.00000000
_symmetry_Int_Tables_number   1
_chemical_formula_structural   TbDyAlCdPt2
_chemical_formula_sum   'Tb2 Dy2 Al2 Cd2 Pt4'
_cell_volume   250.85948356
_cell_formula_units_Z   2
loop_
 _symmetry_equiv_pos_site_id
 _symmetry_equiv_pos_as_xyz
  1  'x, y, z'
loop_
 _atom_site_type_symbol
 _atom_site_label
 _atom_site_symmetry_multiplicity
 _atom_site_fract_x
 _atom_site_fract_y
 _atom_site_fract_z
 _atom_site_occupancy
  Tb  Tb0  1  0.250000  0.463439  0.185774  1
  Tb  Tb1  1  0.750000  0.536561  0.814226  1
  Dy  Dy2  1  0.750000  0.036471  0.676873  1
  Dy  Dy3  1  0.250000  0.963529  0.323127  1
  Al  Al4  1  0.750000  0.639436  0.442917  1
  Al  Al5  1  0.250000  0.360564  0.557083  1
  Cd  Cd6  1  0.250000  0.858166  0.935367  1
  Cd  Cd7  1  0.750000  0.141834  0.064633  1
  Pt  Pt8  1  0.250000  0.731505  0.599965  1
  Pt  Pt9  1  0.750000  0.268495  0.400035  1
  Pt  Pt10  1  0.750000  0.739205  0.143739  1
  Pt  Pt11  1  0.250000  0.260795  0.856261  1
