# generated using pymatgen
data_Dy8In4Cu7Rh
_symmetry_space_group_name_H-M   'P 1'
_cell_length_a   7.65666247
_cell_length_b   7.65666315
_cell_length_c   7.29776650
_cell_angle_alpha   90.06670912
_cell_angle_beta   90.06670770
_cell_angle_gamma   90.32810390
_symmetry_Int_Tables_number   1
_chemical_formula_structural   Dy8In4Cu7Rh
_chemical_formula_sum   'Dy8 In4 Cu7 Rh1'
_cell_volume   427.82020769
_cell_formula_units_Z   1
loop_
 _symmetry_equiv_pos_site_id
 _symmetry_equiv_pos_as_xyz
  1  'x, y, z'
loop_
 _atom_site_type_symbol
 _atom_site_label
 _atom_site_symmetry_multiplicity
 _atom_site_fract_x
 _atom_site_fract_y
 _atom_site_fract_z
 _atom_site_occupancy
  Dy  Dy0  1  0.175036  0.175036  0.002679  1
  Dy  Dy1  1  0.832211  0.832211  0.998054  1
  Dy  Dy2  1  0.664882  0.326872  0.497060  1
  Dy  Dy3  1  0.326872  0.664882  0.497060  1
  Dy  Dy4  1  0.672124  0.319399  0.001809  1
  Dy  Dy5  1  0.319399  0.672124  0.001809  1
  Dy  Dy6  1  0.823295  0.823295  0.502161  1
  Dy  Dy7  1  0.181823  0.181823  0.497987  1
  In  In8  1  0.500076  0.996497  0.249741  1
  In  In9  1  0.500220  0.996156  0.749439  1
  In  In10  1  0.996497  0.500076  0.249741  1
  In  In11  1  0.996156  0.500220  0.749439  1
  Cu  Cu12  1  0.619417  0.619417  0.760026  1
  Cu  Cu13  1  0.626071  0.626071  0.239419  1
  Cu  Cu14  1  0.881972  0.121673  0.740551  1
  Cu  Cu15  1  0.881800  0.119870  0.259699  1
  Cu  Cu16  1  0.381174  0.381174  0.758350  1
  Cu  Cu17  1  0.119870  0.881800  0.259699  1
  Cu  Cu18  1  0.121673  0.881972  0.740551  1
  Rh  Rh19  1  0.379432  0.379432  0.244726  1
