# generated using pymatgen
data_Hf3Zr7SiNiSb6
_symmetry_space_group_name_H-M   'P 1'
_cell_length_a   8.61961002
_cell_length_b   8.62188778
_cell_length_c   5.82547602
_cell_angle_alpha   89.99589689
_cell_angle_beta   90.00826905
_cell_angle_gamma   119.99120499
_symmetry_Int_Tables_number   1
_chemical_formula_structural   Hf3Zr7SiNiSb6
_chemical_formula_sum   'Hf3 Zr7 Si1 Ni1 Sb6'
_cell_volume   374.96480991
_cell_formula_units_Z   1
loop_
 _symmetry_equiv_pos_site_id
 _symmetry_equiv_pos_as_xyz
  1  'x, y, z'
loop_
 _atom_site_type_symbol
 _atom_site_label
 _atom_site_symmetry_multiplicity
 _atom_site_fract_x
 _atom_site_fract_y
 _atom_site_fract_z
 _atom_site_occupancy
  Hf  Hf0  1  0.249321  0.999983  0.248745  1
  Hf  Hf1  1  0.268052  0.268029  0.754390  1
  Hf  Hf2  1  0.000015  0.731954  0.754378  1
  Zr  Zr3  1  0.000491  0.251900  0.250032  1
  Zr  Zr4  1  0.748590  0.748123  0.250016  1
  Zr  Zr5  1  0.731595  0.000014  0.753412  1
  Zr  Zr6  1  0.332951  0.666761  0.998728  1
  Zr  Zr7  1  0.665390  0.332937  0.501659  1
  Zr  Zr8  1  0.666194  0.333265  0.998716  1
  Zr  Zr9  1  0.332427  0.667057  0.501659  1
  Si  Si10  1  0.001519  0.999991  0.525674  1
  Ni  Ni11  1  0.005037  0.999991  0.960891  1
  Sb  Sb12  1  0.605170  0.000014  0.248838  1
  Sb  Sb13  1  0.614325  0.613911  0.751718  1
  Sb  Sb14  1  0.000407  0.386054  0.751708  1
  Sb  Sb15  1  0.000168  0.606499  0.248771  1
  Sb  Sb16  1  0.393687  0.393515  0.248772  1
  Sb  Sb17  1  0.384662  0.000003  0.751893  1
