# generated using pymatgen
data_DyTm11Lu8(CoSb2)4
_symmetry_space_group_name_H-M   'P 1'
_cell_length_a   7.69145520
_cell_length_b   8.72226700
_cell_length_c   12.00697032
_cell_angle_alpha   90.00000000
_cell_angle_beta   90.02635083
_cell_angle_gamma   90.00000000
_symmetry_Int_Tables_number   1
_chemical_formula_structural   DyTm11Lu8(CoSb2)4
_chemical_formula_sum   'Dy1 Tm11 Lu8 Co4 Sb8'
_cell_volume   805.51064281
_cell_formula_units_Z   1
loop_
 _symmetry_equiv_pos_site_id
 _symmetry_equiv_pos_as_xyz
  1  'x, y, z'
loop_
 _atom_site_type_symbol
 _atom_site_label
 _atom_site_symmetry_multiplicity
 _atom_site_fract_x
 _atom_site_fract_y
 _atom_site_fract_z
 _atom_site_occupancy
  Dy  Dy0  1  0.124353  0.250000  0.192327  1
  Tm  Tm1  1  0.154884  0.750000  0.204259  1
  Tm  Tm2  1  0.345075  0.750000  0.704121  1
  Tm  Tm3  1  0.845051  0.250000  0.795825  1
  Tm  Tm4  1  0.654404  0.250000  0.296058  1
  Tm  Tm5  1  0.450356  0.750000  0.997597  1
  Tm  Tm6  1  0.050524  0.750000  0.497861  1
  Tm  Tm7  1  0.550823  0.250000  0.002331  1
  Tm  Tm8  1  0.949517  0.250000  0.502236  1
  Tm  Tm9  1  0.622988  0.750000  0.309283  1
  Tm  Tm10  1  0.876819  0.750000  0.809069  1
  Tm  Tm11  1  0.376996  0.250000  0.690657  1
  Lu  Lu12  1  0.823987  0.537000  0.065121  1
  Lu  Lu13  1  0.675445  0.964593  0.565610  1
  Lu  Lu14  1  0.175270  0.034740  0.933778  1
  Lu  Lu15  1  0.324533  0.464153  0.434586  1
  Lu  Lu16  1  0.175270  0.465260  0.933778  1
  Lu  Lu17  1  0.324533  0.035847  0.434586  1
  Lu  Lu18  1  0.823987  0.963000  0.065121  1
  Lu  Lu19  1  0.675445  0.535407  0.565610  1
  Co  Co20  1  0.434959  0.750000  0.491751  1
  Co  Co21  1  0.065018  0.750000  0.991379  1
  Co  Co22  1  0.565127  0.250000  0.508527  1
  Co  Co23  1  0.934559  0.250000  0.007789  1
  Sb  Sb24  1  0.929984  0.508613  0.328306  1
  Sb  Sb25  1  0.568642  0.992406  0.827864  1
  Sb  Sb26  1  0.068493  0.007605  0.672134  1
  Sb  Sb27  1  0.432919  0.493298  0.172067  1
  Sb  Sb28  1  0.068493  0.492395  0.672134  1
  Sb  Sb29  1  0.432919  0.006702  0.172067  1
  Sb  Sb30  1  0.929984  0.991387  0.328306  1
  Sb  Sb31  1  0.568642  0.507594  0.827864  1
