# generated using pymatgen
data_Yb3Lu(B4Ru)4
_symmetry_space_group_name_H-M   'P 1'
_cell_length_a   3.52848200
_cell_length_b   5.92933081
_cell_length_c   11.48016856
_cell_angle_alpha   89.94020651
_cell_angle_beta   90.00000000
_cell_angle_gamma   90.00000000
_symmetry_Int_Tables_number   1
_chemical_formula_structural   Yb3Lu(B4Ru)4
_chemical_formula_sum   'Yb3 Lu1 B16 Ru4'
_cell_volume   240.18264085
_cell_formula_units_Z   1
loop_
 _symmetry_equiv_pos_site_id
 _symmetry_equiv_pos_as_xyz
  1  'x, y, z'
loop_
 _atom_site_type_symbol
 _atom_site_label
 _atom_site_symmetry_multiplicity
 _atom_site_fract_x
 _atom_site_fract_y
 _atom_site_fract_z
 _atom_site_occupancy
  Yb  Yb0  1  0.500000  0.369688  0.849417  1
  Yb  Yb1  1  0.500000  0.129332  0.350069  1
  Yb  Yb2  1  0.500000  0.870298  0.650672  1
  Lu  Lu3  1  0.500000  0.629366  0.150242  1
  B  B4  1  0.000000  0.974899  0.192388  1
  B  B5  1  0.000000  0.023907  0.808063  1
  B  B6  1  0.000000  0.477261  0.307231  1
  B  B7  1  0.000000  0.523345  0.691993  1
  B  B8  1  0.000000  0.787837  0.314475  1
  B  B9  1  0.000000  0.212863  0.684891  1
  B  B10  1  0.000000  0.289054  0.185232  1
  B  B11  1  0.000000  0.713388  0.814485  1
  B  B12  1  0.000000  0.864896  0.468496  1
  B  B13  1  0.000000  0.135129  0.531121  1
  B  B14  1  0.000000  0.364876  0.031171  1
  B  B15  1  0.000000  0.635101  0.969596  1
  B  B16  1  0.000000  0.887366  0.047649  1
  B  B17  1  0.000000  0.112840  0.952799  1
  B  B18  1  0.000000  0.387091  0.452562  1
  B  B19  1  0.000000  0.612900  0.546721  1
  Ru  Ru20  1  0.500000  0.635032  0.410545  1
  Ru  Ru21  1  0.500000  0.364349  0.587959  1
  Ru  Ru22  1  0.500000  0.137901  0.090513  1
  Ru  Ru23  1  0.500000  0.861283  0.911709  1
