# generated using pymatgen
data_Tb3Ho4TmAl4
_symmetry_space_group_name_H-M   'P 1'
_cell_length_a   5.09620600
_cell_length_b   6.56487650
_cell_length_c   9.42459886
_cell_angle_alpha   89.75163715
_cell_angle_beta   90.00000000
_cell_angle_gamma   90.00000000
_symmetry_Int_Tables_number   1
_chemical_formula_structural   Tb3Ho4TmAl4
_chemical_formula_sum   'Tb3 Ho4 Tm1 Al4'
_cell_volume   315.30606825
_cell_formula_units_Z   1
loop_
 _symmetry_equiv_pos_site_id
 _symmetry_equiv_pos_as_xyz
  1  'x, y, z'
loop_
 _atom_site_type_symbol
 _atom_site_label
 _atom_site_symmetry_multiplicity
 _atom_site_fract_x
 _atom_site_fract_y
 _atom_site_fract_z
 _atom_site_occupancy
  Tb  Tb0  1  0.750000  0.687730  0.427622  1
  Tb  Tb1  1  0.250000  0.312664  0.573403  1
  Tb  Tb2  1  0.750000  0.187032  0.072122  1
  Ho  Ho3  1  0.250000  0.811913  0.926815  1
  Ho  Ho4  1  0.250000  0.471922  0.210640  1
  Ho  Ho5  1  0.750000  0.027977  0.710573  1
  Ho  Ho6  1  0.250000  0.971578  0.289450  1
  Tm  Tm7  1  0.750000  0.529119  0.790121  1
  Al  Al8  1  0.750000  0.207943  0.397151  1
  Al  Al9  1  0.250000  0.791838  0.604098  1
  Al  Al10  1  0.750000  0.708112  0.100548  1
  Al  Al11  1  0.250000  0.292175  0.897457  1
