# generated using pymatgen
data_Tm12TlFe4Pt
_symmetry_space_group_name_H-M   'P 1'
_cell_length_a   8.17567396
_cell_length_b   8.17567489
_cell_length_c   8.17567600
_cell_angle_alpha   110.81650800
_cell_angle_beta   111.03287147
_cell_angle_gamma   106.60191124
_symmetry_Int_Tables_number   1
_chemical_formula_structural   Tm12TlFe4Pt
_chemical_formula_sum   'Tm12 Tl1 Fe4 Pt1'
_cell_volume   419.88932300
_cell_formula_units_Z   1
loop_
 _symmetry_equiv_pos_site_id
 _symmetry_equiv_pos_as_xyz
  1  'x, y, z'
loop_
 _atom_site_type_symbol
 _atom_site_label
 _atom_site_symmetry_multiplicity
 _atom_site_fract_x
 _atom_site_fract_y
 _atom_site_fract_z
 _atom_site_occupancy
  Tm  Tm0  1  0.419581  0.219981  0.199598  1
  Tm  Tm1  1  0.580419  0.780019  0.800402  1
  Tm  Tm2  1  0.020383  0.219981  0.800402  1
  Tm  Tm3  1  0.979617  0.780019  0.199598  1
  Tm  Tm4  1  0.185642  0.285465  0.471107  1
  Tm  Tm5  1  0.814358  0.714535  0.528893  1
  Tm  Tm6  1  0.185642  0.714535  0.900178  1
  Tm  Tm7  1  0.814358  0.285465  0.099822  1
  Tm  Tm8  1  0.314259  0.615796  0.301537  1
  Tm  Tm9  1  0.685741  0.384204  0.698463  1
  Tm  Tm10  1  0.314259  0.012721  0.698463  1
  Tm  Tm11  1  0.685741  0.987279  0.301537  1
  Tl  Tl12  1  0.500000  0.500000  0.000000  1
  Fe  Fe13  1  0.382057  0.000000  0.382057  1
  Fe  Fe14  1  0.617943  0.000000  0.617943  1
  Fe  Fe15  1  0.109495  0.609495  0.500000  1
  Fe  Fe16  1  0.890505  0.390505  0.500000  1
  Pt  Pt17  1  0.000000  0.000000  0.000000  1
