# generated using pymatgen
data_DyY(NiIr)2
_symmetry_space_group_name_H-M   'P 1'
_cell_length_a   5.22112911
_cell_length_b   5.22112877
_cell_length_c   5.07078000
_cell_angle_alpha   60.94808585
_cell_angle_beta   60.94808790
_cell_angle_gamma   62.33814234
_symmetry_Int_Tables_number   1
_chemical_formula_structural   DyY(NiIr)2
_chemical_formula_sum   'Dy1 Y1 Ni2 Ir2'
_cell_volume   100.80411952
_cell_formula_units_Z   1
loop_
 _symmetry_equiv_pos_site_id
 _symmetry_equiv_pos_as_xyz
  1  'x, y, z'
loop_
 _atom_site_type_symbol
 _atom_site_label
 _atom_site_symmetry_multiplicity
 _atom_site_fract_x
 _atom_site_fract_y
 _atom_site_fract_z
 _atom_site_occupancy
  Dy  Dy0  1  0.497116  0.497116  0.502884  1
  Y  Y1  1  0.752799  0.752799  0.747201  1
  Ni  Ni2  1  0.125067  0.125067  0.124947  1
  Ni  Ni3  1  0.125067  0.125067  0.624920  1
  Ir  Ir4  1  0.624698  0.125254  0.125024  1
  Ir  Ir5  1  0.125254  0.624698  0.125024  1
