# generated using pymatgen
data_Lu9Mg(SiPb3)2
_symmetry_space_group_name_H-M   'P 1'
_cell_length_a   9.12805900
_cell_length_b   9.12805790
_cell_length_c   6.36191100
_cell_angle_alpha   90.00000000
_cell_angle_beta   90.00000000
_cell_angle_gamma   120.00000036
_symmetry_Int_Tables_number   1
_chemical_formula_structural   Lu9Mg(SiPb3)2
_chemical_formula_sum   'Lu9 Mg1 Si2 Pb6'
_cell_volume   459.06591063
_cell_formula_units_Z   1
loop_
 _symmetry_equiv_pos_site_id
 _symmetry_equiv_pos_as_xyz
  1  'x, y, z'
loop_
 _atom_site_type_symbol
 _atom_site_label
 _atom_site_symmetry_multiplicity
 _atom_site_fract_x
 _atom_site_fract_y
 _atom_site_fract_z
 _atom_site_occupancy
  Lu  Lu0  1  0.249003  0.999440  0.751212  1
  Lu  Lu1  1  0.750437  0.999440  0.248788  1
  Lu  Lu2  1  0.000560  0.249563  0.751212  1
  Lu  Lu3  1  0.000560  0.750997  0.248788  1
  Lu  Lu4  1  0.750437  0.750997  0.751212  1
  Lu  Lu5  1  0.249003  0.249563  0.248788  1
  Lu  Lu6  1  0.666667  0.333333  0.500000  1
  Lu  Lu7  1  0.666667  0.333333  0.000000  1
  Lu  Lu8  1  0.333333  0.666667  0.000000  1
  Mg  Mg9  1  0.333333  0.666667  0.500000  1
  Si  Si10  1  0.000000  0.000000  0.500000  1
  Si  Si11  1  0.000000  0.000000  0.000000  1
  Pb  Pb12  1  0.604433  0.999784  0.750438  1
  Pb  Pb13  1  0.395351  0.999784  0.249562  1
  Pb  Pb14  1  0.000216  0.604649  0.750438  1
  Pb  Pb15  1  0.000216  0.395567  0.249562  1
  Pb  Pb16  1  0.395351  0.395567  0.750438  1
  Pb  Pb17  1  0.604433  0.604649  0.249562  1
