# generated using pymatgen
data_Li2B2OsRh
_symmetry_space_group_name_H-M   'P 1'
_cell_length_a   6.86285562
_cell_length_b   6.03214976
_cell_length_c   5.54117218
_cell_angle_alpha   72.59851975
_cell_angle_beta   57.00612118
_cell_angle_gamma   50.90892659
_symmetry_Int_Tables_number   1
_chemical_formula_structural   Li2B2OsRh
_chemical_formula_sum   'Li4 B4 Os2 Rh2'
_cell_volume   148.98232194
_cell_formula_units_Z   2
loop_
 _symmetry_equiv_pos_site_id
 _symmetry_equiv_pos_as_xyz
  1  'x, y, z'
loop_
 _atom_site_type_symbol
 _atom_site_label
 _atom_site_symmetry_multiplicity
 _atom_site_fract_x
 _atom_site_fract_y
 _atom_site_fract_z
 _atom_site_occupancy
  Li  Li0  1  0.125000  0.625000  0.625000  1
  Li  Li1  1  0.625000  0.625000  0.625000  1
  Li  Li2  1  0.625000  0.625000  0.125000  1
  Li  Li3  1  0.625000  0.125000  0.625000  1
  B  B4  1  0.433587  0.072129  0.424624  1
  B  B5  1  0.177871  0.816413  0.180340  1
  B  B6  1  0.072129  0.433587  0.069660  1
  B  B7  1  0.816413  0.177871  0.825376  1
  Os  Os8  1  0.383331  0.383331  0.116669  1
  Os  Os9  1  0.866669  0.866669  0.133331  1
  Rh  Rh10  1  0.137101  0.137101  0.862899  1
  Rh  Rh11  1  0.112899  0.112899  0.387101  1
