# generated using pymatgen
data_ThFe2(Sb6Os)2
_symmetry_space_group_name_H-M   'P 1'
_cell_length_a   8.05226832
_cell_length_b   8.01056211
_cell_length_c   8.05226816
_cell_angle_alpha   109.41806709
_cell_angle_beta   109.70579620
_cell_angle_gamma   109.49970016
_symmetry_Int_Tables_number   1
_chemical_formula_structural   ThFe2(Sb6Os)2
_chemical_formula_sum   'Th1 Fe2 Sb12 Os2'
_cell_volume   398.79090178
_cell_formula_units_Z   1
loop_
 _symmetry_equiv_pos_site_id
 _symmetry_equiv_pos_as_xyz
  1  'x, y, z'
loop_
 _atom_site_type_symbol
 _atom_site_label
 _atom_site_symmetry_multiplicity
 _atom_site_fract_x
 _atom_site_fract_y
 _atom_site_fract_z
 _atom_site_occupancy
  Th  Th0  1  0.000000  0.000000  0.000000  1
  Fe  Fe1  1  0.000000  0.000000  0.500000  1
  Fe  Fe2  1  0.500000  0.000000  0.000000  1
  Sb  Sb3  1  0.331544  0.169336  0.837793  1
  Sb  Sb4  1  0.668456  0.830664  0.162207  1
  Sb  Sb5  1  0.658422  0.502105  0.843684  1
  Sb  Sb6  1  0.341578  0.497895  0.156316  1
  Sb  Sb7  1  0.176282  0.846738  0.342405  1
  Sb  Sb8  1  0.823718  0.153262  0.657595  1
  Sb  Sb9  1  0.504332  0.846738  0.670457  1
  Sb  Sb10  1  0.495668  0.153262  0.329543  1
  Sb  Sb11  1  0.834216  0.330072  0.176384  1
  Sb  Sb12  1  0.165784  0.669928  0.823616  1
  Sb  Sb13  1  0.846312  0.669928  0.504143  1
  Sb  Sb14  1  0.153688  0.330072  0.495857  1
  Os  Os15  1  0.000000  0.500000  0.000000  1
  Os  Os16  1  0.500000  0.500000  0.500000  1
