# generated using pymatgen
data_Gd4As5Rh8
_symmetry_space_group_name_H-M   'P 1'
_cell_length_a   7.32515841
_cell_length_b   7.32515855
_cell_length_c   7.32515770
_cell_angle_alpha   107.21962369
_cell_angle_beta   110.60861259
_cell_angle_gamma   110.60861280
_symmetry_Int_Tables_number   1
_chemical_formula_structural   Gd4As5Rh8
_chemical_formula_sum   'Gd4 As5 Rh8'
_cell_volume   302.22356731
_cell_formula_units_Z   1
loop_
 _symmetry_equiv_pos_site_id
 _symmetry_equiv_pos_as_xyz
  1  'x, y, z'
loop_
 _atom_site_type_symbol
 _atom_site_label
 _atom_site_symmetry_multiplicity
 _atom_site_fract_x
 _atom_site_fract_y
 _atom_site_fract_z
 _atom_site_occupancy
  Gd  Gd0  1  0.000000  0.983992  0.498039  1
  Gd  Gd1  1  0.000000  0.498039  0.983992  1
  Gd  Gd2  1  0.485952  0.983992  0.983992  1
  Gd  Gd3  1  0.514048  0.498039  0.498039  1
  As  As4  1  0.682615  0.679422  0.996808  1
  As  As5  1  0.317385  0.996808  0.314193  1
  As  As6  1  0.000000  0.336905  0.336905  1
  As  As7  1  0.317385  0.314193  0.996808  1
  As  As8  1  0.682615  0.996808  0.679422  1
  Rh  Rh9  1  0.000000  0.717232  0.717232  1
  Rh  Rh10  1  0.748901  0.240595  0.491694  1
  Rh  Rh11  1  0.748901  0.491694  0.240595  1
  Rh  Rh12  1  0.500000  0.244713  0.744713  1
  Rh  Rh13  1  0.251099  0.491694  0.742793  1
  Rh  Rh14  1  0.251099  0.742793  0.491694  1
  Rh  Rh15  1  0.500000  0.744713  0.244713  1
  Rh  Rh16  1  0.000000  0.038368  0.038368  1
