# generated using pymatgen
data_Y7Er2ThRu4
_symmetry_space_group_name_H-M   'P 1'
_cell_length_a   6.40016924
_cell_length_b   7.29724820
_cell_length_c   8.54454333
_cell_angle_alpha   96.90788296
_cell_angle_beta   111.51160260
_cell_angle_gamma   89.39282338
_symmetry_Int_Tables_number   1
_chemical_formula_structural   Y7Er2ThRu4
_chemical_formula_sum   'Y7 Er2 Th1 Ru4'
_cell_volume   368.32617254
_cell_formula_units_Z   1
loop_
 _symmetry_equiv_pos_site_id
 _symmetry_equiv_pos_as_xyz
  1  'x, y, z'
loop_
 _atom_site_type_symbol
 _atom_site_label
 _atom_site_symmetry_multiplicity
 _atom_site_fract_x
 _atom_site_fract_y
 _atom_site_fract_z
 _atom_site_occupancy
  Y  Y0  1  0.979894  0.916924  0.189810  1
  Y  Y1  1  0.209876  0.415072  0.187157  1
  Y  Y2  1  0.023972  0.083888  0.815598  1
  Y  Y3  1  0.203751  0.684306  0.564573  1
  Y  Y4  1  0.640293  0.815409  0.431136  1
  Y  Y5  1  0.789824  0.313300  0.431040  1
  Y  Y6  1  0.357982  0.186238  0.566030  1
  Er  Er7  1  0.423879  0.752397  0.002323  1
  Er  Er8  1  0.577725  0.249308  0.999757  1
  Th  Th9  1  0.799966  0.592695  0.812796  1
  Ru  Ru10  1  0.609155  0.910757  0.782053  1
  Ru  Ru11  1  0.820551  0.573836  0.213119  1
  Ru  Ru12  1  0.399868  0.075441  0.219712  1
  Ru  Ru13  1  0.163264  0.430427  0.784896  1
