# generated using pymatgen
data_NpMnB4
_symmetry_space_group_name_H-M   'P 1'
_cell_length_a   3.37433100
_cell_length_b   5.90460400
_cell_length_c   11.43878400
_cell_angle_alpha   90.00213460
_cell_angle_beta   90.00000000
_cell_angle_gamma   90.00000000
_symmetry_Int_Tables_number   1
_chemical_formula_structural   NpMnB4
_chemical_formula_sum   'Np4 Mn4 B16'
_cell_volume   227.90734261
_cell_formula_units_Z   4
loop_
 _symmetry_equiv_pos_site_id
 _symmetry_equiv_pos_as_xyz
  1  'x, y, z'
loop_
 _atom_site_type_symbol
 _atom_site_label
 _atom_site_symmetry_multiplicity
 _atom_site_fract_x
 _atom_site_fract_y
 _atom_site_fract_z
 _atom_site_occupancy
  Np  Np0  1  0.500000  0.374528  0.150928  1
  Np  Np1  1  0.500000  0.625452  0.849150  1
  Np  Np2  1  0.500000  0.125487  0.650759  1
  Np  Np3  1  0.500000  0.874542  0.349186  1
  Mn  Mn4  1  0.500000  0.367959  0.411310  1
  Mn  Mn5  1  0.500000  0.632242  0.588545  1
  Mn  Mn6  1  0.500000  0.132026  0.911379  1
  Mn  Mn7  1  0.500000  0.867915  0.088745  1
  B  B8  1  0.000000  0.113168  0.045991  1
  B  B9  1  0.000000  0.886757  0.954070  1
  B  B10  1  0.000000  0.386791  0.545917  1
  B  B11  1  0.000000  0.613223  0.453999  1
  B  B12  1  0.000000  0.137142  0.466903  1
  B  B13  1  0.000000  0.862894  0.532988  1
  B  B14  1  0.000000  0.362907  0.966980  1
  B  B15  1  0.000000  0.637123  0.033060  1
  B  B16  1  0.000000  0.025815  0.190676  1
  B  B17  1  0.000000  0.974061  0.809396  1
  B  B18  1  0.000000  0.474121  0.690543  1
  B  B19  1  0.000000  0.525908  0.309422  1
  B  B20  1  0.000000  0.217863  0.314608  1
  B  B21  1  0.000000  0.782035  0.685399  1
  B  B22  1  0.000000  0.282122  0.814539  1
  B  B23  1  0.000000  0.717920  0.185509  1
