# generated using pymatgen
data_Ce2Ho2LuPb4
_symmetry_space_group_name_H-M   'P 1'
_cell_length_a   8.36944000
_cell_length_b   8.45956800
_cell_length_c   15.99107000
_cell_angle_alpha   90.00000000
_cell_angle_beta   90.00000000
_cell_angle_gamma   90.00000000
_symmetry_Int_Tables_number   1
_chemical_formula_structural   Ce2Ho2LuPb4
_chemical_formula_sum   'Ce8 Ho8 Lu4 Pb16'
_cell_volume   1132.19728834
_cell_formula_units_Z   4
loop_
 _symmetry_equiv_pos_site_id
 _symmetry_equiv_pos_as_xyz
  1  'x, y, z'
loop_
 _atom_site_type_symbol
 _atom_site_label
 _atom_site_symmetry_multiplicity
 _atom_site_fract_x
 _atom_site_fract_y
 _atom_site_fract_z
 _atom_site_occupancy
  Ce  Ce0  1  0.526958  0.321123  0.903339  1
  Ce  Ce1  1  0.026958  0.178877  0.596661  1
  Ce  Ce2  1  0.473042  0.678877  0.403339  1
  Ce  Ce3  1  0.973042  0.821123  0.096661  1
  Ce  Ce4  1  0.473042  0.678877  0.096661  1
  Ce  Ce5  1  0.973042  0.821123  0.403339  1
  Ce  Ce6  1  0.526958  0.321123  0.596661  1
  Ce  Ce7  1  0.026958  0.178877  0.903339  1
  Ho  Ho8  1  0.366363  0.843823  0.877946  1
  Ho  Ho9  1  0.866363  0.656177  0.622054  1
  Ho  Ho10  1  0.633637  0.156177  0.377946  1
  Ho  Ho11  1  0.133637  0.343823  0.122054  1
  Ho  Ho12  1  0.633637  0.156177  0.122054  1
  Ho  Ho13  1  0.133637  0.343823  0.377946  1
  Ho  Ho14  1  0.366363  0.843823  0.622054  1
  Ho  Ho15  1  0.866363  0.656177  0.877946  1
  Lu  Lu16  1  0.201768  0.505230  0.750000  1
  Lu  Lu17  1  0.701768  0.994770  0.750000  1
  Lu  Lu18  1  0.798232  0.494770  0.250000  1
  Lu  Lu19  1  0.298232  0.005230  0.250000  1
  Pb  Pb20  1  0.291172  0.038782  0.045314  1
  Pb  Pb21  1  0.791172  0.461218  0.454686  1
  Pb  Pb22  1  0.708828  0.961218  0.545314  1
  Pb  Pb23  1  0.208828  0.538782  0.954686  1
  Pb  Pb24  1  0.708828  0.961218  0.954686  1
  Pb  Pb25  1  0.208828  0.538782  0.545314  1
  Pb  Pb26  1  0.291172  0.038782  0.454686  1
  Pb  Pb27  1  0.791172  0.461218  0.045314  1
  Pb  Pb28  1  0.560968  0.630431  0.750000  1
  Pb  Pb29  1  0.060968  0.869569  0.750000  1
  Pb  Pb30  1  0.439032  0.369569  0.250000  1
  Pb  Pb31  1  0.939032  0.130431  0.250000  1
  Pb  Pb32  1  0.338887  0.151398  0.750000  1
  Pb  Pb33  1  0.838887  0.348602  0.750000  1
  Pb  Pb34  1  0.661113  0.848602  0.250000  1
  Pb  Pb35  1  0.161113  0.651398  0.250000  1
