# generated using pymatgen
data_Sr4Fe(RuO4)3
_symmetry_space_group_name_H-M   'P 1'
_cell_length_a   5.60278212
_cell_length_b   5.61954730
_cell_length_c   7.95046314
_cell_angle_alpha   90.02021302
_cell_angle_beta   89.78466234
_cell_angle_gamma   90.03160124
_symmetry_Int_Tables_number   1
_chemical_formula_structural   Sr4Fe(RuO4)3
_chemical_formula_sum   'Sr4 Fe1 Ru3 O12'
_cell_volume   250.31929876
_cell_formula_units_Z   1
loop_
 _symmetry_equiv_pos_site_id
 _symmetry_equiv_pos_as_xyz
  1  'x, y, z'
loop_
 _atom_site_type_symbol
 _atom_site_label
 _atom_site_symmetry_multiplicity
 _atom_site_fract_x
 _atom_site_fract_y
 _atom_site_fract_z
 _atom_site_occupancy
  Sr  Sr0  1  0.476536  0.497850  0.244240  1
  Sr  Sr1  1  0.974852  0.005056  0.244076  1
  Sr  Sr2  1  0.523464  0.502150  0.755760  1
  Sr  Sr3  1  0.025148  0.994944  0.755924  1
  Fe  Fe4  1  0.500000  0.000000  0.000000  1
  Ru  Ru5  1  0.000000  0.500000  0.500000  1
  Ru  Ru6  1  0.500000  0.000000  0.500000  1
  Ru  Ru7  1  0.000000  0.500000  0.000000  1
  O  O8  1  0.221470  0.226579  0.026501  1
  O  O9  1  0.718053  0.282075  0.468342  1
  O  O10  1  0.781736  0.781825  0.531757  1
  O  O11  1  0.274251  0.721110  0.972983  1
  O  O12  1  0.778530  0.773421  0.973499  1
  O  O13  1  0.281947  0.717925  0.531658  1
  O  O14  1  0.218264  0.218175  0.468243  1
  O  O15  1  0.725749  0.278890  0.027017  1
  O  O16  1  0.006765  0.560329  0.249399  1
  O  O17  1  0.505733  0.947249  0.251881  1
  O  O18  1  0.993235  0.439671  0.750601  1
  O  O19  1  0.494267  0.052751  0.748119  1
