# generated using pymatgen
data_Hf3GaRe2Si2Ru
_symmetry_space_group_name_H-M   'P 1'
_cell_length_a   7.03628845
_cell_length_b   7.02230882
_cell_length_c   3.37771200
_cell_angle_alpha   90.00000000
_cell_angle_beta   90.00000000
_cell_angle_gamma   120.20889129
_symmetry_Int_Tables_number   1
_chemical_formula_structural   Hf3GaRe2Si2Ru
_chemical_formula_sum   'Hf3 Ga1 Re2 Si2 Ru1'
_cell_volume   144.23106018
_cell_formula_units_Z   1
loop_
 _symmetry_equiv_pos_site_id
 _symmetry_equiv_pos_as_xyz
  1  'x, y, z'
loop_
 _atom_site_type_symbol
 _atom_site_label
 _atom_site_symmetry_multiplicity
 _atom_site_fract_x
 _atom_site_fract_y
 _atom_site_fract_z
 _atom_site_occupancy
  Hf  Hf0  1  0.393214  0.401553  0.500000  1
  Hf  Hf1  1  0.594234  0.995830  0.500000  1
  Hf  Hf2  1  0.012439  0.601436  0.500000  1
  Ga  Ga3  1  0.667051  0.336387  0.000000  1
  Re  Re4  1  0.250001  0.992680  0.000000  1
  Re  Re5  1  0.006553  0.256855  0.000000  1
  Si  Si6  1  0.335114  0.667351  0.000000  1
  Si  Si7  1  0.997918  0.997434  0.500000  1
  Ru  Ru8  1  0.743475  0.750475  0.000000  1
