# generated using pymatgen
data_Tm3Lu7AlSb5
_symmetry_space_group_name_H-M   'P 1'
_cell_length_a   8.77898418
_cell_length_b   8.76446645
_cell_length_c   6.23305500
_cell_angle_alpha   90.00000000
_cell_angle_beta   90.00000000
_cell_angle_gamma   120.13555072
_symmetry_Int_Tables_number   1
_chemical_formula_structural   Tm3Lu7AlSb5
_chemical_formula_sum   'Tm3 Lu7 Al1 Sb5'
_cell_volume   414.76921612
_cell_formula_units_Z   1
loop_
 _symmetry_equiv_pos_site_id
 _symmetry_equiv_pos_as_xyz
  1  'x, y, z'
loop_
 _atom_site_type_symbol
 _atom_site_label
 _atom_site_symmetry_multiplicity
 _atom_site_fract_x
 _atom_site_fract_y
 _atom_site_fract_z
 _atom_site_occupancy
  Tm  Tm0  1  0.755932  0.765950  0.250000  1
  Tm  Tm1  1  0.243234  0.242392  0.750000  1
  Tm  Tm2  1  0.000596  0.757477  0.750000  1
  Lu  Lu3  1  0.338629  0.673869  0.001862  1
  Lu  Lu4  1  0.664889  0.326147  0.497842  1
  Lu  Lu5  1  0.664889  0.326147  0.002158  1
  Lu  Lu6  1  0.338629  0.673869  0.498138  1
  Lu  Lu7  1  0.247136  0.000198  0.250000  1
  Lu  Lu8  1  0.759546  0.999828  0.750000  1
  Lu  Lu9  1  0.990053  0.234065  0.250000  1
  Al  Al10  1  0.602457  0.000132  0.250000  1
  Sb  Sb11  1  0.394312  0.000206  0.750000  1
  Sb  Sb12  1  0.998085  0.608121  0.250000  1
  Sb  Sb13  1  0.389215  0.391247  0.250000  1
  Sb  Sb14  1  0.609162  0.606423  0.750000  1
  Sb  Sb15  1  0.003235  0.393930  0.750000  1
