# generated using pymatgen
data_TbPr2PaRh4
_symmetry_space_group_name_H-M   'P 1'
_cell_length_a   4.49687600
_cell_length_b   5.56051408
_cell_length_c   7.04387500
_cell_angle_alpha   91.45306712
_cell_angle_beta   90.00000000
_cell_angle_gamma   90.00000000
_symmetry_Int_Tables_number   1
_chemical_formula_structural   TbPr2PaRh4
_chemical_formula_sum   'Tb1 Pr2 Pa1 Rh4'
_cell_volume   176.07504983
_cell_formula_units_Z   1
loop_
 _symmetry_equiv_pos_site_id
 _symmetry_equiv_pos_as_xyz
  1  'x, y, z'
loop_
 _atom_site_type_symbol
 _atom_site_label
 _atom_site_symmetry_multiplicity
 _atom_site_fract_x
 _atom_site_fract_y
 _atom_site_fract_z
 _atom_site_occupancy
  Tb  Tb0  1  0.750000  0.852786  0.821586  1
  Pr  Pr1  1  0.250000  0.138642  0.184688  1
  Pr  Pr2  1  0.750000  0.645559  0.317695  1
  Pa  Pa3  1  0.250000  0.366979  0.686062  1
  Rh  Rh4  1  0.250000  0.833385  0.568614  1
  Rh  Rh5  1  0.250000  0.640845  0.013484  1
  Rh  Rh6  1  0.750000  0.179842  0.497879  1
  Rh  Rh7  1  0.750000  0.341961  0.909992  1
