# generated using pymatgen
data_Ba4Ag4Ge2Te9
_symmetry_space_group_name_H-M   'P 1'
_cell_length_a   8.72640400
_cell_length_b   13.71968300
_cell_length_c   10.30802600
_cell_angle_alpha   90.00000000
_cell_angle_beta   90.00000000
_cell_angle_gamma   90.00000000
_symmetry_Int_Tables_number   1
_chemical_formula_structural   Ba4Ag4Ge2Te9
_chemical_formula_sum   'Ba8 Ag8 Ge4 Te18'
_cell_volume   1234.11291587
_cell_formula_units_Z   2
loop_
 _symmetry_equiv_pos_site_id
 _symmetry_equiv_pos_as_xyz
  1  'x, y, z'
loop_
 _atom_site_type_symbol
 _atom_site_label
 _atom_site_symmetry_multiplicity
 _atom_site_fract_x
 _atom_site_fract_y
 _atom_site_fract_z
 _atom_site_occupancy
  Ba  Ba0  1  0.880190  0.176475  0.239177  1
  Ba  Ba1  1  0.380189  0.323525  0.239177  1
  Ba  Ba2  1  0.619810  0.676475  0.239177  1
  Ba  Ba3  1  0.119810  0.823525  0.239177  1
  Ba  Ba4  1  0.880190  0.176475  0.760823  1
  Ba  Ba5  1  0.380189  0.323525  0.760823  1
  Ba  Ba6  1  0.619810  0.676475  0.760823  1
  Ba  Ba7  1  0.119810  0.823525  0.760823  1
  Ag  Ag8  1  0.264113  0.125714  0.000000  1
  Ag  Ag9  1  0.764114  0.374286  0.000000  1
  Ag  Ag10  1  0.235886  0.625715  0.000000  1
  Ag  Ag11  1  0.735886  0.874286  0.000000  1
  Ag  Ag12  1  0.500000  0.000000  0.141454  1
  Ag  Ag13  1  0.000000  0.500000  0.141454  1
  Ag  Ag14  1  0.500000  0.000000  0.858546  1
  Ag  Ag15  1  0.000000  0.500000  0.858546  1
  Ge  Ge16  1  0.417635  0.073770  0.500000  1
  Ge  Ge17  1  0.917634  0.426230  0.500000  1
  Ge  Ge18  1  0.082365  0.573770  0.500000  1
  Ge  Ge19  1  0.582366  0.926230  0.500000  1
  Te  Te20  1  0.000000  0.000000  0.000000  1
  Te  Te21  1  0.584003  0.186355  0.000000  1
  Te  Te22  1  0.084003  0.313645  0.000000  1
  Te  Te23  1  0.500000  0.500000  0.000000  1
  Te  Te24  1  0.915996  0.686355  0.000000  1
  Te  Te25  1  0.415996  0.813646  0.000000  1
  Te  Te26  1  0.248952  0.063347  0.288699  1
  Te  Te27  1  0.748952  0.436653  0.288699  1
  Te  Te28  1  0.251048  0.563346  0.288699  1
  Te  Te29  1  0.751048  0.936653  0.288699  1
  Te  Te30  1  0.601840  0.221856  0.500000  1
  Te  Te31  1  0.101840  0.278144  0.500000  1
  Te  Te32  1  0.898159  0.721856  0.500000  1
  Te  Te33  1  0.398159  0.778144  0.500000  1
  Te  Te34  1  0.248952  0.063347  0.711302  1
  Te  Te35  1  0.748952  0.436653  0.711302  1
  Te  Te36  1  0.251048  0.563346  0.711302  1
  Te  Te37  1  0.751048  0.936653  0.711302  1
