# generated using pymatgen
data_Y5Ho5Si5Pb
_symmetry_space_group_name_H-M   'P 1'
_cell_length_a   8.51340517
_cell_length_b   8.54353439
_cell_length_c   6.39252100
_cell_angle_alpha   90.00000000
_cell_angle_beta   90.00000000
_cell_angle_gamma   119.86040493
_symmetry_Int_Tables_number   1
_chemical_formula_structural   Y5Ho5Si5Pb
_chemical_formula_sum   'Y5 Ho5 Si5 Pb1'
_cell_volume   403.23001696
_cell_formula_units_Z   1
loop_
 _symmetry_equiv_pos_site_id
 _symmetry_equiv_pos_as_xyz
  1  'x, y, z'
loop_
 _atom_site_type_symbol
 _atom_site_label
 _atom_site_symmetry_multiplicity
 _atom_site_fract_x
 _atom_site_fract_y
 _atom_site_fract_z
 _atom_site_occupancy
  Y  Y0  1  0.987940  0.747654  0.750000  1
  Y  Y1  1  0.998765  0.242864  0.250000  1
  Y  Y2  1  0.755615  0.757026  0.250000  1
  Y  Y3  1  0.766637  0.000104  0.750000  1
  Y  Y4  1  0.240610  0.000198  0.250000  1
  Ho  Ho5  1  0.240432  0.252802  0.750000  1
  Ho  Ho6  1  0.331251  0.656405  0.496198  1
  Ho  Ho7  1  0.674659  0.343399  0.003858  1
  Ho  Ho8  1  0.674659  0.343399  0.496142  1
  Ho  Ho9  1  0.331251  0.656405  0.003802  1
  Si  Si10  1  0.393918  0.392532  0.250000  1
  Si  Si11  1  0.001352  0.607443  0.250000  1
  Si  Si12  1  0.998773  0.394601  0.750000  1
  Si  Si13  1  0.603383  0.604911  0.750000  1
  Si  Si14  1  0.605643  0.999970  0.250000  1
  Pb  Pb15  1  0.395113  0.000288  0.750000  1
