# generated using pymatgen
data_Dy5Cr3(P3Ir4)4
_symmetry_space_group_name_H-M   'P 1'
_cell_length_a   12.63397900
_cell_length_b   12.63397895
_cell_length_c   3.95786800
_cell_angle_alpha   90.00000000
_cell_angle_beta   90.00000000
_cell_angle_gamma   119.99999750
_symmetry_Int_Tables_number   1
_chemical_formula_structural   Dy5Cr3(P3Ir4)4
_chemical_formula_sum   'Dy5 Cr3 P12 Ir16'
_cell_volume   547.10697077
_cell_formula_units_Z   1
loop_
 _symmetry_equiv_pos_site_id
 _symmetry_equiv_pos_as_xyz
  1  'x, y, z'
loop_
 _atom_site_type_symbol
 _atom_site_label
 _atom_site_symmetry_multiplicity
 _atom_site_fract_x
 _atom_site_fract_y
 _atom_site_fract_z
 _atom_site_occupancy
  Dy  Dy0  1  0.333333  0.666667  0.500000  1
  Dy  Dy1  1  0.666667  0.333333  0.500000  1
  Dy  Dy2  1  0.000000  0.810658  0.000000  1
  Dy  Dy3  1  0.189342  0.189342  0.000000  1
  Dy  Dy4  1  0.810658  0.000000  0.000000  1
  Cr  Cr5  1  0.000000  0.453430  0.500000  1
  Cr  Cr6  1  0.546570  0.546570  0.500000  1
  Cr  Cr7  1  0.453430  0.000000  0.500000  1
  P  P8  1  0.000000  0.632231  0.500000  1
  P  P9  1  0.367769  0.367769  0.500000  1
  P  P10  1  0.632231  0.000000  0.500000  1
  P  P11  1  0.516258  0.684131  0.000000  1
  P  P12  1  0.315869  0.832127  0.000000  1
  P  P13  1  0.167873  0.483742  0.000000  1
  P  P14  1  0.483742  0.167873  0.000000  1
  P  P15  1  0.684131  0.516258  0.000000  1
  P  P16  1  0.832127  0.315869  0.000000  1
  P  P17  1  0.000000  0.177721  0.500000  1
  P  P18  1  0.822279  0.822279  0.500000  1
  P  P19  1  0.177721  0.000000  0.500000  1
  Ir  Ir20  1  0.509367  0.868563  0.000000  1
  Ir  Ir21  1  0.131437  0.640805  0.000000  1
  Ir  Ir22  1  0.359195  0.490633  0.000000  1
  Ir  Ir23  1  0.490633  0.359195  0.000000  1
  Ir  Ir24  1  0.868563  0.509367  0.000000  1
  Ir  Ir25  1  0.640805  0.131437  0.000000  1
  Ir  Ir26  1  0.000000  0.287319  0.000000  1
  Ir  Ir27  1  0.712681  0.712681  0.000000  1
  Ir  Ir28  1  0.287319  0.000000  0.000000  1
  Ir  Ir29  1  0.623714  0.802629  0.500000  1
  Ir  Ir30  1  0.197371  0.821085  0.500000  1
  Ir  Ir31  1  0.178915  0.376286  0.500000  1
  Ir  Ir32  1  0.376286  0.178915  0.500000  1
  Ir  Ir33  1  0.802629  0.623714  0.500000  1
  Ir  Ir34  1  0.821085  0.197371  0.500000  1
  Ir  Ir35  1  0.000000  0.000000  0.500000  1
