# generated using pymatgen
data_Ho10CdNiHg2
_symmetry_space_group_name_H-M   'P 1'
_cell_length_a   9.58640423
_cell_length_b   9.58640329
_cell_length_c   9.59293800
_cell_angle_alpha   90.00000000
_cell_angle_beta   90.00000000
_cell_angle_gamma   119.92178014
_symmetry_Int_Tables_number   1
_chemical_formula_structural   Ho10CdNiHg2
_chemical_formula_sum   'Ho20 Cd2 Ni2 Hg4'
_cell_volume   764.07408922
_cell_formula_units_Z   2
loop_
 _symmetry_equiv_pos_site_id
 _symmetry_equiv_pos_as_xyz
  1  'x, y, z'
loop_
 _atom_site_type_symbol
 _atom_site_label
 _atom_site_symmetry_multiplicity
 _atom_site_fract_x
 _atom_site_fract_y
 _atom_site_fract_z
 _atom_site_occupancy
  Ho  Ho0  1  0.001388  0.998612  0.492974  1
  Ho  Ho1  1  0.001388  0.998612  0.007026  1
  Ho  Ho2  1  0.543158  0.456842  0.250000  1
  Ho  Ho3  1  0.543310  0.086358  0.250000  1
  Ho  Ho4  1  0.913642  0.456690  0.250000  1
  Ho  Ho5  1  0.456321  0.543679  0.750000  1
  Ho  Ho6  1  0.454004  0.913649  0.750000  1
  Ho  Ho7  1  0.086351  0.545996  0.750000  1
  Ho  Ho8  1  0.210252  0.789748  0.435502  1
  Ho  Ho9  1  0.209935  0.420105  0.436542  1
  Ho  Ho10  1  0.579895  0.790065  0.436542  1
  Ho  Ho11  1  0.789929  0.210071  0.563365  1
  Ho  Ho12  1  0.789005  0.579344  0.563254  1
  Ho  Ho13  1  0.420656  0.210995  0.563254  1
  Ho  Ho14  1  0.789929  0.210071  0.936635  1
  Ho  Ho15  1  0.789005  0.579344  0.936746  1
  Ho  Ho16  1  0.420656  0.210995  0.936746  1
  Ho  Ho17  1  0.210252  0.789748  0.064498  1
  Ho  Ho18  1  0.209935  0.420105  0.063458  1
  Ho  Ho19  1  0.579895  0.790065  0.063458  1
  Cd  Cd20  1  0.114823  0.231008  0.750000  1
  Cd  Cd21  1  0.768992  0.885177  0.750000  1
  Ni  Ni22  1  0.333079  0.666921  0.250000  1
  Ni  Ni23  1  0.666546  0.333454  0.750000  1
  Hg  Hg24  1  0.878445  0.121555  0.250000  1
  Hg  Hg25  1  0.878592  0.756341  0.250000  1
  Hg  Hg26  1  0.243659  0.121408  0.250000  1
  Hg  Hg27  1  0.116958  0.883042  0.750000  1
