# generated using pymatgen
data_Zr2Mn7(FeP2)3
_symmetry_space_group_name_H-M   'P 1'
_cell_length_a   3.59847200
_cell_length_b   10.29365800
_cell_length_c   11.96592300
_cell_angle_alpha   90.00000000
_cell_angle_beta   90.00000000
_cell_angle_gamma   90.00000000
_symmetry_Int_Tables_number   1
_chemical_formula_structural   Zr2Mn7(FeP2)3
_chemical_formula_sum   'Zr4 Mn14 Fe6 P12'
_cell_volume   443.23501993
_cell_formula_units_Z   2
loop_
 _symmetry_equiv_pos_site_id
 _symmetry_equiv_pos_as_xyz
  1  'x, y, z'
loop_
 _atom_site_type_symbol
 _atom_site_label
 _atom_site_symmetry_multiplicity
 _atom_site_fract_x
 _atom_site_fract_y
 _atom_site_fract_z
 _atom_site_occupancy
  Zr  Zr0  1  0.250000  0.578763  0.707910  1
  Zr  Zr1  1  0.250000  0.921237  0.207910  1
  Zr  Zr2  1  0.750000  0.418012  0.292375  1
  Zr  Zr3  1  0.750000  0.081988  0.792375  1
  Mn  Mn4  1  0.250000  0.710733  0.990469  1
  Mn  Mn5  1  0.250000  0.789267  0.490469  1
  Mn  Mn6  1  0.750000  0.292372  0.010545  1
  Mn  Mn7  1  0.750000  0.207628  0.510545  1
  Mn  Mn8  1  0.250000  0.404102  0.493085  1
  Mn  Mn9  1  0.250000  0.095898  0.993085  1
  Mn  Mn10  1  0.750000  0.589163  0.507144  1
  Mn  Mn11  1  0.750000  0.910837  0.007144  1
  Mn  Mn12  1  0.250000  0.221020  0.173239  1
  Mn  Mn13  1  0.250000  0.278980  0.673239  1
  Mn  Mn14  1  0.750000  0.778919  0.825025  1
  Mn  Mn15  1  0.750000  0.721081  0.325025  1
  Mn  Mn16  1  0.250000  0.872365  0.701260  1
  Mn  Mn17  1  0.250000  0.627635  0.201260  1
  Fe  Fe18  1  0.750000  0.125766  0.299419  1
  Fe  Fe19  1  0.750000  0.374234  0.799419  1
  Fe  Fe20  1  0.250000  0.463670  0.931974  1
  Fe  Fe21  1  0.250000  0.036330  0.431974  1
  Fe  Fe22  1  0.750000  0.538866  0.068621  1
  Fe  Fe23  1  0.750000  0.961134  0.568621  1
  P  P24  1  0.250000  0.426122  0.113858  1
  P  P25  1  0.250000  0.073878  0.613858  1
  P  P26  1  0.750000  0.572633  0.885709  1
  P  P27  1  0.750000  0.927367  0.385709  1
  P  P28  1  0.250000  0.265430  0.866827  1
  P  P29  1  0.250000  0.234570  0.366827  1
  P  P30  1  0.750000  0.741485  0.129309  1
  P  P31  1  0.750000  0.758515  0.629309  1
  P  P32  1  0.250000  0.591031  0.388218  1
  P  P33  1  0.250000  0.908969  0.888218  1
  P  P34  1  0.750000  0.406253  0.615013  1
  P  P35  1  0.750000  0.093747  0.115013  1
