# generated using pymatgen
data_K2Al3Ga3Te10
_symmetry_space_group_name_H-M   'P 1'
_cell_length_a   10.89071886
_cell_length_b   10.89071692
_cell_length_c   10.89071939
_cell_angle_alpha   90.69977853
_cell_angle_beta   90.69977881
_cell_angle_gamma   90.69978175
_symmetry_Int_Tables_number   1
_chemical_formula_structural   K2Al3Ga3Te10
_chemical_formula_sum   'K4 Al6 Ga6 Te20'
_cell_volume   1291.43217365
_cell_formula_units_Z   2
loop_
 _symmetry_equiv_pos_site_id
 _symmetry_equiv_pos_as_xyz
  1  'x, y, z'
loop_
 _atom_site_type_symbol
 _atom_site_label
 _atom_site_symmetry_multiplicity
 _atom_site_fract_x
 _atom_site_fract_y
 _atom_site_fract_z
 _atom_site_occupancy
  K  K0  1  0.253711  0.000000  0.746289  1
  K  K1  1  0.746289  0.253711  0.000000  1
  K  K2  1  0.000000  0.746289  0.253711  1
  K  K3  1  0.500000  0.500000  0.500000  1
  Al  Al4  1  0.741842  0.158988  0.352702  1
  Al  Al5  1  0.352702  0.741842  0.158988  1
  Al  Al6  1  0.158988  0.352702  0.741842  1
  Al  Al7  1  0.258158  0.647298  0.841012  1
  Al  Al8  1  0.841012  0.258158  0.647298  1
  Al  Al9  1  0.647298  0.841012  0.258158  1
  Ga  Ga10  1  0.833823  0.886038  0.574853  1
  Ga  Ga11  1  0.574853  0.833823  0.886038  1
  Ga  Ga12  1  0.886038  0.574853  0.833823  1
  Ga  Ga13  1  0.166177  0.425147  0.113962  1
  Ga  Ga14  1  0.113962  0.166177  0.425147  1
  Ga  Ga15  1  0.425147  0.113962  0.166177  1
  Te  Te16  1  0.187837  0.812163  0.000000  1
  Te  Te17  1  0.812163  0.000000  0.187837  1
  Te  Te18  1  0.178959  0.178959  0.178959  1
  Te  Te19  1  0.821041  0.821041  0.821041  1
  Te  Te20  1  0.000000  0.187837  0.812163  1
  Te  Te21  1  0.936136  0.500000  0.063864  1
  Te  Te22  1  0.063864  0.936136  0.500000  1
  Te  Te23  1  0.500000  0.063864  0.936136  1
  Te  Te24  1  0.737555  0.707418  0.434744  1
  Te  Te25  1  0.434744  0.737555  0.707418  1
  Te  Te26  1  0.707418  0.434744  0.737555  1
  Te  Te27  1  0.262445  0.565256  0.292582  1
  Te  Te28  1  0.292582  0.262445  0.565256  1
  Te  Te29  1  0.565256  0.292582  0.262445  1
  Te  Te30  1  0.680410  0.078292  0.577885  1
  Te  Te31  1  0.577885  0.680410  0.078292  1
  Te  Te32  1  0.078292  0.577885  0.680410  1
  Te  Te33  1  0.319590  0.422115  0.921708  1
  Te  Te34  1  0.921708  0.319590  0.422115  1
  Te  Te35  1  0.422115  0.921708  0.319590  1
