# generated using pymatgen
data_Nd5Mo3(P3Ir4)4
_symmetry_space_group_name_H-M   'P 1'
_cell_length_a   12.76593400
_cell_length_b   12.76593387
_cell_length_c   4.02768300
_cell_angle_alpha   90.00000000
_cell_angle_beta   90.00000000
_cell_angle_gamma   120.00000033
_symmetry_Int_Tables_number   1
_chemical_formula_structural   Nd5Mo3(P3Ir4)4
_chemical_formula_sum   'Nd5 Mo3 P12 Ir16'
_cell_volume   568.44846418
_cell_formula_units_Z   1
loop_
 _symmetry_equiv_pos_site_id
 _symmetry_equiv_pos_as_xyz
  1  'x, y, z'
loop_
 _atom_site_type_symbol
 _atom_site_label
 _atom_site_symmetry_multiplicity
 _atom_site_fract_x
 _atom_site_fract_y
 _atom_site_fract_z
 _atom_site_occupancy
  Nd  Nd0  1  0.333333  0.666667  0.500000  1
  Nd  Nd1  1  0.666667  0.333333  0.500000  1
  Nd  Nd2  1  0.000000  0.812508  0.000000  1
  Nd  Nd3  1  0.187492  0.187492  0.000000  1
  Nd  Nd4  1  0.812508  0.000000  0.000000  1
  Mo  Mo5  1  0.000000  0.452918  0.500000  1
  Mo  Mo6  1  0.547082  0.547082  0.500000  1
  Mo  Mo7  1  0.452918  0.000000  0.500000  1
  P  P8  1  0.000000  0.636218  0.500000  1
  P  P9  1  0.363782  0.363782  0.500000  1
  P  P10  1  0.636218  0.000000  0.500000  1
  P  P11  1  0.517263  0.684640  0.000000  1
  P  P12  1  0.315360  0.832623  0.000000  1
  P  P13  1  0.167377  0.482737  0.000000  1
  P  P14  1  0.482737  0.167377  0.000000  1
  P  P15  1  0.684640  0.517263  0.000000  1
  P  P16  1  0.832623  0.315360  0.000000  1
  P  P17  1  0.000000  0.178378  0.500000  1
  P  P18  1  0.821622  0.821622  0.500000  1
  P  P19  1  0.178378  0.000000  0.500000  1
  Ir  Ir20  1  0.510203  0.868536  0.000000  1
  Ir  Ir21  1  0.131464  0.641668  0.000000  1
  Ir  Ir22  1  0.358332  0.489797  0.000000  1
  Ir  Ir23  1  0.489797  0.358332  0.000000  1
  Ir  Ir24  1  0.868536  0.510203  0.000000  1
  Ir  Ir25  1  0.641668  0.131464  0.000000  1
  Ir  Ir26  1  0.000000  0.287692  0.000000  1
  Ir  Ir27  1  0.712308  0.712308  0.000000  1
  Ir  Ir28  1  0.287692  0.000000  0.000000  1
  Ir  Ir29  1  0.623626  0.801769  0.500000  1
  Ir  Ir30  1  0.198231  0.821857  0.500000  1
  Ir  Ir31  1  0.178143  0.376374  0.500000  1
  Ir  Ir32  1  0.376374  0.178143  0.500000  1
  Ir  Ir33  1  0.801769  0.623626  0.500000  1
  Ir  Ir34  1  0.821857  0.198231  0.500000  1
  Ir  Ir35  1  0.000000  0.000000  0.500000  1
