# generated using pymatgen
data_Y4HoEr3(OsC2)4
_symmetry_space_group_name_H-M   'P 1'
_cell_length_a   5.12039100
_cell_length_b   6.45438130
_cell_length_c   9.75016446
_cell_angle_alpha   89.96492095
_cell_angle_beta   90.00000000
_cell_angle_gamma   90.00000000
_symmetry_Int_Tables_number   1
_chemical_formula_structural   Y4HoEr3(OsC2)4
_chemical_formula_sum   'Y4 Ho1 Er3 Os4 C8'
_cell_volume   322.23269507
_cell_formula_units_Z   1
loop_
 _symmetry_equiv_pos_site_id
 _symmetry_equiv_pos_as_xyz
  1  'x, y, z'
loop_
 _atom_site_type_symbol
 _atom_site_label
 _atom_site_symmetry_multiplicity
 _atom_site_fract_x
 _atom_site_fract_y
 _atom_site_fract_z
 _atom_site_occupancy
  Y  Y0  1  0.250000  0.527374  0.217667  1
  Y  Y1  1  0.750000  0.472403  0.782239  1
  Y  Y2  1  0.750000  0.972528  0.717935  1
  Y  Y3  1  0.250000  0.027653  0.282086  1
  Ho  Ho4  1  0.250000  0.681597  0.552935  1
  Er  Er5  1  0.750000  0.319186  0.446598  1
  Er  Er6  1  0.750000  0.819296  0.053444  1
  Er  Er7  1  0.250000  0.180791  0.946674  1
  Os  Os8  1  0.250000  0.725408  0.865813  1
  Os  Os9  1  0.750000  0.274473  0.134237  1
  Os  Os10  1  0.750000  0.774362  0.365475  1
  Os  Os11  1  0.250000  0.225650  0.634375  1
  C  C12  1  0.250000  0.460346  0.758722  1
  C  C13  1  0.750000  0.539351  0.241492  1
  C  C14  1  0.750000  0.039397  0.258500  1
  C  C15  1  0.250000  0.960808  0.741923  1
  C  C16  1  0.250000  0.828422  0.053200  1
  C  C17  1  0.750000  0.171609  0.946875  1
  C  C18  1  0.750000  0.671675  0.553037  1
  C  C19  1  0.250000  0.327672  0.446773  1
