# generated using pymatgen
data_Eu(TcC)4
_symmetry_space_group_name_H-M   'P 1'
_cell_length_a   6.06130280
_cell_length_b   6.06130547
_cell_length_c   6.05843375
_cell_angle_alpha   94.60166566
_cell_angle_beta   94.59897909
_cell_angle_gamma   147.10488091
_symmetry_Int_Tables_number   1
_chemical_formula_structural   Eu(TcC)4
_chemical_formula_sum   'Eu1 Tc4 C4'
_cell_volume   115.93415658
_cell_formula_units_Z   1
loop_
 _symmetry_equiv_pos_site_id
 _symmetry_equiv_pos_as_xyz
  1  'x, y, z'
loop_
 _atom_site_type_symbol
 _atom_site_label
 _atom_site_symmetry_multiplicity
 _atom_site_fract_x
 _atom_site_fract_y
 _atom_site_fract_z
 _atom_site_occupancy
  Eu  Eu0  1  0.000000  0.000000  0.000000  1
  Tc  Tc1  1  0.818835  0.364085  0.182919  1
  Tc  Tc2  1  0.635988  0.818774  0.454761  1
  Tc  Tc3  1  0.364013  0.181227  0.545240  1
  Tc  Tc4  1  0.181166  0.635916  0.817081  1
  C  C5  1  0.400650  0.753164  0.153813  1
  C  C6  1  0.753060  0.599328  0.352388  1
  C  C7  1  0.246941  0.400673  0.647613  1
  C  C8  1  0.599351  0.246837  0.846188  1
