# generated using pymatgen
data_Tb9Lu3TlGa(NiOs)2
_symmetry_space_group_name_H-M   'P 1'
_cell_length_a   8.33539742
_cell_length_b   8.34578502
_cell_length_c   8.33539800
_cell_angle_alpha   113.00379625
_cell_angle_beta   110.26279852
_cell_angle_gamma   105.19277479
_symmetry_Int_Tables_number   1
_chemical_formula_structural   Tb9Lu3TlGa(NiOs)2
_chemical_formula_sum   'Tb9 Lu3 Tl1 Ga1 Ni2 Os2'
_cell_volume   444.53512229
_cell_formula_units_Z   1
loop_
 _symmetry_equiv_pos_site_id
 _symmetry_equiv_pos_as_xyz
  1  'x, y, z'
loop_
 _atom_site_type_symbol
 _atom_site_label
 _atom_site_symmetry_multiplicity
 _atom_site_fract_x
 _atom_site_fract_y
 _atom_site_fract_z
 _atom_site_occupancy
  Tb  Tb0  1  0.436055  0.239594  0.194194  1
  Tb  Tb1  1  0.567024  0.760995  0.808587  1
  Tb  Tb2  1  0.045400  0.239594  0.803539  1
  Tb  Tb3  1  0.952407  0.760995  0.193970  1
  Tb  Tb4  1  0.180285  0.278124  0.459014  1
  Tb  Tb5  1  0.822079  0.723573  0.543885  1
  Tb  Tb6  1  0.179689  0.723573  0.901495  1
  Tb  Tb7  1  0.819110  0.278124  0.097838  1
  Tb  Tb8  1  0.329368  0.643436  0.314068  1
  Lu  Lu9  1  0.668829  0.351199  0.682369  1
  Lu  Lu10  1  0.330868  0.012977  0.682110  1
  Lu  Lu11  1  0.669466  0.987805  0.318339  1
  Tl  Tl12  1  0.500274  0.498095  0.997821  1
  Ga  Ga13  1  0.001400  0.002343  0.000943  1
  Ni  Ni14  1  0.116366  0.617049  0.500682  1
  Ni  Ni15  1  0.880360  0.379737  0.499377  1
  Os  Os16  1  0.331413  0.001394  0.331788  1
  Os  Os17  1  0.669607  0.001394  0.669981  1
