# generated using pymatgen
data_Y2Al3(Ga2Ir)3
_symmetry_space_group_name_H-M   'P 1'
_cell_length_a   7.56372011
_cell_length_b   7.56170251
_cell_length_c   9.54008903
_cell_angle_alpha   90.16232370
_cell_angle_beta   89.92986510
_cell_angle_gamma   119.71921037
_symmetry_Int_Tables_number   1
_chemical_formula_structural   Y2Al3(Ga2Ir)3
_chemical_formula_sum   'Y4 Al6 Ga12 Ir6'
_cell_volume   473.86889984
_cell_formula_units_Z   2
loop_
 _symmetry_equiv_pos_site_id
 _symmetry_equiv_pos_as_xyz
  1  'x, y, z'
loop_
 _atom_site_type_symbol
 _atom_site_label
 _atom_site_symmetry_multiplicity
 _atom_site_fract_x
 _atom_site_fract_y
 _atom_site_fract_z
 _atom_site_occupancy
  Y  Y0  1  0.998593  0.667106  0.251026  1
  Y  Y1  1  0.001407  0.332894  0.748974  1
  Y  Y2  1  0.671469  0.000328  0.254404  1
  Y  Y3  1  0.328531  0.999672  0.745596  1
  Al  Al4  1  0.664323  0.997671  0.928423  1
  Al  Al5  1  0.335677  0.002329  0.071577  1
  Al  Al6  1  0.332688  0.332685  0.553464  1
  Al  Al7  1  0.667312  0.667315  0.446536  1
  Al  Al8  1  0.667807  0.667246  0.054785  1
  Al  Al9  1  0.332193  0.332754  0.945215  1
  Ga  Ga10  1  0.128838  0.125661  0.249327  1
  Ga  Ga11  1  0.871162  0.874339  0.750673  1
  Ga  Ga12  1  0.998883  0.333383  0.077700  1
  Ga  Ga13  1  0.001117  0.666617  0.922300  1
  Ga  Ga14  1  0.998153  0.664699  0.579228  1
  Ga  Ga15  1  0.334983  0.000128  0.418705  1
  Ga  Ga16  1  0.001847  0.335301  0.420772  1
  Ga  Ga17  1  0.665017  0.999872  0.581295  1
  Ga  Ga18  1  0.344526  0.549613  0.249865  1
  Ga  Ga19  1  0.655474  0.450387  0.750135  1
  Ga  Ga20  1  0.547413  0.343235  0.249072  1
  Ga  Ga21  1  0.452587  0.656765  0.750928  1
  Ir  Ir22  1  0.667228  0.325955  0.999209  1
  Ir  Ir23  1  0.332772  0.674045  0.000791  1
  Ir  Ir24  1  0.330493  0.669403  0.500687  1
  Ir  Ir25  1  0.669507  0.330597  0.499313  1
  Ir  Ir26  1  0.000000  0.000000  0.000000  1
  Ir  Ir27  1  0.000000  0.000000  0.500000  1
