# generated using pymatgen
data_Nb6Fe16Si6Ge
_symmetry_space_group_name_H-M   'P 1'
_cell_length_a   7.99132283
_cell_length_b   7.99188925
_cell_length_c   7.99220682
_cell_angle_alpha   59.98137476
_cell_angle_beta   59.97514444
_cell_angle_gamma   59.97866256
_symmetry_Int_Tables_number   1
_chemical_formula_structural   Nb6Fe16Si6Ge
_chemical_formula_sum   'Nb6 Fe16 Si6 Ge1'
_cell_volume   360.75056461
_cell_formula_units_Z   1
loop_
 _symmetry_equiv_pos_site_id
 _symmetry_equiv_pos_as_xyz
  1  'x, y, z'
loop_
 _atom_site_type_symbol
 _atom_site_label
 _atom_site_symmetry_multiplicity
 _atom_site_fract_x
 _atom_site_fract_y
 _atom_site_fract_z
 _atom_site_occupancy
  Nb  Nb0  1  0.200160  0.799849  0.799828  1
  Nb  Nb1  1  0.799758  0.799698  0.200318  1
  Nb  Nb2  1  0.799840  0.200151  0.200172  1
  Nb  Nb3  1  0.200242  0.200302  0.799682  1
  Nb  Nb4  1  0.799862  0.200234  0.799728  1
  Nb  Nb5  1  0.200138  0.799766  0.200272  1
  Fe  Fe6  1  0.621201  0.621147  0.136410  1
  Fe  Fe7  1  0.170897  0.487268  0.170922  1
  Fe  Fe8  1  0.863634  0.378756  0.378726  1
  Fe  Fe9  1  0.512632  0.829134  0.829131  1
  Fe  Fe10  1  0.487368  0.170866  0.170869  1
  Fe  Fe11  1  0.828993  0.828974  0.512995  1
  Fe  Fe12  1  0.171007  0.171026  0.487005  1
  Fe  Fe13  1  0.136366  0.621244  0.621274  1
  Fe  Fe14  1  0.170948  0.170931  0.170879  1
  Fe  Fe15  1  0.378799  0.378853  0.863590  1
  Fe  Fe16  1  0.621109  0.621160  0.621301  1
  Fe  Fe17  1  0.378747  0.863644  0.378786  1
  Fe  Fe18  1  0.378891  0.378840  0.378699  1
  Fe  Fe19  1  0.829052  0.829069  0.829121  1
  Fe  Fe20  1  0.621253  0.136356  0.621214  1
  Fe  Fe21  1  0.829103  0.512732  0.829078  1
  Si  Si22  1  0.500000  0.000000  0.500000  1
  Si  Si23  1  0.500000  0.500000  0.000000  1
  Si  Si24  1  0.000000  0.000000  0.500000  1
  Si  Si25  1  0.000000  0.500000  0.000000  1
  Si  Si26  1  0.000000  0.500000  0.500000  1
  Si  Si27  1  0.500000  0.000000  0.000000  1
  Ge  Ge28  1  0.500000  0.500000  0.500000  1
