# generated using pymatgen
data_VTe29
_symmetry_space_group_name_H-M   'P 1'
_cell_length_a   8.30994945
_cell_length_b   10.76236702
_cell_length_c   12.86810300
_cell_angle_alpha   74.19574500
_cell_angle_beta   80.54155211
_cell_angle_gamma   67.43565373
_symmetry_Int_Tables_number   1
_chemical_formula_structural   VTe29
_chemical_formula_sum   'V1 Te29'
_cell_volume   1020.26131597
_cell_formula_units_Z   1
loop_
 _symmetry_equiv_pos_site_id
 _symmetry_equiv_pos_as_xyz
  1  'x, y, z'
loop_
 _atom_site_type_symbol
 _atom_site_label
 _atom_site_symmetry_multiplicity
 _atom_site_fract_x
 _atom_site_fract_y
 _atom_site_fract_z
 _atom_site_occupancy
  V  V0  1  0.000000  0.000000  0.000000  1
  Te  Te1  1  0.500000  0.000000  0.000000  1
  Te  Te2  1  0.100214  0.199288  0.199181  1
  Te  Te3  1  0.699755  0.400953  0.399216  1
  Te  Te4  1  0.300245  0.599047  0.600784  1
  Te  Te5  1  0.601084  0.198637  0.200003  1
  Te  Te6  1  0.899786  0.800712  0.800819  1
  Te  Te7  1  0.200635  0.399267  0.399960  1
  Te  Te8  1  0.799365  0.600733  0.600040  1
  Te  Te9  1  0.398916  0.801363  0.799997  1
  Te  Te10  1  0.222834  0.086643  0.842752  1
  Te  Te11  1  0.652682  0.703314  0.976076  1
  Te  Te12  1  0.861817  0.266592  0.023063  1
  Te  Te13  1  0.229347  0.912946  0.157533  1
  Te  Te14  1  0.446957  0.496129  0.223792  1
  Te  Te15  1  0.770653  0.087054  0.842467  1
  Te  Te16  1  0.854528  0.101630  0.376386  1
  Te  Te17  1  0.138183  0.733408  0.976937  1
  Te  Te18  1  0.047531  0.696117  0.423422  1
  Te  Te19  1  0.347318  0.296686  0.023924  1
  Te  Te20  1  0.777166  0.913357  0.157248  1
  Te  Te21  1  0.453952  0.304032  0.575183  1
  Te  Te22  1  0.644943  0.899253  0.623274  1
  Te  Te23  1  0.947119  0.496418  0.223216  1
  Te  Te24  1  0.052881  0.503582  0.776784  1
  Te  Te25  1  0.355057  0.100747  0.376726  1
  Te  Te26  1  0.546048  0.695968  0.424817  1
  Te  Te27  1  0.952469  0.303883  0.576578  1
  Te  Te28  1  0.145472  0.898370  0.623614  1
  Te  Te29  1  0.553043  0.503871  0.776208  1
