# generated using pymatgen
data_Be2V3RhC
_symmetry_space_group_name_H-M   'P 1'
_cell_length_a   7.56502216
_cell_length_b   7.56502190
_cell_length_c   7.56502200
_cell_angle_alpha   60.00000832
_cell_angle_beta   60.00000947
_cell_angle_gamma   60.00000516
_symmetry_Int_Tables_number   1
_chemical_formula_structural   Be2V3RhC
_chemical_formula_sum   'Be8 V12 Rh4 C4'
_cell_volume   306.13689101
_cell_formula_units_Z   4
loop_
 _symmetry_equiv_pos_site_id
 _symmetry_equiv_pos_as_xyz
  1  'x, y, z'
loop_
 _atom_site_type_symbol
 _atom_site_label
 _atom_site_symmetry_multiplicity
 _atom_site_fract_x
 _atom_site_fract_y
 _atom_site_fract_z
 _atom_site_occupancy
  Be  Be0  1  0.751031  0.416323  0.416323  1
  Be  Be1  1  0.416323  0.751031  0.416323  1
  Be  Be2  1  0.416323  0.416323  0.751031  1
  Be  Be3  1  0.416323  0.416323  0.416323  1
  Be  Be4  1  0.498969  0.833677  0.833677  1
  Be  Be5  1  0.833677  0.498969  0.833677  1
  Be  Be6  1  0.833677  0.833677  0.498969  1
  Be  Be7  1  0.833677  0.833677  0.833677  1
  V  V8  1  0.810381  0.810381  0.189619  1
  V  V9  1  0.189619  0.189619  0.810381  1
  V  V10  1  0.810381  0.189619  0.810381  1
  V  V11  1  0.189619  0.810381  0.189619  1
  V  V12  1  0.189619  0.810381  0.810381  1
  V  V13  1  0.810381  0.189619  0.189619  1
  V  V14  1  0.439619  0.439619  0.060381  1
  V  V15  1  0.060381  0.060381  0.439619  1
  V  V16  1  0.439619  0.060381  0.439619  1
  V  V17  1  0.060381  0.439619  0.060381  1
  V  V18  1  0.060381  0.439619  0.439619  1
  V  V19  1  0.439619  0.060381  0.060381  1
  Rh  Rh20  1  0.125000  0.625000  0.625000  1
  Rh  Rh21  1  0.625000  0.125000  0.625000  1
  Rh  Rh22  1  0.625000  0.625000  0.125000  1
  Rh  Rh23  1  0.625000  0.625000  0.625000  1
  C  C24  1  0.625000  0.125000  0.125000  1
  C  C25  1  0.125000  0.625000  0.125000  1
  C  C26  1  0.125000  0.125000  0.625000  1
  C  C27  1  0.125000  0.125000  0.125000  1
