# generated using pymatgen
data_Ho2Sc2CrB12Ru
_symmetry_space_group_name_H-M   'P 1'
_cell_length_a   3.50355400
_cell_length_b   8.98025500
_cell_length_c   11.35340426
_cell_angle_alpha   89.98536045
_cell_angle_beta   90.00000000
_cell_angle_gamma   90.00000000
_symmetry_Int_Tables_number   1
_chemical_formula_structural   Ho2Sc2CrB12Ru
_chemical_formula_sum   'Ho4 Sc4 Cr2 B24 Ru2'
_cell_volume   357.20997050
_cell_formula_units_Z   2
loop_
 _symmetry_equiv_pos_site_id
 _symmetry_equiv_pos_as_xyz
  1  'x, y, z'
loop_
 _atom_site_type_symbol
 _atom_site_label
 _atom_site_symmetry_multiplicity
 _atom_site_fract_x
 _atom_site_fract_y
 _atom_site_fract_z
 _atom_site_occupancy
  Ho  Ho0  1  0.000000  0.819745  0.086575  1
  Ho  Ho1  1  0.000000  0.180255  0.913425  1
  Ho  Ho2  1  0.000000  0.322575  0.414702  1
  Ho  Ho3  1  0.000000  0.677425  0.585298  1
  Sc  Sc4  1  0.000000  0.445490  0.129376  1
  Sc  Sc5  1  0.000000  0.554510  0.870624  1
  Sc  Sc6  1  0.000000  0.942468  0.371958  1
  Sc  Sc7  1  0.000000  0.057532  0.628042  1
  Cr  Cr8  1  0.000000  0.640865  0.317944  1
  Cr  Cr9  1  0.000000  0.359135  0.682056  1
  B  B10  1  0.500000  0.054490  0.067158  1
  B  B11  1  0.500000  0.945510  0.932842  1
  B  B12  1  0.500000  0.554350  0.432526  1
  B  B13  1  0.500000  0.445650  0.567474  1
  B  B14  1  0.500000  0.253496  0.081548  1
  B  B15  1  0.500000  0.746504  0.918452  1
  B  B16  1  0.500000  0.752078  0.418343  1
  B  B17  1  0.500000  0.247922  0.581657  1
  B  B18  1  0.500000  0.294710  0.235267  1
  B  B19  1  0.500000  0.705290  0.764733  1
  B  B20  1  0.500000  0.794171  0.265299  1
  B  B21  1  0.500000  0.205829  0.734701  1
  B  B22  1  0.500000  0.129082  0.316826  1
  B  B23  1  0.500000  0.870918  0.683174  1
  B  B24  1  0.500000  0.629201  0.183888  1
  B  B25  1  0.500000  0.370799  0.816112  1
  B  B26  1  0.500000  0.481718  0.286643  1
  B  B27  1  0.500000  0.518282  0.713357  1
  B  B28  1  0.500000  0.981070  0.214020  1
  B  B29  1  0.500000  0.018930  0.785980  1
  B  B30  1  0.500000  0.097863  0.473203  1
  B  B31  1  0.500000  0.902137  0.526797  1
  B  B32  1  0.500000  0.597815  0.026668  1
  B  B33  1  0.500000  0.402185  0.973332  1
  Ru  Ru34  1  0.000000  0.140526  0.181080  1
  Ru  Ru35  1  0.000000  0.859474  0.818920  1
