# generated using pymatgen
data_CeErGaRu2
_symmetry_space_group_name_H-M   'P 1'
_cell_length_a   5.56592981
_cell_length_b   5.56592850
_cell_length_c   7.19927600
_cell_angle_alpha   85.84473901
_cell_angle_beta   94.15526001
_cell_angle_gamma   116.18750041
_symmetry_Int_Tables_number   1
_chemical_formula_structural   CeErGaRu2
_chemical_formula_sum   'Ce2 Er2 Ga2 Ru4'
_cell_volume   199.40703229
_cell_formula_units_Z   2
loop_
 _symmetry_equiv_pos_site_id
 _symmetry_equiv_pos_as_xyz
  1  'x, y, z'
loop_
 _atom_site_type_symbol
 _atom_site_label
 _atom_site_symmetry_multiplicity
 _atom_site_fract_x
 _atom_site_fract_y
 _atom_site_fract_z
 _atom_site_occupancy
  Ce  Ce0  1  0.170382  0.829618  0.600101  1
  Ce  Ce1  1  0.829618  0.170382  0.399899  1
  Er  Er2  1  0.344872  0.655128  0.089102  1
  Er  Er3  1  0.655128  0.344872  0.910898  1
  Ga  Ga4  1  0.000000  0.000000  0.000000  1
  Ga  Ga5  1  0.500000  0.500000  0.500000  1
  Ru  Ru6  1  0.861097  0.639452  0.263117  1
  Ru  Ru7  1  0.639452  0.861097  0.736883  1
  Ru  Ru8  1  0.138903  0.360548  0.736883  1
  Ru  Ru9  1  0.360548  0.138903  0.263117  1
