# generated using pymatgen
data_Dy2YMg3Ag2Ru
_symmetry_space_group_name_H-M   'P 1'
_cell_length_a   7.76140018
_cell_length_b   7.74655361
_cell_length_c   3.96168700
_cell_angle_alpha   90.00000000
_cell_angle_beta   90.00000000
_cell_angle_gamma   120.16722869
_symmetry_Int_Tables_number   1
_chemical_formula_structural   Dy2YMg3Ag2Ru
_chemical_formula_sum   'Dy2 Y1 Mg3 Ag2 Ru1'
_cell_volume   205.93259720
_cell_formula_units_Z   1
loop_
 _symmetry_equiv_pos_site_id
 _symmetry_equiv_pos_as_xyz
  1  'x, y, z'
loop_
 _atom_site_type_symbol
 _atom_site_label
 _atom_site_symmetry_multiplicity
 _atom_site_fract_x
 _atom_site_fract_y
 _atom_site_fract_z
 _atom_site_occupancy
  Dy  Dy0  1  0.604063  0.037228  0.500000  1
  Dy  Dy1  1  0.962607  0.567028  0.500000  1
  Y  Y2  1  0.431752  0.396207  0.500000  1
  Mg  Mg3  1  0.743826  0.745046  0.000000  1
  Mg  Mg4  1  0.254852  0.998846  0.000000  1
  Mg  Mg5  1  0.001147  0.256094  0.000000  1
  Ag  Ag6  1  0.333174  0.667141  0.000000  1
  Ag  Ag7  1  0.999626  0.999609  0.500000  1
  Ru  Ru8  1  0.668952  0.332802  0.000000  1
