# generated using pymatgen
data_Tm3Th(Ni2Hg)2
_symmetry_space_group_name_H-M   'P 1'
_cell_length_a   7.35909588
_cell_length_b   7.35909588
_cell_length_c   3.61056400
_cell_angle_alpha   90.00000000
_cell_angle_beta   90.00000000
_cell_angle_gamma   88.62876377
_symmetry_Int_Tables_number   1
_chemical_formula_structural   Tm3Th(Ni2Hg)2
_chemical_formula_sum   'Tm3 Th1 Ni4 Hg2'
_cell_volume   195.47876326
_cell_formula_units_Z   1
loop_
 _symmetry_equiv_pos_site_id
 _symmetry_equiv_pos_as_xyz
  1  'x, y, z'
loop_
 _atom_site_type_symbol
 _atom_site_label
 _atom_site_symmetry_multiplicity
 _atom_site_fract_x
 _atom_site_fract_y
 _atom_site_fract_z
 _atom_site_occupancy
  Tm  Tm0  1  0.824455  0.327850  0.499999  1
  Tm  Tm1  1  0.172149  0.675545  0.499999  1
  Tm  Tm2  1  0.676725  0.823275  0.499999  1
  Th  Th3  1  0.325051  0.174948  0.499999  1
  Ni  Ni4  1  0.619784  0.120585  0.000000  1
  Ni  Ni5  1  0.123592  0.376409  0.000000  1
  Ni  Ni6  1  0.883233  0.616767  0.000000  1
  Ni  Ni7  1  0.379416  0.880216  0.000000  1
  Hg  Hg8  1  0.989328  0.993731  0.000000  1
  Hg  Hg9  1  0.506269  0.510672  0.000000  1
