# generated using pymatgen
data_Ca4TbPr15Sn16
_symmetry_space_group_name_H-M   'P 1'
_cell_length_a   8.12266659
_cell_length_b   8.51403772
_cell_length_c   16.21406583
_cell_angle_alpha   90.14659418
_cell_angle_beta   89.83679204
_cell_angle_gamma   90.04830554
_symmetry_Int_Tables_number   1
_chemical_formula_structural   Ca4TbPr15Sn16
_chemical_formula_sum   'Ca4 Tb1 Pr15 Sn16'
_cell_volume   1121.30250889
_cell_formula_units_Z   1
loop_
 _symmetry_equiv_pos_site_id
 _symmetry_equiv_pos_as_xyz
  1  'x, y, z'
loop_
 _atom_site_type_symbol
 _atom_site_label
 _atom_site_symmetry_multiplicity
 _atom_site_fract_x
 _atom_site_fract_y
 _atom_site_fract_z
 _atom_site_occupancy
  Ca  Ca0  1  0.169313  0.494302  0.749947  1
  Ca  Ca1  1  0.670049  0.005538  0.749992  1
  Ca  Ca2  1  0.830930  0.504905  0.250254  1
  Ca  Ca3  1  0.331012  0.993384  0.249497  1
  Tb  Tb4  1  0.336299  0.828916  0.874109  1
  Pr  Pr5  1  0.840314  0.671305  0.625637  1
  Pr  Pr6  1  0.658018  0.170975  0.375488  1
  Pr  Pr7  1  0.162202  0.327481  0.122554  1
  Pr  Pr8  1  0.662973  0.171080  0.123322  1
  Pr  Pr9  1  0.158988  0.328221  0.375529  1
  Pr  Pr10  1  0.342215  0.829295  0.625469  1
  Pr  Pr11  1  0.839164  0.673372  0.876211  1
  Pr  Pr12  1  0.494878  0.319456  0.904024  1
  Pr  Pr13  1  0.996585  0.182354  0.597605  1
  Pr  Pr14  1  0.504978  0.683556  0.404140  1
  Pr  Pr15  1  0.006020  0.814919  0.095759  1
  Pr  Pr16  1  0.504118  0.681172  0.094697  1
  Pr  Pr17  1  0.004398  0.818205  0.403987  1
  Pr  Pr18  1  0.495475  0.316918  0.597419  1
  Pr  Pr19  1  0.994031  0.183753  0.903534  1
  Sn  Sn20  1  0.322862  0.034151  0.034121  1
  Sn  Sn21  1  0.819563  0.462208  0.463661  1
  Sn  Sn22  1  0.684342  0.961292  0.536763  1
  Sn  Sn23  1  0.182008  0.541578  0.961018  1
  Sn  Sn24  1  0.667080  0.962101  0.960234  1
  Sn  Sn25  1  0.180592  0.538633  0.537219  1
  Sn  Sn26  1  0.317683  0.039065  0.464326  1
  Sn  Sn27  1  0.822954  0.462653  0.036803  1
  Sn  Sn28  1  0.534511  0.607386  0.752412  1
  Sn  Sn29  1  0.039191  0.896162  0.752742  1
  Sn  Sn30  1  0.463031  0.396195  0.249656  1
  Sn  Sn31  1  0.963466  0.102040  0.249418  1
  Sn  Sn32  1  0.299862  0.138897  0.752422  1
  Sn  Sn33  1  0.796973  0.360420  0.751596  1
  Sn  Sn34  1  0.702022  0.858267  0.249266  1
  Sn  Sn35  1  0.201902  0.639849  0.249170  1
