# generated using pymatgen
data_Sc9Re3PW
_symmetry_space_group_name_H-M   'P 1'
_cell_length_a   8.67761600
_cell_length_b   8.67761609
_cell_length_c   8.57896800
_cell_angle_alpha   90.00000000
_cell_angle_beta   90.00000000
_cell_angle_gamma   119.99999967
_symmetry_Int_Tables_number   1
_chemical_formula_structural   Sc9Re3PW
_chemical_formula_sum   'Sc18 Re6 P2 W2'
_cell_volume   559.45677972
_cell_formula_units_Z   2
loop_
 _symmetry_equiv_pos_site_id
 _symmetry_equiv_pos_as_xyz
  1  'x, y, z'
loop_
 _atom_site_type_symbol
 _atom_site_label
 _atom_site_symmetry_multiplicity
 _atom_site_fract_x
 _atom_site_fract_y
 _atom_site_fract_z
 _atom_site_occupancy
  Sc  Sc0  1  0.197830  0.802170  0.450172  1
  Sc  Sc1  1  0.197830  0.395658  0.450172  1
  Sc  Sc2  1  0.604342  0.802170  0.450172  1
  Sc  Sc3  1  0.802170  0.197830  0.549828  1
  Sc  Sc4  1  0.802170  0.604342  0.549828  1
  Sc  Sc5  1  0.395658  0.197830  0.549828  1
  Sc  Sc6  1  0.802170  0.197830  0.950172  1
  Sc  Sc7  1  0.802170  0.604342  0.950172  1
  Sc  Sc8  1  0.395658  0.197830  0.950172  1
  Sc  Sc9  1  0.197830  0.802170  0.049828  1
  Sc  Sc10  1  0.197830  0.395658  0.049828  1
  Sc  Sc11  1  0.604342  0.802170  0.049828  1
  Sc  Sc12  1  0.538140  0.461860  0.250000  1
  Sc  Sc13  1  0.538140  0.076279  0.250000  1
  Sc  Sc14  1  0.923721  0.461860  0.250000  1
  Sc  Sc15  1  0.461860  0.538140  0.750000  1
  Sc  Sc16  1  0.461860  0.923721  0.750000  1
  Sc  Sc17  1  0.076279  0.538140  0.750000  1
  Re  Re18  1  0.891536  0.108464  0.250000  1
  Re  Re19  1  0.891536  0.783071  0.250000  1
  Re  Re20  1  0.216929  0.108464  0.250000  1
  Re  Re21  1  0.108464  0.891536  0.750000  1
  Re  Re22  1  0.108464  0.216929  0.750000  1
  Re  Re23  1  0.783071  0.891536  0.750000  1
  P  P24  1  0.333333  0.666667  0.250000  1
  P  P25  1  0.666667  0.333333  0.750000  1
  W  W26  1  0.000000  0.000000  0.500000  1
  W  W27  1  0.000000  0.000000  0.000000  1
