# generated using pymatgen
data_Tb6Er10Cd4Pd3Pt
_symmetry_space_group_name_H-M   'P 1'
_cell_length_a   9.65840005
_cell_length_b   9.64809930
_cell_length_c   9.64810100
_cell_angle_alpha   59.99999759
_cell_angle_beta   60.03527109
_cell_angle_gamma   60.03527284
_symmetry_Int_Tables_number   1
_chemical_formula_structural   Tb6Er10Cd4Pd3Pt
_chemical_formula_sum   'Tb6 Er10 Cd4 Pd3 Pt1'
_cell_volume   636.07030636
_cell_formula_units_Z   1
loop_
 _symmetry_equiv_pos_site_id
 _symmetry_equiv_pos_as_xyz
  1  'x, y, z'
loop_
 _atom_site_type_symbol
 _atom_site_label
 _atom_site_symmetry_multiplicity
 _atom_site_fract_x
 _atom_site_fract_y
 _atom_site_fract_z
 _atom_site_occupancy
  Tb  Tb0  1  0.934189  0.565600  0.565600  1
  Tb  Tb1  1  0.565248  0.935214  0.935214  1
  Tb  Tb2  1  0.565248  0.935214  0.564324  1
  Tb  Tb3  1  0.934189  0.565600  0.934611  1
  Tb  Tb4  1  0.565248  0.564324  0.935214  1
  Tb  Tb5  1  0.934189  0.934611  0.565600  1
  Er  Er6  1  0.355182  0.352280  0.352280  1
  Er  Er7  1  0.355182  0.352280  0.940258  1
  Er  Er8  1  0.355182  0.940258  0.352280  1
  Er  Er9  1  0.938541  0.353820  0.353820  1
  Er  Er10  1  0.811008  0.187653  0.187653  1
  Er  Er11  1  0.187660  0.812495  0.812495  1
  Er  Er12  1  0.187660  0.812495  0.187349  1
  Er  Er13  1  0.811008  0.187653  0.813686  1
  Er  Er14  1  0.187660  0.187349  0.812495  1
  Er  Er15  1  0.811008  0.813686  0.187653  1
  Cd  Cd16  1  0.582072  0.581433  0.581433  1
  Cd  Cd17  1  0.582072  0.581433  0.255061  1
  Cd  Cd18  1  0.582072  0.255061  0.581433  1
  Cd  Cd19  1  0.256061  0.581313  0.581313  1
  Pd  Pd20  1  0.143731  0.144711  0.144711  1
  Pd  Pd21  1  0.143731  0.144711  0.566847  1
  Pd  Pd22  1  0.143731  0.566847  0.144711  1
  Pt  Pt23  1  0.568126  0.143958  0.143958  1
