# generated using pymatgen
data_Sc2UMn3
_symmetry_space_group_name_H-M   'P 1'
_cell_length_a   5.29699000
_cell_length_b   5.29699058
_cell_length_c   7.74501400
_cell_angle_alpha   90.00000000
_cell_angle_beta   90.00000000
_cell_angle_gamma   120.00000885
_symmetry_Int_Tables_number   1
_chemical_formula_structural   Sc2UMn3
_chemical_formula_sum   'Sc4 U2 Mn6'
_cell_volume   188.19633174
_cell_formula_units_Z   2
loop_
 _symmetry_equiv_pos_site_id
 _symmetry_equiv_pos_as_xyz
  1  'x, y, z'
loop_
 _atom_site_type_symbol
 _atom_site_label
 _atom_site_symmetry_multiplicity
 _atom_site_fract_x
 _atom_site_fract_y
 _atom_site_fract_z
 _atom_site_occupancy
  Sc  Sc0  1  0.333334  0.666667  0.060850  1
  Sc  Sc1  1  0.333334  0.666667  0.439150  1
  Sc  Sc2  1  0.666667  0.333332  0.560850  1
  Sc  Sc3  1  0.666667  0.333332  0.939150  1
  U  U4  1  0.000000  0.000000  0.000000  1
  U  U5  1  0.000000  0.000000  0.500000  1
  Mn  Mn6  1  0.331531  0.165765  0.250000  1
  Mn  Mn7  1  0.834235  0.165765  0.250000  1
  Mn  Mn8  1  0.834235  0.668469  0.250000  1
  Mn  Mn9  1  0.165765  0.331530  0.750000  1
  Mn  Mn10  1  0.165766  0.834234  0.750000  1
  Mn  Mn11  1  0.668469  0.834234  0.750000  1
