# generated using pymatgen
data_Pr2Th(InPt)3
_symmetry_space_group_name_H-M   'P 1'
_cell_length_a   7.81235800
_cell_length_b   7.76675841
_cell_length_c   4.07951900
_cell_angle_alpha   90.00000000
_cell_angle_beta   90.00000000
_cell_angle_gamma   120.19440594
_symmetry_Int_Tables_number   1
_chemical_formula_structural   Pr2Th(InPt)3
_chemical_formula_sum   'Pr2 Th1 In3 Pt3'
_cell_volume   213.94760067
_cell_formula_units_Z   1
loop_
 _symmetry_equiv_pos_site_id
 _symmetry_equiv_pos_as_xyz
  1  'x, y, z'
loop_
 _atom_site_type_symbol
 _atom_site_label
 _atom_site_symmetry_multiplicity
 _atom_site_fract_x
 _atom_site_fract_y
 _atom_site_fract_z
 _atom_site_occupancy
  Pr  Pr0  1  0.001519  0.592084  0.000000  1
  Pr  Pr1  1  0.409435  0.407916  0.000000  1
  Th  Th2  1  0.589064  0.000000  0.000000  1
  In  In3  1  0.242817  0.000000  0.500000  1
  In  In4  1  0.008098  0.259731  0.500000  1
  In  In5  1  0.748366  0.740269  0.500000  1
  Pt  Pt6  1  0.349845  0.686090  0.500000  1
  Pt  Pt7  1  0.663757  0.313910  0.500000  1
  Pt  Pt8  1  0.987100  0.000000  0.000000  1
