# generated using pymatgen
data_Y2MnAl3
_symmetry_space_group_name_H-M   'P 1'
_cell_length_a   5.46444646
_cell_length_b   5.46444609
_cell_length_c   5.46444589
_cell_angle_alpha   61.52463408
_cell_angle_beta   61.52464062
_cell_angle_gamma   61.52463520
_symmetry_Int_Tables_number   1
_chemical_formula_structural   Y2MnAl3
_chemical_formula_sum   'Y2 Mn1 Al3'
_cell_volume   119.32615807
_cell_formula_units_Z   1
loop_
 _symmetry_equiv_pos_site_id
 _symmetry_equiv_pos_as_xyz
  1  'x, y, z'
loop_
 _atom_site_type_symbol
 _atom_site_label
 _atom_site_symmetry_multiplicity
 _atom_site_fract_x
 _atom_site_fract_y
 _atom_site_fract_z
 _atom_site_occupancy
  Y  Y0  1  0.626736  0.626736  0.626736  1
  Y  Y1  1  0.373264  0.373264  0.373264  1
  Mn  Mn2  1  0.000000  0.000000  0.000000  1
  Al  Al3  1  0.000000  0.500000  0.000000  1
  Al  Al4  1  0.500000  0.000000  0.000000  1
  Al  Al5  1  0.000000  0.000000  0.500000  1
