# generated using pymatgen
data_CaEu2(CdPd)3
_symmetry_space_group_name_H-M   'P 1'
_cell_length_a   7.67589400
_cell_length_b   7.68853173
_cell_length_c   4.19956000
_cell_angle_alpha   90.00000000
_cell_angle_beta   90.00000000
_cell_angle_gamma   119.94564133
_symmetry_Int_Tables_number   1
_chemical_formula_structural   CaEu2(CdPd)3
_chemical_formula_sum   'Ca1 Eu2 Cd3 Pd3'
_cell_volume   214.75556570
_cell_formula_units_Z   1
loop_
 _symmetry_equiv_pos_site_id
 _symmetry_equiv_pos_as_xyz
  1  'x, y, z'
loop_
 _atom_site_type_symbol
 _atom_site_label
 _atom_site_symmetry_multiplicity
 _atom_site_fract_x
 _atom_site_fract_y
 _atom_site_fract_z
 _atom_site_occupancy
  Ca  Ca0  1  0.593078  0.000000  0.500000  1
  Eu  Eu1  1  0.407330  0.407608  0.500000  1
  Eu  Eu2  1  0.999723  0.592392  0.500000  1
  Cd  Cd3  1  0.748508  0.750127  0.000000  1
  Cd  Cd4  1  0.252797  0.000000  0.000000  1
  Cd  Cd5  1  0.998381  0.249873  0.000000  1
  Pd  Pd6  1  0.666132  0.330969  0.000000  1
  Pd  Pd7  1  0.998888  0.000000  0.500000  1
  Pd  Pd8  1  0.335162  0.669031  0.000000  1
