# generated using pymatgen
data_Sr4SnPd4Pb
_symmetry_space_group_name_H-M   'P 1'
_cell_length_a   6.14370947
_cell_length_b   6.14370985
_cell_length_c   8.46398127
_cell_angle_alpha   78.24335252
_cell_angle_beta   78.24335110
_cell_angle_gamma   59.35663208
_symmetry_Int_Tables_number   1
_chemical_formula_structural   Sr4SnPd4Pb
_chemical_formula_sum   'Sr4 Sn1 Pd4 Pb1'
_cell_volume   267.19633266
_cell_formula_units_Z   1
loop_
 _symmetry_equiv_pos_site_id
 _symmetry_equiv_pos_as_xyz
  1  'x, y, z'
loop_
 _atom_site_type_symbol
 _atom_site_label
 _atom_site_symmetry_multiplicity
 _atom_site_fract_x
 _atom_site_fract_y
 _atom_site_fract_z
 _atom_site_occupancy
  Sr  Sr0  1  0.505703  0.790891  0.350601  1
  Sr  Sr1  1  0.209109  0.494297  0.149399  1
  Sr  Sr2  1  0.497561  0.205842  0.646364  1
  Sr  Sr3  1  0.794158  0.502439  0.853636  1
  Sn  Sn4  1  0.862998  0.137002  0.250000  1
  Pd  Pd5  1  0.726594  0.007299  0.001476  1
  Pd  Pd6  1  0.992701  0.273406  0.498524  1
  Pd  Pd7  1  0.271287  0.004568  0.011624  1
  Pd  Pd8  1  0.995432  0.728713  0.488376  1
  Pb  Pb9  1  0.144458  0.855542  0.750000  1
