# generated using pymatgen
data_Ti10GaSn5Se
_symmetry_space_group_name_H-M   'P 1'
_cell_length_a   8.12027313
_cell_length_b   8.12027243
_cell_length_c   5.52421328
_cell_angle_alpha   90.05160805
_cell_angle_beta   90.05160789
_cell_angle_gamma   120.31305388
_symmetry_Int_Tables_number   1
_chemical_formula_structural   Ti10GaSn5Se
_chemical_formula_sum   'Ti10 Ga1 Sn5 Se1'
_cell_volume   314.45820706
_cell_formula_units_Z   1
loop_
 _symmetry_equiv_pos_site_id
 _symmetry_equiv_pos_as_xyz
  1  'x, y, z'
loop_
 _atom_site_type_symbol
 _atom_site_label
 _atom_site_symmetry_multiplicity
 _atom_site_fract_x
 _atom_site_fract_y
 _atom_site_fract_z
 _atom_site_occupancy
  Ti  Ti0  1  0.660830  0.335619  0.496075  1
  Ti  Ti1  1  0.335619  0.660830  0.496075  1
  Ti  Ti2  1  0.334603  0.659456  0.003886  1
  Ti  Ti3  1  0.659456  0.334603  0.003886  1
  Ti  Ti4  1  0.734949  0.734949  0.240298  1
  Ti  Ti5  1  0.260882  0.013287  0.233343  1
  Ti  Ti6  1  0.013287  0.260882  0.233343  1
  Ti  Ti7  1  0.254672  0.254672  0.773865  1
  Ti  Ti8  1  0.745058  0.998746  0.763688  1
  Ti  Ti9  1  0.998746  0.745058  0.763688  1
  Ga  Ga10  1  0.394839  0.394839  0.248511  1
  Sn  Sn11  1  0.610360  0.002319  0.251045  1
  Sn  Sn12  1  0.002319  0.610360  0.251045  1
  Sn  Sn13  1  0.604777  0.604777  0.748542  1
  Sn  Sn14  1  0.392343  0.996786  0.747423  1
  Sn  Sn15  1  0.996786  0.392343  0.747423  1
  Se  Se16  1  0.000476  0.000476  0.497862  1
