# generated using pymatgen
data_TiCdBiSbO7
_symmetry_space_group_name_H-M   'P 1'
_cell_length_a   7.37454999
_cell_length_b   7.37455054
_cell_length_c   7.37455040
_cell_angle_alpha   121.00509014
_cell_angle_beta   118.89396075
_cell_angle_gamma   90.09716330
_symmetry_Int_Tables_number   1
_chemical_formula_structural   TiCdBiSbO7
_chemical_formula_sum   'Ti2 Cd2 Bi2 Sb2 O14'
_cell_volume   283.68619655
_cell_formula_units_Z   2
loop_
 _symmetry_equiv_pos_site_id
 _symmetry_equiv_pos_as_xyz
  1  'x, y, z'
loop_
 _atom_site_type_symbol
 _atom_site_label
 _atom_site_symmetry_multiplicity
 _atom_site_fract_x
 _atom_site_fract_y
 _atom_site_fract_z
 _atom_site_occupancy
  Ti  Ti0  1  0.500000  0.500000  0.500000  1
  Ti  Ti1  1  0.500000  0.000000  0.000000  1
  Cd  Cd2  1  0.000000  0.000000  0.500000  1
  Cd  Cd3  1  0.000000  0.500000  0.000000  1
  Bi  Bi4  1  0.000000  0.000000  0.000000  1
  Bi  Bi5  1  0.500000  0.000000  0.500000  1
  Sb  Sb6  1  0.500000  0.500000  0.000000  1
  Sb  Sb7  1  0.000000  0.500000  0.500000  1
  O  O8  1  0.118974  0.868974  0.250000  1
  O  O9  1  0.881026  0.131026  0.750000  1
  O  O10  1  0.431250  0.181250  0.250000  1
  O  O11  1  0.827239  0.577239  0.250000  1
  O  O12  1  0.433966  0.578863  0.259111  1
  O  O13  1  0.819752  0.174854  0.240889  1
  O  O14  1  0.433966  0.174854  0.855103  1
  O  O15  1  0.819752  0.578863  0.644897  1
  O  O16  1  0.568750  0.818750  0.750000  1
  O  O17  1  0.172761  0.422761  0.750000  1
  O  O18  1  0.566034  0.421137  0.740889  1
  O  O19  1  0.180248  0.825146  0.759111  1
  O  O20  1  0.566034  0.825146  0.144897  1
  O  O21  1  0.180248  0.421137  0.355103  1
