# generated using pymatgen
data_CeY5MoO12
_symmetry_space_group_name_H-M   'P 1'
_cell_length_a   6.54758267
_cell_length_b   6.52188853
_cell_length_c   6.49284701
_cell_angle_alpha   98.65525200
_cell_angle_beta   98.99634323
_cell_angle_gamma   98.92549074
_symmetry_Int_Tables_number   1
_chemical_formula_structural   CeY5MoO12
_chemical_formula_sum   'Ce1 Y5 Mo1 O12'
_cell_volume   266.16056182
_cell_formula_units_Z   1
loop_
 _symmetry_equiv_pos_site_id
 _symmetry_equiv_pos_as_xyz
  1  'x, y, z'
loop_
 _atom_site_type_symbol
 _atom_site_label
 _atom_site_symmetry_multiplicity
 _atom_site_fract_x
 _atom_site_fract_y
 _atom_site_fract_z
 _atom_site_occupancy
  Ce  Ce0  1  0.605055  0.306808  0.139868  1
  Y  Y1  1  0.142220  0.611056  0.309412  1
  Y  Y2  1  0.691337  0.857759  0.393656  1
  Y  Y3  1  0.302067  0.138766  0.609026  1
  Y  Y4  1  0.866050  0.391573  0.695232  1
  Y  Y5  1  0.387958  0.695729  0.857338  1
  Mo  Mo6  1  0.996576  0.997787  0.000913  1
  O  O7  1  0.696914  0.928232  0.046063  1
  O  O8  1  0.958171  0.301478  0.070227  1
  O  O9  1  0.433434  0.585530  0.176607  1
  O  O10  1  0.072495  0.957580  0.300713  1
  O  O11  1  0.822497  0.565292  0.407749  1
  O  O12  1  0.589474  0.182327  0.429810  1
  O  O13  1  0.412520  0.825132  0.564583  1
  O  O14  1  0.179532  0.434763  0.591162  1
  O  O15  1  0.927684  0.042889  0.698690  1
  O  O16  1  0.569863  0.408272  0.827570  1
  O  O17  1  0.042883  0.699321  0.927412  1
  O  O18  1  0.303270  0.069703  0.953970  1
