# generated using pymatgen
data_YHo5ReB14Ru
_symmetry_space_group_name_H-M   'P 1'
_cell_length_a   8.04424103
_cell_length_b   8.04424011
_cell_length_c   9.32100600
_cell_angle_alpha   90.00000000
_cell_angle_beta   90.00000000
_cell_angle_gamma   154.68711555
_symmetry_Int_Tables_number   1
_chemical_formula_structural   YHo5ReB14Ru
_chemical_formula_sum   'Y1 Ho5 Re1 B14 Ru1'
_cell_volume   257.88799968
_cell_formula_units_Z   1
loop_
 _symmetry_equiv_pos_site_id
 _symmetry_equiv_pos_as_xyz
  1  'x, y, z'
loop_
 _atom_site_type_symbol
 _atom_site_label
 _atom_site_symmetry_multiplicity
 _atom_site_fract_x
 _atom_site_fract_y
 _atom_site_fract_z
 _atom_site_occupancy
  Y  Y0  1  0.243883  0.756117  0.250000  1
  Ho  Ho1  1  0.894606  0.105394  0.059799  1
  Ho  Ho2  1  0.105633  0.894367  0.560833  1
  Ho  Ho3  1  0.105633  0.894367  0.939167  1
  Ho  Ho4  1  0.894606  0.105394  0.440201  1
  Ho  Ho5  1  0.756787  0.243213  0.750000  1
  Re  Re6  1  0.947294  0.052705  0.750000  1
  B  B7  1  0.456739  0.543261  0.250000  1
  B  B8  1  0.544198  0.455802  0.750000  1
  B  B9  1  0.726912  0.273088  0.034064  1
  B  B10  1  0.272482  0.727518  0.533782  1
  B  B11  1  0.272482  0.727518  0.966218  1
  B  B12  1  0.726912  0.273088  0.465936  1
  B  B13  1  0.631294  0.368706  0.348862  1
  B  B14  1  0.367651  0.632349  0.849251  1
  B  B15  1  0.367651  0.632349  0.650749  1
  B  B16  1  0.631294  0.368706  0.151138  1
  B  B17  1  0.520509  0.479491  0.403832  1
  B  B18  1  0.479655  0.520345  0.904827  1
  B  B19  1  0.479655  0.520345  0.595173  1
  B  B20  1  0.520509  0.479491  0.096168  1
  Ru  Ru21  1  0.053615  0.946385  0.250000  1
