# generated using pymatgen
data_NaYb6PaSb6
_symmetry_space_group_name_H-M   'P 1'
_cell_length_a   8.16593160
_cell_length_b   8.16293513
_cell_length_c   8.04113346
_cell_angle_alpha   108.95187315
_cell_angle_beta   108.85620009
_cell_angle_gamma   109.72396273
_symmetry_Int_Tables_number   1
_chemical_formula_structural   NaYb6PaSb6
_chemical_formula_sum   'Na1 Yb6 Pa1 Sb6'
_cell_volume   417.02467350
_cell_formula_units_Z   1
loop_
 _symmetry_equiv_pos_site_id
 _symmetry_equiv_pos_as_xyz
  1  'x, y, z'
loop_
 _atom_site_type_symbol
 _atom_site_label
 _atom_site_symmetry_multiplicity
 _atom_site_fract_x
 _atom_site_fract_y
 _atom_site_fract_z
 _atom_site_occupancy
  Na  Na0  1  0.648394  0.649961  0.650538  1
  Yb  Yb1  1  0.011592  0.366668  0.507060  1
  Yb  Yb2  1  0.355686  0.489774  0.995079  1
  Yb  Yb3  1  0.995523  0.844780  0.506711  1
  Yb  Yb4  1  0.844435  0.503620  0.995355  1
  Yb  Yb5  1  0.504195  0.994243  0.845159  1
  Yb  Yb6  1  0.133658  0.145062  0.139949  1
  Pa  Pa7  1  0.500380  0.000884  0.348079  1
  Sb  Sb8  1  0.868795  0.132667  0.740726  1
  Sb  Sb9  1  0.371368  0.236839  0.611105  1
  Sb  Sb10  1  0.146152  0.762311  0.896940  1
  Sb  Sb11  1  0.745449  0.881158  0.143801  1
  Sb  Sb12  1  0.253569  0.633044  0.366894  1
  Sb  Sb13  1  0.620804  0.358990  0.252601  1
