# generated using pymatgen
data_Tm3TaSn2Ir3
_symmetry_space_group_name_H-M   'P 1'
_cell_length_a   7.29872928
_cell_length_b   7.21271625
_cell_length_c   4.13393700
_cell_angle_alpha   90.00000000
_cell_angle_beta   90.00000000
_cell_angle_gamma   119.61093820
_symmetry_Int_Tables_number   1
_chemical_formula_structural   Tm3TaSn2Ir3
_chemical_formula_sum   'Tm3 Ta1 Sn2 Ir3'
_cell_volume   189.20381986
_cell_formula_units_Z   1
loop_
 _symmetry_equiv_pos_site_id
 _symmetry_equiv_pos_as_xyz
  1  'x, y, z'
loop_
 _atom_site_type_symbol
 _atom_site_label
 _atom_site_symmetry_multiplicity
 _atom_site_fract_x
 _atom_site_fract_y
 _atom_site_fract_z
 _atom_site_occupancy
  Tm  Tm0  1  0.000000  0.400250  0.500000  1
  Tm  Tm1  1  0.591696  0.588680  0.500000  1
  Tm  Tm2  1  0.408304  0.996983  0.500000  1
  Ta  Ta3  1  0.000000  0.748732  0.000000  1
  Sn  Sn4  1  0.258568  0.256355  0.000000  1
  Sn  Sn5  1  0.741432  0.997786  0.000000  1
  Ir  Ir6  1  0.309951  0.675377  0.000000  1
  Ir  Ir7  1  0.690049  0.365425  0.000000  1
  Ir  Ir8  1  0.000000  0.970411  0.500000  1
